ligand
 OpenBabel11021811443D
libRbt.so/2013.1/901 2013/11/27
 31 32  0  0  0  0  0  0  0  0999 V2000
    4.6595   17.3677   50.5175 C   0  0  0  0  0  0  0  0  0  0  0  0
    4.9757   16.5644   49.2594 C   0  0  0  0  0  0  0  0  0  0  0  0
    4.7406   15.1516   49.2311 C   0  0  0  0  0  0  0  0  0  0  0  0
    5.0391   14.4113   48.0621 C   0  0  0  0  0  0  0  0  0  0  0  0
    5.5624   15.0577   46.9155 C   0  0  0  0  0  0  0  0  0  0  0  0
    5.7943   16.4481   46.9235 C   0  0  0  0  0  0  0  0  0  0  0  0
    5.5060   17.2010   48.0759 C   0  0  0  0  0  0  0  0  0  0  0  0
    3.5008   17.4393   50.9257 O   0  0  0  0  0  0  0  0  0  0  0  0
   13.5612   19.1180   54.8180 C   0  0  0  0  0  0  0  0  0  0  0  0
    5.6134   21.6610   52.2004 C   0  0  0  0  0  0  0  0  0  0  0  0
    0.6805   19.2197   54.2118 P   0  0  1  0  0  0  0  0  0  0  0  0
   11.3364   18.8097   53.9877 N   0  0  0  0  0  0  0  0  0  0  0  0
    0.1905   19.7546   52.9271 O   0  0  0  0  0  0  0  0  0  0  0  0
    5.6651   18.0215   51.2084 S   0  0  0  0  0  0  0  0  0  0  0  0
    8.2703   20.0704   50.8976 C   0  0  0  0  0  0  0  0  0  0  0  0
   12.2953   19.7071   54.4003 C   0  0  0  0  0  0  0  0  0  0  0  0
    0.6920   20.2036   55.3280 O   0  5  0  0  0  0  0  0  0  0  0  0
    7.7606   20.4009   52.1100 N   0  0  0  0  0  0  0  0  0  0  0  0
   12.1229   20.9914   54.4296 N   0  0  0  0  0  0  0  0  0  0  0  0
   -0.0241   17.9598   54.5441 O   0  0  0  0  0  0  0  0  0  0  0  0
    6.2965   20.3203   52.2142 C   0  0  2  0  0  0  0  0  0  0  0  0
   10.9179   21.5430   54.0385 C   0  0  0  0  0  0  0  0  0  0  0  0
   10.7741   22.8697   54.0858 N   0  0  0  0  0  0  0  0  0  0  0  0
    5.4858   19.1095   52.3017 C   0  0  1  0  0  0  0  0  0  0  0  0
    9.8501   20.6594   53.5968 C   0  0  0  0  0  0  0  0  0  0  0  0
    8.1457   20.9587   50.0835 O   0  0  0  0  0  0  0  0  0  0  0  0
    4.4826   18.8501   53.3689 C   0  0  0  0  0  0  0  0  0  0  0  0
   10.1386   19.3098   53.5949 C   0  0  0  0  0  0  0  0  0  0  0  0
    3.2007   19.5658   53.3531 C   0  0  0  0  0  0  0  0  0  0  0  0
    8.4981   21.1998   53.1994 C   0  0  0  0  0  0  0  0  0  0  0  0
    2.1943   18.8323   54.0727 O   0  0  0  0  0  0  0  0  0  0  0  0
  1  2  1  0  0  0  0
  1  8  2  0  0  0  0
  1 14  1  0  0  0  0
  2  3  2  0  0  0  0
  2  7  1  0  0  0  0
  3  4  1  0  0  0  0
  4  5  2  0  0  0  0
  5  6  1  0  0  0  0
  6  7  2  0  0  0  0
  9 16  1  0  0  0  0
 10 21  1  0  0  0  0
 11 13  1  6  0  0  0
 11 17  1  0  0  0  0
 11 20  2  0  0  0  0
 11 31  1  0  0  0  0
 12 16  2  0  0  0  0
 12 28  1  0  0  0  0
 15 26  1  0  0  0  0
 15 18  1  0  0  0  0
 16 19  1  0  0  0  0
 18 30  1  0  0  0  0
 19 22  2  0  0  0  0
 21 18  1  6  0  0  0
 21 24  1  0  0  0  0
 22 23  1  0  0  0  0
 22 25  1  0  0  0  0
 24 14  1  6  0  0  0
 24 27  1  0  0  0  0
 25 28  2  0  0  0  0
 25 30  1  0  0  0  0
 27 29  1  0  0  0  0
 29 31  1  0  0  0  0
M  CHG  1  17  -1
M  END
>  <CHROM.1>
-62.94915324,165.84008350,-133.03046092,77.75961983,-104.58601427,-53.53272391
124.81681472,-105.51489858,148.62298319,156.31085327,-176.14349548,39.48173551
6.01959714,19.03883440,52.24530604,-2.89796968,0.12138050,0.95910798

>  <Name>
ligand

>  <RI>
0

>  <Rbt.Current_Directory>
/home/itssahil/PROJECTS/Mol_Feturizer/New_Systems/rnas/2HOO

>  <Rbt.Executable>
rbdock ($Id: //depot/dev/client3/rdock/2013.1/src/exe/rbdock.cxx#4 $)

>  <Rbt.Library>
libRbt.so (2013.1, Build901 2013/11/27)

>  <Rbt.Parameter_File>
/export/apps/rDock/src/rDock_2013.1_src/data/scripts/dock_solv.prm

>  <Rbt.Receptor>
prm/pocket_docking_2.prm

>  <SCORE>
-24.1583

>  <SCORE.INTER>
-11.4547

>  <SCORE.INTER.CONST>
1

>  <SCORE.INTER.POLAR>
0

>  <SCORE.INTER.ROT>
12

>  <SCORE.INTER.SOLV>
20.5812

>  <SCORE.INTER.VDW>
-26.0969

>  <SCORE.INTER.norm>
-0.369506

>  <SCORE.INTRA>
-12.7875

>  <SCORE.INTRA.DIHEDRAL>
-0.12906

>  <SCORE.INTRA.DIHEDRAL.0>
14.6094

>  <SCORE.INTRA.POLAR>
0

>  <SCORE.INTRA.POLAR.0>
0

>  <SCORE.INTRA.REPUL>
0

>  <SCORE.INTRA.REPUL.0>
0

>  <SCORE.INTRA.SOLV>
-0.920697

>  <SCORE.INTRA.SOLV.lig_0>
-65.6478

>  <SCORE.INTRA.VDW>
-12.2627

>  <SCORE.INTRA.VDW.0>
9.35535

>  <SCORE.INTRA.norm>
-0.412501

>  <SCORE.RESTR>
0.0839056

>  <SCORE.RESTR.CAVITY>
0.0839056

>  <SCORE.RESTR.norm>
0.00270663

>  <SCORE.SYSTEM>
0

>  <SCORE.SYSTEM.CONST>
0

>  <SCORE.SYSTEM.DIHEDRAL>
0

>  <SCORE.SYSTEM.SOLV>
0

>  <SCORE.SYSTEM.norm>
0

>  <SCORE.heavy>
31

>  <SCORE.norm>
-0.7793

>  <RMSD>
1.092

$$$$
ligand
 OpenBabel11021811443D
libRbt.so/2013.1/901 2013/11/27
 31 32  0  0  0  0  0  0  0  0999 V2000
    4.6284   17.6288   50.8693 C   0  0  0  0  0  0  0  0  0  0  0  0
    5.4725   17.0486   49.7385 C   0  0  0  0  0  0  0  0  0  0  0  0
    5.9762   15.7107   49.8316 C   0  0  0  0  0  0  0  0  0  0  0  0
    6.7617   15.1792   48.7807 C   0  0  0  0  0  0  0  0  0  0  0  0
    7.0484   15.9576   47.6327 C   0  0  0  0  0  0  0  0  0  0  0  0
    6.5559   17.2738   47.5214 C   0  0  0  0  0  0  0  0  0  0  0  0
    5.7753   17.8206   48.5556 C   0  0  0  0  0  0  0  0  0  0  0  0
    3.4451   17.3091   50.9789 O   0  0  0  0  0  0  0  0  0  0  0  0
   13.4571   19.4193   54.2336 C   0  0  0  0  0  0  0  0  0  0  0  0
    5.2699   22.1121   53.3409 C   0  0  0  0  0  0  0  0  0  0  0  0
    0.5679   19.6006   53.8184 P   0  0  1  0  0  0  0  0  0  0  0  0
   11.1701   18.7129   54.1663 N   0  0  0  0  0  0  0  0  0  0  0  0
    0.1317   18.2029   54.0001 O   0  0  0  0  0  0  0  0  0  0  0  0
    5.1796   18.5161   51.7774 S   0  0  0  0  0  0  0  0  0  0  0  0
    7.8928   21.0737   51.5467 C   0  0  0  0  0  0  0  0  0  0  0  0
   12.0451   19.7756   54.1747 C   0  0  0  0  0  0  0  0  0  0  0  0
   -0.4373   20.4829   53.1663 O   0  5  0  0  0  0  0  0  0  0  0  0
    7.2330   20.7280   52.6799 N   0  0  0  0  0  0  0  0  0  0  0  0
   11.6785   21.0181   54.1340 N   0  0  0  0  0  0  0  0  0  0  0  0
    1.0899   20.1440   55.0937 O   0  0  0  0  0  0  0  0  0  0  0  0
    5.7727   20.8878   52.6249 C   0  0  2  0  0  0  0  0  0  0  0  0
   10.3378   21.3490   54.0851 C   0  0  0  0  0  0  0  0  0  0  0  0
    9.9965   22.6394   54.0486 N   0  0  0  0  0  0  0  0  0  0  0  0
    4.8170   20.0163   51.9482 C   0  0  1  0  0  0  0  0  0  0  0  0
    9.3495   20.2818   54.0816 C   0  0  0  0  0  0  0  0  0  0  0  0
    7.6604   20.3215   50.6260 O   0  0  0  0  0  0  0  0  0  0  0  0
    3.5138   20.4738   51.3957 C   0  0  0  0  0  0  0  0  0  0  0  0
    9.8442   18.9939   54.1183 C   0  0  0  0  0  0  0  0  0  0  0  0
    2.4190   20.8260   52.3084 C   0  0  0  0  0  0  0  0  0  0  0  0
    7.8704   20.5818   54.0732 C   0  0  0  0  0  0  0  0  0  0  0  0
    1.7737   19.6450   52.8160 O   0  0  0  0  0  0  0  0  0  0  0  0
  1  2  1  0  0  0  0
  1  8  2  0  0  0  0
  1 14  1  0  0  0  0
  2  3  2  0  0  0  0
  2  7  1  0  0  0  0
  3  4  1  0  0  0  0
  4  5  2  0  0  0  0
  5  6  1  0  0  0  0
  6  7  2  0  0  0  0
  9 16  1  0  0  0  0
 10 21  1  0  0  0  0
 11 13  1  1  0  0  0
 11 17  1  0  0  0  0
 11 20  2  0  0  0  0
 11 31  1  0  0  0  0
 12 16  2  0  0  0  0
 12 28  1  0  0  0  0
 15 26  1  0  0  0  0
 15 18  1  0  0  0  0
 16 19  1  0  0  0  0
 18 30  1  0  0  0  0
 19 22  2  0  0  0  0
 21 18  1  6  0  0  0
 21 24  1  0  0  0  0
 22 23  1  0  0  0  0
 22 25  1  0  0  0  0
 24 14  1  6  0  0  0
 24 27  1  0  0  0  0
 25 28  2  0  0  0  0
 25 30  1  0  0  0  0
 27 29  1  0  0  0  0
 29 31  1  0  0  0  0
M  CHG  1  17  -1
M  END
>  <CHROM.1>
-77.62287516,113.34077133,-160.20932474,-67.93275425,-102.67827581,-24.38164147
-153.04200129,108.59186330,89.27976589,-78.07324338,179.76659283,175.36095361
5.86386838,19.39349989,52.32835706,-3.03558872,0.01917562,0.88652779

>  <Name>
ligand

>  <RI>
0

>  <Rbt.Current_Directory>
/home/itssahil/PROJECTS/Mol_Feturizer/New_Systems/rnas/2HOO

>  <Rbt.Executable>
rbdock ($Id: //depot/dev/client3/rdock/2013.1/src/exe/rbdock.cxx#4 $)

>  <Rbt.Library>
libRbt.so (2013.1, Build901 2013/11/27)

>  <Rbt.Parameter_File>
/export/apps/rDock/src/rDock_2013.1_src/data/scripts/dock_solv.prm

>  <Rbt.Receptor>
prm/pocket_docking_2.prm

>  <SCORE>
-23.336

>  <SCORE.INTER>
-12.976

>  <SCORE.INTER.CONST>
1

>  <SCORE.INTER.POLAR>
0

>  <SCORE.INTER.ROT>
12

>  <SCORE.INTER.SOLV>
16.6091

>  <SCORE.INTER.VDW>
-25.787

>  <SCORE.INTER.norm>
-0.418579

>  <SCORE.INTRA>
-10.377

>  <SCORE.INTRA.DIHEDRAL>
2.61745

>  <SCORE.INTRA.DIHEDRAL.0>
14.6094

>  <SCORE.INTRA.POLAR>
0

>  <SCORE.INTRA.POLAR.0>
0

>  <SCORE.INTRA.REPUL>
0

>  <SCORE.INTRA.REPUL.0>
0

>  <SCORE.INTRA.SOLV>
1.81501

>  <SCORE.INTRA.SOLV.lig_0>
-65.6478

>  <SCORE.INTRA.VDW>
-12.5933

>  <SCORE.INTRA.VDW.0>
9.35535

>  <SCORE.INTRA.norm>
-0.334743

>  <SCORE.RESTR>
0.0169538

>  <SCORE.RESTR.CAVITY>
0.0169538

>  <SCORE.RESTR.norm>
0.000546898

>  <SCORE.SYSTEM>
0

>  <SCORE.SYSTEM.CONST>
0

>  <SCORE.SYSTEM.DIHEDRAL>
0

>  <SCORE.SYSTEM.SOLV>
0

>  <SCORE.SYSTEM.norm>
0

>  <SCORE.heavy>
31

>  <SCORE.norm>
-0.752775

>  <RMSD>
1.156

$$$$
ligand
 OpenBabel11021811443D
libRbt.so/2013.1/901 2013/11/27
 31 32  0  0  0  0  0  0  0  0999 V2000
    6.4929   18.2644   51.7482 C   0  0  0  0  0  0  0  0  0  0  0  0
    6.3360   17.5930   50.3871 C   0  0  0  0  0  0  0  0  0  0  0  0
    6.4386   18.3687   49.1871 C   0  0  0  0  0  0  0  0  0  0  0  0
    6.2888   17.7406   47.9274 C   0  0  0  0  0  0  0  0  0  0  0  0
    6.0450   16.3479   47.8428 C   0  0  0  0  0  0  0  0  0  0  0  0
    5.9472   15.5679   49.0130 C   0  0  0  0  0  0  0  0  0  0  0  0
    6.0912   16.1736   50.2741 C   0  0  0  0  0  0  0  0  0  0  0  0
    7.5653   18.1946   52.3477 O   0  0  0  0  0  0  0  0  0  0  0  0
   13.3828   19.3502   54.3309 C   0  0  0  0  0  0  0  0  0  0  0  0
    5.3995   22.7288   53.1823 C   0  0  0  0  0  0  0  0  0  0  0  0
    0.9322   19.7962   53.8420 P   0  0  1  0  0  0  0  0  0  0  0  0
   11.0046   19.1304   54.1581 N   0  0  0  0  0  0  0  0  0  0  0  0
   -0.2582   19.7831   52.9704 O   0  0  0  0  0  0  0  0  0  0  0  0
    5.4379   18.9537   52.3206 S   0  0  0  0  0  0  0  0  0  0  0  0
    7.9985   21.6039   51.3341 C   0  0  0  0  0  0  0  0  0  0  0  0
   12.0793   19.9895   54.2039 C   0  0  0  0  0  0  0  0  0  0  0  0
    1.0317   20.9814   54.7362 O   0  5  0  0  0  0  0  0  0  0  0  0
    7.4420   21.4451   52.5604 N   0  0  0  0  0  0  0  0  0  0  0  0
   11.9800   21.2804   54.1415 N   0  0  0  0  0  0  0  0  0  0  0  0
    1.0568   18.5056   54.5582 O   0  0  0  0  0  0  0  0  0  0  0  0
    5.9724   21.4713   52.5867 C   0  0  2  0  0  0  0  0  0  0  0  0
   10.7404   21.8803   54.0279 C   0  0  0  0  0  0  0  0  0  0  0  0
   10.6755   23.2128   53.9706 N   0  0  0  0  0  0  0  0  0  0  0  0
    5.0649   20.4428   52.0872 C   0  0  1  0  0  0  0  0  0  0  0  0
    9.5538   21.0403   53.9816 C   0  0  0  0  0  0  0  0  0  0  0  0
    7.8284   20.6413   50.6186 O   0  0  0  0  0  0  0  0  0  0  0  0
    3.8026   20.7264   51.3530 C   0  0  0  0  0  0  0  0  0  0  0  0
    9.7692   19.6786   54.0464 C   0  0  0  0  0  0  0  0  0  0  0  0
    2.5734   21.0158   52.1021 C   0  0  0  0  0  0  0  0  0  0  0  0
    8.1708   21.6392   53.9021 C   0  0  0  0  0  0  0  0  0  0  0  0
    2.2238   19.9154   52.9597 O   0  0  0  0  0  0  0  0  0  0  0  0
  1  2  1  0  0  0  0
  1  8  2  0  0  0  0
  1 14  1  0  0  0  0
  2  3  2  0  0  0  0
  2  7  1  0  0  0  0
  3  4  1  0  0  0  0
  4  5  2  0  0  0  0
  5  6  1  0  0  0  0
  6  7  2  0  0  0  0
  9 16  1  0  0  0  0
 10 21  1  0  0  0  0
 11 13  1  6  0  0  0
 11 17  1  0  0  0  0
 11 20  2  0  0  0  0
 11 31  1  0  0  0  0
 12 16  2  0  0  0  0
 12 28  1  0  0  0  0
 15 26  1  0  0  0  0
 15 18  1  0  0  0  0
 16 19  1  0  0  0  0
 18 30  1  0  0  0  0
 19 22  2  0  0  0  0
 21 18  1  6  0  0  0
 21 24  1  0  0  0  0
 22 23  1  0  0  0  0
 22 25  1  0  0  0  0
 24 14  1  6  0  0  0
 24 27  1  0  0  0  0
 25 28  2  0  0  0  0
 25 30  1  0  0  0  0
 27 29  1  0  0  0  0
 29 31  1  0  0  0  0
M  CHG  1  17  -1
M  END
>  <CHROM.1>
-99.68230595,-86.52494232,-67.85349998,-70.55708453,-107.23009931,-43.83690871
-141.56321593,96.32259426,109.96786152,-59.55835231,-175.45890645,62.80302936
6.23152076,19.81961821,52.48088697,-0.12233655,-0.02754685,-2.31411714

>  <Name>
ligand

>  <RI>
0

>  <Rbt.Current_Directory>
/home/itssahil/PROJECTS/Mol_Feturizer/New_Systems/rnas/2HOO

>  <Rbt.Executable>
rbdock ($Id: //depot/dev/client3/rdock/2013.1/src/exe/rbdock.cxx#4 $)

>  <Rbt.Library>
libRbt.so (2013.1, Build901 2013/11/27)

>  <Rbt.Parameter_File>
/export/apps/rDock/src/rDock_2013.1_src/data/scripts/dock_solv.prm

>  <Rbt.Receptor>
prm/pocket_docking_2.prm

>  <SCORE>
-24.41

>  <SCORE.INTER>
-13.4652

>  <SCORE.INTER.CONST>
1

>  <SCORE.INTER.POLAR>
0

>  <SCORE.INTER.ROT>
12

>  <SCORE.INTER.SOLV>
16.3336

>  <SCORE.INTER.VDW>
-26.0213

>  <SCORE.INTER.norm>
-0.43436

>  <SCORE.INTRA>
-12.2999

>  <SCORE.INTRA.DIHEDRAL>
2.8074

>  <SCORE.INTRA.DIHEDRAL.0>
14.6094

>  <SCORE.INTRA.POLAR>
0

>  <SCORE.INTRA.POLAR.0>
0

>  <SCORE.INTRA.REPUL>
0

>  <SCORE.INTRA.REPUL.0>
0

>  <SCORE.INTRA.SOLV>
1.67361

>  <SCORE.INTRA.SOLV.lig_0>
-65.6478

>  <SCORE.INTRA.VDW>
-14.5404

>  <SCORE.INTRA.VDW.0>
9.35535

>  <SCORE.INTRA.norm>
-0.396771

>  <SCORE.RESTR>
1.35505

>  <SCORE.RESTR.CAVITY>
1.35505

>  <SCORE.RESTR.norm>
0.0437114

>  <SCORE.SYSTEM>
0

>  <SCORE.SYSTEM.CONST>
0

>  <SCORE.SYSTEM.DIHEDRAL>
0

>  <SCORE.SYSTEM.SOLV>
0

>  <SCORE.SYSTEM.norm>
0

>  <SCORE.heavy>
31

>  <SCORE.norm>
-0.787419

>  <RMSD>
1.290

$$$$
ligand
 OpenBabel11021811443D
libRbt.so/2013.1/901 2013/11/27
 31 32  0  0  0  0  0  0  0  0999 V2000
    5.1846   17.6255   50.8097 C   0  0  0  0  0  0  0  0  0  0  0  0
    5.5432   16.9005   49.5159 C   0  0  0  0  0  0  0  0  0  0  0  0
    6.8664   16.3865   49.3234 C   0  0  0  0  0  0  0  0  0  0  0  0
    7.1939   15.7177   48.1195 C   0  0  0  0  0  0  0  0  0  0  0  0
    6.2209   15.5458   47.1047 C   0  0  0  0  0  0  0  0  0  0  0  0
    4.9122   16.0397   47.2796 C   0  0  0  0  0  0  0  0  0  0  0  0
    4.5676   16.7086   48.4678 C   0  0  0  0  0  0  0  0  0  0  0  0
    4.8002   16.9841   51.7871 O   0  0  0  0  0  0  0  0  0  0  0  0
   13.5941   19.6583   54.9923 C   0  0  0  0  0  0  0  0  0  0  0  0
    5.8552   22.1173   53.0142 C   0  0  0  0  0  0  0  0  0  0  0  0
    0.4606   19.3380   53.0693 P   0  0  1  0  0  0  0  0  0  0  0  0
   11.6416   19.0568   53.7432 N   0  0  0  0  0  0  0  0  0  0  0  0
    1.0202   18.7950   54.3218 O   0  0  0  0  0  0  0  0  0  0  0  0
    5.2854   19.0031   50.8976 S   0  0  0  0  0  0  0  0  0  0  0  0
    7.4715   18.8852   53.4949 C   0  0  0  0  0  0  0  0  0  0  0  0
   12.3367   20.0625   54.3762 C   0  0  0  0  0  0  0  0  0  0  0  0
    0.5765   18.4313   51.8952 O   0  5  0  0  0  0  0  0  0  0  0  0
    7.4116   20.1731   53.0745 N   0  0  0  0  0  0  0  0  0  0  0  0
   11.9348   21.2931   54.4412 N   0  0  0  0  0  0  0  0  0  0  0  0
   -0.9163   19.8347   53.2967 O   0  0  0  0  0  0  0  0  0  0  0  0
    6.0663   20.6549   52.7298 C   0  0  2  0  0  0  0  0  0  0  0  0
   10.7383   21.6682   53.8607 C   0  0  0  0  0  0  0  0  0  0  0  0
   10.3534   22.9435   53.9510 N   0  0  0  0  0  0  0  0  0  0  0  0
    4.9779   19.8799   52.1417 C   0  0  1  0  0  0  0  0  0  0  0  0
    9.9405   20.6605   53.1795 C   0  0  0  0  0  0  0  0  0  0  0  0
    7.5703   18.1011   52.5768 O   0  0  0  0  0  0  0  0  0  0  0  0
    3.5799   19.8825   52.6499 C   0  0  0  0  0  0  0  0  0  0  0  0
   10.4616   19.3827   53.1596 C   0  0  0  0  0  0  0  0  0  0  0  0
    2.5312   20.5785   51.8938 C   0  0  0  0  0  0  0  0  0  0  0  0
    8.6049   21.0007   52.5645 C   0  0  0  0  0  0  0  0  0  0  0  0
    1.2932   20.5914   52.6258 O   0  0  0  0  0  0  0  0  0  0  0  0
  1  2  1  0  0  0  0
  1  8  2  0  0  0  0
  1 14  1  0  0  0  0
  2  3  2  0  0  0  0
  2  7  1  0  0  0  0
  3  4  1  0  0  0  0
  4  5  2  0  0  0  0
  5  6  1  0  0  0  0
  6  7  2  0  0  0  0
  9 16  1  0  0  0  0
 10 21  1  0  0  0  0
 11 13  1  1  0  0  0
 11 17  1  0  0  0  0
 11 20  2  0  0  0  0
 11 31  1  0  0  0  0
 12 16  2  0  0  0  0
 12 28  1  0  0  0  0
 15 26  1  0  0  0  0
 15 18  1  0  0  0  0
 16 19  1  0  0  0  0
 18 30  1  0  0  0  0
 19 22  2  0  0  0  0
 21 18  1  6  0  0  0
 21 24  1  0  0  0  0
 22 23  1  0  0  0  0
 22 25  1  0  0  0  0
 24 14  1  6  0  0  0
 24 27  1  0  0  0  0
 25 28  2  0  0  0  0
 25 30  1  0  0  0  0
 27 29  1  0  0  0  0
 29 31  1  0  0  0  0
M  CHG  1  17  -1
M  END
>  <CHROM.1>
-86.77491267,-179.11097314,117.36580825,86.32166958,147.59481911,-31.38097852
130.25312810,-72.46726511,-122.90606184,-173.45632184,-61.63543824,82.78576292
5.98222694,19.21319855,52.16781469,-2.89743826,-0.00767628,0.84720505

>  <Name>
ligand

>  <RI>
0

>  <Rbt.Current_Directory>
/home/itssahil/PROJECTS/Mol_Feturizer/New_Systems/rnas/2HOO

>  <Rbt.Executable>
rbdock ($Id: //depot/dev/client3/rdock/2013.1/src/exe/rbdock.cxx#4 $)

>  <Rbt.Library>
libRbt.so (2013.1, Build901 2013/11/27)

>  <Rbt.Parameter_File>
/export/apps/rDock/src/rDock_2013.1_src/data/scripts/dock_solv.prm

>  <Rbt.Receptor>
prm/pocket_docking_2.prm

>  <SCORE>
-22.5138

>  <SCORE.INTER>
-12.154

>  <SCORE.INTER.CONST>
1

>  <SCORE.INTER.POLAR>
0

>  <SCORE.INTER.ROT>
12

>  <SCORE.INTER.SOLV>
21.9432

>  <SCORE.INTER.VDW>
-27.017

>  <SCORE.INTER.norm>
-0.392063

>  <SCORE.INTRA>
-11.0118

>  <SCORE.INTRA.DIHEDRAL>
-0.2196

>  <SCORE.INTRA.DIHEDRAL.0>
14.6094

>  <SCORE.INTRA.POLAR>
0

>  <SCORE.INTRA.POLAR.0>
0

>  <SCORE.INTRA.REPUL>
0

>  <SCORE.INTRA.REPUL.0>
0

>  <SCORE.INTRA.SOLV>
1.52723

>  <SCORE.INTRA.SOLV.lig_0>
-65.6478

>  <SCORE.INTRA.VDW>
-11.6656

>  <SCORE.INTRA.VDW.0>
9.35535

>  <SCORE.INTRA.norm>
-0.35522

>  <SCORE.RESTR>
0.651994

>  <SCORE.RESTR.CAVITY>
0.651994

>  <SCORE.RESTR.norm>
0.0210321

>  <SCORE.SYSTEM>
0

>  <SCORE.SYSTEM.CONST>
0

>  <SCORE.SYSTEM.DIHEDRAL>
0

>  <SCORE.SYSTEM.SOLV>
0

>  <SCORE.SYSTEM.norm>
0

>  <SCORE.heavy>
31

>  <SCORE.norm>
-0.726251

>  <RMSD>
1.421

$$$$
ligand
 OpenBabel11021811443D
libRbt.so/2013.1/901 2013/11/27
 31 32  0  0  0  0  0  0  0  0999 V2000
    5.3113   18.2274   50.3001 C   0  0  0  0  0  0  0  0  0  0  0  0
    5.2300   16.8365   49.6780 C   0  0  0  0  0  0  0  0  0  0  0  0
    6.3983   16.0102   49.6107 C   0  0  0  0  0  0  0  0  0  0  0  0
    6.3173   14.7221   49.0294 C   0  0  0  0  0  0  0  0  0  0  0  0
    5.0873   14.2394   48.5192 C   0  0  0  0  0  0  0  0  0  0  0  0
    3.9262   15.0364   48.5826 C   0  0  0  0  0  0  0  0  0  0  0  0
    3.9865   16.3198   49.1547 C   0  0  0  0  0  0  0  0  0  0  0  0
    5.3522   19.2223   49.5769 O   0  0  0  0  0  0  0  0  0  0  0  0
   13.5740   19.0287   54.4725 C   0  0  0  0  0  0  0  0  0  0  0  0
    5.5782   22.0827   52.9998 C   0  0  0  0  0  0  0  0  0  0  0  0
    0.3496   19.2598   53.0099 P   0  0  1  0  0  0  0  0  0  0  0  0
   11.2219   18.6556   54.2217 N   0  0  0  0  0  0  0  0  0  0  0  0
   -1.0638   19.6822   52.9824 O   0  0  0  0  0  0  0  0  0  0  0  0
    5.3411   18.3847   51.6749 S   0  0  0  0  0  0  0  0  0  0  0  0
    7.9698   20.1581   51.4907 C   0  0  0  0  0  0  0  0  0  0  0  0
   12.2352   19.5827   54.3149 C   0  0  0  0  0  0  0  0  0  0  0  0
    0.8337   18.8043   54.3412 O   0  5  0  0  0  0  0  0  0  0  0  0
    7.4432   20.4577   52.7039 N   0  0  0  0  0  0  0  0  0  0  0  0
   12.0522   20.8651   54.2698 N   0  0  0  0  0  0  0  0  0  0  0  0
    0.6154   18.2896   51.9226 O   0  0  0  0  0  0  0  0  0  0  0  0
    5.9875   20.6622   52.7189 C   0  0  2  0  0  0  0  0  0  0  0  0
   10.7795   21.3839   54.1270 C   0  0  0  0  0  0  0  0  0  0  0  0
   10.6278   22.7100   54.0888 N   0  0  0  0  0  0  0  0  0  0  0  0
    4.9555   19.6596   52.4730 C   0  0  1  0  0  0  0  0  0  0  0  0
    9.6534   20.4683   54.0301 C   0  0  0  0  0  0  0  0  0  0  0  0
    7.8892   21.0799   50.7089 O   0  0  0  0  0  0  0  0  0  0  0  0
    3.5446   19.7828   52.9282 C   0  0  0  0  0  0  0  0  0  0  0  0
    9.9567   19.1229   54.0800 C   0  0  0  0  0  0  0  0  0  0  0  0
    2.5609   20.4623   52.0759 C   0  0  0  0  0  0  0  0  0  0  0  0
    8.2366   20.9760   53.9167 C   0  0  0  0  0  0  0  0  0  0  0  0
    1.2693   20.4942   52.7079 O   0  0  0  0  0  0  0  0  0  0  0  0
  1  2  1  0  0  0  0
  1  8  2  0  0  0  0
  1 14  1  0  0  0  0
  2  3  2  0  0  0  0
  2  7  1  0  0  0  0
  3  4  1  0  0  0  0
  4  5  2  0  0  0  0
  5  6  1  0  0  0  0
  6  7  2  0  0  0  0
  9 16  1  0  0  0  0
 10 21  1  0  0  0  0
 11 13  1  1  0  0  0
 11 17  1  0  0  0  0
 11 20  2  0  0  0  0
 11 31  1  0  0  0  0
 12 16  2  0  0  0  0
 12 28  1  0  0  0  0
 15 26  1  0  0  0  0
 15 18  1  0  0  0  0
 16 19  1  0  0  0  0
 18 30  1  0  0  0  0
 19 22  2  0  0  0  0
 21 18  1  6  0  0  0
 21 24  1  0  0  0  0
 22 23  1  0  0  0  0
 22 25  1  0  0  0  0
 24 14  1  6  0  0  0
 24 27  1  0  0  0  0
 25 28  2  0  0  0  0
 25 30  1  0  0  0  0
 27 29  1  0  0  0  0
 29 31  1  0  0  0  0
M  CHG  1  17  -1
M  END
>  <CHROM.1>
102.42225060,-158.14452525,-88.07901695,66.90983154,-111.99130298,-32.52809223
156.95904368,-91.44207013,124.78546770,-178.94604862,-66.89376927,-150.56278241
5.85625777,19.18901890,52.22045783,-2.87295635,-0.03293471,0.72229582

>  <Name>
ligand

>  <RI>
0

>  <Rbt.Current_Directory>
/home/itssahil/PROJECTS/Mol_Feturizer/New_Systems/rnas/2HOO

>  <Rbt.Executable>
rbdock ($Id: //depot/dev/client3/rdock/2013.1/src/exe/rbdock.cxx#4 $)

>  <Rbt.Library>
libRbt.so (2013.1, Build901 2013/11/27)

>  <Rbt.Parameter_File>
/export/apps/rDock/src/rDock_2013.1_src/data/scripts/dock_solv.prm

>  <Rbt.Receptor>
prm/pocket_docking_2.prm

>  <SCORE>
-25.1344

>  <SCORE.INTER>
-15.0564

>  <SCORE.INTER.CONST>
1

>  <SCORE.INTER.POLAR>
0

>  <SCORE.INTER.ROT>
12

>  <SCORE.INTER.SOLV>
20.4353

>  <SCORE.INTER.VDW>
-28.4493

>  <SCORE.INTER.norm>
-0.485689

>  <SCORE.INTRA>
-10.2387

>  <SCORE.INTRA.DIHEDRAL>
0.0234204

>  <SCORE.INTRA.DIHEDRAL.0>
14.6094

>  <SCORE.INTRA.POLAR>
0

>  <SCORE.INTRA.POLAR.0>
0

>  <SCORE.INTRA.REPUL>
0

>  <SCORE.INTRA.REPUL.0>
0

>  <SCORE.INTRA.SOLV>
2.40817

>  <SCORE.INTRA.SOLV.lig_0>
-65.6478

>  <SCORE.INTRA.VDW>
-11.4545

>  <SCORE.INTRA.VDW.0>
9.35535

>  <SCORE.INTRA.norm>
-0.33028

>  <SCORE.RESTR>
0.160616

>  <SCORE.RESTR.CAVITY>
0.160616

>  <SCORE.RESTR.norm>
0.00518115

>  <SCORE.SYSTEM>
0

>  <SCORE.SYSTEM.CONST>
0

>  <SCORE.SYSTEM.DIHEDRAL>
0

>  <SCORE.SYSTEM.SOLV>
0

>  <SCORE.SYSTEM.norm>
0

>  <SCORE.heavy>
31

>  <SCORE.norm>
-0.810787

>  <RMSD>
1.435

$$$$
ligand
 OpenBabel11021811443D
libRbt.so/2013.1/901 2013/11/27
 31 32  0  0  0  0  0  0  0  0999 V2000
    4.3266   19.6557   51.4664 C   0  0  0  0  0  0  0  0  0  0  0  0
    4.7004   18.7489   50.2976 C   0  0  0  0  0  0  0  0  0  0  0  0
    5.8605   19.0362   49.5078 C   0  0  0  0  0  0  0  0  0  0  0  0
    6.2002   18.1931   48.4226 C   0  0  0  0  0  0  0  0  0  0  0  0
    5.4056   17.0617   48.1149 C   0  0  0  0  0  0  0  0  0  0  0  0
    4.2641   16.7602   48.8852 C   0  0  0  0  0  0  0  0  0  0  0  0
    3.9088   17.5867   49.9662 C   0  0  0  0  0  0  0  0  0  0  0  0
    4.0278   20.8316   51.2604 O   0  0  0  0  0  0  0  0  0  0  0  0
   13.5886   19.6645   54.9462 C   0  0  0  0  0  0  0  0  0  0  0  0
    5.9165   22.0505   54.7581 C   0  0  0  0  0  0  0  0  0  0  0  0
    0.1820   18.8883   53.3844 P   0  0  1  0  0  0  0  0  0  0  0  0
   11.3448   19.0924   54.3360 N   0  0  0  0  0  0  0  0  0  0  0  0
   -0.8060   19.8891   53.8305 O   0  0  0  0  0  0  0  0  0  0  0  0
    4.3206   19.1699   52.7624 S   0  0  0  0  0  0  0  0  0  0  0  0
    7.2263   18.8038   53.5293 C   0  0  0  0  0  0  0  0  0  0  0  0
   12.2557   20.1019   54.5512 C   0  0  0  0  0  0  0  0  0  0  0  0
    0.1036   17.5823   54.0932 O   0  5  0  0  0  0  0  0  0  0  0  0
    7.1988   20.1250   53.8339 N   0  0  0  0  0  0  0  0  0  0  0  0
   11.9856   21.3631   54.4222 N   0  0  0  0  0  0  0  0  0  0  0  0
    0.1511   18.7607   51.9089 O   0  0  0  0  0  0  0  0  0  0  0  0
    5.8772   20.6529   54.2022 C   0  0  2  0  0  0  0  0  0  0  0  0
   10.7179   21.7712   54.0539 C   0  0  0  0  0  0  0  0  0  0  0  0
   10.4742   23.0786   53.9348 N   0  0  0  0  0  0  0  0  0  0  0  0
    4.5898   19.9796   54.0597 C   0  0  1  0  0  0  0  0  0  0  0  0
    9.6958   20.7639   53.8163 C   0  0  0  0  0  0  0  0  0  0  0  0
    7.1312   18.5994   52.3391 O   0  0  0  0  0  0  0  0  0  0  0  0
    3.5044   20.0270   55.0758 C   0  0  0  0  0  0  0  0  0  0  0  0
   10.0882   19.4500   53.9723 C   0  0  0  0  0  0  0  0  0  0  0  0
    2.3495   19.1291   54.9504 C   0  0  0  0  0  0  0  0  0  0  0  0
    8.2824   21.1500   53.4544 C   0  0  0  0  0  0  0  0  0  0  0  0
    1.6269   19.3890   53.7342 O   0  0  0  0  0  0  0  0  0  0  0  0
  1  2  1  0  0  0  0
  1  8  2  0  0  0  0
  1 14  1  0  0  0  0
  2  3  2  0  0  0  0
  2  7  1  0  0  0  0
  3  4  1  0  0  0  0
  4  5  2  0  0  0  0
  5  6  1  0  0  0  0
  6  7  2  0  0  0  0
  9 16  1  0  0  0  0
 10 21  1  0  0  0  0
 11 13  1  1  0  0  0
 11 17  1  0  0  0  0
 11 20  2  0  0  0  0
 11 31  1  0  0  0  0
 12 16  2  0  0  0  0
 12 28  1  0  0  0  0
 15 26  1  0  0  0  0
 15 18  1  0  0  0  0
 16 19  1  0  0  0  0
 18 30  1  0  0  0  0
 19 22  2  0  0  0  0
 21 18  1  6  0  0  0
 21 24  1  0  0  0  0
 22 23  1  0  0  0  0
 22 25  1  0  0  0  0
 24 14  1  6  0  0  0
 24 27  1  0  0  0  0
 25 28  2  0  0  0  0
 25 30  1  0  0  0  0
 27 29  1  0  0  0  0
 29 31  1  0  0  0  0
M  CHG  1  17  -1
M  END
>  <CHROM.1>
63.22480783,150.92272808,-59.43400197,95.03761398,170.10784216,-50.98726273
137.45528638,11.44781736,-153.82355175,-61.87828232,-165.23034357,90.43554608
5.60159012,19.56902763,52.93514989,-2.93837100,0.09890780,1.12319994

>  <Name>
ligand

>  <RI>
0

>  <Rbt.Current_Directory>
/home/itssahil/PROJECTS/Mol_Feturizer/New_Systems/rnas/2HOO

>  <Rbt.Executable>
rbdock ($Id: //depot/dev/client3/rdock/2013.1/src/exe/rbdock.cxx#4 $)

>  <Rbt.Library>
libRbt.so (2013.1, Build901 2013/11/27)

>  <Rbt.Parameter_File>
/export/apps/rDock/src/rDock_2013.1_src/data/scripts/dock_solv.prm

>  <Rbt.Receptor>
prm/pocket_docking_2.prm

>  <SCORE>
-21.6278

>  <SCORE.INTER>
-15.4248

>  <SCORE.INTER.CONST>
1

>  <SCORE.INTER.POLAR>
0

>  <SCORE.INTER.ROT>
12

>  <SCORE.INTER.SOLV>
22.4395

>  <SCORE.INTER.VDW>
-29.363

>  <SCORE.INTER.norm>
-0.497574

>  <SCORE.INTRA>
-6.47062

>  <SCORE.INTRA.DIHEDRAL>
1.0092

>  <SCORE.INTRA.DIHEDRAL.0>
14.6094

>  <SCORE.INTRA.POLAR>
0

>  <SCORE.INTRA.POLAR.0>
0

>  <SCORE.INTRA.REPUL>
0

>  <SCORE.INTRA.REPUL.0>
0

>  <SCORE.INTRA.SOLV>
1.23651

>  <SCORE.INTRA.SOLV.lig_0>
-65.6478

>  <SCORE.INTRA.VDW>
-7.59347

>  <SCORE.INTRA.VDW.0>
9.35535

>  <SCORE.INTRA.norm>
-0.20873

>  <SCORE.RESTR>
0.267632

>  <SCORE.RESTR.CAVITY>
0.267632

>  <SCORE.RESTR.norm>
0.0086333

>  <SCORE.SYSTEM>
0

>  <SCORE.SYSTEM.CONST>
0

>  <SCORE.SYSTEM.DIHEDRAL>
0

>  <SCORE.SYSTEM.SOLV>
0

>  <SCORE.SYSTEM.norm>
0

>  <SCORE.heavy>
31

>  <SCORE.norm>
-0.69767

>  <RMSD>
1.598

$$$$
ligand
 OpenBabel11021811443D
libRbt.so/2013.1/901 2013/11/27
 31 32  0  0  0  0  0  0  0  0999 V2000
    6.4017   19.0117   50.2315 C   0  0  0  0  0  0  0  0  0  0  0  0
    6.0794   17.5579   49.8988 C   0  0  0  0  0  0  0  0  0  0  0  0
    4.7440   17.0638   50.0565 C   0  0  0  0  0  0  0  0  0  0  0  0
    4.4518   15.7132   49.7494 C   0  0  0  0  0  0  0  0  0  0  0  0
    5.4688   14.8463   49.2798 C   0  0  0  0  0  0  0  0  0  0  0  0
    6.7871   15.3170   49.1128 C   0  0  0  0  0  0  0  0  0  0  0  0
    7.0979   16.6551   49.4143 C   0  0  0  0  0  0  0  0  0  0  0  0
    7.5427   19.4416   50.0647 O   0  0  0  0  0  0  0  0  0  0  0  0
   13.5928   19.7780   54.9112 C   0  0  0  0  0  0  0  0  0  0  0  0
    5.4559   21.2030   54.3539 C   0  0  0  0  0  0  0  0  0  0  0  0
    0.4087   19.3279   53.1137 P   0  0  1  0  0  0  0  0  0  0  0  0
   11.5066   19.0874   53.9597 N   0  0  0  0  0  0  0  0  0  0  0  0
    0.5133   18.4685   51.9190 O   0  0  0  0  0  0  0  0  0  0  0  0
    5.4219   19.8570   50.7224 S   0  0  0  0  0  0  0  0  0  0  0  0
    7.5042   18.5508   53.3294 C   0  0  0  0  0  0  0  0  0  0  0  0
   12.2729   20.1389   54.4095 C   0  0  0  0  0  0  0  0  0  0  0  0
   -0.9376   19.9228   53.3324 O   0  5  0  0  0  0  0  0  0  0  0  0
    7.2965   19.8907   53.3068 N   0  0  0  0  0  0  0  0  0  0  0  0
   11.8838   21.3753   54.4038 N   0  0  0  0  0  0  0  0  0  0  0  0
    0.9403   18.6204   54.3016 O   0  0  0  0  0  0  0  0  0  0  0  0
    5.8874   20.3023   53.2284 C   0  0  2  0  0  0  0  0  0  0  0  0
   10.6285   21.7098   53.9330 C   0  0  0  0  0  0  0  0  0  0  0  0
   10.2593   22.9929   53.9461 N   0  0  0  0  0  0  0  0  0  0  0  0
    4.9239   19.9490   52.1903 C   0  0  1  0  0  0  0  0  0  0  0  0
    9.7546   20.6531   53.4476 C   0  0  0  0  0  0  0  0  0  0  0  0
    7.1272   18.0396   54.3609 O   0  0  0  0  0  0  0  0  0  0  0  0
    3.4827   19.6807   52.4433 C   0  0  0  0  0  0  0  0  0  0  0  0
   10.2673   19.3724   53.4886 C   0  0  0  0  0  0  0  0  0  0  0  0
    2.4796   20.6903   52.0826 C   0  0  0  0  0  0  0  0  0  0  0  0
    8.3570   20.9515   52.9621 C   0  0  0  0  0  0  0  0  0  0  0  0
    1.3223   20.5899   52.9306 O   0  0  0  0  0  0  0  0  0  0  0  0
  1  2  1  0  0  0  0
  1  8  2  0  0  0  0
  1 14  1  0  0  0  0
  2  3  2  0  0  0  0
  2  7  1  0  0  0  0
  3  4  1  0  0  0  0
  4  5  2  0  0  0  0
  5  6  1  0  0  0  0
  6  7  2  0  0  0  0
  9 16  1  0  0  0  0
 10 21  1  0  0  0  0
 11 13  1  6  0  0  0
 11 17  1  0  0  0  0
 11 20  2  0  0  0  0
 11 31  1  0  0  0  0
 12 16  2  0  0  0  0
 12 28  1  0  0  0  0
 15 26  1  0  0  0  0
 15 18  1  0  0  0  0
 16 19  1  0  0  0  0
 18 30  1  0  0  0  0
 19 22  2  0  0  0  0
 21 18  1  6  0  0  0
 21 24  1  0  0  0  0
 22 23  1  0  0  0  0
 22 25  1  0  0  0  0
 24 14  1  6  0  0  0
 24 27  1  0  0  0  0
 25 28  2  0  0  0  0
 25 30  1  0  0  0  0
 27 29  1  0  0  0  0
 29 31  1  0  0  0  0
M  CHG  1  17  -1
M  END
>  <CHROM.1>
-178.26987567,80.79199217,60.10071279,-69.16655252,123.05143137,-36.53220311
141.69460297,-74.87878206,-143.05615248,-151.88526026,-58.22233922,-24.35273465
6.02044801,19.33667297,52.45294511,-0.20014288,0.01057501,-2.35379834

>  <Name>
ligand

>  <RI>
0

>  <Rbt.Current_Directory>
/home/itssahil/PROJECTS/Mol_Feturizer/New_Systems/rnas/2HOO

>  <Rbt.Executable>
rbdock ($Id: //depot/dev/client3/rdock/2013.1/src/exe/rbdock.cxx#4 $)

>  <Rbt.Library>
libRbt.so (2013.1, Build901 2013/11/27)

>  <Rbt.Parameter_File>
/export/apps/rDock/src/rDock_2013.1_src/data/scripts/dock_solv.prm

>  <Rbt.Receptor>
prm/pocket_docking_2.prm

>  <SCORE>
-21.7543

>  <SCORE.INTER>
-15.1888

>  <SCORE.INTER.CONST>
1

>  <SCORE.INTER.POLAR>
0

>  <SCORE.INTER.ROT>
12

>  <SCORE.INTER.SOLV>
19.6821

>  <SCORE.INTER.VDW>
-28.2866

>  <SCORE.INTER.norm>
-0.489962

>  <SCORE.INTRA>
-8.08884

>  <SCORE.INTRA.DIHEDRAL>
7.81735

>  <SCORE.INTRA.DIHEDRAL.0>
14.6094

>  <SCORE.INTRA.POLAR>
0

>  <SCORE.INTRA.POLAR.0>
0

>  <SCORE.INTRA.REPUL>
0

>  <SCORE.INTRA.REPUL.0>
0

>  <SCORE.INTRA.SOLV>
0.720556

>  <SCORE.INTRA.SOLV.lig_0>
-65.6478

>  <SCORE.INTRA.VDW>
-12.3578

>  <SCORE.INTRA.VDW.0>
9.35535

>  <SCORE.INTRA.norm>
-0.26093

>  <SCORE.RESTR>
1.52331

>  <SCORE.RESTR.CAVITY>
1.52331

>  <SCORE.RESTR.norm>
0.0491389

>  <SCORE.SYSTEM>
0

>  <SCORE.SYSTEM.CONST>
0

>  <SCORE.SYSTEM.DIHEDRAL>
0

>  <SCORE.SYSTEM.SOLV>
0

>  <SCORE.SYSTEM.norm>
0

>  <SCORE.heavy>
31

>  <SCORE.norm>
-0.701753

>  <RMSD>
1.727

$$$$
ligand
 OpenBabel11021811443D
libRbt.so/2013.1/901 2013/11/27
 31 32  0  0  0  0  0  0  0  0999 V2000
    4.6935   17.5473   50.1298 C   0  0  0  0  0  0  0  0  0  0  0  0
    5.3759   16.5693   49.1780 C   0  0  0  0  0  0  0  0  0  0  0  0
    5.8750   15.3193   49.6684 C   0  0  0  0  0  0  0  0  0  0  0  0
    6.5101   14.4176   48.7811 C   0  0  0  0  0  0  0  0  0  0  0  0
    6.6504   14.7381   47.4086 C   0  0  0  0  0  0  0  0  0  0  0  0
    6.1598   15.9610   46.9074 C   0  0  0  0  0  0  0  0  0  0  0  0
    5.5273   16.8710   47.7733 C   0  0  0  0  0  0  0  0  0  0  0  0
    3.8392   17.1427   50.9178 O   0  0  0  0  0  0  0  0  0  0  0  0
   13.6817   20.0004   55.2286 C   0  0  0  0  0  0  0  0  0  0  0  0
    7.5296   21.0785   50.5915 C   0  0  0  0  0  0  0  0  0  0  0  0
    0.7605   19.7767   53.5246 P   0  0  1  0  0  0  0  0  0  0  0  0
   12.5743   18.6920   53.5565 N   0  0  0  0  0  0  0  0  0  0  0  0
    0.0088   19.4257   52.3045 O   0  0  0  0  0  0  0  0  0  0  0  0
    5.0242   18.8912   50.1169 S   0  0  0  0  0  0  0  0  0  0  0  0
    7.2875   18.9815   53.5817 C   0  0  0  0  0  0  0  0  0  0  0  0
   12.5165   19.7955   54.3775 C   0  0  0  0  0  0  0  0  0  0  0  0
    0.1950   20.9185   54.2931 O   0  5  0  0  0  0  0  0  0  0  0  0
    7.8366   19.4141   52.4196 N   0  0  0  0  0  0  0  0  0  0  0  0
   11.5151   20.6173   54.4196 N   0  0  0  0  0  0  0  0  0  0  0  0
    0.9914   18.5681   54.3493 O   0  0  0  0  0  0  0  0  0  0  0  0
    6.8960   20.0438   51.4816 C   0  0  2  0  0  0  0  0  0  0  0  0
   10.4105   20.4134   53.6148 C   0  0  0  0  0  0  0  0  0  0  0  0
    9.3954   21.2778   53.6875 N   0  0  0  0  0  0  0  0  0  0  0  0
    5.4744   19.7493   51.3303 C   0  0  1  0  0  0  0  0  0  0  0  0
   10.3916   19.2633   52.7244 C   0  0  0  0  0  0  0  0  0  0  0  0
    8.0749   18.9981   54.5020 O   0  0  0  0  0  0  0  0  0  0  0  0
    4.4172   20.2293   52.2603 C   0  0  0  0  0  0  0  0  0  0  0  0
   11.5103   18.4555   52.7496 C   0  0  0  0  0  0  0  0  0  0  0  0
    3.0369   19.7549   52.1012 C   0  0  0  0  0  0  0  0  0  0  0  0
    9.1954   18.9642   51.8540 C   0  0  0  0  0  0  0  0  0  0  0  0
    2.1868   20.2954   53.1279 O   0  0  0  0  0  0  0  0  0  0  0  0
  1  2  1  0  0  0  0
  1  8  2  0  0  0  0
  1 14  1  0  0  0  0
  2  3  2  0  0  0  0
  2  7  1  0  0  0  0
  3  4  1  0  0  0  0
  4  5  2  0  0  0  0
  5  6  1  0  0  0  0
  6  7  2  0  0  0  0
  9 16  1  0  0  0  0
 10 21  1  0  0  0  0
 11 13  1  6  0  0  0
 11 17  1  0  0  0  0
 11 20  2  0  0  0  0
 11 31  1  0  0  0  0
 12 16  2  0  0  0  0
 12 28  1  0  0  0  0
 15 26  1  0  0  0  0
 15 18  1  0  0  0  0
 16 19  1  0  0  0  0
 18 30  1  0  0  0  0
 19 22  2  0  0  0  0
 21 18  1  6  0  0  0
 21 24  1  0  0  0  0
 22 23  1  0  0  0  0
 22 25  1  0  0  0  0
 24 14  1  6  0  0  0
 24 27  1  0  0  0  0
 25 28  2  0  0  0  0
 25 30  1  0  0  0  0
 27 29  1  0  0  0  0
 29 31  1  0  0  0  0
M  CHG  1  17  -1
M  END
>  <CHROM.1>
-46.64681982,-126.18209268,101.73783609,-151.09717627,151.13467405,-60.81007804
75.54968855,7.27811002,-29.96488775,177.74284257,-163.93529977,-40.60958243
6.20870854,18.91053453,52.01007341,-2.99881005,-0.04025802,0.92932402

>  <Name>
ligand

>  <RI>
0

>  <Rbt.Current_Directory>
/home/itssahil/PROJECTS/Mol_Feturizer/New_Systems/rnas/2HOO

>  <Rbt.Executable>
rbdock ($Id: //depot/dev/client3/rdock/2013.1/src/exe/rbdock.cxx#4 $)

>  <Rbt.Library>
libRbt.so (2013.1, Build901 2013/11/27)

>  <Rbt.Parameter_File>
/export/apps/rDock/src/rDock_2013.1_src/data/scripts/dock_solv.prm

>  <Rbt.Receptor>
prm/pocket_docking_2.prm

>  <SCORE>
-16.0048

>  <SCORE.INTER>
-10.348

>  <SCORE.INTER.CONST>
1

>  <SCORE.INTER.POLAR>
0

>  <SCORE.INTER.ROT>
12

>  <SCORE.INTER.SOLV>
13.9345

>  <SCORE.INTER.VDW>
-23.1435

>  <SCORE.INTER.norm>
-0.333807

>  <SCORE.INTRA>
-6.38463

>  <SCORE.INTRA.DIHEDRAL>
1.54838

>  <SCORE.INTRA.DIHEDRAL.0>
14.6094

>  <SCORE.INTRA.POLAR>
0

>  <SCORE.INTRA.POLAR.0>
0

>  <SCORE.INTRA.REPUL>
0

>  <SCORE.INTRA.REPUL.0>
0

>  <SCORE.INTRA.SOLV>
5.95347

>  <SCORE.INTRA.SOLV.lig_0>
-65.6478

>  <SCORE.INTRA.VDW>
-10.1356

>  <SCORE.INTRA.VDW.0>
9.35535

>  <SCORE.INTRA.norm>
-0.205956

>  <SCORE.RESTR>
0.727823

>  <SCORE.RESTR.CAVITY>
0.727823

>  <SCORE.RESTR.norm>
0.0234782

>  <SCORE.SYSTEM>
0

>  <SCORE.SYSTEM.CONST>
0

>  <SCORE.SYSTEM.DIHEDRAL>
0

>  <SCORE.SYSTEM.SOLV>
0

>  <SCORE.SYSTEM.norm>
0

>  <SCORE.heavy>
31

>  <SCORE.norm>
-0.516285

>  <RMSD>
1.821

$$$$
ligand
 OpenBabel11021811443D
libRbt.so/2013.1/901 2013/11/27
 31 32  0  0  0  0  0  0  0  0999 V2000
    4.3285   17.7872   50.8665 C   0  0  0  0  0  0  0  0  0  0  0  0
    4.5434   16.7289   49.7886 C   0  0  0  0  0  0  0  0  0  0  0  0
    4.0240   15.4058   49.9671 C   0  0  0  0  0  0  0  0  0  0  0  0
    4.2295   14.4274   48.9650 C   0  0  0  0  0  0  0  0  0  0  0  0
    4.9394   14.7478   47.7819 C   0  0  0  0  0  0  0  0  0  0  0  0
    5.4523   16.0463   47.5867 C   0  0  0  0  0  0  0  0  0  0  0  0
    5.2602   17.0319   48.5714 C   0  0  0  0  0  0  0  0  0  0  0  0
    3.1965   18.2146   51.0908 O   0  0  0  0  0  0  0  0  0  0  0  0
   13.3017   19.3907   54.8987 C   0  0  0  0  0  0  0  0  0  0  0  0
    7.4489   20.3431   50.7357 C   0  0  0  0  0  0  0  0  0  0  0  0
    1.2865   20.5479   53.9047 P   0  0  1  0  0  0  0  0  0  0  0  0
   11.1741   19.2933   53.8041 N   0  0  0  0  0  0  0  0  0  0  0  0
    1.8672   19.4758   54.7355 O   0  0  0  0  0  0  0  0  0  0  0  0
    5.3969   18.2761   51.5981 S   0  0  0  0  0  0  0  0  0  0  0  0
    6.9344   21.2400   54.2943 C   0  0  0  0  0  0  0  0  0  0  0  0
   12.1710   20.0968   54.3098 C   0  0  0  0  0  0  0  0  0  0  0  0
    0.7069   20.0860   52.6144 O   0  5  0  0  0  0  0  0  0  0  0  0
    7.3934   21.3320   53.0216 N   0  0  0  0  0  0  0  0  0  0  0  0
   12.1427   21.3924   54.2830 N   0  0  0  0  0  0  0  0  0  0  0  0
    0.3533   21.3704   54.7090 O   0  0  0  0  0  0  0  0  0  0  0  0
    6.7303   20.4462   52.0538 C   0  0  2  0  0  0  0  0  0  0  0  0
   11.0644   22.0557   53.7292 C   0  0  0  0  0  0  0  0  0  0  0  0
   11.0670   23.3909   53.7227 N   0  0  0  0  0  0  0  0  0  0  0  0
    5.5071   19.6767   52.2595 C   0  0  1  0  0  0  0  0  0  0  0  0
    9.9654   21.2766   53.1806 C   0  0  0  0  0  0  0  0  0  0  0  0
    7.5331   20.4123   54.9454 O   0  0  0  0  0  0  0  0  0  0  0  0
    4.3442   20.1519   53.0562 C   0  0  0  0  0  0  0  0  0  0  0  0
   10.0974   19.9045   53.2509 C   0  0  0  0  0  0  0  0  0  0  0  0
    3.4915   21.2257   52.5312 C   0  0  0  0  0  0  0  0  0  0  0  0
    8.7417   21.9444   52.6023 C   0  0  0  0  0  0  0  0  0  0  0  0
    2.4233   21.5267   53.4460 O   0  0  0  0  0  0  0  0  0  0  0  0
  1  2  1  0  0  0  0
  1  8  2  0  0  0  0
  1 14  1  0  0  0  0
  2  3  2  0  0  0  0
  2  7  1  0  0  0  0
  3  4  1  0  0  0  0
  4  5  2  0  0  0  0
  5  6  1  0  0  0  0
  6  7  2  0  0  0  0
  9 16  1  0  0  0  0
 10 21  1  0  0  0  0
 11 13  1  1  0  0  0
 11 17  1  0  0  0  0
 11 20  2  0  0  0  0
 11 31  1  0  0  0  0
 12 16  2  0  0  0  0
 12 28  1  0  0  0  0
 15 26  1  0  0  0  0
 15 18  1  0  0  0  0
 16 19  1  0  0  0  0
 18 30  1  0  0  0  0
 19 22  2  0  0  0  0
 21 18  1  1  0  0  0
 21 24  1  0  0  0  0
 22 23  1  0  0  0  0
 22 25  1  0  0  0  0
 24 14  1  6  0  0  0
 24 27  1  0  0  0  0
 25 28  2  0  0  0  0
 25 30  1  0  0  0  0
 27 29  1  0  0  0  0
 29 31  1  0  0  0  0
M  CHG  1  17  -1
M  END
>  <CHROM.1>
-67.58589101,152.52038872,-132.28303102,90.16021531,-167.19227210,60.35036814
34.59317864,-107.95018163,-135.36309191,179.54095775,-62.09007052,68.04177777
6.03000717,19.61310082,52.47415232,-2.78793819,0.00787230,0.75988031

>  <Name>
ligand

>  <RI>
0

>  <Rbt.Current_Directory>
/home/itssahil/PROJECTS/Mol_Feturizer/New_Systems/rnas/2HOO

>  <Rbt.Executable>
rbdock ($Id: //depot/dev/client3/rdock/2013.1/src/exe/rbdock.cxx#4 $)

>  <Rbt.Library>
libRbt.so (2013.1, Build901 2013/11/27)

>  <Rbt.Parameter_File>
/export/apps/rDock/src/rDock_2013.1_src/data/scripts/dock_solv.prm

>  <Rbt.Receptor>
prm/pocket_docking_2.prm

>  <SCORE>
-20.4825

>  <SCORE.INTER>
-12.8242

>  <SCORE.INTER.CONST>
1

>  <SCORE.INTER.POLAR>
0

>  <SCORE.INTER.ROT>
12

>  <SCORE.INTER.SOLV>
18.5817

>  <SCORE.INTER.VDW>
-26.3434

>  <SCORE.INTER.norm>
-0.413685

>  <SCORE.INTRA>
-7.80717

>  <SCORE.INTRA.DIHEDRAL>
-1.95967

>  <SCORE.INTRA.DIHEDRAL.0>
14.6094

>  <SCORE.INTRA.POLAR>
0

>  <SCORE.INTRA.POLAR.0>
0

>  <SCORE.INTRA.REPUL>
0

>  <SCORE.INTRA.REPUL.0>
0

>  <SCORE.INTRA.SOLV>
0.948303

>  <SCORE.INTRA.SOLV.lig_0>
-65.6478

>  <SCORE.INTRA.VDW>
-7.30149

>  <SCORE.INTRA.VDW.0>
9.35535

>  <SCORE.INTRA.norm>
-0.251844

>  <SCORE.RESTR>
0.148963

>  <SCORE.RESTR.CAVITY>
0.148963

>  <SCORE.RESTR.norm>
0.00480525

>  <SCORE.SYSTEM>
0

>  <SCORE.SYSTEM.CONST>
0

>  <SCORE.SYSTEM.DIHEDRAL>
0

>  <SCORE.SYSTEM.SOLV>
0

>  <SCORE.SYSTEM.norm>
0

>  <SCORE.heavy>
31

>  <SCORE.norm>
-0.660724

>  <RMSD>
1.846

$$$$
ligand
 OpenBabel11021811443D
libRbt.so/2013.1/901 2013/11/27
 31 32  0  0  0  0  0  0  0  0999 V2000
    4.8301   17.9691   50.3165 C   0  0  0  0  0  0  0  0  0  0  0  0
    5.3124   16.8273   49.4267 C   0  0  0  0  0  0  0  0  0  0  0  0
    4.4348   16.2602   48.4466 C   0  0  0  0  0  0  0  0  0  0  0  0
    4.8870   15.1988   47.6264 C   0  0  0  0  0  0  0  0  0  0  0  0
    6.2044   14.6965   47.7616 C   0  0  0  0  0  0  0  0  0  0  0  0
    7.0836   15.2465   48.7165 C   0  0  0  0  0  0  0  0  0  0  0  0
    6.6526   16.3003   49.5422 C   0  0  0  0  0  0  0  0  0  0  0  0
    3.7131   17.9177   50.8303 O   0  0  0  0  0  0  0  0  0  0  0  0
   13.3198   19.7752   54.8852 C   0  0  0  0  0  0  0  0  0  0  0  0
    6.8547   18.7223   53.3925 C   0  0  0  0  0  0  0  0  0  0  0  0
    1.6848   19.7941   54.1722 P   0  0  1  0  0  0  0  0  0  0  0  0
   11.2084   19.4126   53.8152 N   0  0  0  0  0  0  0  0  0  0  0  0
    1.0761   18.5546   53.6525 O   0  0  0  0  0  0  0  0  0  0  0  0
    5.6371   19.0684   50.5529 S   0  0  0  0  0  0  0  0  0  0  0  0
    6.8168   21.4308   54.7106 C   0  0  0  0  0  0  0  0  0  0  0  0
   12.0933   20.3331   54.3297 C   0  0  0  0  0  0  0  0  0  0  0  0
    0.8510   21.0140   53.9968 O   0  5  0  0  0  0  0  0  0  0  0  0
    7.1560   21.1951   53.4190 N   0  0  0  0  0  0  0  0  0  0  0  0
   11.8867   21.6127   54.3381 N   0  0  0  0  0  0  0  0  0  0  0  0
    2.1482   19.5923   55.5646 O   0  0  0  0  0  0  0  0  0  0  0  0
    6.4771   20.0505   52.7946 C   0  0  2  0  0  0  0  0  0  0  0  0
   10.7187   22.1345   53.8160 C   0  0  0  0  0  0  0  0  0  0  0  0
   10.5375   23.4571   53.8454 N   0  0  0  0  0  0  0  0  0  0  0  0
    5.4978   20.0913   51.7128 C   0  0  1  0  0  0  0  0  0  0  0  0
    9.7285   21.2252   53.2605 C   0  0  0  0  0  0  0  0  0  0  0  0
    6.6862   22.6114   54.9485 O   0  0  0  0  0  0  0  0  0  0  0  0
    4.3731   21.0622   51.6392 C   0  0  0  0  0  0  0  0  0  0  0  0
   10.0490   19.8832   53.2922 C   0  0  0  0  0  0  0  0  0  0  0  0
    3.0153   20.6326   51.9962 C   0  0  0  0  0  0  0  0  0  0  0  0
    8.4154   21.7322   52.7158 C   0  0  0  0  0  0  0  0  0  0  0  0
    2.9735   20.1301   53.3433 O   0  0  0  0  0  0  0  0  0  0  0  0
  1  2  1  0  0  0  0
  1  8  2  0  0  0  0
  1 14  1  0  0  0  0
  2  3  2  0  0  0  0
  2  7  1  0  0  0  0
  3  4  1  0  0  0  0
  4  5  2  0  0  0  0
  5  6  1  0  0  0  0
  6  7  2  0  0  0  0
  9 16  1  0  0  0  0
 10 21  1  0  0  0  0
 11 13  1  6  0  0  0
 11 17  1  0  0  0  0
 11 20  2  0  0  0  0
 11 31  1  0  0  0  0
 12 16  2  0  0  0  0
 12 28  1  0  0  0  0
 15 26  1  0  0  0  0
 15 18  1  0  0  0  0
 16 19  1  0  0  0  0
 18 30  1  0  0  0  0
 19 22  2  0  0  0  0
 21 18  1  1  0  0  0
 21 24  1  0  0  0  0
 22 23  1  0  0  0  0
 22 25  1  0  0  0  0
 24 14  1  6  0  0  0
 24 27  1  0  0  0  0
 25 28  2  0  0  0  0
 25 30  1  0  0  0  0
 27 29  1  0  0  0  0
 29 31  1  0  0  0  0
M  CHG  1  17  -1
M  END
>  <CHROM.1>
44.21568476,-161.05167553,107.44310583,-138.85317900,-66.30066252,64.51932742
-45.48842708,78.26402613,-119.27621586,58.03102114,169.45642437,72.99426509
6.19235840,19.56559673,52.47514734,-2.70096325,0.04853726,0.82381616

>  <Name>
ligand

>  <RI>
0

>  <Rbt.Current_Directory>
/home/itssahil/PROJECTS/Mol_Feturizer/New_Systems/rnas/2HOO

>  <Rbt.Executable>
rbdock ($Id: //depot/dev/client3/rdock/2013.1/src/exe/rbdock.cxx#4 $)

>  <Rbt.Library>
libRbt.so (2013.1, Build901 2013/11/27)

>  <Rbt.Parameter_File>
/export/apps/rDock/src/rDock_2013.1_src/data/scripts/dock_solv.prm

>  <Rbt.Receptor>
prm/pocket_docking_2.prm

>  <SCORE>
-25.2036

>  <SCORE.INTER>
-13.1348

>  <SCORE.INTER.CONST>
1

>  <SCORE.INTER.POLAR>
0

>  <SCORE.INTER.ROT>
12

>  <SCORE.INTER.SOLV>
15.0083

>  <SCORE.INTER.VDW>
-25.3593

>  <SCORE.INTER.norm>
-0.423702

>  <SCORE.INTRA>
-12.2653

>  <SCORE.INTRA.DIHEDRAL>
0.243238

>  <SCORE.INTRA.DIHEDRAL.0>
14.6094

>  <SCORE.INTRA.POLAR>
0

>  <SCORE.INTRA.POLAR.0>
0

>  <SCORE.INTRA.REPUL>
0

>  <SCORE.INTRA.REPUL.0>
0

>  <SCORE.INTRA.SOLV>
0.377649

>  <SCORE.INTRA.SOLV.lig_0>
-65.6478

>  <SCORE.INTRA.VDW>
-12.5758

>  <SCORE.INTRA.VDW.0>
9.35535

>  <SCORE.INTRA.norm>
-0.395656

>  <SCORE.RESTR>
0.196462

>  <SCORE.RESTR.CAVITY>
0.196462

>  <SCORE.RESTR.norm>
0.0063375

>  <SCORE.SYSTEM>
0

>  <SCORE.SYSTEM.CONST>
0

>  <SCORE.SYSTEM.DIHEDRAL>
0

>  <SCORE.SYSTEM.SOLV>
0

>  <SCORE.SYSTEM.norm>
0

>  <SCORE.heavy>
31

>  <SCORE.norm>
-0.81302

>  <RMSD>
1.874

$$$$
ligand
 OpenBabel11021811443D
libRbt.so/2013.1/901 2013/11/27
 31 32  0  0  0  0  0  0  0  0999 V2000
    7.0865   18.3341   50.3734 C   0  0  0  0  0  0  0  0  0  0  0  0
    7.2437   17.4975   49.1071 C   0  0  0  0  0  0  0  0  0  0  0  0
    6.1748   17.4261   48.1559 C   0  0  0  0  0  0  0  0  0  0  0  0
    6.3253   16.6456   46.9846 C   0  0  0  0  0  0  0  0  0  0  0  0
    7.5285   15.9391   46.7409 C   0  0  0  0  0  0  0  0  0  0  0  0
    8.5930   16.0029   47.6629 C   0  0  0  0  0  0  0  0  0  0  0  0
    8.4623   16.7714   48.8335 C   0  0  0  0  0  0  0  0  0  0  0  0
    7.4363   17.8749   51.4603 O   0  0  0  0  0  0  0  0  0  0  0  0
   13.0662   19.8885   54.3361 C   0  0  0  0  0  0  0  0  0  0  0  0
    4.5209   21.7635   52.9597 C   0  0  0  0  0  0  0  0  0  0  0  0
    0.8532   17.7371   52.1119 P   0  0  1  0  0  0  0  0  0  0  0  0
   10.7767   19.2171   54.1321 N   0  0  0  0  0  0  0  0  0  0  0  0
   -0.4338   17.8466   51.3988 O   0  0  0  0  0  0  0  0  0  0  0  0
    6.5513   19.6091   50.3147 S   0  0  0  0  0  0  0  0  0  0  0  0
    7.4500   22.6889   51.9441 C   0  0  0  0  0  0  0  0  0  0  0  0
   11.6622   20.2661   54.2344 C   0  0  0  0  0  0  0  0  0  0  0  0
    0.8668   18.3588   53.4637 O   0  5  0  0  0  0  0  0  0  0  0  0
    6.9852   21.6134   52.6269 N   0  0  0  0  0  0  0  0  0  0  0  0
   11.3115   21.5139   54.2431 N   0  0  0  0  0  0  0  0  0  0  0  0
    1.3249   16.3329   52.1043 O   0  0  0  0  0  0  0  0  0  0  0  0
    5.6610   21.1326   52.2071 C   0  0  2  0  0  0  0  0  0  0  0  0
    9.9780   21.8647   54.1531 C   0  0  0  0  0  0  0  0  0  0  0  0
    9.6528   23.1597   54.1695 N   0  0  0  0  0  0  0  0  0  0  0  0
    5.3696   20.1607   51.1576 C   0  0  1  0  0  0  0  0  0  0  0  0
    8.9791   20.8124   54.0505 C   0  0  0  0  0  0  0  0  0  0  0  0
    8.6191   22.5801   51.6460 O   0  0  0  0  0  0  0  0  0  0  0  0
    4.0049   19.6679   50.8298 C   0  0  0  0  0  0  0  0  0  0  0  0
    9.4574   19.5179   54.0411 C   0  0  0  0  0  0  0  0  0  0  0  0
    3.2950   18.8028   51.7803 C   0  0  0  0  0  0  0  0  0  0  0  0
    7.5052   21.1321   53.9932 C   0  0  0  0  0  0  0  0  0  0  0  0
    1.9482   18.5541   51.3410 O   0  0  0  0  0  0  0  0  0  0  0  0
  1  2  1  0  0  0  0
  1  8  2  0  0  0  0
  1 14  1  0  0  0  0
  2  3  2  0  0  0  0
  2  7  1  0  0  0  0
  3  4  1  0  0  0  0
  4  5  2  0  0  0  0
  5  6  1  0  0  0  0
  6  7  2  0  0  0  0
  9 16  1  0  0  0  0
 10 21  1  0  0  0  0
 11 13  1  6  0  0  0
 11 17  1  0  0  0  0
 11 20  2  0  0  0  0
 11 31  1  0  0  0  0
 12 16  2  0  0  0  0
 12 28  1  0  0  0  0
 15 26  1  0  0  0  0
 15 18  1  0  0  0  0
 16 19  1  0  0  0  0
 18 30  1  0  0  0  0
 19 22  2  0  0  0  0
 21 18  1  6  0  0  0
 21 24  1  0  0  0  0
 22 23  1  0  0  0  0
 22 25  1  0  0  0  0
 24 14  1  6  0  0  0
 24 27  1  0  0  0  0
 25 28  2  0  0  0  0
 25 30  1  0  0  0  0
 27 29  1  0  0  0  0
 29 31  1  0  0  0  0
M  CHG  1  17  -1
M  END
>  <CHROM.1>
134.93777943,127.39518699,108.30832499,-136.53727959,-90.56416416,-57.40197641
175.05365670,111.42240054,78.39506203,173.96857410,-176.86341612,173.53520166
6.34346926,19.35956419,51.73297067,-0.41238589,-0.11617325,-2.25589386

>  <Name>
ligand

>  <RI>
0

>  <Rbt.Current_Directory>
/home/itssahil/PROJECTS/Mol_Feturizer/New_Systems/rnas/2HOO

>  <Rbt.Executable>
rbdock ($Id: //depot/dev/client3/rdock/2013.1/src/exe/rbdock.cxx#4 $)

>  <Rbt.Library>
libRbt.so (2013.1, Build901 2013/11/27)

>  <Rbt.Parameter_File>
/export/apps/rDock/src/rDock_2013.1_src/data/scripts/dock_solv.prm

>  <Rbt.Receptor>
prm/pocket_docking_3.prm

>  <SCORE>
-27.7316

>  <SCORE.INTER>
-17.0705

>  <SCORE.INTER.CONST>
1

>  <SCORE.INTER.POLAR>
0

>  <SCORE.INTER.ROT>
12

>  <SCORE.INTER.SOLV>
15.2162

>  <SCORE.INTER.VDW>
-28.0524

>  <SCORE.INTER.norm>
-0.550662

>  <SCORE.INTRA>
-10.6611

>  <SCORE.INTRA.DIHEDRAL>
0.17441

>  <SCORE.INTRA.DIHEDRAL.0>
14.6094

>  <SCORE.INTRA.POLAR>
0

>  <SCORE.INTRA.POLAR.0>
0

>  <SCORE.INTRA.REPUL>
0

>  <SCORE.INTRA.REPUL.0>
0

>  <SCORE.INTRA.SOLV>
3.97451

>  <SCORE.INTRA.SOLV.lig_0>
-65.6478

>  <SCORE.INTRA.VDW>
-12.7356

>  <SCORE.INTRA.VDW.0>
9.35535

>  <SCORE.INTRA.norm>
-0.343907

>  <SCORE.RESTR>
0

>  <SCORE.RESTR.CAVITY>
0

>  <SCORE.RESTR.norm>
0

>  <SCORE.SYSTEM>
0

>  <SCORE.SYSTEM.CONST>
0

>  <SCORE.SYSTEM.DIHEDRAL>
0

>  <SCORE.SYSTEM.SOLV>
0

>  <SCORE.SYSTEM.norm>
0

>  <SCORE.heavy>
31

>  <SCORE.norm>
-0.894569

>  <RMSD>
2.052

$$$$
ligand
 OpenBabel11021811443D
libRbt.so/2013.1/901 2013/11/27
 31 32  0  0  0  0  0  0  0  0999 V2000
    5.5522   18.7638   50.1991 C   0  0  0  0  0  0  0  0  0  0  0  0
    5.1909   17.3102   49.9081 C   0  0  0  0  0  0  0  0  0  0  0  0
    3.8174   16.9223   49.7839 C   0  0  0  0  0  0  0  0  0  0  0  0
    3.4885   15.5716   49.5171 C   0  0  0  0  0  0  0  0  0  0  0  0
    4.5076   14.5998   49.3646 C   0  0  0  0  0  0  0  0  0  0  0  0
    5.8646   14.9648   49.4775 C   0  0  0  0  0  0  0  0  0  0  0  0
    6.2118   16.3014   49.7440 C   0  0  0  0  0  0  0  0  0  0  0  0
    6.6556   19.1998   49.8724 O   0  0  0  0  0  0  0  0  0  0  0  0
   13.1749   19.9189   54.6977 C   0  0  0  0  0  0  0  0  0  0  0  0
    6.5067   18.7525   53.4914 C   0  0  0  0  0  0  0  0  0  0  0  0
    0.7303   19.0899   53.1598 P   0  0  1  0  0  0  0  0  0  0  0  0
   11.1253   19.3109   53.6188 N   0  0  0  0  0  0  0  0  0  0  0  0
    1.4137   19.3385   54.4435 O   0  0  0  0  0  0  0  0  0  0  0  0
    4.6499   19.6021   50.8307 S   0  0  0  0  0  0  0  0  0  0  0  0
    6.8752   21.7455   54.4506 C   0  0  0  0  0  0  0  0  0  0  0  0
   11.9243   20.3348   54.0754 C   0  0  0  0  0  0  0  0  0  0  0  0
    0.6404   17.6556   52.7739 O   0  5  0  0  0  0  0  0  0  0  0  0
    6.9809   21.1832   53.2212 N   0  0  0  0  0  0  0  0  0  0  0  0
   11.6212   21.5912   53.9773 N   0  0  0  0  0  0  0  0  0  0  0  0
   -0.5743   19.7910   53.1300 O   0  0  0  0  0  0  0  0  0  0  0  0
    6.0448   20.0810   52.9567 C   0  0  2  0  0  0  0  0  0  0  0  0
   10.4307   21.9783   53.3922 C   0  0  0  0  0  0  0  0  0  0  0  0
   10.1491   23.2811   53.3120 N   0  0  0  0  0  0  0  0  0  0  0  0
    4.7573   20.1646   52.2741 C   0  0  1  0  0  0  0  0  0  0  0  0
    9.5270   20.9542   52.8919 C   0  0  0  0  0  0  0  0  0  0  0  0
    5.9316   22.5003   54.5366 O   0  0  0  0  0  0  0  0  0  0  0  0
    3.5339   20.7681   52.8673 C   0  0  0  0  0  0  0  0  0  0  0  0
    9.9474   19.6477   53.0371 C   0  0  0  0  0  0  0  0  0  0  0  0
    2.3303   20.9340   52.0429 C   0  0  0  0  0  0  0  0  0  0  0  0
    8.1937   21.3135   52.2826 C   0  0  0  0  0  0  0  0  0  0  0  0
    1.5711   19.7135   51.9915 O   0  0  0  0  0  0  0  0  0  0  0  0
  1  2  1  0  0  0  0
  1  8  2  0  0  0  0
  1 14  1  0  0  0  0
  2  3  2  0  0  0  0
  2  7  1  0  0  0  0
  3  4  1  0  0  0  0
  4  5  2  0  0  0  0
  5  6  1  0  0  0  0
  6  7  2  0  0  0  0
  9 16  1  0  0  0  0
 10 21  1  0  0  0  0
 11 13  1  1  0  0  0
 11 17  1  0  0  0  0
 11 20  2  0  0  0  0
 11 31  1  0  0  0  0
 12 16  2  0  0  0  0
 12 28  1  0  0  0  0
 15 26  1  0  0  0  0
 15 18  1  0  0  0  0
 16 19  1  0  0  0  0
 18 30  1  0  0  0  0
 19 22  2  0  0  0  0
 21 18  1  1  0  0  0
 21 24  1  0  0  0  0
 22 23  1  0  0  0  0
 22 25  1  0  0  0  0
 24 14  1  6  0  0  0
 24 27  1  0  0  0  0
 25 28  2  0  0  0  0
 25 30  1  0  0  0  0
 27 29  1  0  0  0  0
 29 31  1  0  0  0  0
M  CHG  1  17  -1
M  END
>  <CHROM.1>
-155.51040170,109.82161258,15.15016670,-77.65659986,-82.85941765,52.57220825
-74.92668533,-6.09345724,-98.64604964,82.81174206,71.73658392,-35.71776283
5.72272523,19.52839717,52.35468835,-2.81474294,0.02881271,0.67966433

>  <Name>
ligand

>  <RI>
0

>  <Rbt.Current_Directory>
/home/itssahil/PROJECTS/Mol_Feturizer/New_Systems/rnas/2HOO

>  <Rbt.Executable>
rbdock ($Id: //depot/dev/client3/rdock/2013.1/src/exe/rbdock.cxx#4 $)

>  <Rbt.Library>
libRbt.so (2013.1, Build901 2013/11/27)

>  <Rbt.Parameter_File>
/export/apps/rDock/src/rDock_2013.1_src/data/scripts/dock_solv.prm

>  <Rbt.Receptor>
prm/pocket_docking_2.prm

>  <SCORE>
-24.4896

>  <SCORE.INTER>
-15.35

>  <SCORE.INTER.CONST>
1

>  <SCORE.INTER.POLAR>
0

>  <SCORE.INTER.ROT>
12

>  <SCORE.INTER.SOLV>
18.1204

>  <SCORE.INTER.VDW>
-27.8735

>  <SCORE.INTER.norm>
-0.495162

>  <SCORE.INTRA>
-9.36056

>  <SCORE.INTRA.DIHEDRAL>
4.67613

>  <SCORE.INTRA.DIHEDRAL.0>
14.6094

>  <SCORE.INTRA.POLAR>
0

>  <SCORE.INTRA.POLAR.0>
0

>  <SCORE.INTRA.REPUL>
0

>  <SCORE.INTRA.REPUL.0>
0

>  <SCORE.INTRA.SOLV>
1.74657

>  <SCORE.INTRA.SOLV.lig_0>
-65.6478

>  <SCORE.INTRA.VDW>
-12.5719

>  <SCORE.INTRA.VDW.0>
9.35535

>  <SCORE.INTRA.norm>
-0.301953

>  <SCORE.RESTR>
0.220949

>  <SCORE.RESTR.CAVITY>
0.220949

>  <SCORE.RESTR.norm>
0.00712738

>  <SCORE.SYSTEM>
0

>  <SCORE.SYSTEM.CONST>
0

>  <SCORE.SYSTEM.DIHEDRAL>
0

>  <SCORE.SYSTEM.SOLV>
0

>  <SCORE.SYSTEM.norm>
0

>  <SCORE.heavy>
31

>  <SCORE.norm>
-0.789988

>  <RMSD>
2.067

$$$$
ligand
 OpenBabel11021811443D
libRbt.so/2013.1/901 2013/11/27
 31 32  0  0  0  0  0  0  0  0999 V2000
    5.9426   17.1113   50.8273 C   0  0  0  0  0  0  0  0  0  0  0  0
    5.8681   15.7310   50.1812 C   0  0  0  0  0  0  0  0  0  0  0  0
    4.5997   15.0909   49.9982 C   0  0  0  0  0  0  0  0  0  0  0  0
    4.5373   13.8089   49.4013 C   0  0  0  0  0  0  0  0  0  0  0  0
    5.7198   13.1554   48.9760 C   0  0  0  0  0  0  0  0  0  0  0  0
    6.9760   13.7730   49.1426 C   0  0  0  0  0  0  0  0  0  0  0  0
    7.0591   15.0457   49.7352 C   0  0  0  0  0  0  0  0  0  0  0  0
    5.4929   18.0918   50.2351 O   0  0  0  0  0  0  0  0  0  0  0  0
   14.0947   18.9433   54.9956 C   0  0  0  0  0  0  0  0  0  0  0  0
    5.8223   20.8858   53.1860 C   0  0  0  0  0  0  0  0  0  0  0  0
    1.5295   17.9666   55.5357 P   0  0  1  0  0  0  0  0  0  0  0  0
   11.8140   18.5618   54.3731 N   0  0  0  0  0  0  0  0  0  0  0  0
    1.2296   19.3876   55.7955 O   0  0  0  0  0  0  0  0  0  0  0  0
    6.5141   17.2752   52.0772 S   0  0  0  0  0  0  0  0  0  0  0  0
    8.4211   19.8729   51.3399 C   0  0  0  0  0  0  0  0  0  0  0  0
   12.7909   19.4927   54.6458 C   0  0  0  0  0  0  0  0  0  0  0  0
    1.2932   17.0623   56.6935 O   0  5  0  0  0  0  0  0  0  0  0  0
    8.0987   20.0286   52.6478 N   0  0  0  0  0  0  0  0  0  0  0  0
   12.6036   20.7746   54.6051 N   0  0  0  0  0  0  0  0  0  0  0  0
    0.8582   17.5204   54.2929 O   0  0  0  0  0  0  0  0  0  0  0  0
    6.7112   19.6871   52.9932 C   0  0  2  0  0  0  0  0  0  0  0  0
   11.3631   21.2888   54.2794 C   0  0  0  0  0  0  0  0  0  0  0  0
   11.2053   22.6144   54.2515 N   0  0  0  0  0  0  0  0  0  0  0  0
    6.1433   18.3498   53.1349 C   0  0  1  0  0  0  0  0  0  0  0  0
   10.2753   20.3688   53.9858 C   0  0  0  0  0  0  0  0  0  0  0  0
    8.1403   20.8447   50.6734 O   0  0  0  0  0  0  0  0  0  0  0  0
    5.2160   17.9464   54.2259 C   0  0  0  0  0  0  0  0  0  0  0  0
   10.5813   19.0245   54.0484 C   0  0  0  0  0  0  0  0  0  0  0  0
    3.8152   18.3850   54.1907 C   0  0  0  0  0  0  0  0  0  0  0  0
    8.8880   20.8701   53.6665 C   0  0  0  0  0  0  0  0  0  0  0  0
    3.0662   17.7977   55.2690 O   0  0  0  0  0  0  0  0  0  0  0  0
  1  2  1  0  0  0  0
  1  8  2  0  0  0  0
  1 14  1  0  0  0  0
  2  3  2  0  0  0  0
  2  7  1  0  0  0  0
  3  4  1  0  0  0  0
  4  5  2  0  0  0  0
  5  6  1  0  0  0  0
  6  7  2  0  0  0  0
  9 16  1  0  0  0  0
 10 21  1  0  0  0  0
 11 13  1  1  0  0  0
 11 17  1  0  0  0  0
 11 20  2  0  0  0  0
 11 31  1  0  0  0  0
 12 16  2  0  0  0  0
 12 28  1  0  0  0  0
 15 26  1  0  0  0  0
 15 18  1  0  0  0  0
 16 19  1  0  0  0  0
 18 30  1  0  0  0  0
 19 22  2  0  0  0  0
 21 18  1  6  0  0  0
 21 24  1  0  0  0  0
 22 23  1  0  0  0  0
 22 25  1  0  0  0  0
 24 14  1  6  0  0  0
 24 27  1  0  0  0  0
 25 28  2  0  0  0  0
 25 30  1  0  0  0  0
 27 29  1  0  0  0  0
 29 31  1  0  0  0  0
M  CHG  1  17  -1
M  END
>  <CHROM.1>
-68.11694808,-150.14046502,-81.61807217,85.48293953,-102.87459288,-65.81226300
135.51333701,-104.24407792,146.00401892,175.12294640,-177.04788533,-62.28458911
6.65150010,18.31473566,53.05116086,-2.89543688,0.25100054,0.86376905

>  <Name>
ligand

>  <RI>
0

>  <Rbt.Current_Directory>
/home/itssahil/PROJECTS/Mol_Feturizer/New_Systems/rnas/2HOO

>  <Rbt.Executable>
rbdock ($Id: //depot/dev/client3/rdock/2013.1/src/exe/rbdock.cxx#4 $)

>  <Rbt.Library>
libRbt.so (2013.1, Build901 2013/11/27)

>  <Rbt.Parameter_File>
/export/apps/rDock/src/rDock_2013.1_src/data/scripts/dock_solv.prm

>  <Rbt.Receptor>
prm/pocket_docking_4.prm

>  <SCORE>
-34.3519

>  <SCORE.INTER>
-20.8695

>  <SCORE.INTER.CONST>
1

>  <SCORE.INTER.POLAR>
0

>  <SCORE.INTER.ROT>
12

>  <SCORE.INTER.SOLV>
23.9246

>  <SCORE.INTER.VDW>
-33.4879

>  <SCORE.INTER.norm>
-0.67321

>  <SCORE.INTRA>
-13.4824

>  <SCORE.INTRA.DIHEDRAL>
-0.977935

>  <SCORE.INTRA.DIHEDRAL.0>
14.6094

>  <SCORE.INTRA.POLAR>
0

>  <SCORE.INTRA.POLAR.0>
0

>  <SCORE.INTRA.REPUL>
0

>  <SCORE.INTRA.REPUL.0>
0

>  <SCORE.INTRA.SOLV>
-0.405122

>  <SCORE.INTRA.SOLV.lig_0>
-65.6478

>  <SCORE.INTRA.VDW>
-12.7909

>  <SCORE.INTRA.VDW.0>
9.35535

>  <SCORE.INTRA.norm>
-0.434916

>  <SCORE.RESTR>
0

>  <SCORE.RESTR.CAVITY>
0

>  <SCORE.RESTR.norm>
0

>  <SCORE.SYSTEM>
0

>  <SCORE.SYSTEM.CONST>
0

>  <SCORE.SYSTEM.DIHEDRAL>
0

>  <SCORE.SYSTEM.SOLV>
0

>  <SCORE.SYSTEM.norm>
0

>  <SCORE.heavy>
31

>  <SCORE.norm>
-1.10813

>  <RMSD>
2.078

$$$$
ligand
 OpenBabel11021811443D
libRbt.so/2013.1/901 2013/11/27
 31 32  0  0  0  0  0  0  0  0999 V2000
    5.6398   17.6987   51.1933 C   0  0  0  0  0  0  0  0  0  0  0  0
    5.9802   17.2756   49.7674 C   0  0  0  0  0  0  0  0  0  0  0  0
    6.1494   15.8888   49.4504 C   0  0  0  0  0  0  0  0  0  0  0  0
    6.4685   15.5028   48.1264 C   0  0  0  0  0  0  0  0  0  0  0  0
    6.6150   16.4771   47.1088 C   0  0  0  0  0  0  0  0  0  0  0  0
    6.4460   17.8458   47.4013 C   0  0  0  0  0  0  0  0  0  0  0  0
    6.1306   18.2496   48.7111 C   0  0  0  0  0  0  0  0  0  0  0  0
    4.9302   16.9785   51.8949 O   0  0  0  0  0  0  0  0  0  0  0  0
   13.2795   20.0053   54.6623 C   0  0  0  0  0  0  0  0  0  0  0  0
    4.8990   22.3269   52.2937 C   0  0  0  0  0  0  0  0  0  0  0  0
    1.3076   18.0604   52.8088 P   0  0  1  0  0  0  0  0  0  0  0  0
   11.7430   21.6897   53.9301 N   0  0  0  0  0  0  0  0  0  0  0  0
    2.4067   17.4929   52.0045 O   0  0  0  0  0  0  0  0  0  0  0  0
    6.1206   18.8894   51.7096 S   0  0  0  0  0  0  0  0  0  0  0  0
    7.2038   21.9459   54.5718 C   0  0  0  0  0  0  0  0  0  0  0  0
   11.9932   20.3428   54.0660 C   0  0  0  0  0  0  0  0  0  0  0  0
    0.3107   18.8434   52.0297 O   0  5  0  0  0  0  0  0  0  0  0  0
    7.1252   21.7250   53.2361 N   0  0  0  0  0  0  0  0  0  0  0  0
   11.1692   19.4110   53.7018 N   0  0  0  0  0  0  0  0  0  0  0  0
    0.6989   17.0100   53.6576 O   0  0  0  0  0  0  0  0  0  0  0  0
    5.8234   21.2351   52.7604 C   0  0  2  0  0  0  0  0  0  0  0  0
    9.9541   19.7379   53.1308 C   0  0  0  0  0  0  0  0  0  0  0  0
    9.1319   18.7519   52.7636 N   0  0  0  0  0  0  0  0  0  0  0  0
    5.3806   19.8463   52.6832 C   0  0  1  0  0  0  0  0  0  0  0  0
    9.6188   21.1411   52.9452 C   0  0  0  0  0  0  0  0  0  0  0  0
    6.1748   22.3912   55.0303 O   0  0  0  0  0  0  0  0  0  0  0  0
    4.2513   19.2836   53.4712 C   0  0  0  0  0  0  0  0  0  0  0  0
   10.5607   22.0539   53.3744 C   0  0  0  0  0  0  0  0  0  0  0  0
    2.9839   20.0201   53.5559 C   0  0  0  0  0  0  0  0  0  0  0  0
    8.3260   21.5588   52.2878 C   0  0  0  0  0  0  0  0  0  0  0  0
    1.8859   19.1252   53.8052 O   0  0  0  0  0  0  0  0  0  0  0  0
  1  2  1  0  0  0  0
  1  8  2  0  0  0  0
  1 14  1  0  0  0  0
  2  3  2  0  0  0  0
  2  7  1  0  0  0  0
  3  4  1  0  0  0  0
  4  5  2  0  0  0  0
  5  6  1  0  0  0  0
  6  7  2  0  0  0  0
  9 16  1  0  0  0  0
 10 21  1  0  0  0  0
 11 13  1  6  0  0  0
 11 17  1  0  0  0  0
 11 20  2  0  0  0  0
 11 31  1  0  0  0  0
 12 16  2  0  0  0  0
 12 28  1  0  0  0  0
 15 26  1  0  0  0  0
 15 18  1  0  0  0  0
 16 19  1  0  0  0  0
 18 30  1  0  0  0  0
 19 22  2  0  0  0  0
 21 18  1  6  0  0  0
 21 24  1  0  0  0  0
 22 23  1  0  0  0  0
 22 25  1  0  0  0  0
 24 14  1  6  0  0  0
 24 27  1  0  0  0  0
 25 28  2  0  0  0  0
 25 30  1  0  0  0  0
 27 29  1  0  0  0  0
 29 31  1  0  0  0  0
M  CHG  1  17  -1
M  END
>  <CHROM.1>
-33.84665659,144.06428005,-159.27626794,-36.76167999,93.60256872,21.98283725
114.11524911,-133.25647060,88.65455859,154.10931296,-68.88439575,35.03269478
6.12541078,19.28338151,52.30977369,-2.79330052,0.13376800,0.86841060

>  <Name>
ligand

>  <RI>
0

>  <Rbt.Current_Directory>
/home/itssahil/PROJECTS/Mol_Feturizer/New_Systems/rnas/2HOO

>  <Rbt.Executable>
rbdock ($Id: //depot/dev/client3/rdock/2013.1/src/exe/rbdock.cxx#4 $)

>  <Rbt.Library>
libRbt.so (2013.1, Build901 2013/11/27)

>  <Rbt.Parameter_File>
/export/apps/rDock/src/rDock_2013.1_src/data/scripts/dock_solv.prm

>  <Rbt.Receptor>
prm/pocket_docking_2.prm

>  <SCORE>
-14.7606

>  <SCORE.INTER>
-7.82432

>  <SCORE.INTER.CONST>
1

>  <SCORE.INTER.POLAR>
0

>  <SCORE.INTER.ROT>
12

>  <SCORE.INTER.SOLV>
12.1913

>  <SCORE.INTER.VDW>
-20.88

>  <SCORE.INTER.norm>
-0.252397

>  <SCORE.INTRA>
-7.55779

>  <SCORE.INTRA.DIHEDRAL>
3.19102

>  <SCORE.INTRA.DIHEDRAL.0>
14.6094

>  <SCORE.INTRA.POLAR>
0

>  <SCORE.INTRA.POLAR.0>
0

>  <SCORE.INTRA.REPUL>
0

>  <SCORE.INTRA.REPUL.0>
0

>  <SCORE.INTRA.SOLV>
4.49617

>  <SCORE.INTRA.SOLV.lig_0>
-65.6478

>  <SCORE.INTRA.VDW>
-11.4014

>  <SCORE.INTRA.VDW.0>
9.35535

>  <SCORE.INTRA.norm>
-0.2438

>  <SCORE.RESTR>
0.621539

>  <SCORE.RESTR.CAVITY>
0.621539

>  <SCORE.RESTR.norm>
0.0200496

>  <SCORE.SYSTEM>
0

>  <SCORE.SYSTEM.CONST>
0

>  <SCORE.SYSTEM.DIHEDRAL>
0

>  <SCORE.SYSTEM.SOLV>
0

>  <SCORE.SYSTEM.norm>
0

>  <SCORE.heavy>
31

>  <SCORE.norm>
-0.476148

>  <RMSD>
2.087

$$$$
ligand
 OpenBabel11021811443D
libRbt.so/2013.1/901 2013/11/27
 31 32  0  0  0  0  0  0  0  0999 V2000
    4.0212   17.2593   51.2447 C   0  0  0  0  0  0  0  0  0  0  0  0
    4.7227   17.2160   49.8904 C   0  0  0  0  0  0  0  0  0  0  0  0
    5.8481   18.0653   49.6367 C   0  0  0  0  0  0  0  0  0  0  0  0
    6.4926   18.0230   48.3771 C   0  0  0  0  0  0  0  0  0  0  0  0
    6.0380   17.1414   47.3660 C   0  0  0  0  0  0  0  0  0  0  0  0
    4.9359   16.2942   47.6002 C   0  0  0  0  0  0  0  0  0  0  0  0
    4.2809   16.3227   48.8444 C   0  0  0  0  0  0  0  0  0  0  0  0
    3.1131   16.4664   51.4917 O   0  0  0  0  0  0  0  0  0  0  0  0
   13.1092   20.3357   54.1320 C   0  0  0  0  0  0  0  0  0  0  0  0
    6.7885   20.7243   51.0948 C   0  0  0  0  0  0  0  0  0  0  0  0
    2.1502   19.7693   54.4890 P   0  0  1  0  0  0  0  0  0  0  0  0
   11.2632   18.8320   54.3882 N   0  0  0  0  0  0  0  0  0  0  0  0
    3.5649   19.9546   54.8645 O   0  0  0  0  0  0  0  0  0  0  0  0
    4.3946   18.1852   52.2033 S   0  0  0  0  0  0  0  0  0  0  0  0
    6.0854   21.3450   54.3679 C   0  0  0  0  0  0  0  0  0  0  0  0
   11.6712   20.1071   54.0677 C   0  0  0  0  0  0  0  0  0  0  0  0
    1.8109   18.4020   54.0098 O   0  5  0  0  0  0  0  0  0  0  0  0
    6.6070   20.3915   53.5570 N   0  0  0  0  0  0  0  0  0  0  0  0
   10.8649   21.0634   53.7280 N   0  0  0  0  0  0  0  0  0  0  0  0
    1.2649   20.2496   55.5752 O   0  0  0  0  0  0  0  0  0  0  0  0
    5.9472   20.2544   52.2505 C   0  0  2  0  0  0  0  0  0  0  0  0
    9.5020   20.8416   53.6756 C   0  0  0  0  0  0  0  0  0  0  0  0
    8.7008   21.8510   53.3259 N   0  0  0  0  0  0  0  0  0  0  0  0
    4.6200   19.7063   51.9881 C   0  0  1  0  0  0  0  0  0  0  0  0
    8.9908   19.5212   54.0088 C   0  0  0  0  0  0  0  0  0  0  0  0
    5.7888   22.3542   53.7672 O   0  0  0  0  0  0  0  0  0  0  0  0
    3.4622   20.5104   51.5129 C   0  0  0  0  0  0  0  0  0  0  0  0
    9.9329   18.5717   54.3488 C   0  0  0  0  0  0  0  0  0  0  0  0
    2.7616   21.4011   52.4466 C   0  0  0  0  0  0  0  0  0  0  0  0
    7.5097   19.2308   54.0118 C   0  0  0  0  0  0  0  0  0  0  0  0
    1.8180   20.6670   53.2462 O   0  0  0  0  0  0  0  0  0  0  0  0
  1  2  1  0  0  0  0
  1  8  2  0  0  0  0
  1 14  1  0  0  0  0
  2  3  2  0  0  0  0
  2  7  1  0  0  0  0
  3  4  1  0  0  0  0
  4  5  2  0  0  0  0
  5  6  1  0  0  0  0
  6  7  2  0  0  0  0
  9 16  1  0  0  0  0
 10 21  1  0  0  0  0
 11 13  1  1  0  0  0
 11 17  1  0  0  0  0
 11 20  2  0  0  0  0
 11 31  1  0  0  0  0
 12 16  2  0  0  0  0
 12 28  1  0  0  0  0
 15 26  1  0  0  0  0
 15 18  1  0  0  0  0
 16 19  1  0  0  0  0
 18 30  1  0  0  0  0
 19 22  2  0  0  0  0
 21 18  1  6  0  0  0
 21 24  1  0  0  0  0
 22 23  1  0  0  0  0
 22 25  1  0  0  0  0
 24 14  1  6  0  0  0
 24 27  1  0  0  0  0
 25 28  2  0  0  0  0
 25 30  1  0  0  0  0
 27 29  1  0  0  0  0
 29 31  1  0  0  0  0
M  CHG  1  17  -1
M  END
>  <CHROM.1>
-175.10120817,47.34611485,-118.53171693,-40.51808998,110.03093582,-89.56114959
109.93519096,105.68358469,3.67111774,-81.49781606,78.00301321,9.13340571
5.75194407,19.42656184,52.61803267,-2.88272962,0.04786896,0.99571099

>  <Name>
ligand

>  <RI>
0

>  <Rbt.Current_Directory>
/home/itssahil/PROJECTS/Mol_Feturizer/New_Systems/rnas/2HOO

>  <Rbt.Executable>
rbdock ($Id: //depot/dev/client3/rdock/2013.1/src/exe/rbdock.cxx#4 $)

>  <Rbt.Library>
libRbt.so (2013.1, Build901 2013/11/27)

>  <Rbt.Parameter_File>
/export/apps/rDock/src/rDock_2013.1_src/data/scripts/dock_solv.prm

>  <Rbt.Receptor>
prm/pocket_docking_2.prm

>  <SCORE>
-16.9702

>  <SCORE.INTER>
-10.6477

>  <SCORE.INTER.CONST>
1

>  <SCORE.INTER.POLAR>
0

>  <SCORE.INTER.ROT>
12

>  <SCORE.INTER.SOLV>
8.62614

>  <SCORE.INTER.VDW>
-21.5738

>  <SCORE.INTER.norm>
-0.343473

>  <SCORE.INTRA>
-6.76978

>  <SCORE.INTRA.DIHEDRAL>
5.16516

>  <SCORE.INTRA.DIHEDRAL.0>
14.6094

>  <SCORE.INTRA.POLAR>
0

>  <SCORE.INTRA.POLAR.0>
0

>  <SCORE.INTRA.REPUL>
0

>  <SCORE.INTRA.REPUL.0>
0

>  <SCORE.INTRA.SOLV>
10.2682

>  <SCORE.INTRA.SOLV.lig_0>
-65.6478

>  <SCORE.INTRA.VDW>
-14.4864

>  <SCORE.INTRA.VDW.0>
9.35535

>  <SCORE.INTRA.norm>
-0.21838

>  <SCORE.RESTR>
0.447213

>  <SCORE.RESTR.CAVITY>
0.447213

>  <SCORE.RESTR.norm>
0.0144262

>  <SCORE.SYSTEM>
0

>  <SCORE.SYSTEM.CONST>
0

>  <SCORE.SYSTEM.DIHEDRAL>
0

>  <SCORE.SYSTEM.SOLV>
0

>  <SCORE.SYSTEM.norm>
0

>  <SCORE.heavy>
31

>  <SCORE.norm>
-0.547427

>  <RMSD>
2.117

$$$$
ligand
 OpenBabel11021811443D
libRbt.so/2013.1/901 2013/11/27
 31 32  0  0  0  0  0  0  0  0999 V2000
    4.5448   18.1418   49.7852 C   0  0  0  0  0  0  0  0  0  0  0  0
    5.9606   18.0683   49.2212 C   0  0  0  0  0  0  0  0  0  0  0  0
    6.4164   19.0591   48.2924 C   0  0  0  0  0  0  0  0  0  0  0  0
    7.7299   18.9836   47.7701 C   0  0  0  0  0  0  0  0  0  0  0  0
    8.6015   17.9390   48.1642 C   0  0  0  0  0  0  0  0  0  0  0  0
    8.1720   16.9589   49.0819 C   0  0  0  0  0  0  0  0  0  0  0  0
    6.8700   17.0154   49.6107 C   0  0  0  0  0  0  0  0  0  0  0  0
    3.6829   17.3595   49.3855 O   0  0  0  0  0  0  0  0  0  0  0  0
   13.1489   19.8825   54.2606 C   0  0  0  0  0  0  0  0  0  0  0  0
    4.6934   21.7905   52.6180 C   0  0  0  0  0  0  0  0  0  0  0  0
    1.2743   18.2670   54.6386 P   0  0  1  0  0  0  0  0  0  0  0  0
   11.3767   21.4822   54.0742 N   0  0  0  0  0  0  0  0  0  0  0  0
    0.0811   18.3336   53.7733 O   0  0  0  0  0  0  0  0  0  0  0  0
    4.2157   19.0832   50.7449 S   0  0  0  0  0  0  0  0  0  0  0  0
    7.5605   21.1480   51.2290 C   0  0  0  0  0  0  0  0  0  0  0  0
   11.7199   20.1520   54.1631 C   0  0  0  0  0  0  0  0  0  0  0  0
    1.4854   19.4651   55.4954 O   0  5  0  0  0  0  0  0  0  0  0  0
    6.9942   20.8547   52.4257 N   0  0  0  0  0  0  0  0  0  0  0  0
   10.8628   19.1796   54.1634 N   0  0  0  0  0  0  0  0  0  0  0  0
    1.2887   16.9926   55.3937 O   0  0  0  0  0  0  0  0  0  0  0  0
    5.5512   20.5771   52.3818 C   0  0  2  0  0  0  0  0  0  0  0  0
    9.5098   19.4418   54.0639 C   0  0  0  0  0  0  0  0  0  0  0  0
    8.6558   18.4153   54.0629 N   0  0  0  0  0  0  0  0  0  0  0  0
    4.9099   19.2926   52.1180 C   0  0  1  0  0  0  0  0  0  0  0  0
    9.0668   20.8232   53.9576 C   0  0  0  0  0  0  0  0  0  0  0  0
    8.1923   22.1812   51.2549 O   0  0  0  0  0  0  0  0  0  0  0  0
    4.8651   18.1654   53.0877 C   0  0  0  0  0  0  0  0  0  0  0  0
   10.0581   21.7834   53.9753 C   0  0  0  0  0  0  0  0  0  0  0  0
    3.9248   18.2108   54.2144 C   0  0  0  0  0  0  0  0  0  0  0  0
    7.6060   21.1694   53.8025 C   0  0  0  0  0  0  0  0  0  0  0  0
    2.5649   18.2437   53.7472 O   0  0  0  0  0  0  0  0  0  0  0  0
  1  2  1  0  0  0  0
  1  8  2  0  0  0  0
  1 14  1  0  0  0  0
  2  3  2  0  0  0  0
  2  7  1  0  0  0  0
  3  4  1  0  0  0  0
  4  5  2  0  0  0  0
  5  6  1  0  0  0  0
  6  7  2  0  0  0  0
  9 16  1  0  0  0  0
 10 21  1  0  0  0  0
 11 13  1  6  0  0  0
 11 17  1  0  0  0  0
 11 20  2  0  0  0  0
 11 31  1  0  0  0  0
 12 16  2  0  0  0  0
 12 28  1  0  0  0  0
 15 26  1  0  0  0  0
 15 18  1  0  0  0  0
 16 19  1  0  0  0  0
 18 30  1  0  0  0  0
 19 22  2  0  0  0  0
 21 18  1  6  0  0  0
 21 24  1  0  0  0  0
 22 23  1  0  0  0  0
 22 25  1  0  0  0  0
 24 14  1  1  0  0  0
 24 27  1  0  0  0  0
 25 28  2  0  0  0  0
 25 30  1  0  0  0  0
 27 29  1  0  0  0  0
 29 31  1  0  0  0  0
M  CHG  1  17  -1
M  END
>  <CHROM.1>
105.58843044,-55.88077152,118.38537749,127.66036015,-92.16715746,-45.83189053
71.88850519,-102.58083459,-72.54942469,62.25034029,178.69458921,178.55077255
6.06734390,19.26553705,52.41782776,3.11077247,0.23821402,1.33138955

>  <Name>
ligand

>  <RI>
0

>  <Rbt.Current_Directory>
/home/itssahil/PROJECTS/Mol_Feturizer/New_Systems/rnas/2HOO

>  <Rbt.Executable>
rbdock ($Id: //depot/dev/client3/rdock/2013.1/src/exe/rbdock.cxx#4 $)

>  <Rbt.Library>
libRbt.so (2013.1, Build901 2013/11/27)

>  <Rbt.Parameter_File>
/export/apps/rDock/src/rDock_2013.1_src/data/scripts/dock_solv.prm

>  <Rbt.Receptor>
prm/pocket_docking_3.prm

>  <SCORE>
-29.7848

>  <SCORE.INTER>
-16.9025

>  <SCORE.INTER.CONST>
1

>  <SCORE.INTER.POLAR>
0

>  <SCORE.INTER.ROT>
12

>  <SCORE.INTER.SOLV>
15.9334

>  <SCORE.INTER.VDW>
-28.1794

>  <SCORE.INTER.norm>
-0.545241

>  <SCORE.INTRA>
-12.8839

>  <SCORE.INTRA.DIHEDRAL>
0.732652

>  <SCORE.INTRA.DIHEDRAL.0>
14.6094

>  <SCORE.INTRA.POLAR>
0

>  <SCORE.INTRA.POLAR.0>
0

>  <SCORE.INTRA.REPUL>
0

>  <SCORE.INTRA.REPUL.0>
0

>  <SCORE.INTRA.SOLV>
2.50528

>  <SCORE.INTRA.SOLV.lig_0>
-65.6478

>  <SCORE.INTRA.VDW>
-14.5029

>  <SCORE.INTRA.VDW.0>
9.35535

>  <SCORE.INTRA.norm>
-0.415609

>  <SCORE.RESTR>
0.00152499

>  <SCORE.RESTR.CAVITY>
0.00152499

>  <SCORE.RESTR.norm>
4.91933e-05

>  <SCORE.SYSTEM>
0

>  <SCORE.SYSTEM.CONST>
0

>  <SCORE.SYSTEM.DIHEDRAL>
0

>  <SCORE.SYSTEM.SOLV>
0

>  <SCORE.SYSTEM.norm>
0

>  <SCORE.heavy>
31

>  <SCORE.norm>
-0.960801

>  <RMSD>
2.126

$$$$
ligand
 OpenBabel11021811443D
libRbt.so/2013.1/901 2013/11/27
 31 32  0  0  0  0  0  0  0  0999 V2000
    4.3656   18.2392   50.5270 C   0  0  0  0  0  0  0  0  0  0  0  0
    5.6272   17.4514   50.1863 C   0  0  0  0  0  0  0  0  0  0  0  0
    6.0292   17.2944   48.8203 C   0  0  0  0  0  0  0  0  0  0  0  0
    7.1987   16.5596   48.5103 C   0  0  0  0  0  0  0  0  0  0  0  0
    7.9803   15.9833   49.5415 C   0  0  0  0  0  0  0  0  0  0  0  0
    7.6031   16.1330   50.8915 C   0  0  0  0  0  0  0  0  0  0  0  0
    6.4435   16.8578   51.2199 C   0  0  0  0  0  0  0  0  0  0  0  0
    3.3009   17.6478   50.7031 O   0  0  0  0  0  0  0  0  0  0  0  0
   13.7085   19.2725   54.6986 C   0  0  0  0  0  0  0  0  0  0  0  0
    7.4443   20.2313   50.4262 C   0  0  0  0  0  0  0  0  0  0  0  0
    1.2967   21.4113   52.2869 P   0  0  1  0  0  0  0  0  0  0  0  0
   11.5102   18.9010   53.8247 N   0  0  0  0  0  0  0  0  0  0  0  0
    1.3635   19.9424   52.1655 O   0  0  0  0  0  0  0  0  0  0  0  0
    4.4039   19.6181   50.6396 S   0  0  0  0  0  0  0  0  0  0  0  0
    7.5260   18.8010   53.3964 C   0  0  0  0  0  0  0  0  0  0  0  0
   12.4083   19.8158   54.3266 C   0  0  0  0  0  0  0  0  0  0  0  0
    0.0752   22.0260   51.7003 O   0  5  0  0  0  0  0  0  0  0  0  0
    7.5001   20.0671   52.9115 N   0  0  0  0  0  0  0  0  0  0  0  0
   12.1534   21.0781   54.4731 N   0  0  0  0  0  0  0  0  0  0  0  0
    1.5479   21.8212   53.6880 O   0  0  0  0  0  0  0  0  0  0  0  0
    6.6681   20.2599   51.7150 C   0  0  2  0  0  0  0  0  0  0  0  0
   10.9162   21.5854   54.1246 C   0  0  0  0  0  0  0  0  0  0  0  0
   10.6872   22.8901   54.2932 N   0  0  0  0  0  0  0  0  0  0  0  0
    5.2207   20.4441   51.6700 C   0  0  1  0  0  0  0  0  0  0  0  0
    9.9087   20.6802   53.5942 C   0  0  0  0  0  0  0  0  0  0  0  0
    6.4240   18.3945   53.6929 O   0  0  0  0  0  0  0  0  0  0  0  0
    4.4701   21.3861   52.5429 C   0  0  0  0  0  0  0  0  0  0  0  0
   10.2836   19.3578   53.4698 C   0  0  0  0  0  0  0  0  0  0  0  0
    3.7263   22.5005   51.9422 C   0  0  0  0  0  0  0  0  0  0  0  0
    8.5257   21.1676   53.2371 C   0  0  0  0  0  0  0  0  0  0  0  0
    2.4515   22.0578   51.4447 O   0  0  0  0  0  0  0  0  0  0  0  0
  1  2  1  0  0  0  0
  1  8  2  0  0  0  0
  1 14  1  0  0  0  0
  2  3  2  0  0  0  0
  2  7  1  0  0  0  0
  3  4  1  0  0  0  0
  4  5  2  0  0  0  0
  5  6  1  0  0  0  0
  6  7  2  0  0  0  0
  9 16  1  0  0  0  0
 10 21  1  0  0  0  0
 11 13  1  6  0  0  0
 11 17  1  0  0  0  0
 11 20  2  0  0  0  0
 11 31  1  0  0  0  0
 12 16  2  0  0  0  0
 12 28  1  0  0  0  0
 15 26  1  0  0  0  0
 15 18  1  0  0  0  0
 16 19  1  0  0  0  0
 18 30  1  0  0  0  0
 19 22  2  0  0  0  0
 21 18  1  6  0  0  0
 21 24  1  0  0  0  0
 22 23  1  0  0  0  0
 22 25  1  0  0  0  0
 24 14  1  6  0  0  0
 24 27  1  0  0  0  0
 25 28  2  0  0  0  0
 25 30  1  0  0  0  0
 27 29  1  0  0  0  0
 29 31  1  0  0  0  0
M  CHG  1  17  -1
M  END
>  <CHROM.1>
95.83310311,-62.60002465,57.37943354,-58.70782966,-97.47353936,27.56293139
45.49537574,-61.90778575,-170.26895434,80.94114501,60.39213571,-97.36060447
6.28920794,19.82126622,52.13885136,-3.08553562,-0.23107259,0.62294484

>  <Name>
ligand

>  <RI>
0

>  <Rbt.Current_Directory>
/home/itssahil/PROJECTS/Mol_Feturizer/New_Systems/rnas/2HOO

>  <Rbt.Executable>
rbdock ($Id: //depot/dev/client3/rdock/2013.1/src/exe/rbdock.cxx#4 $)

>  <Rbt.Library>
libRbt.so (2013.1, Build901 2013/11/27)

>  <Rbt.Parameter_File>
/export/apps/rDock/src/rDock_2013.1_src/data/scripts/dock_solv.prm

>  <Rbt.Receptor>
prm/pocket_docking_3.prm

>  <SCORE>
-27.7433

>  <SCORE.INTER>
-19.4093

>  <SCORE.INTER.CONST>
1

>  <SCORE.INTER.POLAR>
0

>  <SCORE.INTER.ROT>
12

>  <SCORE.INTER.SOLV>
20.3182

>  <SCORE.INTER.VDW>
-31.3123

>  <SCORE.INTER.norm>
-0.626106

>  <SCORE.INTRA>
-8.334

>  <SCORE.INTRA.DIHEDRAL>
7.54193

>  <SCORE.INTRA.DIHEDRAL.0>
14.6094

>  <SCORE.INTRA.POLAR>
0

>  <SCORE.INTRA.POLAR.0>
0

>  <SCORE.INTRA.REPUL>
0

>  <SCORE.INTRA.REPUL.0>
0

>  <SCORE.INTRA.SOLV>
1.12686

>  <SCORE.INTRA.SOLV.lig_0>
-65.6478

>  <SCORE.INTRA.VDW>
-12.6684

>  <SCORE.INTRA.VDW.0>
9.35535

>  <SCORE.INTRA.norm>
-0.268839

>  <SCORE.RESTR>
0

>  <SCORE.RESTR.CAVITY>
0

>  <SCORE.RESTR.norm>
0

>  <SCORE.SYSTEM>
0

>  <SCORE.SYSTEM.CONST>
0

>  <SCORE.SYSTEM.DIHEDRAL>
0

>  <SCORE.SYSTEM.SOLV>
0

>  <SCORE.SYSTEM.norm>
0

>  <SCORE.heavy>
31

>  <SCORE.norm>
-0.894945

>  <RMSD>
2.135

$$$$
ligand
 OpenBabel11021811443D
libRbt.so/2013.1/901 2013/11/27
 31 32  0  0  0  0  0  0  0  0999 V2000
    7.4955   18.8297   50.4954 C   0  0  0  0  0  0  0  0  0  0  0  0
    6.5578   17.8324   49.8216 C   0  0  0  0  0  0  0  0  0  0  0  0
    5.9040   16.8225   50.5994 C   0  0  0  0  0  0  0  0  0  0  0  0
    5.0378   15.8980   49.9680 C   0  0  0  0  0  0  0  0  0  0  0  0
    4.8058   15.9673   48.5724 C   0  0  0  0  0  0  0  0  0  0  0  0
    5.4359   16.9583   47.7925 C   0  0  0  0  0  0  0  0  0  0  0  0
    6.3015   17.8849   48.4008 C   0  0  0  0  0  0  0  0  0  0  0  0
    8.6156   19.0324   50.0277 O   0  0  0  0  0  0  0  0  0  0  0  0
   12.8081   19.3668   54.4189 C   0  0  0  0  0  0  0  0  0  0  0  0
    4.8534   22.6162   52.5129 C   0  0  0  0  0  0  0  0  0  0  0  0
    1.9694   18.9901   53.7733 P   0  0  1  0  0  0  0  0  0  0  0  0
   10.4530   19.5255   54.0160 N   0  0  0  0  0  0  0  0  0  0  0  0
    1.2773   20.2778   53.9724 O   0  0  0  0  0  0  0  0  0  0  0  0
    7.1004   19.5119   51.6331 S   0  0  0  0  0  0  0  0  0  0  0  0
    6.5454   20.9742   54.9297 C   0  0  0  0  0  0  0  0  0  0  0  0
   11.6413   20.2035   54.1687 C   0  0  0  0  0  0  0  0  0  0  0  0
    2.5611   18.4079   55.0082 O   0  5  0  0  0  0  0  0  0  0  0  0
    6.7751   21.7242   53.8235 N   0  0  0  0  0  0  0  0  0  0  0  0
   11.7553   21.4929   54.1014 N   0  0  0  0  0  0  0  0  0  0  0  0
    1.0953   18.0474   53.0375 O   0  0  0  0  0  0  0  0  0  0  0  0
    5.8407   21.4981   52.7115 C   0  0  2  0  0  0  0  0  0  0  0  0
   10.6438   22.2807   53.8706 C   0  0  0  0  0  0  0  0  0  0  0  0
   10.7977   23.6058   53.8119 N   0  0  0  0  0  0  0  0  0  0  0  0
    5.8049   20.3491   51.8118 C   0  0  1  0  0  0  0  0  0  0  0  0
    9.3486   21.6393   53.7067 C   0  0  0  0  0  0  0  0  0  0  0  0
    6.5388   19.7863   54.6924 O   0  0  0  0  0  0  0  0  0  0  0  0
    4.6054   19.9293   51.0388 C   0  0  0  0  0  0  0  0  0  0  0  0
    9.3371   20.2615   53.7873 C   0  0  0  0  0  0  0  0  0  0  0  0
    3.2765   20.0040   51.6586 C   0  0  0  0  0  0  0  0  0  0  0  0
    8.0927   22.4492   53.4958 C   0  0  0  0  0  0  0  0  0  0  0  0
    3.2226   19.2077   52.8551 O   0  0  0  0  0  0  0  0  0  0  0  0
  1  2  1  0  0  0  0
  1  8  2  0  0  0  0
  1 14  1  0  0  0  0
  2  3  2  0  0  0  0
  2  7  1  0  0  0  0
  3  4  1  0  0  0  0
  4  5  2  0  0  0  0
  5  6  1  0  0  0  0
  6  7  2  0  0  0  0
  9 16  1  0  0  0  0
 10 21  1  0  0  0  0
 11 13  1  1  0  0  0
 11 17  1  0  0  0  0
 11 20  2  0  0  0  0
 11 31  1  0  0  0  0
 12 16  2  0  0  0  0
 12 28  1  0  0  0  0
 15 26  1  0  0  0  0
 15 18  1  0  0  0  0
 16 19  1  0  0  0  0
 18 30  1  0  0  0  0
 19 22  2  0  0  0  0
 21 18  1  6  0  0  0
 21 24  1  0  0  0  0
 22 23  1  0  0  0  0
 22 25  1  0  0  0  0
 24 14  1  6  0  0  0
 24 27  1  0  0  0  0
 25 28  2  0  0  0  0
 25 30  1  0  0  0  0
 27 29  1  0  0  0  0
 29 31  1  0  0  0  0
M  CHG  1  17  -1
M  END
>  <CHROM.1>
130.56273692,-53.02243593,-148.83999103,56.20022330,106.58545195,45.18873552
155.87879992,141.43993916,-159.51418906,-58.57027502,-177.84164470,-43.45388808
6.40594154,19.72542200,52.51813338,-0.35556080,-0.13639630,-2.22866395

>  <Name>
ligand

>  <RI>
0

>  <Rbt.Current_Directory>
/home/itssahil/PROJECTS/Mol_Feturizer/New_Systems/rnas/2HOO

>  <Rbt.Executable>
rbdock ($Id: //depot/dev/client3/rdock/2013.1/src/exe/rbdock.cxx#4 $)

>  <Rbt.Library>
libRbt.so (2013.1, Build901 2013/11/27)

>  <Rbt.Parameter_File>
/export/apps/rDock/src/rDock_2013.1_src/data/scripts/dock_solv.prm

>  <Rbt.Receptor>
prm/pocket_docking_2.prm

>  <SCORE>
-22.8638

>  <SCORE.INTER>
-10.9315

>  <SCORE.INTER.CONST>
1

>  <SCORE.INTER.POLAR>
0

>  <SCORE.INTER.ROT>
12

>  <SCORE.INTER.SOLV>
17.4793

>  <SCORE.INTER.VDW>
-24.7141

>  <SCORE.INTER.norm>
-0.352628

>  <SCORE.INTRA>
-12.8358

>  <SCORE.INTRA.DIHEDRAL>
1.46597

>  <SCORE.INTRA.DIHEDRAL.0>
14.6094

>  <SCORE.INTRA.POLAR>
0

>  <SCORE.INTRA.POLAR.0>
0

>  <SCORE.INTRA.REPUL>
0

>  <SCORE.INTRA.REPUL.0>
0

>  <SCORE.INTRA.SOLV>
-0.712602

>  <SCORE.INTRA.SOLV.lig_0>
-65.6478

>  <SCORE.INTRA.VDW>
-13.2125

>  <SCORE.INTRA.VDW.0>
9.35535

>  <SCORE.INTRA.norm>
-0.414059

>  <SCORE.RESTR>
0.903458

>  <SCORE.RESTR.CAVITY>
0.903458

>  <SCORE.RESTR.norm>
0.0291438

>  <SCORE.SYSTEM>
0

>  <SCORE.SYSTEM.CONST>
0

>  <SCORE.SYSTEM.DIHEDRAL>
0

>  <SCORE.SYSTEM.SOLV>
0

>  <SCORE.SYSTEM.norm>
0

>  <SCORE.heavy>
31

>  <SCORE.norm>
-0.737543

>  <RMSD>
2.145

$$$$
ligand
 OpenBabel11021811443D
libRbt.so/2013.1/901 2013/11/27
 31 32  0  0  0  0  0  0  0  0999 V2000
    4.4675   18.3916   50.7480 C   0  0  0  0  0  0  0  0  0  0  0  0
    5.0089   17.8035   49.4484 C   0  0  0  0  0  0  0  0  0  0  0  0
    4.4149   16.6253   48.8906 C   0  0  0  0  0  0  0  0  0  0  0  0
    4.9239   16.0825   47.6864 C   0  0  0  0  0  0  0  0  0  0  0  0
    6.0127   16.6995   47.0231 C   0  0  0  0  0  0  0  0  0  0  0  0
    6.6055   17.8630   47.5544 C   0  0  0  0  0  0  0  0  0  0  0  0
    6.1155   18.4166   48.7508 C   0  0  0  0  0  0  0  0  0  0  0  0
    4.2994   17.6659   51.7276 O   0  0  0  0  0  0  0  0  0  0  0  0
   12.5216   20.6679   54.5524 C   0  0  0  0  0  0  0  0  0  0  0  0
    5.5424   19.6086   53.9893 C   0  0  0  0  0  0  0  0  0  0  0  0
    0.0421   18.6207   52.9350 P   0  0  1  0  0  0  0  0  0  0  0  0
   10.8042   22.1498   53.7850 N   0  0  0  0  0  0  0  0  0  0  0  0
   -1.0131   19.6516   52.9117 O   0  0  0  0  0  0  0  0  0  0  0  0
    4.1601   19.7381   50.8389 S   0  0  0  0  0  0  0  0  0  0  0  0
    6.1940   22.6149   54.0325 C   0  0  0  0  0  0  0  0  0  0  0  0
   11.2198   20.8445   53.9214 C   0  0  0  0  0  0  0  0  0  0  0  0
    0.1505   17.8747   54.2179 O   0  5  0  0  0  0  0  0  0  0  0  0
    6.2636   21.7673   52.9763 N   0  0  0  0  0  0  0  0  0  0  0  0
   10.5312   19.8187   53.5294 N   0  0  0  0  0  0  0  0  0  0  0  0
   -0.0759   17.7403   51.7496 O   0  0  0  0  0  0  0  0  0  0  0  0
    5.2667   20.6869   52.9767 C   0  0  2  0  0  0  0  0  0  0  0  0
    9.3006   19.9936   52.9258 C   0  0  0  0  0  0  0  0  0  0  0  0
    8.6208   18.9144   52.5306 N   0  0  0  0  0  0  0  0  0  0  0  0
    4.0771   20.5869   52.1365 C   0  0  1  0  0  0  0  0  0  0  0  0
    8.7949   21.3444   52.7376 C   0  0  0  0  0  0  0  0  0  0  0  0
    7.0924   22.4423   54.8265 O   0  0  0  0  0  0  0  0  0  0  0  0
    2.7837   21.2583   52.4350 C   0  0  0  0  0  0  0  0  0  0  0  0
    9.6011   22.3657   53.1978 C   0  0  0  0  0  0  0  0  0  0  0  0
    1.8103   20.6043   53.3184 C   0  0  0  0  0  0  0  0  0  0  0  0
    7.4782   21.6003   52.0458 C   0  0  0  0  0  0  0  0  0  0  0  0
    1.4466   19.3084   52.8115 O   0  0  0  0  0  0  0  0  0  0  0  0
  1  2  1  0  0  0  0
  1  8  2  0  0  0  0
  1 14  1  0  0  0  0
  2  3  2  0  0  0  0
  2  7  1  0  0  0  0
  3  4  1  0  0  0  0
  4  5  2  0  0  0  0
  5  6  1  0  0  0  0
  6  7  2  0  0  0  0
  9 16  1  0  0  0  0
 10 21  1  0  0  0  0
 11 13  1  1  0  0  0
 11 17  1  0  0  0  0
 11 20  2  0  0  0  0
 11 31  1  0  0  0  0
 12 16  2  0  0  0  0
 12 28  1  0  0  0  0
 15 26  1  0  0  0  0
 15 18  1  0  0  0  0
 16 19  1  0  0  0  0
 18 30  1  0  0  0  0
 19 22  2  0  0  0  0
 21 18  1  1  0  0  0
 21 24  1  0  0  0  0
 22 23  1  0  0  0  0
 22 25  1  0  0  0  0
 24 14  1  6  0  0  0
 24 27  1  0  0  0  0
 25 28  2  0  0  0  0
 25 30  1  0  0  0  0
 27 29  1  0  0  0  0
 29 31  1  0  0  0  0
M  CHG  1  17  -1
M  END
>  <CHROM.1>
49.97985811,-157.41470891,59.22267452,106.34289493,-73.33427474,51.79513909
-84.72168244,94.92338647,95.46025760,-57.59922973,-146.15222811,32.39953220
5.22483771,19.66029434,52.14391170,-2.86063737,0.13698599,0.95047491

>  <Name>
ligand

>  <RI>
0

>  <Rbt.Current_Directory>
/home/itssahil/PROJECTS/Mol_Feturizer/New_Systems/rnas/2HOO

>  <Rbt.Executable>
rbdock ($Id: //depot/dev/client3/rdock/2013.1/src/exe/rbdock.cxx#4 $)

>  <Rbt.Library>
libRbt.so (2013.1, Build901 2013/11/27)

>  <Rbt.Parameter_File>
/export/apps/rDock/src/rDock_2013.1_src/data/scripts/dock_solv.prm

>  <Rbt.Receptor>
prm/pocket_docking_2.prm

>  <SCORE>
-23.4313

>  <SCORE.INTER>
-13.0045

>  <SCORE.INTER.CONST>
1

>  <SCORE.INTER.POLAR>
0

>  <SCORE.INTER.ROT>
12

>  <SCORE.INTER.SOLV>
16.5566

>  <SCORE.INTER.VDW>
-25.7886

>  <SCORE.INTER.norm>
-0.419501

>  <SCORE.INTRA>
-10.5457

>  <SCORE.INTRA.DIHEDRAL>
5.37452

>  <SCORE.INTRA.DIHEDRAL.0>
14.6094

>  <SCORE.INTRA.POLAR>
0

>  <SCORE.INTRA.POLAR.0>
0

>  <SCORE.INTRA.REPUL>
0

>  <SCORE.INTRA.REPUL.0>
0

>  <SCORE.INTRA.SOLV>
2.25655

>  <SCORE.INTRA.SOLV.lig_0>
-65.6478

>  <SCORE.INTRA.VDW>
-14.3612

>  <SCORE.INTRA.VDW.0>
9.35535

>  <SCORE.INTRA.norm>
-0.340184

>  <SCORE.RESTR>
0.11889

>  <SCORE.RESTR.CAVITY>
0.11889

>  <SCORE.RESTR.norm>
0.00383517

>  <SCORE.SYSTEM>
0

>  <SCORE.SYSTEM.CONST>
0

>  <SCORE.SYSTEM.DIHEDRAL>
0

>  <SCORE.SYSTEM.SOLV>
0

>  <SCORE.SYSTEM.norm>
0

>  <SCORE.heavy>
31

>  <SCORE.norm>
-0.755849

>  <RMSD>
2.152

$$$$
ligand
 OpenBabel11021811443D
libRbt.so/2013.1/901 2013/11/27
 31 32  0  0  0  0  0  0  0  0999 V2000
    4.7484   18.2002   51.3558 C   0  0  0  0  0  0  0  0  0  0  0  0
    4.4091   17.0016   50.4747 C   0  0  0  0  0  0  0  0  0  0  0  0
    5.4094   16.0187   50.1824 C   0  0  0  0  0  0  0  0  0  0  0  0
    5.0895   14.9107   49.3616 C   0  0  0  0  0  0  0  0  0  0  0  0
    3.7845   14.7613   48.8317 C   0  0  0  0  0  0  0  0  0  0  0  0
    2.7859   15.7156   49.1140 C   0  0  0  0  0  0  0  0  0  0  0  0
    3.0846   16.8245   49.9259 C   0  0  0  0  0  0  0  0  0  0  0  0
    4.7062   19.3378   50.8883 O   0  0  0  0  0  0  0  0  0  0  0  0
   14.2392   19.2198   55.3284 C   0  0  0  0  0  0  0  0  0  0  0  0
    8.0999   17.9831   54.5650 C   0  0  0  0  0  0  0  0  0  0  0  0
    1.7960   18.4123   55.1833 P   0  0  1  0  0  0  0  0  0  0  0  0
   12.2286   18.6224   54.1729 N   0  0  0  0  0  0  0  0  0  0  0  0
    1.2120   19.3275   56.1825 O   0  0  0  0  0  0  0  0  0  0  0  0
    5.1064   18.0228   52.6810 S   0  0  0  0  0  0  0  0  0  0  0  0
    8.1300   19.0774   51.2424 C   0  0  0  0  0  0  0  0  0  0  0  0
   12.9721   19.6334   54.7389 C   0  0  0  0  0  0  0  0  0  0  0  0
    1.8689   16.9900   55.6145 O   0  5  0  0  0  0  0  0  0  0  0  0
    8.3598   19.4073   52.5375 N   0  0  0  0  0  0  0  0  0  0  0  0
   12.6058   20.8764   54.7655 N   0  0  0  0  0  0  0  0  0  0  0  0
    1.1340   18.5971   53.8711 O   0  0  0  0  0  0  0  0  0  0  0  0
    7.4269   18.8151   53.5071 C   0  0  2  0  0  0  0  0  0  0  0  0
   11.4000   21.2607   54.2106 C   0  0  0  0  0  0  0  0  0  0  0  0
   11.0527   22.5491   54.2600 N   0  0  0  0  0  0  0  0  0  0  0  0
    5.9766   18.9761   53.5442 C   0  0  1  0  0  0  0  0  0  0  0  0
   10.5522   20.2487   53.6001 C   0  0  0  0  0  0  0  0  0  0  0  0
    8.2154   17.8854   51.0445 O   0  0  0  0  0  0  0  0  0  0  0  0
    5.2701   20.0079   54.3500 C   0  0  0  0  0  0  0  0  0  0  0  0
   11.0380   18.9570   53.6165 C   0  0  0  0  0  0  0  0  0  0  0  0
    3.8027   20.0145   54.3997 C   0  0  0  0  0  0  0  0  0  0  0  0
    9.2054   20.6007   53.0170 C   0  0  0  0  0  0  0  0  0  0  0  0
    3.3022   18.7845   54.9520 O   0  0  0  0  0  0  0  0  0  0  0  0
  1  2  1  0  0  0  0
  1  8  2  0  0  0  0
  1 14  1  0  0  0  0
  2  3  2  0  0  0  0
  2  7  1  0  0  0  0
  3  4  1  0  0  0  0
  4  5  2  0  0  0  0
  5  6  1  0  0  0  0
  6  7  2  0  0  0  0
  9 16  1  0  0  0  0
 10 21  1  0  0  0  0
 11 13  1  1  0  0  0
 11 17  1  0  0  0  0
 11 20  2  0  0  0  0
 11 31  1  0  0  0  0
 12 16  2  0  0  0  0
 12 28  1  0  0  0  0
 15 26  1  0  0  0  0
 15 18  1  0  0  0  0
 16 19  1  0  0  0  0
 18 30  1  0  0  0  0
 19 22  2  0  0  0  0
 21 18  1  1  0  0  0
 21 24  1  0  0  0  0
 22 23  1  0  0  0  0
 22 25  1  0  0  0  0
 24 14  1  6  0  0  0
 24 27  1  0  0  0  0
 25 28  2  0  0  0  0
 25 30  1  0  0  0  0
 27 29  1  0  0  0  0
 29 31  1  0  0  0  0
M  CHG  1  17  -1
M  END
>  <CHROM.1>
116.14784763,154.64662535,-86.95250333,-60.90087579,122.21612283,-106.94618464
-95.26600815,5.47248133,-173.93230676,60.69367547,179.34922896,-64.20486386
6.42368646,18.62791049,53.12560598,-2.89463442,0.15816923,1.04472104

>  <Name>
ligand

>  <RI>
0

>  <Rbt.Current_Directory>
/home/itssahil/PROJECTS/Mol_Feturizer/New_Systems/rnas/2HOO

>  <Rbt.Executable>
rbdock ($Id: //depot/dev/client3/rdock/2013.1/src/exe/rbdock.cxx#4 $)

>  <Rbt.Library>
libRbt.so (2013.1, Build901 2013/11/27)

>  <Rbt.Parameter_File>
/export/apps/rDock/src/rDock_2013.1_src/data/scripts/dock_solv.prm

>  <Rbt.Receptor>
prm/pocket_docking_3.prm

>  <SCORE>
-34.0161

>  <SCORE.INTER>
-20.725

>  <SCORE.INTER.CONST>
1

>  <SCORE.INTER.POLAR>
0

>  <SCORE.INTER.ROT>
12

>  <SCORE.INTER.SOLV>
20.0984

>  <SCORE.INTER.VDW>
-32.1161

>  <SCORE.INTER.norm>
-0.668548

>  <SCORE.INTRA>
-13.3142

>  <SCORE.INTRA.DIHEDRAL>
-0.936521

>  <SCORE.INTRA.DIHEDRAL.0>
14.6094

>  <SCORE.INTRA.POLAR>
0

>  <SCORE.INTRA.POLAR.0>
0

>  <SCORE.INTRA.REPUL>
0

>  <SCORE.INTRA.REPUL.0>
0

>  <SCORE.INTRA.SOLV>
0.873234

>  <SCORE.INTRA.SOLV.lig_0>
-65.6478

>  <SCORE.INTRA.VDW>
-13.2826

>  <SCORE.INTRA.VDW.0>
9.35535

>  <SCORE.INTRA.norm>
-0.429491

>  <SCORE.RESTR>
0.0231049

>  <SCORE.RESTR.CAVITY>
0.0231049

>  <SCORE.RESTR.norm>
0.000745321

>  <SCORE.SYSTEM>
0

>  <SCORE.SYSTEM.CONST>
0

>  <SCORE.SYSTEM.DIHEDRAL>
0

>  <SCORE.SYSTEM.SOLV>
0

>  <SCORE.SYSTEM.norm>
0

>  <SCORE.heavy>
31

>  <SCORE.norm>
-1.09729

>  <RMSD>
2.175

$$$$
ligand
 OpenBabel11021811443D
libRbt.so/2013.1/901 2013/11/27
 31 32  0  0  0  0  0  0  0  0999 V2000
    5.5607   18.3106   49.2377 C   0  0  0  0  0  0  0  0  0  0  0  0
    4.9188   16.9337   49.0953 C   0  0  0  0  0  0  0  0  0  0  0  0
    4.8135   16.3200   47.8052 C   0  0  0  0  0  0  0  0  0  0  0  0
    4.2139   15.0438   47.6792 C   0  0  0  0  0  0  0  0  0  0  0  0
    3.7229   14.3641   48.8207 C   0  0  0  0  0  0  0  0  0  0  0  0
    3.8237   14.9503   50.0988 C   0  0  0  0  0  0  0  0  0  0  0  0
    4.4143   16.2183   50.2446 C   0  0  0  0  0  0  0  0  0  0  0  0
    6.4255   18.6707   48.4396 O   0  0  0  0  0  0  0  0  0  0  0  0
   13.7619   19.6745   55.1177 C   0  0  0  0  0  0  0  0  0  0  0  0
    7.1989   17.4541   52.8797 C   0  0  0  0  0  0  0  0  0  0  0  0
    2.2780   20.4195   54.7845 P   0  0  1  0  0  0  0  0  0  0  0  0
   11.6634   18.8248   54.3377 N   0  0  0  0  0  0  0  0  0  0  0  0
    3.3701   19.7408   55.5080 O   0  0  0  0  0  0  0  0  0  0  0  0
    5.1813   19.1636   50.2595 S   0  0  0  0  0  0  0  0  0  0  0  0
    8.3542   19.9034   50.7265 C   0  0  0  0  0  0  0  0  0  0  0  0
   12.4166   19.9408   54.6245 C   0  0  0  0  0  0  0  0  0  0  0  0
    0.9258   20.2139   55.3705 O   0  5  0  0  0  0  0  0  0  0  0  0
    8.0114   19.6437   52.0126 N   0  0  0  0  0  0  0  0  0  0  0  0
   11.9951   21.1579   54.4795 N   0  0  0  0  0  0  0  0  0  0  0  0
    2.6158   21.8454   54.5679 O   0  0  0  0  0  0  0  0  0  0  0  0
    6.8613   18.7439   52.1821 C   0  0  2  0  0  0  0  0  0  0  0  0
   10.7160   21.4033   54.0178 C   0  0  0  0  0  0  0  0  0  0  0  0
   10.3138   22.6696   53.8850 N   0  0  0  0  0  0  0  0  0  0  0  0
    5.4821   18.9920   51.7732 C   0  0  1  0  0  0  0  0  0  0  0  0
    9.8542   20.2753   53.7003 C   0  0  0  0  0  0  0  0  0  0  0  0
    7.8121   20.8961   50.2927 O   0  0  0  0  0  0  0  0  0  0  0  0
    4.3376   19.1048   52.7167 C   0  0  0  0  0  0  0  0  0  0  0  0
   10.4016   19.0213   53.8812 C   0  0  0  0  0  0  0  0  0  0  0  0
    3.1243   19.8232   52.3073 C   0  0  0  0  0  0  0  0  0  0  0  0
    8.4335   20.4798   53.2339 C   0  0  0  0  0  0  0  0  0  0  0  0
    2.1355   19.7974   53.3515 O   0  0  0  0  0  0  0  0  0  0  0  0
  1  2  1  0  0  0  0
  1  8  2  0  0  0  0
  1 14  1  0  0  0  0
  2  3  2  0  0  0  0
  2  7  1  0  0  0  0
  3  4  1  0  0  0  0
  4  5  2  0  0  0  0
  5  6  1  0  0  0  0
  6  7  2  0  0  0  0
  9 16  1  0  0  0  0
 10 21  1  0  0  0  0
 11 13  1  1  0  0  0
 11 17  1  0  0  0  0
 11 20  2  0  0  0  0
 11 31  1  0  0  0  0
 12 16  2  0  0  0  0
 12 28  1  0  0  0  0
 15 26  1  0  0  0  0
 15 18  1  0  0  0  0
 16 19  1  0  0  0  0
 18 30  1  0  0  0  0
 19 22  2  0  0  0  0
 21 18  1  1  0  0  0
 21 24  1  0  0  0  0
 22 23  1  0  0  0  0
 22 25  1  0  0  0  0
 24 14  1  1  0  0  0
 24 27  1  0  0  0  0
 25 28  2  0  0  0  0
 25 30  1  0  0  0  0
 27 29  1  0  0  0  0
 29 31  1  0  0  0  0
M  CHG  1  17  -1
M  END
>  <CHROM.1>
-28.72926089,70.30160205,51.26724367,92.05979800,116.99756558,-76.82015768
-117.81679673,-21.98808036,133.76353218,179.05950797,62.45929402,-63.19878019
6.33954610,19.18967633,52.28871778,-2.72831712,0.04287771,0.96140221

>  <Name>
ligand

>  <RI>
0

>  <Rbt.Current_Directory>
/home/itssahil/PROJECTS/Mol_Feturizer/New_Systems/rnas/2HOO

>  <Rbt.Executable>
rbdock ($Id: //depot/dev/client3/rdock/2013.1/src/exe/rbdock.cxx#4 $)

>  <Rbt.Library>
libRbt.so (2013.1, Build901 2013/11/27)

>  <Rbt.Parameter_File>
/export/apps/rDock/src/rDock_2013.1_src/data/scripts/dock_solv.prm

>  <Rbt.Receptor>
prm/pocket_docking_3.prm

>  <SCORE>
-29.407

>  <SCORE.INTER>
-18.0592

>  <SCORE.INTER.CONST>
1

>  <SCORE.INTER.POLAR>
0

>  <SCORE.INTER.ROT>
12

>  <SCORE.INTER.SOLV>
16.018

>  <SCORE.INTER.VDW>
-28.9788

>  <SCORE.INTER.norm>
-0.582555

>  <SCORE.INTRA>
-11.3478

>  <SCORE.INTRA.DIHEDRAL>
2.25

>  <SCORE.INTRA.DIHEDRAL.0>
14.6094

>  <SCORE.INTRA.POLAR>
0

>  <SCORE.INTRA.POLAR.0>
0

>  <SCORE.INTRA.REPUL>
0

>  <SCORE.INTRA.REPUL.0>
0

>  <SCORE.INTRA.SOLV>
0.814111

>  <SCORE.INTRA.SOLV.lig_0>
-65.6478

>  <SCORE.INTRA.VDW>
-12.8799

>  <SCORE.INTRA.VDW.0>
9.35535

>  <SCORE.INTRA.norm>
-0.366058

>  <SCORE.RESTR>
0

>  <SCORE.RESTR.CAVITY>
0

>  <SCORE.RESTR.norm>
0

>  <SCORE.SYSTEM>
0

>  <SCORE.SYSTEM.CONST>
0

>  <SCORE.SYSTEM.DIHEDRAL>
0

>  <SCORE.SYSTEM.SOLV>
0

>  <SCORE.SYSTEM.norm>
0

>  <SCORE.heavy>
31

>  <SCORE.norm>
-0.948613

>  <RMSD>
2.232

$$$$
ligand
 OpenBabel11021811443D
libRbt.so/2013.1/901 2013/11/27
 31 32  0  0  0  0  0  0  0  0999 V2000
    4.9849   19.3266   50.4678 C   0  0  0  0  0  0  0  0  0  0  0  0
    6.2495   19.3919   49.6166 C   0  0  0  0  0  0  0  0  0  0  0  0
    6.3547   18.6045   48.4245 C   0  0  0  0  0  0  0  0  0  0  0  0
    7.5318   18.6669   47.6408 C   0  0  0  0  0  0  0  0  0  0  0  0
    8.6058   19.5081   48.0218 C   0  0  0  0  0  0  0  0  0  0  0  0
    8.5172   20.2946   49.1884 C   0  0  0  0  0  0  0  0  0  0  0  0
    7.3567   20.2452   49.9815 C   0  0  0  0  0  0  0  0  0  0  0  0
    4.2180   18.3707   50.3562 O   0  0  0  0  0  0  0  0  0  0  0  0
   13.8240   19.4539   55.0733 C   0  0  0  0  0  0  0  0  0  0  0  0
    6.3437   22.4731   53.4939 C   0  0  0  0  0  0  0  0  0  0  0  0
    1.7192   17.6660   54.5456 P   0  0  1  0  0  0  0  0  0  0  0  0
   11.8414   18.8740   53.8621 N   0  0  0  0  0  0  0  0  0  0  0  0
    1.8322   16.8162   53.3448 O   0  0  0  0  0  0  0  0  0  0  0  0
    4.6874   20.3352   51.3677 S   0  0  0  0  0  0  0  0  0  0  0  0
    7.4936   19.0871   54.1003 C   0  0  0  0  0  0  0  0  0  0  0  0
   12.5580   19.8713   54.4841 C   0  0  0  0  0  0  0  0  0  0  0  0
    1.1779   19.0284   54.2911 O   0  5  0  0  0  0  0  0  0  0  0  0
    7.5791   20.3098   53.5201 N   0  0  0  0  0  0  0  0  0  0  0  0
   12.1685   21.1051   54.5612 N   0  0  0  0  0  0  0  0  0  0  0  0
    1.0055   16.9398   55.6215 O   0  0  0  0  0  0  0  0  0  0  0  0
    6.2924   20.9830   53.2911 C   0  0  2  0  0  0  0  0  0  0  0  0
   10.9638   21.4927   54.0063 C   0  0  0  0  0  0  0  0  0  0  0  0
   10.5922   22.7711   54.1085 N   0  0  0  0  0  0  0  0  0  0  0  0
    5.0360   20.3635   52.8806 C   0  0  1  0  0  0  0  0  0  0  0  0
   10.1435   20.4945   53.3381 C   0  0  0  0  0  0  0  0  0  0  0  0
    8.1692   19.0000   55.1019 O   0  0  0  0  0  0  0  0  0  0  0  0
    4.0528   19.7633   53.8219 C   0  0  0  0  0  0  0  0  0  0  0  0
   10.6528   19.2122   53.3035 C   0  0  0  0  0  0  0  0  0  0  0  0
    4.2897   18.4194   54.3636 C   0  0  0  0  0  0  0  0  0  0  0  0
    8.7988   20.8485   52.7514 C   0  0  0  0  0  0  0  0  0  0  0  0
    3.1516   17.9602   55.1136 O   0  0  0  0  0  0  0  0  0  0  0  0
  1  2  1  0  0  0  0
  1  8  2  0  0  0  0
  1 14  1  0  0  0  0
  2  3  2  0  0  0  0
  2  7  1  0  0  0  0
  3  4  1  0  0  0  0
  4  5  2  0  0  0  0
  5  6  1  0  0  0  0
  6  7  2  0  0  0  0
  9 16  1  0  0  0  0
 10 21  1  0  0  0  0
 11 13  1  6  0  0  0
 11 17  1  0  0  0  0
 11 20  2  0  0  0  0
 11 31  1  0  0  0  0
 12 16  2  0  0  0  0
 12 28  1  0  0  0  0
 15 26  1  0  0  0  0
 15 18  1  0  0  0  0
 16 19  1  0  0  0  0
 18 30  1  0  0  0  0
 19 22  2  0  0  0  0
 21 18  1  6  0  0  0
 21 24  1  0  0  0  0
 22 23  1  0  0  0  0
 22 25  1  0  0  0  0
 24 14  1  1  0  0  0
 24 27  1  0  0  0  0
 25 28  2  0  0  0  0
 25 30  1  0  0  0  0
 27 29  1  0  0  0  0
 29 31  1  0  0  0  0
M  CHG  1  17  -1
M  END
>  <CHROM.1>
19.39790970,-94.29817005,91.85535427,-125.63185927,143.53083743,-39.17314546
84.43383927,101.25553874,-107.67379606,-172.80317566,64.71091531,48.92100447
6.59895226,19.51357383,52.85722077,3.09710250,0.24316132,1.63373373

>  <Name>
ligand

>  <RI>
0

>  <Rbt.Current_Directory>
/home/itssahil/PROJECTS/Mol_Feturizer/New_Systems/rnas/2HOO

>  <Rbt.Executable>
rbdock ($Id: //depot/dev/client3/rdock/2013.1/src/exe/rbdock.cxx#4 $)

>  <Rbt.Library>
libRbt.so (2013.1, Build901 2013/11/27)

>  <Rbt.Parameter_File>
/export/apps/rDock/src/rDock_2013.1_src/data/scripts/dock_solv.prm

>  <Rbt.Receptor>
prm/pocket_docking_3.prm

>  <SCORE>
-31.6896

>  <SCORE.INTER>
-20.5158

>  <SCORE.INTER.CONST>
1

>  <SCORE.INTER.POLAR>
0

>  <SCORE.INTER.ROT>
12

>  <SCORE.INTER.SOLV>
18.096

>  <SCORE.INTER.VDW>
-31.3092

>  <SCORE.INTER.norm>
-0.661801

>  <SCORE.INTRA>
-11.2617

>  <SCORE.INTRA.DIHEDRAL>
2.57054

>  <SCORE.INTRA.DIHEDRAL.0>
14.6094

>  <SCORE.INTRA.POLAR>
0

>  <SCORE.INTRA.POLAR.0>
0

>  <SCORE.INTRA.REPUL>
0

>  <SCORE.INTRA.REPUL.0>
0

>  <SCORE.INTRA.SOLV>
1.4876

>  <SCORE.INTRA.SOLV.lig_0>
-65.6478

>  <SCORE.INTRA.VDW>
-13.2908

>  <SCORE.INTRA.VDW.0>
9.35535

>  <SCORE.INTRA.norm>
-0.363281

>  <SCORE.RESTR>
0.087921

>  <SCORE.RESTR.CAVITY>
0.087921

>  <SCORE.RESTR.norm>
0.00283616

>  <SCORE.SYSTEM>
0

>  <SCORE.SYSTEM.CONST>
0

>  <SCORE.SYSTEM.DIHEDRAL>
0

>  <SCORE.SYSTEM.SOLV>
0

>  <SCORE.SYSTEM.norm>
0

>  <SCORE.heavy>
31

>  <SCORE.norm>
-1.02225

>  <RMSD>
2.245

$$$$
ligand
 OpenBabel11021811443D
libRbt.so/2013.1/901 2013/11/27
 31 32  0  0  0  0  0  0  0  0999 V2000
    5.5607   18.2245   49.7567 C   0  0  0  0  0  0  0  0  0  0  0  0
    5.1138   16.8107   49.3968 C   0  0  0  0  0  0  0  0  0  0  0  0
    4.4100   16.0134   50.3566 C   0  0  0  0  0  0  0  0  0  0  0  0
    4.0009   14.7013   50.0179 C   0  0  0  0  0  0  0  0  0  0  0  0
    4.2756   14.1714   48.7334 C   0  0  0  0  0  0  0  0  0  0  0  0
    4.9617   14.9440   47.7743 C   0  0  0  0  0  0  0  0  0  0  0  0
    5.3781   16.2492   48.0922 C   0  0  0  0  0  0  0  0  0  0  0  0
    6.1224   18.9243   48.9146 O   0  0  0  0  0  0  0  0  0  0  0  0
   13.2771   19.7723   54.1951 C   0  0  0  0  0  0  0  0  0  0  0  0
    7.7671   20.8444   50.7969 C   0  0  0  0  0  0  0  0  0  0  0  0
    1.8043   19.6197   54.3199 P   0  0  1  0  0  0  0  0  0  0  0  0
   11.0611   18.8662   54.1415 N   0  0  0  0  0  0  0  0  0  0  0  0
    2.2455   18.4152   55.0489 O   0  0  0  0  0  0  0  0  0  0  0  0
    5.3423   18.7318   51.0258 S   0  0  0  0  0  0  0  0  0  0  0  0
    6.5081   22.6200   53.3675 C   0  0  0  0  0  0  0  0  0  0  0  0
   11.8381   20.0022   54.1717 C   0  0  0  0  0  0  0  0  0  0  0  0
    0.4612   19.5046   53.6899 O   0  5  0  0  0  0  0  0  0  0  0  0
    7.0293   21.3945   53.1119 N   0  0  0  0  0  0  0  0  0  0  0  0
   11.3615   21.2076   54.1796 N   0  0  0  0  0  0  0  0  0  0  0  0
    1.9528   20.8194   55.1760 O   0  0  0  0  0  0  0  0  0  0  0  0
    6.6571   20.8169   51.8124 C   0  0  2  0  0  0  0  0  0  0  0  0
    9.9960   21.4184   54.1641 C   0  0  0  0  0  0  0  0  0  0  0  0
    9.5404   22.6734   54.1774 N   0  0  0  0  0  0  0  0  0  0  0  0
    5.3731   20.2259   51.4474 C   0  0  1  0  0  0  0  0  0  0  0  0
    9.1067   20.2675   54.1404 C   0  0  0  0  0  0  0  0  0  0  0  0
    5.5012   22.5657   54.0390 O   0  0  0  0  0  0  0  0  0  0  0  0
    4.0834   20.9671   51.4400 C   0  0  0  0  0  0  0  0  0  0  0  0
    9.7148   19.0286   54.1250 C   0  0  0  0  0  0  0  0  0  0  0  0
    3.3214   21.1155   52.6863 C   0  0  0  0  0  0  0  0  0  0  0  0
    7.6069   20.4338   54.1666 C   0  0  0  0  0  0  0  0  0  0  0  0
    2.7473   19.8600   53.0896 O   0  0  0  0  0  0  0  0  0  0  0  0
  1  2  1  0  0  0  0
  1  8  2  0  0  0  0
  1 14  1  0  0  0  0
  2  3  2  0  0  0  0
  2  7  1  0  0  0  0
  3  4  1  0  0  0  0
  4  5  2  0  0  0  0
  5  6  1  0  0  0  0
  6  7  2  0  0  0  0
  9 16  1  0  0  0  0
 10 21  1  0  0  0  0
 11 13  1  1  0  0  0
 11 17  1  0  0  0  0
 11 20  2  0  0  0  0
 11 31  1  0  0  0  0
 12 16  2  0  0  0  0
 12 28  1  0  0  0  0
 15 26  1  0  0  0  0
 15 18  1  0  0  0  0
 16 19  1  0  0  0  0
 18 30  1  0  0  0  0
 19 22  2  0  0  0  0
 21 18  1  1  0  0  0
 21 24  1  0  0  0  0
 22 23  1  0  0  0  0
 22 25  1  0  0  0  0
 24 14  1  6  0  0  0
 24 27  1  0  0  0  0
 25 28  2  0  0  0  0
 25 30  1  0  0  0  0
 27 29  1  0  0  0  0
 29 31  1  0  0  0  0
M  CHG  1  17  -1
M  END
>  <CHROM.1>
-177.38768005,-162.24219918,-86.30809108,96.81225485,105.63302510,-108.69218538
60.14736241,96.61907715,51.80821329,-70.75394331,-176.49685264,-134.75594850
5.97689969,19.48533950,52.42620336,-2.67207044,0.05066525,0.81177672

>  <Name>
ligand

>  <RI>
0

>  <Rbt.Current_Directory>
/home/itssahil/PROJECTS/Mol_Feturizer/New_Systems/rnas/2HOO

>  <Rbt.Executable>
rbdock ($Id: //depot/dev/client3/rdock/2013.1/src/exe/rbdock.cxx#4 $)

>  <Rbt.Library>
libRbt.so (2013.1, Build901 2013/11/27)

>  <Rbt.Parameter_File>
/export/apps/rDock/src/rDock_2013.1_src/data/scripts/dock_solv.prm

>  <Rbt.Receptor>
prm/pocket_docking_2.prm

>  <SCORE>
-24.0908

>  <SCORE.INTER>
-14.0009

>  <SCORE.INTER.CONST>
1

>  <SCORE.INTER.POLAR>
0

>  <SCORE.INTER.ROT>
12

>  <SCORE.INTER.SOLV>
12.0548

>  <SCORE.INTER.VDW>
-24.9522

>  <SCORE.INTER.norm>
-0.451642

>  <SCORE.INTRA>
-10.4443

>  <SCORE.INTRA.DIHEDRAL>
1.59516

>  <SCORE.INTRA.DIHEDRAL.0>
14.6094

>  <SCORE.INTRA.POLAR>
0

>  <SCORE.INTRA.POLAR.0>
0

>  <SCORE.INTRA.REPUL>
0

>  <SCORE.INTRA.REPUL.0>
0

>  <SCORE.INTRA.SOLV>
4.49844

>  <SCORE.INTRA.SOLV.lig_0>
-65.6478

>  <SCORE.INTRA.VDW>
-13.4911

>  <SCORE.INTRA.VDW.0>
9.35535

>  <SCORE.INTRA.norm>
-0.336914

>  <SCORE.RESTR>
0.354401

>  <SCORE.RESTR.CAVITY>
0.354401

>  <SCORE.RESTR.norm>
0.0114323

>  <SCORE.SYSTEM>
0

>  <SCORE.SYSTEM.CONST>
0

>  <SCORE.SYSTEM.DIHEDRAL>
0

>  <SCORE.SYSTEM.SOLV>
0

>  <SCORE.SYSTEM.norm>
0

>  <SCORE.heavy>
31

>  <SCORE.norm>
-0.777124

>  <RMSD>
2.248

$$$$
ligand
 OpenBabel11021811443D
libRbt.so/2013.1/901 2013/11/27
 31 32  0  0  0  0  0  0  0  0999 V2000
    6.0369   18.0681   48.5862 C   0  0  0  0  0  0  0  0  0  0  0  0
    5.3363   16.7850   49.0230 C   0  0  0  0  0  0  0  0  0  0  0  0
    3.9129   16.7625   49.1837 C   0  0  0  0  0  0  0  0  0  0  0  0
    3.2690   15.5700   49.5925 C   0  0  0  0  0  0  0  0  0  0  0  0
    4.0204   14.3946   49.8375 C   0  0  0  0  0  0  0  0  0  0  0  0
    5.4212   14.3968   49.6784 C   0  0  0  0  0  0  0  0  0  0  0  0
    6.0797   15.5721   49.2748 C   0  0  0  0  0  0  0  0  0  0  0  0
    6.5950   18.1209   47.4906 O   0  0  0  0  0  0  0  0  0  0  0  0
   13.5840   19.9050   54.9456 C   0  0  0  0  0  0  0  0  0  0  0  0
    5.7152   18.5385   53.2613 C   0  0  0  0  0  0  0  0  0  0  0  0
    1.9963   19.8582   53.4752 P   0  0  1  0  0  0  0  0  0  0  0  0
   11.5589   18.9408   54.1069 N   0  0  0  0  0  0  0  0  0  0  0  0
    2.2141   18.4200   53.2286 O   0  0  0  0  0  0  0  0  0  0  0  0
    6.0540   19.1788   49.4118 S   0  0  0  0  0  0  0  0  0  0  0  0
    8.4825   18.8725   51.0213 C   0  0  0  0  0  0  0  0  0  0  0  0
   12.2232   20.0939   54.4591 C   0  0  0  0  0  0  0  0  0  0  0  0
    0.8591   20.4505   52.7202 O   0  5  0  0  0  0  0  0  0  0  0  0
    7.7525   19.3326   52.0674 N   0  0  0  0  0  0  0  0  0  0  0  0
   11.7095   21.2812   54.3783 N   0  0  0  0  0  0  0  0  0  0  0  0
    1.9398   20.1253   54.9311 O   0  0  0  0  0  0  0  0  0  0  0  0
    6.3086   19.0691   51.9844 C   0  0  2  0  0  0  0  0  0  0  0  0
   10.4163   21.4526   53.9226 C   0  0  0  0  0  0  0  0  0  0  0  0
    9.9181   22.6897   53.8566 N   0  0  0  0  0  0  0  0  0  0  0  0
    5.4386   19.2897   50.8332 C   0  0  1  0  0  0  0  0  0  0  0  0
    9.6447   20.2809   53.5383 C   0  0  0  0  0  0  0  0  0  0  0  0
    8.8123   19.7559   50.2608 O   0  0  0  0  0  0  0  0  0  0  0  0
    3.9934   19.6285   50.9299 C   0  0  0  0  0  0  0  0  0  0  0  0
   10.2867   19.0646   53.6538 C   0  0  0  0  0  0  0  0  0  0  0  0
    3.5809   20.8855   51.5668 C   0  0  0  0  0  0  0  0  0  0  0  0
    8.2135   20.4011   53.0747 C   0  0  0  0  0  0  0  0  0  0  0  0
    3.2285   20.6713   52.9447 O   0  0  0  0  0  0  0  0  0  0  0  0
  1  2  1  0  0  0  0
  1  8  2  0  0  0  0
  1 14  1  0  0  0  0
  2  3  2  0  0  0  0
  2  7  1  0  0  0  0
  3  4  1  0  0  0  0
  4  5  2  0  0  0  0
  5  6  1  0  0  0  0
  6  7  2  0  0  0  0
  9 16  1  0  0  0  0
 10 21  1  0  0  0  0
 11 13  1  6  0  0  0
 11 17  1  0  0  0  0
 11 20  2  0  0  0  0
 11 31  1  0  0  0  0
 12 16  2  0  0  0  0
 12 28  1  0  0  0  0
 15 26  1  0  0  0  0
 15 18  1  0  0  0  0
 16 19  1  0  0  0  0
 18 30  1  0  0  0  0
 19 22  2  0  0  0  0
 21 18  1  1  0  0  0
 21 24  1  0  0  0  0
 22 23  1  0  0  0  0
 22 25  1  0  0  0  0
 24 14  1  1  0  0  0
 24 27  1  0  0  0  0
 25 28  2  0  0  0  0
 25 30  1  0  0  0  0
 27 29  1  0  0  0  0
 29 31  1  0  0  0  0
M  CHG  1  17  -1
M  END
>  <CHROM.1>
-113.64934376,1.51121357,95.88427790,103.83355656,134.05995553,-41.71044584
-151.66275119,-116.26314385,149.93131412,-96.32619489,-67.45462669,70.87403343
6.33847406,19.09154953,51.86656228,-2.75140120,0.00554370,0.89856563

>  <Name>
ligand

>  <RI>
0

>  <Rbt.Current_Directory>
/home/itssahil/PROJECTS/Mol_Feturizer/New_Systems/rnas/2HOO

>  <Rbt.Executable>
rbdock ($Id: //depot/dev/client3/rdock/2013.1/src/exe/rbdock.cxx#4 $)

>  <Rbt.Library>
libRbt.so (2013.1, Build901 2013/11/27)

>  <Rbt.Parameter_File>
/export/apps/rDock/src/rDock_2013.1_src/data/scripts/dock_solv.prm

>  <Rbt.Receptor>
prm/pocket_docking_2.prm

>  <SCORE>
-26.4138

>  <SCORE.INTER>
-16.462

>  <SCORE.INTER.CONST>
1

>  <SCORE.INTER.POLAR>
0

>  <SCORE.INTER.ROT>
12

>  <SCORE.INTER.SOLV>
14.1417

>  <SCORE.INTER.VDW>
-27.2885

>  <SCORE.INTER.norm>
-0.531031

>  <SCORE.INTRA>
-10.811

>  <SCORE.INTRA.DIHEDRAL>
1.11117

>  <SCORE.INTRA.DIHEDRAL.0>
14.6094

>  <SCORE.INTRA.POLAR>
0

>  <SCORE.INTRA.POLAR.0>
0

>  <SCORE.INTRA.REPUL>
0

>  <SCORE.INTRA.REPUL.0>
0

>  <SCORE.INTRA.SOLV>
0.704399

>  <SCORE.INTRA.SOLV.lig_0>
-65.6478

>  <SCORE.INTRA.VDW>
-11.7188

>  <SCORE.INTRA.VDW.0>
9.35535

>  <SCORE.INTRA.norm>
-0.348743

>  <SCORE.RESTR>
0.859188

>  <SCORE.RESTR.CAVITY>
0.859188

>  <SCORE.RESTR.norm>
0.0277158

>  <SCORE.SYSTEM>
0

>  <SCORE.SYSTEM.CONST>
0

>  <SCORE.SYSTEM.DIHEDRAL>
0

>  <SCORE.SYSTEM.SOLV>
0

>  <SCORE.SYSTEM.norm>
0

>  <SCORE.heavy>
31

>  <SCORE.norm>
-0.852058

>  <RMSD>
2.249

$$$$
ligand
 OpenBabel11021811443D
libRbt.so/2013.1/901 2013/11/27
 31 32  0  0  0  0  0  0  0  0999 V2000
    3.1135   19.0424   51.4858 C   0  0  0  0  0  0  0  0  0  0  0  0
    3.0003   17.7779   50.6394 C   0  0  0  0  0  0  0  0  0  0  0  0
    4.0289   17.4489   49.6982 C   0  0  0  0  0  0  0  0  0  0  0  0
    3.9165   16.2762   48.9133 C   0  0  0  0  0  0  0  0  0  0  0  0
    2.7973   15.4200   49.0559 C   0  0  0  0  0  0  0  0  0  0  0  0
    1.7786   15.7249   49.9815 C   0  0  0  0  0  0  0  0  0  0  0  0
    1.8710   16.8864   50.7692 C   0  0  0  0  0  0  0  0  0  0  0  0
    2.5469   19.1043   52.5765 O   0  0  0  0  0  0  0  0  0  0  0  0
   13.1126   20.0455   54.5488 C   0  0  0  0  0  0  0  0  0  0  0  0
    5.6086   20.3599   54.0549 C   0  0  0  0  0  0  0  0  0  0  0  0
    0.3718   22.0616   53.6296 P   0  0  1  0  0  0  0  0  0  0  0  0
   10.8337   19.6893   53.9055 N   0  0  0  0  0  0  0  0  0  0  0  0
   -0.3060   23.3182   53.2576 O   0  0  0  0  0  0  0  0  0  0  0  0
    3.8484   20.1269   51.0392 S   0  0  0  0  0  0  0  0  0  0  0  0
    7.3518   20.5295   50.9433 C   0  0  0  0  0  0  0  0  0  0  0  0
   11.8372   20.6066   54.1213 C   0  0  0  0  0  0  0  0  0  0  0  0
    0.4471   21.8090   55.0941 O   0  5  0  0  0  0  0  0  0  0  0  0
    7.1111   21.0251   52.1824 N   0  0  0  0  0  0  0  0  0  0  0  0
   11.6971   21.8858   53.9663 N   0  0  0  0  0  0  0  0  0  0  0  0
   -0.1961   20.9274   52.8644 O   0  0  0  0  0  0  0  0  0  0  0  0
    5.7244   20.8878   52.6506 C   0  0  2  0  0  0  0  0  0  0  0  0
   10.4832   22.4117   53.5674 C   0  0  0  0  0  0  0  0  0  0  0  0
   10.3738   23.7345   53.4221 N   0  0  0  0  0  0  0  0  0  0  0  0
    4.5097   21.2255   51.9149 C   0  0  1  0  0  0  0  0  0  0  0  0
    9.3696   21.5073   53.3271 C   0  0  0  0  0  0  0  0  0  0  0  0
    8.4623   20.0566   50.8399 O   0  0  0  0  0  0  0  0  0  0  0  0
    3.8636   22.5653   51.9374 C   0  0  0  0  0  0  0  0  0  0  0  0
    9.6257   20.1638   53.5122 C   0  0  0  0  0  0  0  0  0  0  0  0
    2.3995   22.6673   51.9774 C   0  0  0  0  0  0  0  0  0  0  0  0
    8.0084   22.0259   52.9321 C   0  0  0  0  0  0  0  0  0  0  0  0
    1.8816   22.1390   53.2108 O   0  0  0  0  0  0  0  0  0  0  0  0
  1  2  1  0  0  0  0
  1  8  2  0  0  0  0
  1 14  1  0  0  0  0
  2  3  2  0  0  0  0
  2  7  1  0  0  0  0
  3  4  1  0  0  0  0
  4  5  2  0  0  0  0
  5  6  1  0  0  0  0
  6  7  2  0  0  0  0
  9 16  1  0  0  0  0
 10 21  1  0  0  0  0
 11 13  1  6  0  0  0
 11 17  1  0  0  0  0
 11 20  2  0  0  0  0
 11 31  1  0  0  0  0
 12 16  2  0  0  0  0
 12 28  1  0  0  0  0
 15 26  1  0  0  0  0
 15 18  1  0  0  0  0
 16 19  1  0  0  0  0
 18 30  1  0  0  0  0
 19 22  2  0  0  0  0
 21 18  1  1  0  0  0
 21 24  1  0  0  0  0
 22 23  1  0  0  0  0
 22 25  1  0  0  0  0
 24 14  1  6  0  0  0
 24 27  1  0  0  0  0
 25 28  2  0  0  0  0
 25 30  1  0  0  0  0
 27 29  1  0  0  0  0
 29 31  1  0  0  0  0
M  CHG  1  17  -1
M  END
>  <CHROM.1>
-154.05716655,-155.21138318,74.67252174,-145.92843122,133.19983010,-66.33283002
-91.02840342,40.18074597,156.56411564,65.33108874,-179.67424992,-42.30875533
5.14004858,20.47058599,52.39243986,-2.97925866,-0.06293654,0.57867237

>  <Name>
ligand

>  <RI>
0

>  <Rbt.Current_Directory>
/home/itssahil/PROJECTS/Mol_Feturizer/New_Systems/rnas/2HOO

>  <Rbt.Executable>
rbdock ($Id: //depot/dev/client3/rdock/2013.1/src/exe/rbdock.cxx#4 $)

>  <Rbt.Library>
libRbt.so (2013.1, Build901 2013/11/27)

>  <Rbt.Parameter_File>
/export/apps/rDock/src/rDock_2013.1_src/data/scripts/dock_solv.prm

>  <Rbt.Receptor>
prm/pocket_docking_4.prm

>  <SCORE>
-32.4452

>  <SCORE.INTER>
-19.9309

>  <SCORE.INTER.CONST>
1

>  <SCORE.INTER.POLAR>
0

>  <SCORE.INTER.ROT>
12

>  <SCORE.INTER.SOLV>
17.9405

>  <SCORE.INTER.VDW>
-30.8674

>  <SCORE.INTER.norm>
-0.642932

>  <SCORE.INTRA>
-12.5143

>  <SCORE.INTRA.DIHEDRAL>
0.780588

>  <SCORE.INTRA.DIHEDRAL.0>
14.6094

>  <SCORE.INTRA.POLAR>
0

>  <SCORE.INTRA.POLAR.0>
0

>  <SCORE.INTRA.REPUL>
0

>  <SCORE.INTRA.REPUL.0>
0

>  <SCORE.INTRA.SOLV>
0.679352

>  <SCORE.INTRA.SOLV.lig_0>
-65.6478

>  <SCORE.INTRA.VDW>
-13.2443

>  <SCORE.INTRA.VDW.0>
9.35535

>  <SCORE.INTRA.norm>
-0.403688

>  <SCORE.RESTR>
0

>  <SCORE.RESTR.CAVITY>
0

>  <SCORE.RESTR.norm>
0

>  <SCORE.SYSTEM>
0

>  <SCORE.SYSTEM.CONST>
0

>  <SCORE.SYSTEM.DIHEDRAL>
0

>  <SCORE.SYSTEM.SOLV>
0

>  <SCORE.SYSTEM.norm>
0

>  <SCORE.heavy>
31

>  <SCORE.norm>
-1.04662

>  <RMSD>
2.260

$$$$
ligand
 OpenBabel11021811443D
libRbt.so/2013.1/901 2013/11/27
 31 32  0  0  0  0  0  0  0  0999 V2000
    5.1717   17.8997   50.0707 C   0  0  0  0  0  0  0  0  0  0  0  0
    5.9964   18.1767   48.8173 C   0  0  0  0  0  0  0  0  0  0  0  0
    5.9506   17.2671   47.7115 C   0  0  0  0  0  0  0  0  0  0  0  0
    6.7206   17.5278   46.5527 C   0  0  0  0  0  0  0  0  0  0  0  0
    7.5319   18.6862   46.4740 C   0  0  0  0  0  0  0  0  0  0  0  0
    7.5844   19.5953   47.5500 C   0  0  0  0  0  0  0  0  0  0  0  0
    6.8282   19.3531   48.7108 C   0  0  0  0  0  0  0  0  0  0  0  0
    4.0762   17.3471   49.9757 O   0  0  0  0  0  0  0  0  0  0  0  0
   14.2757   19.0002   55.1985 C   0  0  0  0  0  0  0  0  0  0  0  0
    7.4168   21.5729   51.0743 C   0  0  0  0  0  0  0  0  0  0  0  0
    3.1565   18.6173   54.6720 P   0  0  1  0  0  0  0  0  0  0  0  0
   12.0601   18.3966   54.5193 N   0  0  0  0  0  0  0  0  0  0  0  0
    3.5255   17.2803   55.1751 O   0  0  0  0  0  0  0  0  0  0  0  0
    5.6424   18.2653   51.3199 S   0  0  0  0  0  0  0  0  0  0  0  0
    9.1083   18.8784   51.6009 C   0  0  0  0  0  0  0  0  0  0  0  0
   12.9392   19.4193   54.7957 C   0  0  0  0  0  0  0  0  0  0  0  0
    1.7399   19.0015   54.9167 O   0  5  0  0  0  0  0  0  0  0  0  0
    8.4092   19.7161   52.4062 N   0  0  0  0  0  0  0  0  0  0  0  0
   12.6377   20.6774   54.7150 N   0  0  0  0  0  0  0  0  0  0  0  0
    4.1310   19.6286   55.1429 O   0  0  0  0  0  0  0  0  0  0  0  0
    7.1894   20.2805   51.8106 C   0  0  2  0  0  0  0  0  0  0  0  0
   11.3667   21.0678   54.3390 C   0  0  0  0  0  0  0  0  0  0  0  0
   11.0902   22.3723   54.2708 N   0  0  0  0  0  0  0  0  0  0  0  0
    5.8461   19.7106   51.8499 C   0  0  1  0  0  0  0  0  0  0  0  0
   10.3768   20.0453   54.0382 C   0  0  0  0  0  0  0  0  0  0  0  0
    8.5445   17.8198   51.4305 O   0  0  0  0  0  0  0  0  0  0  0  0
    4.6467   20.4306   52.3558 C   0  0  0  0  0  0  0  0  0  0  0  0
   10.8015   18.7365   54.1460 C   0  0  0  0  0  0  0  0  0  0  0  0
    3.3252   19.7971   52.2663 C   0  0  0  0  0  0  0  0  0  0  0  0
    8.9606   20.4096   53.6647 C   0  0  0  0  0  0  0  0  0  0  0  0
    3.2565   18.6319   53.1066 O   0  0  0  0  0  0  0  0  0  0  0  0
  1  2  1  0  0  0  0
  1  8  2  0  0  0  0
  1 14  1  0  0  0  0
  2  3  2  0  0  0  0
  2  7  1  0  0  0  0
  3  4  1  0  0  0  0
  4  5  2  0  0  0  0
  5  6  1  0  0  0  0
  6  7  2  0  0  0  0
  9 16  1  0  0  0  0
 10 21  1  0  0  0  0
 11 13  1  1  0  0  0
 11 17  1  0  0  0  0
 11 20  2  0  0  0  0
 11 31  1  0  0  0  0
 12 16  2  0  0  0  0
 12 28  1  0  0  0  0
 15 26  1  0  0  0  0
 15 18  1  0  0  0  0
 16 19  1  0  0  0  0
 18 30  1  0  0  0  0
 19 22  2  0  0  0  0
 21 18  1  6  0  0  0
 21 24  1  0  0  0  0
 22 23  1  0  0  0  0
 22 25  1  0  0  0  0
 24 14  1  6  0  0  0
 24 27  1  0  0  0  0
 25 28  2  0  0  0  0
 25 30  1  0  0  0  0
 27 29  1  0  0  0  0
 29 31  1  0  0  0  0
M  CHG  1  17  -1
M  END
>  <CHROM.1>
-33.71326018,67.42421869,-98.77691539,-71.13736162,-89.39429067,-3.30928280
123.20088370,-3.56486413,131.01689868,65.83798002,73.67374900,-162.53307753
7.09505291,19.14683583,52.27476943,-2.82924073,0.13318719,1.42816627

>  <Name>
ligand

>  <RI>
0

>  <Rbt.Current_Directory>
/home/itssahil/PROJECTS/Mol_Feturizer/New_Systems/rnas/2HOO

>  <Rbt.Executable>
rbdock ($Id: //depot/dev/client3/rdock/2013.1/src/exe/rbdock.cxx#4 $)

>  <Rbt.Library>
libRbt.so (2013.1, Build901 2013/11/27)

>  <Rbt.Parameter_File>
/export/apps/rDock/src/rDock_2013.1_src/data/scripts/dock_solv.prm

>  <Rbt.Receptor>
prm/pocket_docking_3.prm

>  <SCORE>
-26.0985

>  <SCORE.INTER>
-16.6356

>  <SCORE.INTER.CONST>
1

>  <SCORE.INTER.POLAR>
0

>  <SCORE.INTER.ROT>
12

>  <SCORE.INTER.SOLV>
21.1717

>  <SCORE.INTER.VDW>
-29.7476

>  <SCORE.INTER.norm>
-0.536632

>  <SCORE.INTRA>
-9.4653

>  <SCORE.INTRA.DIHEDRAL>
2.93683

>  <SCORE.INTRA.DIHEDRAL.0>
14.6094

>  <SCORE.INTRA.POLAR>
0

>  <SCORE.INTRA.POLAR.0>
0

>  <SCORE.INTRA.REPUL>
0

>  <SCORE.INTRA.REPUL.0>
0

>  <SCORE.INTRA.SOLV>
2.59172

>  <SCORE.INTRA.SOLV.lig_0>
-65.6478

>  <SCORE.INTRA.VDW>
-12.2296

>  <SCORE.INTRA.VDW.0>
9.35535

>  <SCORE.INTRA.norm>
-0.305332

>  <SCORE.RESTR>
0.00239668

>  <SCORE.RESTR.CAVITY>
0.00239668

>  <SCORE.RESTR.norm>
7.73124e-05

>  <SCORE.SYSTEM>
0

>  <SCORE.SYSTEM.CONST>
0

>  <SCORE.SYSTEM.DIHEDRAL>
0

>  <SCORE.SYSTEM.SOLV>
0

>  <SCORE.SYSTEM.norm>
0

>  <SCORE.heavy>
31

>  <SCORE.norm>
-0.841887

>  <RMSD>
2.271

$$$$
ligand
 OpenBabel11021811443D
libRbt.so/2013.1/901 2013/11/27
 31 32  0  0  0  0  0  0  0  0999 V2000
    6.2816   18.1527   49.0019 C   0  0  0  0  0  0  0  0  0  0  0  0
    5.5466   16.8393   49.2529 C   0  0  0  0  0  0  0  0  0  0  0  0
    4.1145   16.8090   49.2681 C   0  0  0  0  0  0  0  0  0  0  0  0
    3.4384   15.5880   49.5048 C   0  0  0  0  0  0  0  0  0  0  0  0
    4.1669   14.3926   49.7200 C   0  0  0  0  0  0  0  0  0  0  0  0
    5.5765   14.4027   49.7023 C   0  0  0  0  0  0  0  0  0  0  0  0
    6.2667   15.6060   49.4707 C   0  0  0  0  0  0  0  0  0  0  0  0
    7.0306   18.2618   48.0317 O   0  0  0  0  0  0  0  0  0  0  0  0
   13.1925   19.9671   54.6089 C   0  0  0  0  0  0  0  0  0  0  0  0
    4.7174   21.3912   52.0832 C   0  0  0  0  0  0  0  0  0  0  0  0
    1.6270   18.6820   52.8611 P   0  0  1  0  0  0  0  0  0  0  0  0
   11.1174   19.4024   53.5555 N   0  0  0  0  0  0  0  0  0  0  0  0
    1.7461   19.1337   54.2606 O   0  0  0  0  0  0  0  0  0  0  0  0
    6.1164   19.2282   49.8574 S   0  0  0  0  0  0  0  0  0  0  0  0
    6.9438   20.2898   54.2647 C   0  0  0  0  0  0  0  0  0  0  0  0
   11.9331   20.4081   54.0228 C   0  0  0  0  0  0  0  0  0  0  0  0
    1.0474   17.3215   52.6969 O   0  5  0  0  0  0  0  0  0  0  0  0
    6.9553   20.8191   53.0163 N   0  0  0  0  0  0  0  0  0  0  0  0
   11.6376   21.6688   53.9638 N   0  0  0  0  0  0  0  0  0  0  0  0
    0.9465   19.7148   52.0459 O   0  0  0  0  0  0  0  0  0  0  0  0
    5.8454   20.3975   52.1496 C   0  0  2  0  0  0  0  0  0  0  0  0
   10.4388   22.0797   53.4129 C   0  0  0  0  0  0  0  0  0  0  0  0
   10.1656   23.3861   53.3727 N   0  0  0  0  0  0  0  0  0  0  0  0
    5.7579   19.1683   51.3670 C   0  0  1  0  0  0  0  0  0  0  0  0
    9.5176   21.0756   52.9040 C   0  0  0  0  0  0  0  0  0  0  0  0
    6.7449   21.1234   55.1209 O   0  0  0  0  0  0  0  0  0  0  0  0
    5.3334   17.8539   51.9192 C   0  0  0  0  0  0  0  0  0  0  0  0
    9.9309   19.7627   53.0064 C   0  0  0  0  0  0  0  0  0  0  0  0
    4.1534   17.7762   52.7895 C   0  0  0  0  0  0  0  0  0  0  0  0
    8.1754   21.4603   52.3311 C   0  0  0  0  0  0  0  0  0  0  0  0
    3.0586   18.5289   52.2384 O   0  0  0  0  0  0  0  0  0  0  0  0
  1  2  1  0  0  0  0
  1  8  2  0  0  0  0
  1 14  1  0  0  0  0
  2  3  2  0  0  0  0
  2  7  1  0  0  0  0
  3  4  1  0  0  0  0
  4  5  2  0  0  0  0
  5  6  1  0  0  0  0
  6  7  2  0  0  0  0
  9 16  1  0  0  0  0
 10 21  1  0  0  0  0
 11 13  1  1  0  0  0
 11 17  1  0  0  0  0
 11 20  2  0  0  0  0
 11 31  1  0  0  0  0
 12 16  2  0  0  0  0
 12 28  1  0  0  0  0
 15 26  1  0  0  0  0
 15 18  1  0  0  0  0
 16 19  1  0  0  0  0
 18 30  1  0  0  0  0
 19 22  2  0  0  0  0
 21 18  1  6  0  0  0
 21 24  1  0  0  0  0
 22 23  1  0  0  0  0
 22 25  1  0  0  0  0
 24 14  1  6  0  0  0
 24 27  1  0  0  0  0
 25 28  2  0  0  0  0
 25 30  1  0  0  0  0
 27 29  1  0  0  0  0
 29 31  1  0  0  0  0
M  CHG  1  17  -1
M  END
>  <CHROM.1>
-119.43919903,27.86327442,169.96327414,-113.04588352,98.40531842,20.30917061
80.50153030,-133.99401996,-122.14053475,45.89803682,179.42814259,52.47180397
6.15387946,19.11368666,52.01447098,-2.64878606,0.12534116,0.81195766

>  <Name>
ligand

>  <RI>
0

>  <Rbt.Current_Directory>
/home/itssahil/PROJECTS/Mol_Feturizer/New_Systems/rnas/2HOO

>  <Rbt.Executable>
rbdock ($Id: //depot/dev/client3/rdock/2013.1/src/exe/rbdock.cxx#4 $)

>  <Rbt.Library>
libRbt.so (2013.1, Build901 2013/11/27)

>  <Rbt.Parameter_File>
/export/apps/rDock/src/rDock_2013.1_src/data/scripts/dock_solv.prm

>  <Rbt.Receptor>
prm/pocket_docking_2.prm

>  <SCORE>
-26.8848

>  <SCORE.INTER>
-13.2671

>  <SCORE.INTER.CONST>
1

>  <SCORE.INTER.POLAR>
0

>  <SCORE.INTER.ROT>
12

>  <SCORE.INTER.SOLV>
16.7151

>  <SCORE.INTER.VDW>
-26.0164

>  <SCORE.INTER.norm>
-0.42797

>  <SCORE.INTRA>
-13.8615

>  <SCORE.INTRA.DIHEDRAL>
1.09006

>  <SCORE.INTRA.DIHEDRAL.0>
14.6094

>  <SCORE.INTRA.POLAR>
0

>  <SCORE.INTRA.POLAR.0>
0

>  <SCORE.INTRA.REPUL>
0

>  <SCORE.INTRA.REPUL.0>
0

>  <SCORE.INTRA.SOLV>
-0.275515

>  <SCORE.INTRA.SOLV.lig_0>
-65.6478

>  <SCORE.INTRA.VDW>
-14.2688

>  <SCORE.INTRA.VDW.0>
9.35535

>  <SCORE.INTRA.norm>
-0.447146

>  <SCORE.RESTR>
0.243786

>  <SCORE.RESTR.CAVITY>
0.243786

>  <SCORE.RESTR.norm>
0.00786407

>  <SCORE.SYSTEM>
0

>  <SCORE.SYSTEM.CONST>
0

>  <SCORE.SYSTEM.DIHEDRAL>
0

>  <SCORE.SYSTEM.SOLV>
0

>  <SCORE.SYSTEM.norm>
0

>  <SCORE.heavy>
31

>  <SCORE.norm>
-0.867251

>  <RMSD>
2.370

$$$$
ligand
 OpenBabel11021811443D
libRbt.so/2013.1/901 2013/11/27
 31 32  0  0  0  0  0  0  0  0999 V2000
    4.1958   18.9437   50.8970 C   0  0  0  0  0  0  0  0  0  0  0  0
    4.9159   18.3749   49.6780 C   0  0  0  0  0  0  0  0  0  0  0  0
    6.0689   19.0405   49.1492 C   0  0  0  0  0  0  0  0  0  0  0  0
    6.7307   18.5098   48.0160 C   0  0  0  0  0  0  0  0  0  0  0  0
    6.2661   17.3201   47.4036 C   0  0  0  0  0  0  0  0  0  0  0  0
    5.1367   16.6485   47.9142 C   0  0  0  0  0  0  0  0  0  0  0  0
    4.4643   17.1609   49.0382 C   0  0  0  0  0  0  0  0  0  0  0  0
    3.7310   20.0826   50.8600 O   0  0  0  0  0  0  0  0  0  0  0  0
   12.6003   20.3298   54.3370 C   0  0  0  0  0  0  0  0  0  0  0  0
    6.8251   18.3640   54.2875 C   0  0  0  0  0  0  0  0  0  0  0  0
    0.7015   18.9763   52.7469 P   0  0  1  0  0  0  0  0  0  0  0  0
   10.5341   21.5370   54.2482 N   0  0  0  0  0  0  0  0  0  0  0  0
    0.9228   18.1274   51.5607 O   0  0  0  0  0  0  0  0  0  0  0  0
    4.0594   18.1911   52.0506 S   0  0  0  0  0  0  0  0  0  0  0  0
    5.7118   21.4870   54.5093 C   0  0  0  0  0  0  0  0  0  0  0  0
   11.2276   20.4147   53.8548 C   0  0  0  0  0  0  0  0  0  0  0  0
    1.6073   20.1528   52.8440 O   0  5  0  0  0  0  0  0  0  0  0  0
    6.1116   20.6300   53.5373 N   0  0  0  0  0  0  0  0  0  0  0  0
   10.7303   19.4782   53.1094 N   0  0  0  0  0  0  0  0  0  0  0  0
   -0.7331   19.3258   52.8661 O   0  0  0  0  0  0  0  0  0  0  0  0
    5.7202   19.2279   53.7423 C   0  0  2  0  0  0  0  0  0  0  0  0
    9.4302   19.5683   52.6500 C   0  0  0  0  0  0  0  0  0  0  0  0
    8.9523   18.5873   51.8805 N   0  0  0  0  0  0  0  0  0  0  0  0
    4.4089   18.6354   53.4968 C   0  0  1  0  0  0  0  0  0  0  0  0
    8.6337   20.7293   53.0155 C   0  0  0  0  0  0  0  0  0  0  0  0
    6.5432   21.6223   55.3799 O   0  0  0  0  0  0  0  0  0  0  0  0
    3.3712   18.4379   54.5442 C   0  0  0  0  0  0  0  0  0  0  0  0
    9.2539   21.6643   53.8193 C   0  0  0  0  0  0  0  0  0  0  0  0
    2.2818   17.4797   54.3188 C   0  0  0  0  0  0  0  0  0  0  0  0
    7.2230   20.9045   52.5086 C   0  0  0  0  0  0  0  0  0  0  0  0
    1.0464   18.1625   54.0429 O   0  0  0  0  0  0  0  0  0  0  0  0
  1  2  1  0  0  0  0
  1  8  2  0  0  0  0
  1 14  1  0  0  0  0
  2  3  2  0  0  0  0
  2  7  1  0  0  0  0
  3  4  1  0  0  0  0
  4  5  2  0  0  0  0
  5  6  1  0  0  0  0
  6  7  2  0  0  0  0
  9 16  1  0  0  0  0
 10 21  1  0  0  0  0
 11 13  1  6  0  0  0
 11 17  1  0  0  0  0
 11 20  2  0  0  0  0
 11 31  1  0  0  0  0
 12 16  2  0  0  0  0
 12 28  1  0  0  0  0
 15 26  1  0  0  0  0
 15 18  1  0  0  0  0
 16 19  1  0  0  0  0
 18 30  1  0  0  0  0
 19 22  2  0  0  0  0
 21 18  1  1  0  0  0
 21 24  1  0  0  0  0
 22 23  1  0  0  0  0
 22 25  1  0  0  0  0
 24 14  1  6  0  0  0
 24 27  1  0  0  0  0
 25 28  2  0  0  0  0
 25 30  1  0  0  0  0
 27 29  1  0  0  0  0
 29 31  1  0  0  0  0
M  CHG  1  17  -1
M  END
>  <CHROM.1>
58.87420061,129.61957266,-49.98549679,91.80457449,-100.33665270,78.97528136
-97.99769505,19.72982729,104.83216781,-106.03329152,69.72857021,54.06718338
5.38092013,19.26497107,52.44360891,-2.93819357,0.14019930,1.17412363

>  <Name>
ligand

>  <RI>
0

>  <Rbt.Current_Directory>
/home/itssahil/PROJECTS/Mol_Feturizer/New_Systems/rnas/2HOO

>  <Rbt.Executable>
rbdock ($Id: //depot/dev/client3/rdock/2013.1/src/exe/rbdock.cxx#4 $)

>  <Rbt.Library>
libRbt.so (2013.1, Build901 2013/11/27)

>  <Rbt.Parameter_File>
/export/apps/rDock/src/rDock_2013.1_src/data/scripts/dock_solv.prm

>  <Rbt.Receptor>
prm/pocket_docking_3.prm

>  <SCORE>
-21.982

>  <SCORE.INTER>
-13.9805

>  <SCORE.INTER.CONST>
1

>  <SCORE.INTER.POLAR>
0

>  <SCORE.INTER.ROT>
12

>  <SCORE.INTER.SOLV>
16.3104

>  <SCORE.INTER.VDW>
-26.3571

>  <SCORE.INTER.norm>
-0.450984

>  <SCORE.INTRA>
-8.00148

>  <SCORE.INTRA.DIHEDRAL>
5.7288

>  <SCORE.INTRA.DIHEDRAL.0>
14.6094

>  <SCORE.INTRA.POLAR>
0

>  <SCORE.INTRA.POLAR.0>
0

>  <SCORE.INTRA.REPUL>
0

>  <SCORE.INTRA.REPUL.0>
0

>  <SCORE.INTRA.SOLV>
7.78921

>  <SCORE.INTRA.SOLV.lig_0>
-65.6478

>  <SCORE.INTRA.VDW>
-14.7605

>  <SCORE.INTRA.VDW.0>
9.35535

>  <SCORE.INTRA.norm>
-0.258112

>  <SCORE.RESTR>
0

>  <SCORE.RESTR.CAVITY>
0

>  <SCORE.RESTR.norm>
0

>  <SCORE.SYSTEM>
0

>  <SCORE.SYSTEM.CONST>
0

>  <SCORE.SYSTEM.DIHEDRAL>
0

>  <SCORE.SYSTEM.SOLV>
0

>  <SCORE.SYSTEM.norm>
0

>  <SCORE.heavy>
31

>  <SCORE.norm>
-0.709096

>  <RMSD>
2.402

$$$$
ligand
 OpenBabel11021811443D
libRbt.so/2013.1/901 2013/11/27
 31 32  0  0  0  0  0  0  0  0999 V2000
    5.7013   19.0685   50.4143 C   0  0  0  0  0  0  0  0  0  0  0  0
    5.4472   17.6865   49.8197 C   0  0  0  0  0  0  0  0  0  0  0  0
    6.5428   16.7955   49.5786 C   0  0  0  0  0  0  0  0  0  0  0  0
    6.3010   15.5159   49.0236 C   0  0  0  0  0  0  0  0  0  0  0  0
    4.9820   15.1054   48.7107 C   0  0  0  0  0  0  0  0  0  0  0  0
    3.8913   15.9667   48.9470 C   0  0  0  0  0  0  0  0  0  0  0  0
    4.1110   17.2427   49.4961 C   0  0  0  0  0  0  0  0  0  0  0  0
    6.4875   19.8389   49.8641 O   0  0  0  0  0  0  0  0  0  0  0  0
   13.0635   20.4132   54.1422 C   0  0  0  0  0  0  0  0  0  0  0  0
    6.7673   22.6371   51.8705 C   0  0  0  0  0  0  0  0  0  0  0  0
    0.9007   19.3676   53.8188 P   0  0  1  0  0  0  0  0  0  0  0  0
   10.8928   21.4042   53.9419 N   0  0  0  0  0  0  0  0  0  0  0  0
    0.8395   18.1245   53.0265 O   0  0  0  0  0  0  0  0  0  0  0  0
    5.0562   19.4680   51.5718 S   0  0  0  0  0  0  0  0  0  0  0  0
    6.1412   22.1508   54.9902 C   0  0  0  0  0  0  0  0  0  0  0  0
   11.6151   20.2587   54.1893 C   0  0  0  0  0  0  0  0  0  0  0  0
   -0.2605   20.2790   53.6312 O   0  5  0  0  0  0  0  0  0  0  0  0
    6.6181   21.3549   54.0013 N   0  0  0  0  0  0  0  0  0  0  0  0
   11.0819   19.1063   54.4493 N   0  0  0  0  0  0  0  0  0  0  0  0
    1.1818   19.0561   55.2394 O   0  0  0  0  0  0  0  0  0  0  0  0
    6.0366   21.5944   52.6726 C   0  0  2  0  0  0  0  0  0  0  0  0
    9.7078   18.9653   54.4858 C   0  0  0  0  0  0  0  0  0  0  0  0
    9.1932   17.7624   54.7525 N   0  0  0  0  0  0  0  0  0  0  0  0
    4.8817   20.9236   52.0835 C   0  0  1  0  0  0  0  0  0  0  0  0
    8.8741   20.1286   54.2263 C   0  0  0  0  0  0  0  0  0  0  0  0
    6.7679   23.1817   55.0997 O   0  0  0  0  0  0  0  0  0  0  0  0
    3.5410   21.5490   51.9275 C   0  0  0  0  0  0  0  0  0  0  0  0
    9.5402   21.3096   53.9685 C   0  0  0  0  0  0  0  0  0  0  0  0
    2.3355   20.7133   51.9916 C   0  0  0  0  0  0  0  0  0  0  0  0
    7.3683   20.0272   54.2093 C   0  0  0  0  0  0  0  0  0  0  0  0
    2.1104   20.2387   53.3306 O   0  0  0  0  0  0  0  0  0  0  0  0
  1  2  1  0  0  0  0
  1  8  2  0  0  0  0
  1 14  1  0  0  0  0
  2  3  2  0  0  0  0
  2  7  1  0  0  0  0
  3  4  1  0  0  0  0
  4  5  2  0  0  0  0
  5  6  1  0  0  0  0
  6  7  2  0  0  0  0
  9 16  1  0  0  0  0
 10 21  1  0  0  0  0
 11 13  1  6  0  0  0
 11 17  1  0  0  0  0
 11 20  2  0  0  0  0
 11 31  1  0  0  0  0
 12 16  2  0  0  0  0
 12 28  1  0  0  0  0
 15 26  1  0  0  0  0
 15 18  1  0  0  0  0
 16 19  1  0  0  0  0
 18 30  1  0  0  0  0
 19 22  2  0  0  0  0
 21 18  1  6  0  0  0
 21 24  1  0  0  0  0
 22 23  1  0  0  0  0
 22 25  1  0  0  0  0
 24 14  1  6  0  0  0
 24 27  1  0  0  0  0
 25 28  2  0  0  0  0
 25 30  1  0  0  0  0
 27 29  1  0  0  0  0
 29 31  1  0  0  0  0
M  CHG  1  17  -1
M  END
>  <CHROM.1>
55.47460790,-161.52833069,-74.96458463,-88.96895402,88.75169109,-94.22494371
104.14909384,31.70761665,176.64762307,70.38022203,177.45095978,57.02780762
5.71819328,19.66662197,52.66148662,-2.88753705,-0.01239401,0.81357458

>  <Name>
ligand

>  <RI>
0

>  <Rbt.Current_Directory>
/home/itssahil/PROJECTS/Mol_Feturizer/New_Systems/rnas/2HOO

>  <Rbt.Executable>
rbdock ($Id: //depot/dev/client3/rdock/2013.1/src/exe/rbdock.cxx#4 $)

>  <Rbt.Library>
libRbt.so (2013.1, Build901 2013/11/27)

>  <Rbt.Parameter_File>
/export/apps/rDock/src/rDock_2013.1_src/data/scripts/dock_solv.prm

>  <Rbt.Receptor>
prm/pocket_docking_2.prm

>  <SCORE>
-16.8658

>  <SCORE.INTER>
-6.23455

>  <SCORE.INTER.CONST>
1

>  <SCORE.INTER.POLAR>
0

>  <SCORE.INTER.ROT>
12

>  <SCORE.INTER.SOLV>
20.6949

>  <SCORE.INTER.VDW>
-22.6547

>  <SCORE.INTER.norm>
-0.201115

>  <SCORE.INTRA>
-13.3678

>  <SCORE.INTRA.DIHEDRAL>
1.27685

>  <SCORE.INTRA.DIHEDRAL.0>
14.6094

>  <SCORE.INTRA.POLAR>
0

>  <SCORE.INTRA.POLAR.0>
0

>  <SCORE.INTRA.REPUL>
0

>  <SCORE.INTRA.REPUL.0>
0

>  <SCORE.INTRA.SOLV>
-0.731571

>  <SCORE.INTRA.SOLV.lig_0>
-65.6478

>  <SCORE.INTRA.VDW>
-13.6404

>  <SCORE.INTRA.VDW.0>
9.35535

>  <SCORE.INTRA.norm>
-0.431218

>  <SCORE.RESTR>
2.73648

>  <SCORE.RESTR.CAVITY>
2.73648

>  <SCORE.RESTR.norm>
0.0882735

>  <SCORE.SYSTEM>
0

>  <SCORE.SYSTEM.CONST>
0

>  <SCORE.SYSTEM.DIHEDRAL>
0

>  <SCORE.SYSTEM.SOLV>
0

>  <SCORE.SYSTEM.norm>
0

>  <SCORE.heavy>
31

>  <SCORE.norm>
-0.544059

>  <RMSD>
2.433

$$$$
ligand
 OpenBabel11021811443D
libRbt.so/2013.1/901 2013/11/27
 31 32  0  0  0  0  0  0  0  0999 V2000
    6.1235   17.3201   51.1968 C   0  0  0  0  0  0  0  0  0  0  0  0
    5.7118   16.0823   50.4053 C   0  0  0  0  0  0  0  0  0  0  0  0
    4.3311   15.7098   50.3211 C   0  0  0  0  0  0  0  0  0  0  0  0
    3.9557   14.5585   49.5881 C   0  0  0  0  0  0  0  0  0  0  0  0
    4.9345   13.7741   48.9300 C   0  0  0  0  0  0  0  0  0  0  0  0
    6.2971   14.1293   48.9970 C   0  0  0  0  0  0  0  0  0  0  0  0
    6.6904   15.2685   49.7219 C   0  0  0  0  0  0  0  0  0  0  0  0
    7.3083   17.5073   51.4720 O   0  0  0  0  0  0  0  0  0  0  0  0
   12.9883   20.2174   54.2435 C   0  0  0  0  0  0  0  0  0  0  0  0
    7.4731   20.2398   50.3145 C   0  0  0  0  0  0  0  0  0  0  0  0
    1.0182   18.8769   53.2019 P   0  0  1  0  0  0  0  0  0  0  0  0
   11.0558   21.5858   53.8870 N   0  0  0  0  0  0  0  0  0  0  0  0
   -0.1362   19.6925   52.7791 O   0  0  0  0  0  0  0  0  0  0  0  0
    5.1758   18.2392   51.6125 S   0  0  0  0  0  0  0  0  0  0  0  0
    6.5031   22.7234   52.2029 C   0  0  0  0  0  0  0  0  0  0  0  0
   11.5378   20.3232   54.1492 C   0  0  0  0  0  0  0  0  0  0  0  0
    1.5391   19.1977   54.5584 O   0  5  0  0  0  0  0  0  0  0  0  0
    6.8780   21.4377   52.4162 N   0  0  0  0  0  0  0  0  0  0  0  0
   10.7875   19.2781   54.3074 N   0  0  0  0  0  0  0  0  0  0  0  0
    0.7270   17.4376   53.0077 O   0  0  0  0  0  0  0  0  0  0  0  0
    6.4451   20.4825   51.3861 C   0  0  2  0  0  0  0  0  0  0  0  0
    9.4133   19.3843   54.2100 C   0  0  0  0  0  0  0  0  0  0  0  0
    8.6718   18.2860   54.3742 N   0  0  0  0  0  0  0  0  0  0  0  0
    5.1746   19.7658   51.3289 C   0  0  1  0  0  0  0  0  0  0  0  0
    8.8265   20.6847   53.9262 C   0  0  0  0  0  0  0  0  0  0  0  0
    7.4245   23.5012   52.3188 O   0  0  0  0  0  0  0  0  0  0  0  0
    3.8699   20.4015   51.0027 C   0  0  0  0  0  0  0  0  0  0  0  0
    9.7117   21.7339   53.7839 C   0  0  0  0  0  0  0  0  0  0  0  0
    2.8222   20.4819   52.0281 C   0  0  0  0  0  0  0  0  0  0  0  0
    7.3355   20.8547   53.7652 C   0  0  0  0  0  0  0  0  0  0  0  0
    2.2447   19.1880   52.2747 O   0  0  0  0  0  0  0  0  0  0  0  0
  1  2  1  0  0  0  0
  1  8  2  0  0  0  0
  1 14  1  0  0  0  0
  2  3  2  0  0  0  0
  2  7  1  0  0  0  0
  3  4  1  0  0  0  0
  4  5  2  0  0  0  0
  5  6  1  0  0  0  0
  6  7  2  0  0  0  0
  9 16  1  0  0  0  0
 10 21  1  0  0  0  0
 11 13  1  6  0  0  0
 11 17  1  0  0  0  0
 11 20  2  0  0  0  0
 11 31  1  0  0  0  0
 12 16  2  0  0  0  0
 12 28  1  0  0  0  0
 15 26  1  0  0  0  0
 15 18  1  0  0  0  0
 16 19  1  0  0  0  0
 18 30  1  0  0  0  0
 19 22  2  0  0  0  0
 21 18  1  1  0  0  0
 21 24  1  0  0  0  0
 22 23  1  0  0  0  0
 22 25  1  0  0  0  0
 24 14  1  6  0  0  0
 24 27  1  0  0  0  0
 25 28  2  0  0  0  0
 25 30  1  0  0  0  0
 27 29  1  0  0  0  0
 29 31  1  0  0  0  0
M  CHG  1  17  -1
M  END
>  <CHROM.1>
166.93294220,-125.22911698,-39.70715838,-130.72301627,94.07559373,-101.58200310
70.18053953,66.94618650,-121.76418111,-72.27433117,-174.28783716,55.49998752
5.88836709,19.04516334,52.25590944,-2.73595489,-0.01750310,0.49851262

>  <Name>
ligand

>  <RI>
0

>  <Rbt.Current_Directory>
/home/itssahil/PROJECTS/Mol_Feturizer/New_Systems/rnas/2HOO

>  <Rbt.Executable>
rbdock ($Id: //depot/dev/client3/rdock/2013.1/src/exe/rbdock.cxx#4 $)

>  <Rbt.Library>
libRbt.so (2013.1, Build901 2013/11/27)

>  <Rbt.Parameter_File>
/export/apps/rDock/src/rDock_2013.1_src/data/scripts/dock_solv.prm

>  <Rbt.Receptor>
prm/pocket_docking_3.prm

>  <SCORE>
-27.3428

>  <SCORE.INTER>
-16.238

>  <SCORE.INTER.CONST>
1

>  <SCORE.INTER.POLAR>
0

>  <SCORE.INTER.ROT>
12

>  <SCORE.INTER.SOLV>
14.9032

>  <SCORE.INTER.VDW>
-27.393

>  <SCORE.INTER.norm>
-0.523805

>  <SCORE.INTRA>
-11.1049

>  <SCORE.INTRA.DIHEDRAL>
4.31421

>  <SCORE.INTRA.DIHEDRAL.0>
14.6094

>  <SCORE.INTRA.POLAR>
0

>  <SCORE.INTRA.POLAR.0>
0

>  <SCORE.INTRA.REPUL>
0

>  <SCORE.INTRA.REPUL.0>
0

>  <SCORE.INTRA.SOLV>
1.69513

>  <SCORE.INTRA.SOLV.lig_0>
-65.6478

>  <SCORE.INTRA.VDW>
-14.1095

>  <SCORE.INTRA.VDW.0>
9.35535

>  <SCORE.INTRA.norm>
-0.358222

>  <SCORE.RESTR>
0

>  <SCORE.RESTR.CAVITY>
0

>  <SCORE.RESTR.norm>
0

>  <SCORE.SYSTEM>
0

>  <SCORE.SYSTEM.CONST>
0

>  <SCORE.SYSTEM.DIHEDRAL>
0

>  <SCORE.SYSTEM.SOLV>
0

>  <SCORE.SYSTEM.norm>
0

>  <SCORE.heavy>
31

>  <SCORE.norm>
-0.882027

>  <RMSD>
2.435

$$$$
ligand
 OpenBabel11021811443D
libRbt.so/2013.1/901 2013/11/27
 31 32  0  0  0  0  0  0  0  0999 V2000
    6.0588   18.0339   49.4238 C   0  0  0  0  0  0  0  0  0  0  0  0
    7.5437   17.8273   49.1399 C   0  0  0  0  0  0  0  0  0  0  0  0
    8.4826   17.7834   50.2210 C   0  0  0  0  0  0  0  0  0  0  0  0
    9.8593   17.5949   49.9510 C   0  0  0  0  0  0  0  0  0  0  0  0
   10.3165   17.4418   48.6192 C   0  0  0  0  0  0  0  0  0  0  0  0
    9.4061   17.4762   47.5435 C   0  0  0  0  0  0  0  0  0  0  0  0
    8.0344   17.6644   47.7909 C   0  0  0  0  0  0  0  0  0  0  0  0
    5.2199   17.3567   48.8304 O   0  0  0  0  0  0  0  0  0  0  0  0
   13.3782   19.9982   54.6914 C   0  0  0  0  0  0  0  0  0  0  0  0
    4.8303   20.1715   53.8322 C   0  0  0  0  0  0  0  0  0  0  0  0
    1.0045   19.4518   52.5088 P   0  0  1  0  0  0  0  0  0  0  0  0
   11.4732   19.0292   53.6113 N   0  0  0  0  0  0  0  0  0  0  0  0
   -0.2047   18.6472   52.2498 O   0  0  0  0  0  0  0  0  0  0  0  0
    5.6415   18.9795   50.3443 S   0  0  0  0  0  0  0  0  0  0  0  0
    7.4757   18.0455   53.7867 C   0  0  0  0  0  0  0  0  0  0  0  0
   12.0140   20.1494   54.2013 C   0  0  0  0  0  0  0  0  0  0  0  0
    0.7725   20.9209   52.5545 O   0  5  0  0  0  0  0  0  0  0  0  0
    7.0804   19.2464   53.2962 N   0  0  0  0  0  0  0  0  0  0  0  0
   11.3867   21.2763   54.3304 N   0  0  0  0  0  0  0  0  0  0  0  0
    1.7215   18.9312   53.6959 O   0  0  0  0  0  0  0  0  0  0  0  0
    5.6648   19.3264   52.9083 C   0  0  2  0  0  0  0  0  0  0  0  0
   10.0910   21.4107   53.8696 C   0  0  0  0  0  0  0  0  0  0  0  0
    9.4740   22.5848   54.0234 N   0  0  0  0  0  0  0  0  0  0  0  0
    5.0341   18.7063   51.7470 C   0  0  1  0  0  0  0  0  0  0  0  0
    9.4459   20.2686   53.2408 C   0  0  0  0  0  0  0  0  0  0  0  0
    7.4490   18.0066   54.9971 O   0  0  0  0  0  0  0  0  0  0  0  0
    3.8318   17.8329   51.8152 C   0  0  0  0  0  0  0  0  0  0  0  0
   10.2030   19.1187   53.1447 C   0  0  0  0  0  0  0  0  0  0  0  0
    2.6927   18.0910   50.9255 C   0  0  0  0  0  0  0  0  0  0  0  0
    8.0181   20.3416   52.7574 C   0  0  0  0  0  0  0  0  0  0  0  0
    2.0035   19.2936   51.3097 O   0  0  0  0  0  0  0  0  0  0  0  0
  1  2  1  0  0  0  0
  1  8  2  0  0  0  0
  1 14  1  0  0  0  0
  2  3  2  0  0  0  0
  2  7  1  0  0  0  0
  3  4  1  0  0  0  0
  4  5  2  0  0  0  0
  5  6  1  0  0  0  0
  6  7  2  0  0  0  0
  9 16  1  0  0  0  0
 10 21  1  0  0  0  0
 11 13  1  6  0  0  0
 11 17  1  0  0  0  0
 11 20  2  0  0  0  0
 11 31  1  0  0  0  0
 12 16  2  0  0  0  0
 12 28  1  0  0  0  0
 15 26  1  0  0  0  0
 15 18  1  0  0  0  0
 16 19  1  0  0  0  0
 18 30  1  0  0  0  0
 19 22  2  0  0  0  0
 21 18  1  6  0  0  0
 21 24  1  0  0  0  0
 22 23  1  0  0  0  0
 22 25  1  0  0  0  0
 24 14  1  6  0  0  0
 24 27  1  0  0  0  0
 25 28  2  0  0  0  0
 25 30  1  0  0  0  0
 27 29  1  0  0  0  0
 29 31  1  0  0  0  0
M  CHG  1  17  -1
M  END
>  <CHROM.1>
-136.46160310,-108.59935631,125.04370010,-95.59072010,108.72124885,-21.80688472
125.04812877,-49.20904010,-126.06597281,-70.67043322,-77.46403062,-66.07820024
6.47787188,19.09650882,52.01466008,-3.02244867,0.01080324,1.10878666

>  <Name>
ligand

>  <RI>
0

>  <Rbt.Current_Directory>
/home/itssahil/PROJECTS/Mol_Feturizer/New_Systems/rnas/2HOO

>  <Rbt.Executable>
rbdock ($Id: //depot/dev/client3/rdock/2013.1/src/exe/rbdock.cxx#4 $)

>  <Rbt.Library>
libRbt.so (2013.1, Build901 2013/11/27)

>  <Rbt.Parameter_File>
/export/apps/rDock/src/rDock_2013.1_src/data/scripts/dock_solv.prm

>  <Rbt.Receptor>
prm/pocket_docking_6.prm

>  <SCORE>
-31.3961

>  <SCORE.INTER>
-20.9048

>  <SCORE.INTER.CONST>
1

>  <SCORE.INTER.POLAR>
0

>  <SCORE.INTER.ROT>
12

>  <SCORE.INTER.SOLV>
15.1906

>  <SCORE.INTER.VDW>
-30.6001

>  <SCORE.INTER.norm>
-0.674348

>  <SCORE.INTRA>
-10.4948

>  <SCORE.INTRA.DIHEDRAL>
5.43524

>  <SCORE.INTRA.DIHEDRAL.0>
14.6094

>  <SCORE.INTRA.POLAR>
0

>  <SCORE.INTRA.POLAR.0>
0

>  <SCORE.INTRA.REPUL>
0

>  <SCORE.INTRA.REPUL.0>
0

>  <SCORE.INTRA.SOLV>
2.55294

>  <SCORE.INTRA.SOLV.lig_0>
-65.6478

>  <SCORE.INTRA.VDW>
-14.4889

>  <SCORE.INTRA.VDW.0>
9.35535

>  <SCORE.INTRA.norm>
-0.338543

>  <SCORE.RESTR>
0.00353119

>  <SCORE.RESTR.CAVITY>
0.00353119

>  <SCORE.RESTR.norm>
0.000113909

>  <SCORE.SYSTEM>
0

>  <SCORE.SYSTEM.CONST>
0

>  <SCORE.SYSTEM.DIHEDRAL>
0

>  <SCORE.SYSTEM.SOLV>
0

>  <SCORE.SYSTEM.norm>
0

>  <SCORE.heavy>
31

>  <SCORE.norm>
-1.01278

>  <RMSD>
2.472

$$$$
ligand
 OpenBabel11021811443D
libRbt.so/2013.1/901 2013/11/27
 31 32  0  0  0  0  0  0  0  0999 V2000
    3.5057   16.7836   50.7137 C   0  0  0  0  0  0  0  0  0  0  0  0
    3.7204   15.6589   49.7052 C   0  0  0  0  0  0  0  0  0  0  0  0
    3.0505   15.6913   48.4394 C   0  0  0  0  0  0  0  0  0  0  0  0
    3.2512   14.6432   47.5093 C   0  0  0  0  0  0  0  0  0  0  0  0
    4.1157   13.5643   47.8171 C   0  0  0  0  0  0  0  0  0  0  0  0
    4.7879   13.5192   49.0555 C   0  0  0  0  0  0  0  0  0  0  0  0
    4.6003   14.5500   49.9937 C   0  0  0  0  0  0  0  0  0  0  0  0
    2.8133   16.5893   51.7124 O   0  0  0  0  0  0  0  0  0  0  0  0
   12.9102   20.3444   54.2249 C   0  0  0  0  0  0  0  0  0  0  0  0
    6.9920   19.4925   50.8226 C   0  0  0  0  0  0  0  0  0  0  0  0
    0.5008   18.7787   52.7149 P   0  0  1  0  0  0  0  0  0  0  0  0
   10.9666   18.9465   54.2767 N   0  0  0  0  0  0  0  0  0  0  0  0
   -0.3825   19.8917   53.1121 O   0  0  0  0  0  0  0  0  0  0  0  0
    4.0818   18.0267   50.5174 S   0  0  0  0  0  0  0  0  0  0  0  0
    7.1165   17.2619   53.1196 C   0  0  0  0  0  0  0  0  0  0  0  0
   11.4590   20.2267   54.1593 C   0  0  0  0  0  0  0  0  0  0  0  0
    1.4692   18.3531   53.7614 O   0  5  0  0  0  0  0  0  0  0  0  0
    6.7209   18.5590   53.1164 N   0  0  0  0  0  0  0  0  0  0  0  0
   10.7176   21.2780   54.0005 N   0  0  0  0  0  0  0  0  0  0  0  0
   -0.3000   17.6611   52.1636 O   0  0  0  0  0  0  0  0  0  0  0  0
    6.0479   19.0029   51.8872 C   0  0  2  0  0  0  0  0  0  0  0  0
    9.3419   21.1600   53.9460 C   0  0  0  0  0  0  0  0  0  0  0  0
    8.6092   22.2648   53.7860 N   0  0  0  0  0  0  0  0  0  0  0  0
    4.6140   18.9881   51.6145 C   0  0  1  0  0  0  0  0  0  0  0  0
    8.7435   19.8402   54.0710 C   0  0  0  0  0  0  0  0  0  0  0  0
    6.8877   16.7091   54.1730 O   0  0  0  0  0  0  0  0  0  0  0  0
    3.6209   19.8473   52.3134 C   0  0  0  0  0  0  0  0  0  0  0  0
    9.6208   18.7864   54.2279 C   0  0  0  0  0  0  0  0  0  0  0  0
    2.4169   20.2951   51.6025 C   0  0  0  0  0  0  0  0  0  0  0  0
    7.2458   19.6534   54.0627 C   0  0  0  0  0  0  0  0  0  0  0  0
    1.4349   19.2458   51.5444 O   0  0  0  0  0  0  0  0  0  0  0  0
  1  2  1  0  0  0  0
  1  8  2  0  0  0  0
  1 14  1  0  0  0  0
  2  3  2  0  0  0  0
  2  7  1  0  0  0  0
  3  4  1  0  0  0  0
  4  5  2  0  0  0  0
  5  6  1  0  0  0  0
  6  7  2  0  0  0  0
  9 16  1  0  0  0  0
 10 21  1  0  0  0  0
 11 13  1  1  0  0  0
 11 17  1  0  0  0  0
 11 20  2  0  0  0  0
 11 31  1  0  0  0  0
 12 16  2  0  0  0  0
 12 28  1  0  0  0  0
 15 26  1  0  0  0  0
 15 18  1  0  0  0  0
 16 19  1  0  0  0  0
 18 30  1  0  0  0  0
 19 22  2  0  0  0  0
 21 18  1  6  0  0  0
 21 24  1  0  0  0  0
 22 23  1  0  0  0  0
 22 25  1  0  0  0  0
 24 14  1  6  0  0  0
 24 27  1  0  0  0  0
 25 28  2  0  0  0  0
 25 30  1  0  0  0  0
 27 29  1  0  0  0  0
 29 31  1  0  0  0  0
M  CHG  1  17  -1
M  END
>  <CHROM.1>
106.04835334,-145.80341240,98.75355887,-137.41559109,-87.16460393,55.19889496
65.80746662,-30.64722771,131.31426965,78.49788734,76.48882270,62.52910381
5.16953156,18.32738834,52.11077073,-2.67605134,-0.06559009,0.68067178

>  <Name>
ligand

>  <RI>
0

>  <Rbt.Current_Directory>
/home/itssahil/PROJECTS/Mol_Feturizer/New_Systems/rnas/2HOO

>  <Rbt.Executable>
rbdock ($Id: //depot/dev/client3/rdock/2013.1/src/exe/rbdock.cxx#4 $)

>  <Rbt.Library>
libRbt.so (2013.1, Build901 2013/11/27)

>  <Rbt.Parameter_File>
/export/apps/rDock/src/rDock_2013.1_src/data/scripts/dock_solv.prm

>  <Rbt.Receptor>
prm/pocket_docking_4.prm

>  <SCORE>
-30.1021

>  <SCORE.INTER>
-19.9526

>  <SCORE.INTER.CONST>
1

>  <SCORE.INTER.POLAR>
0

>  <SCORE.INTER.ROT>
12

>  <SCORE.INTER.SOLV>
16.4696

>  <SCORE.INTER.VDW>
-30.3916

>  <SCORE.INTER.norm>
-0.643632

>  <SCORE.INTRA>
-10.1495

>  <SCORE.INTRA.DIHEDRAL>
2.49271

>  <SCORE.INTRA.DIHEDRAL.0>
14.6094

>  <SCORE.INTRA.POLAR>
0

>  <SCORE.INTRA.POLAR.0>
0

>  <SCORE.INTRA.REPUL>
0

>  <SCORE.INTRA.REPUL.0>
0

>  <SCORE.INTRA.SOLV>
4.34592

>  <SCORE.INTRA.SOLV.lig_0>
-65.6478

>  <SCORE.INTRA.VDW>
-13.5688

>  <SCORE.INTRA.VDW.0>
9.35535

>  <SCORE.INTRA.norm>
-0.327402

>  <SCORE.RESTR>
0

>  <SCORE.RESTR.CAVITY>
0

>  <SCORE.RESTR.norm>
0

>  <SCORE.SYSTEM>
0

>  <SCORE.SYSTEM.CONST>
0

>  <SCORE.SYSTEM.DIHEDRAL>
0

>  <SCORE.SYSTEM.SOLV>
0

>  <SCORE.SYSTEM.norm>
0

>  <SCORE.heavy>
31

>  <SCORE.norm>
-0.971035

>  <RMSD>
2.487

$$$$
ligand
 OpenBabel11021811443D
libRbt.so/2013.1/901 2013/11/27
 31 32  0  0  0  0  0  0  0  0999 V2000
    5.8651   17.4830   51.0861 C   0  0  0  0  0  0  0  0  0  0  0  0
    4.6131   16.7511   50.6122 C   0  0  0  0  0  0  0  0  0  0  0  0
    3.3342   17.3921   50.6877 C   0  0  0  0  0  0  0  0  0  0  0  0
    2.1758   16.7066   50.2496 C   0  0  0  0  0  0  0  0  0  0  0  0
    2.2713   15.3926   49.7295 C   0  0  0  0  0  0  0  0  0  0  0  0
    3.5223   14.7487   49.6421 C   0  0  0  0  0  0  0  0  0  0  0  0
    4.6847   15.4123   50.0740 C   0  0  0  0  0  0  0  0  0  0  0  0
    6.9498   16.9018   51.0959 O   0  0  0  0  0  0  0  0  0  0  0  0
   14.0747   19.3802   55.2951 C   0  0  0  0  0  0  0  0  0  0  0  0
    5.9434   21.1550   54.5581 C   0  0  0  0  0  0  0  0  0  0  0  0
    2.2244   20.2964   55.8991 P   0  0  1  0  0  0  0  0  0  0  0  0
   11.9955   18.5897   54.4085 N   0  0  0  0  0  0  0  0  0  0  0  0
    0.9961   19.4997   56.0819 O   0  0  0  0  0  0  0  0  0  0  0  0
    5.7954   18.7992   51.5087 S   0  0  0  0  0  0  0  0  0  0  0  0
    7.8646   18.2394   54.4640 C   0  0  0  0  0  0  0  0  0  0  0  0
   12.7471   19.6830   54.7755 C   0  0  0  0  0  0  0  0  0  0  0  0
    2.2077   21.1969   54.7146 O   0  5  0  0  0  0  0  0  0  0  0  0
    7.7146   19.4993   53.9854 N   0  0  0  0  0  0  0  0  0  0  0  0
   12.3387   20.9095   54.6810 N   0  0  0  0  0  0  0  0  0  0  0  0
    2.5785   20.9881   57.1602 O   0  0  0  0  0  0  0  0  0  0  0  0
    6.3234   19.9261   53.7772 C   0  0  2  0  0  0  0  0  0  0  0  0
   11.0763   21.1892   54.1938 C   0  0  0  0  0  0  0  0  0  0  0  0
   10.6872   22.4640   54.1145 N   0  0  0  0  0  0  0  0  0  0  0  0
    5.3338   19.3046   52.9025 C   0  0  1  0  0  0  0  0  0  0  0  0
   10.2170   20.0864   53.7922 C   0  0  0  0  0  0  0  0  0  0  0  0
    8.0766   18.2177   55.6565 O   0  0  0  0  0  0  0  0  0  0  0  0
    3.8985   19.1319   53.2534 C   0  0  0  0  0  0  0  0  0  0  0  0
   10.7498   18.8202   53.9245 C   0  0  0  0  0  0  0  0  0  0  0  0
    3.5300   18.4240   54.4857 C   0  0  0  0  0  0  0  0  0  0  0  0
    8.8128   20.3268   53.2938 C   0  0  0  0  0  0  0  0  0  0  0  0
    3.4275   19.3378   55.5917 O   0  0  0  0  0  0  0  0  0  0  0  0
  1  2  1  0  0  0  0
  1  8  2  0  0  0  0
  1 14  1  0  0  0  0
  2  3  2  0  0  0  0
  2  7  1  0  0  0  0
  3  4  1  0  0  0  0
  4  5  2  0  0  0  0
  5  6  1  0  0  0  0
  6  7  2  0  0  0  0
  9 16  1  0  0  0  0
 10 21  1  0  0  0  0
 11 13  1  1  0  0  0
 11 17  1  0  0  0  0
 11 20  2  0  0  0  0
 11 31  1  0  0  0  0
 12 16  2  0  0  0  0
 12 28  1  0  0  0  0
 15 26  1  0  0  0  0
 15 18  1  0  0  0  0
 16 19  1  0  0  0  0
 18 30  1  0  0  0  0
 19 22  2  0  0  0  0
 21 18  1  6  0  0  0
 21 24  1  0  0  0  0
 22 23  1  0  0  0  0
 22 25  1  0  0  0  0
 24 14  1  6  0  0  0
 24 27  1  0  0  0  0
 25 28  2  0  0  0  0
 25 30  1  0  0  0  0
 27 29  1  0  0  0  0
 29 31  1  0  0  0  0
M  CHG  1  17  -1
M  END
>  <CHROM.1>
175.59979120,80.47158897,112.47330242,-100.15741357,121.46777558,-33.13379715
138.46069697,125.04309058,-128.63768472,89.95414086,78.52509038,59.42451583
6.28607930,19.03519443,53.55806026,-2.89926800,0.05304621,0.90571475

>  <Name>
ligand

>  <RI>
0

>  <Rbt.Current_Directory>
/home/itssahil/PROJECTS/Mol_Feturizer/New_Systems/rnas/2HOO

>  <Rbt.Executable>
rbdock ($Id: //depot/dev/client3/rdock/2013.1/src/exe/rbdock.cxx#4 $)

>  <Rbt.Library>
libRbt.so (2013.1, Build901 2013/11/27)

>  <Rbt.Parameter_File>
/export/apps/rDock/src/rDock_2013.1_src/data/scripts/dock_solv.prm

>  <Rbt.Receptor>
prm/pocket_docking_4.prm

>  <SCORE>
-29.117

>  <SCORE.INTER>
-19.5997

>  <SCORE.INTER.CONST>
1

>  <SCORE.INTER.POLAR>
0

>  <SCORE.INTER.ROT>
12

>  <SCORE.INTER.SOLV>
19.0904

>  <SCORE.INTER.VDW>
-31.0299

>  <SCORE.INTER.norm>
-0.632249

>  <SCORE.INTRA>
-9.51724

>  <SCORE.INTRA.DIHEDRAL>
5.80718

>  <SCORE.INTRA.DIHEDRAL.0>
14.6094

>  <SCORE.INTRA.POLAR>
0

>  <SCORE.INTRA.POLAR.0>
0

>  <SCORE.INTRA.REPUL>
0

>  <SCORE.INTRA.REPUL.0>
0

>  <SCORE.INTRA.SOLV>
1.99145

>  <SCORE.INTRA.SOLV.lig_0>
-65.6478

>  <SCORE.INTRA.VDW>
-13.4166

>  <SCORE.INTRA.VDW.0>
9.35535

>  <SCORE.INTRA.norm>
-0.307008

>  <SCORE.RESTR>
0

>  <SCORE.RESTR.CAVITY>
0

>  <SCORE.RESTR.norm>
0

>  <SCORE.SYSTEM>
0

>  <SCORE.SYSTEM.CONST>
0

>  <SCORE.SYSTEM.DIHEDRAL>
0

>  <SCORE.SYSTEM.SOLV>
0

>  <SCORE.SYSTEM.norm>
0

>  <SCORE.heavy>
31

>  <SCORE.norm>
-0.939257

>  <RMSD>
2.491

$$$$
ligand
 OpenBabel11021811443D
libRbt.so/2013.1/901 2013/11/27
 31 32  0  0  0  0  0  0  0  0999 V2000
    5.2063   18.8558   50.4933 C   0  0  0  0  0  0  0  0  0  0  0  0
    5.9651   17.5651   50.1997 C   0  0  0  0  0  0  0  0  0  0  0  0
    7.0346   17.1494   51.0572 C   0  0  0  0  0  0  0  0  0  0  0  0
    7.7371   15.9527   50.7776 C   0  0  0  0  0  0  0  0  0  0  0  0
    7.3862   15.1574   49.6593 C   0  0  0  0  0  0  0  0  0  0  0  0
    6.3324   15.5479   48.8082 C   0  0  0  0  0  0  0  0  0  0  0  0
    5.6236   16.7345   49.0680 C   0  0  0  0  0  0  0  0  0  0  0  0
    3.9952   18.9177   50.2839 O   0  0  0  0  0  0  0  0  0  0  0  0
   13.6590   19.4495   55.1242 C   0  0  0  0  0  0  0  0  0  0  0  0
    6.0880   23.0112   53.3903 C   0  0  0  0  0  0  0  0  0  0  0  0
    0.8911   23.5584   51.3953 P   0  0  1  0  0  0  0  0  0  0  0  0
   11.6126   19.0592   53.9434 N   0  0  0  0  0  0  0  0  0  0  0  0
    1.0261   24.6063   52.4251 O   0  0  0  0  0  0  0  0  0  0  0  0
    5.8670   19.9643   50.9937 S   0  0  0  0  0  0  0  0  0  0  0  0
    7.4419   20.0009   54.3370 C   0  0  0  0  0  0  0  0  0  0  0  0
   12.4608   19.9920   54.4962 C   0  0  0  0  0  0  0  0  0  0  0  0
   -0.4375   22.8893   51.3635 O   0  5  0  0  0  0  0  0  0  0  0  0
    7.5853   21.0211   53.4553 N   0  0  0  0  0  0  0  0  0  0  0  0
   12.2445   21.2699   54.4798 N   0  0  0  0  0  0  0  0  0  0  0  0
    1.3210   24.0781   50.0765 O   0  0  0  0  0  0  0  0  0  0  0  0
    6.3276   21.5919   52.9518 C   0  0  2  0  0  0  0  0  0  0  0  0
   11.1031   21.7770   53.8886 C   0  0  0  0  0  0  0  0  0  0  0  0
   10.9108   23.0983   53.8941 N   0  0  0  0  0  0  0  0  0  0  0  0
    5.3501   20.9400   52.0855 C   0  0  1  0  0  0  0  0  0  0  0  0
   10.1520   20.8542   53.2890 C   0  0  0  0  0  0  0  0  0  0  0  0
    7.4950   18.9147   53.8032 O   0  0  0  0  0  0  0  0  0  0  0  0
    3.8810   21.1580   52.1700 C   0  0  0  0  0  0  0  0  0  0  0  0
   10.4803   19.5152   53.3524 C   0  0  0  0  0  0  0  0  0  0  0  0
    3.3065   22.4320   51.7196 C   0  0  0  0  0  0  0  0  0  0  0  0
    8.8672   21.3450   52.6675 C   0  0  0  0  0  0  0  0  0  0  0  0
    1.8693   22.3764   51.7221 O   0  0  0  0  0  0  0  0  0  0  0  0
  1  2  1  0  0  0  0
  1  8  2  0  0  0  0
  1 14  1  0  0  0  0
  2  3  2  0  0  0  0
  2  7  1  0  0  0  0
  3  4  1  0  0  0  0
  4  5  2  0  0  0  0
  5  6  1  0  0  0  0
  6  7  2  0  0  0  0
  9 16  1  0  0  0  0
 10 21  1  0  0  0  0
 11 13  1  1  0  0  0
 11 17  1  0  0  0  0
 11 20  2  0  0  0  0
 11 31  1  0  0  0  0
 12 16  2  0  0  0  0
 12 28  1  0  0  0  0
 15 26  1  0  0  0  0
 15 18  1  0  0  0  0
 16 19  1  0  0  0  0
 18 30  1  0  0  0  0
 19 22  2  0  0  0  0
 21 18  1  6  0  0  0
 21 24  1  0  0  0  0
 22 23  1  0  0  0  0
 22 25  1  0  0  0  0
 24 14  1  6  0  0  0
 24 27  1  0  0  0  0
 25 28  2  0  0  0  0
 25 30  1  0  0  0  0
 27 29  1  0  0  0  0
 29 31  1  0  0  0  0
M  CHG  1  17  -1
M  END
>  <CHROM.1>
-143.28233120,-139.92130102,149.52470939,94.93565052,113.65037528,-24.19765032
143.67914192,-107.45587743,-108.41643702,172.53507243,175.86736345,-65.46156834
6.32677619,20.54001660,52.12983605,2.97944861,-0.35600732,0.47862172

>  <Name>
ligand

>  <RI>
0

>  <Rbt.Current_Directory>
/home/itssahil/PROJECTS/Mol_Feturizer/New_Systems/rnas/2HOO

>  <Rbt.Executable>
rbdock ($Id: //depot/dev/client3/rdock/2013.1/src/exe/rbdock.cxx#4 $)

>  <Rbt.Library>
libRbt.so (2013.1, Build901 2013/11/27)

>  <Rbt.Parameter_File>
/export/apps/rDock/src/rDock_2013.1_src/data/scripts/dock_solv.prm

>  <Rbt.Receptor>
prm/pocket_docking_5.prm

>  <SCORE>
-31.8762

>  <SCORE.INTER>
-18.68

>  <SCORE.INTER.CONST>
1

>  <SCORE.INTER.POLAR>
0

>  <SCORE.INTER.ROT>
12

>  <SCORE.INTER.SOLV>
22.3932

>  <SCORE.INTER.VDW>
-31.5178

>  <SCORE.INTER.norm>
-0.602582

>  <SCORE.INTRA>
-13.2025

>  <SCORE.INTRA.DIHEDRAL>
-0.777866

>  <SCORE.INTRA.DIHEDRAL.0>
14.6094

>  <SCORE.INTRA.POLAR>
0

>  <SCORE.INTRA.POLAR.0>
0

>  <SCORE.INTRA.REPUL>
0

>  <SCORE.INTRA.REPUL.0>
0

>  <SCORE.INTRA.SOLV>
-0.0675205

>  <SCORE.INTRA.SOLV.lig_0>
-65.6478

>  <SCORE.INTRA.VDW>
-12.7798

>  <SCORE.INTRA.VDW.0>
9.35535

>  <SCORE.INTRA.norm>
-0.425888

>  <SCORE.RESTR>
0.00634673

>  <SCORE.RESTR.CAVITY>
0.00634673

>  <SCORE.RESTR.norm>
0.000204733

>  <SCORE.SYSTEM>
0

>  <SCORE.SYSTEM.CONST>
0

>  <SCORE.SYSTEM.DIHEDRAL>
0

>  <SCORE.SYSTEM.SOLV>
0

>  <SCORE.SYSTEM.norm>
0

>  <SCORE.heavy>
31

>  <SCORE.norm>
-1.02827

>  <RMSD>
2.542

$$$$
ligand
 OpenBabel11021811443D
libRbt.so/2013.1/901 2013/11/27
 31 32  0  0  0  0  0  0  0  0999 V2000
    5.7874   18.6864   49.6541 C   0  0  0  0  0  0  0  0  0  0  0  0
    4.9679   17.4023   49.7412 C   0  0  0  0  0  0  0  0  0  0  0  0
    3.5369   17.4597   49.7082 C   0  0  0  0  0  0  0  0  0  0  0  0
    2.7820   16.2652   49.7928 C   0  0  0  0  0  0  0  0  0  0  0  0
    3.4307   15.0108   49.9029 C   0  0  0  0  0  0  0  0  0  0  0  0
    4.8381   14.9351   49.9307 C   0  0  0  0  0  0  0  0  0  0  0  0
    5.6058   16.1107   49.8497 C   0  0  0  0  0  0  0  0  0  0  0  0
    6.5863   18.8439   48.7314 O   0  0  0  0  0  0  0  0  0  0  0  0
   13.3728   20.0064   54.7713 C   0  0  0  0  0  0  0  0  0  0  0  0
    6.9872   18.3596   53.6754 C   0  0  0  0  0  0  0  0  0  0  0  0
    1.1179   17.4819   52.5966 P   0  0  1  0  0  0  0  0  0  0  0  0
   11.5173   21.5157   54.6550 N   0  0  0  0  0  0  0  0  0  0  0  0
    1.2731   18.2033   51.3190 O   0  0  0  0  0  0  0  0  0  0  0  0
    5.6437   19.6810   50.6059 S   0  0  0  0  0  0  0  0  0  0  0  0
    6.6437   21.1684   54.8684 C   0  0  0  0  0  0  0  0  0  0  0  0
   12.0417   20.3060   54.2589 C   0  0  0  0  0  0  0  0  0  0  0  0
   -0.1790   17.7177   53.2870 O   0  5  0  0  0  0  0  0  0  0  0  0
    6.9869   20.8496   53.5958 N   0  0  0  0  0  0  0  0  0  0  0  0
   11.4268   19.4662   53.4864 N   0  0  0  0  0  0  0  0  0  0  0  0
    1.4371   16.0467   52.4164 O   0  0  0  0  0  0  0  0  0  0  0  0
    6.3919   19.6075   53.0817 C   0  0  2  0  0  0  0  0  0  0  0  0
   10.1677   19.7596   52.9987 C   0  0  0  0  0  0  0  0  0  0  0  0
    9.5658   18.8731   52.2019 N   0  0  0  0  0  0  0  0  0  0  0  0
    5.3094   19.4869   52.1098 C   0  0  1  0  0  0  0  0  0  0  0  0
    9.5482   21.0236   53.3652 C   0  0  0  0  0  0  0  0  0  0  0  0
    6.3176   22.3292   54.9846 O   0  0  0  0  0  0  0  0  0  0  0  0
    3.8938   19.2003   52.4659 C   0  0  0  0  0  0  0  0  0  0  0  0
   10.2827   21.8424   54.1988 C   0  0  0  0  0  0  0  0  0  0  0  0
    3.5861   18.1343   53.4275 C   0  0  0  0  0  0  0  0  0  0  0  0
    8.1939   21.4186   52.8288 C   0  0  0  0  0  0  0  0  0  0  0  0
    2.1668   18.0207   53.6311 O   0  0  0  0  0  0  0  0  0  0  0  0
  1  2  1  0  0  0  0
  1  8  2  0  0  0  0
  1 14  1  0  0  0  0
  2  3  2  0  0  0  0
  2  7  1  0  0  0  0
  3  4  1  0  0  0  0
  4  5  2  0  0  0  0
  5  6  1  0  0  0  0
  6  7  2  0  0  0  0
  9 16  1  0  0  0  0
 10 21  1  0  0  0  0
 11 13  1  6  0  0  0
 11 17  1  0  0  0  0
 11 20  2  0  0  0  0
 11 31  1  0  0  0  0
 12 16  2  0  0  0  0
 12 28  1  0  0  0  0
 15 26  1  0  0  0  0
 15 18  1  0  0  0  0
 16 19  1  0  0  0  0
 18 30  1  0  0  0  0
 19 22  2  0  0  0  0
 21 18  1  1  0  0  0
 21 24  1  0  0  0  0
 22 23  1  0  0  0  0
 22 25  1  0  0  0  0
 24 14  1  1  0  0  0
 24 27  1  0  0  0  0
 25 28  2  0  0  0  0
 25 30  1  0  0  0  0
 27 29  1  0  0  0  0
 29 31  1  0  0  0  0
M  CHG  1  17  -1
M  END
>  <CHROM.1>
-120.07400577,32.51299104,102.78510150,-133.10831658,-72.73306980,66.46906374
-102.71503489,134.65523414,83.65057378,-179.98343130,70.22906559,-52.43865838
5.87418280,18.88584981,52.33171681,-2.70965631,0.17039308,0.94001058

>  <Name>
ligand

>  <RI>
0

>  <Rbt.Current_Directory>
/home/itssahil/PROJECTS/Mol_Feturizer/New_Systems/rnas/2HOO

>  <Rbt.Executable>
rbdock ($Id: //depot/dev/client3/rdock/2013.1/src/exe/rbdock.cxx#4 $)

>  <Rbt.Library>
libRbt.so (2013.1, Build901 2013/11/27)

>  <Rbt.Parameter_File>
/export/apps/rDock/src/rDock_2013.1_src/data/scripts/dock_solv.prm

>  <Rbt.Receptor>
prm/pocket_docking_3.prm

>  <SCORE>
-30.3209

>  <SCORE.INTER>
-17.2804

>  <SCORE.INTER.CONST>
1

>  <SCORE.INTER.POLAR>
0

>  <SCORE.INTER.ROT>
12

>  <SCORE.INTER.SOLV>
13.9554

>  <SCORE.INTER.VDW>
-27.772

>  <SCORE.INTER.norm>
-0.557431

>  <SCORE.INTRA>
-13.0405

>  <SCORE.INTRA.DIHEDRAL>
-0.558228

>  <SCORE.INTRA.DIHEDRAL.0>
14.6094

>  <SCORE.INTRA.POLAR>
0

>  <SCORE.INTRA.POLAR.0>
0

>  <SCORE.INTRA.REPUL>
0

>  <SCORE.INTRA.REPUL.0>
0

>  <SCORE.INTRA.SOLV>
4.60165

>  <SCORE.INTRA.SOLV.lig_0>
-65.6478

>  <SCORE.INTRA.VDW>
-15.0623

>  <SCORE.INTRA.VDW.0>
9.35535

>  <SCORE.INTRA.norm>
-0.420663

>  <SCORE.RESTR>
0

>  <SCORE.RESTR.CAVITY>
0

>  <SCORE.RESTR.norm>
0

>  <SCORE.SYSTEM>
0

>  <SCORE.SYSTEM.CONST>
0

>  <SCORE.SYSTEM.DIHEDRAL>
0

>  <SCORE.SYSTEM.SOLV>
0

>  <SCORE.SYSTEM.norm>
0

>  <SCORE.heavy>
31

>  <SCORE.norm>
-0.978094

>  <RMSD>
2.567

$$$$
ligand
 OpenBabel11021811443D
libRbt.so/2013.1/901 2013/11/27
 31 32  0  0  0  0  0  0  0  0999 V2000
    5.9151   17.2307   50.6344 C   0  0  0  0  0  0  0  0  0  0  0  0
    6.7512   17.3433   49.3631 C   0  0  0  0  0  0  0  0  0  0  0  0
    7.8548   16.4557   49.1479 C   0  0  0  0  0  0  0  0  0  0  0  0
    8.6288   16.5673   47.9679 C   0  0  0  0  0  0  0  0  0  0  0  0
    8.3165   17.5462   46.9930 C   0  0  0  0  0  0  0  0  0  0  0  0
    7.2304   18.4241   47.1853 C   0  0  0  0  0  0  0  0  0  0  0  0
    6.4504   18.3303   48.3519 C   0  0  0  0  0  0  0  0  0  0  0  0
    5.1499   16.2787   50.7841 O   0  0  0  0  0  0  0  0  0  0  0  0
   13.3108   19.7229   54.2714 C   0  0  0  0  0  0  0  0  0  0  0  0
    7.9789   20.3544   50.2401 C   0  0  0  0  0  0  0  0  0  0  0  0
    2.8371   18.8216   53.7843 P   0  0  1  0  0  0  0  0  0  0  0  0
   11.5950   21.3728   54.0105 N   0  0  0  0  0  0  0  0  0  0  0  0
    3.8810   19.7209   54.3118 O   0  0  0  0  0  0  0  0  0  0  0  0
    6.0062   18.1920   51.6261 S   0  0  0  0  0  0  0  0  0  0  0  0
    7.0700   22.8771   51.9499 C   0  0  0  0  0  0  0  0  0  0  0  0
   11.8922   20.0365   54.1557 C   0  0  0  0  0  0  0  0  0  0  0  0
    2.7439   17.5079   54.4769 O   0  5  0  0  0  0  0  0  0  0  0  0
    7.4187   21.6179   52.3128 N   0  0  0  0  0  0  0  0  0  0  0  0
   11.0024   19.0947   54.1915 N   0  0  0  0  0  0  0  0  0  0  0  0
    1.5420   19.5354   53.6979 O   0  0  0  0  0  0  0  0  0  0  0  0
    7.0116   20.5627   51.3737 C   0  0  2  0  0  0  0  0  0  0  0  0
    9.6595   19.3983   54.0744 C   0  0  0  0  0  0  0  0  0  0  0  0
    8.7710   18.4023   54.1112 N   0  0  0  0  0  0  0  0  0  0  0  0
    5.8196   19.7240   51.4554 C   0  0  1  0  0  0  0  0  0  0  0  0
    9.2644   20.7885   53.9093 C   0  0  0  0  0  0  0  0  0  0  0  0
    7.9959   23.6548   52.0230 O   0  0  0  0  0  0  0  0  0  0  0  0
    4.4268   20.2400   51.3731 C   0  0  0  0  0  0  0  0  0  0  0  0
   10.2878   21.7143   53.8927 C   0  0  0  0  0  0  0  0  0  0  0  0
    3.3125   19.3024   51.1860 C   0  0  0  0  0  0  0  0  0  0  0  0
    7.8169   21.1774   53.7328 C   0  0  0  0  0  0  0  0  0  0  0  0
    3.1937   18.4151   52.3117 O   0  0  0  0  0  0  0  0  0  0  0  0
  1  2  1  0  0  0  0
  1  8  2  0  0  0  0
  1 14  1  0  0  0  0
  2  3  2  0  0  0  0
  2  7  1  0  0  0  0
  3  4  1  0  0  0  0
  4  5  2  0  0  0  0
  5  6  1  0  0  0  0
  6  7  2  0  0  0  0
  9 16  1  0  0  0  0
 10 21  1  0  0  0  0
 11 13  1  1  0  0  0
 11 17  1  0  0  0  0
 11 20  2  0  0  0  0
 11 31  1  0  0  0  0
 12 16  2  0  0  0  0
 12 28  1  0  0  0  0
 15 26  1  0  0  0  0
 15 18  1  0  0  0  0
 16 19  1  0  0  0  0
 18 30  1  0  0  0  0
 19 22  2  0  0  0  0
 21 18  1  1  0  0  0
 21 24  1  0  0  0  0
 22 23  1  0  0  0  0
 22 25  1  0  0  0  0
 24 14  1  6  0  0  0
 24 27  1  0  0  0  0
 25 28  2  0  0  0  0
 25 30  1  0  0  0  0
 27 29  1  0  0  0  0
 29 31  1  0  0  0  0
M  CHG  1  17  -1
M  END
>  <CHROM.1>
-71.93765867,54.14905068,-100.49711616,-130.96807859,84.55740972,-111.37574304
61.85042262,-12.09676542,-106.96166759,63.89057318,64.42689822,-62.34791614
6.80970473,19.33687550,52.05560235,-2.87608564,0.16811430,1.05415589

>  <Name>
ligand

>  <RI>
0

>  <Rbt.Current_Directory>
/home/itssahil/PROJECTS/Mol_Feturizer/New_Systems/rnas/2HOO

>  <Rbt.Executable>
rbdock ($Id: //depot/dev/client3/rdock/2013.1/src/exe/rbdock.cxx#4 $)

>  <Rbt.Library>
libRbt.so (2013.1, Build901 2013/11/27)

>  <Rbt.Parameter_File>
/export/apps/rDock/src/rDock_2013.1_src/data/scripts/dock_solv.prm

>  <Rbt.Receptor>
prm/pocket_docking_3.prm

>  <SCORE>
-27.8142

>  <SCORE.INTER>
-15.819

>  <SCORE.INTER.CONST>
1

>  <SCORE.INTER.POLAR>
0

>  <SCORE.INTER.ROT>
12

>  <SCORE.INTER.SOLV>
14.8168

>  <SCORE.INTER.VDW>
-27.0849

>  <SCORE.INTER.norm>
-0.510291

>  <SCORE.INTRA>
-12.0625

>  <SCORE.INTRA.DIHEDRAL>
0.966002

>  <SCORE.INTRA.DIHEDRAL.0>
14.6094

>  <SCORE.INTRA.POLAR>
0

>  <SCORE.INTRA.POLAR.0>
0

>  <SCORE.INTRA.REPUL>
0

>  <SCORE.INTRA.REPUL.0>
0

>  <SCORE.INTRA.SOLV>
3.30054

>  <SCORE.INTRA.SOLV.lig_0>
-65.6478

>  <SCORE.INTRA.VDW>
-14.1958

>  <SCORE.INTRA.VDW.0>
9.35535

>  <SCORE.INTRA.norm>
-0.389114

>  <SCORE.RESTR>
0.0673291

>  <SCORE.RESTR.CAVITY>
0.0673291

>  <SCORE.RESTR.norm>
0.00217191

>  <SCORE.SYSTEM>
0

>  <SCORE.SYSTEM.CONST>
0

>  <SCORE.SYSTEM.DIHEDRAL>
0

>  <SCORE.SYSTEM.SOLV>
0

>  <SCORE.SYSTEM.norm>
0

>  <SCORE.heavy>
31

>  <SCORE.norm>
-0.897233

>  <RMSD>
2.573

$$$$
ligand
 OpenBabel11021811443D
libRbt.so/2013.1/901 2013/11/27
 31 32  0  0  0  0  0  0  0  0999 V2000
    6.1381   18.2942   49.3789 C   0  0  0  0  0  0  0  0  0  0  0  0
    5.2138   17.0803   49.3682 C   0  0  0  0  0  0  0  0  0  0  0  0
    4.9104   16.3974   50.5905 C   0  0  0  0  0  0  0  0  0  0  0  0
    4.0549   15.2698   50.5736 C   0  0  0  0  0  0  0  0  0  0  0  0
    3.4894   14.8142   49.3575 C   0  0  0  0  0  0  0  0  0  0  0  0
    3.7721   15.4777   48.1462 C   0  0  0  0  0  0  0  0  0  0  0  0
    4.6212   16.5988   48.1418 C   0  0  0  0  0  0  0  0  0  0  0  0
    7.0265   18.3973   48.5336 O   0  0  0  0  0  0  0  0  0  0  0  0
   13.5259   19.5382   55.0663 C   0  0  0  0  0  0  0  0  0  0  0  0
    7.2631   17.8444   53.3437 C   0  0  0  0  0  0  0  0  0  0  0  0
    3.2645   21.0649   55.2667 P   0  0  1  0  0  0  0  0  0  0  0  0
   11.4904   18.9342   53.9591 N   0  0  0  0  0  0  0  0  0  0  0  0
    1.8643   20.7024   55.5582 O   0  0  0  0  0  0  0  0  0  0  0  0
    5.9899   19.2853   50.3336 S   0  0  0  0  0  0  0  0  0  0  0  0
    6.9423   20.5811   54.6996 C   0  0  0  0  0  0  0  0  0  0  0  0
   12.2684   19.9543   54.4584 C   0  0  0  0  0  0  0  0  0  0  0  0
    3.4372   22.3888   54.6096 O   0  5  0  0  0  0  0  0  0  0  0  0
    7.2976   20.3345   53.4144 N   0  0  0  0  0  0  0  0  0  0  0  0
   11.9407   21.2074   54.4102 N   0  0  0  0  0  0  0  0  0  0  0  0
    4.1003   20.8947   56.4777 O   0  0  0  0  0  0  0  0  0  0  0  0
    6.6924   19.1342   52.8192 C   0  0  2  0  0  0  0  0  0  0  0  0
   10.7438   21.5944   53.8384 C   0  0  0  0  0  0  0  0  0  0  0  0
   10.4368   22.8936   53.8101 N   0  0  0  0  0  0  0  0  0  0  0  0
    5.6210   19.0877   51.8289 C   0  0  1  0  0  0  0  0  0  0  0  0
    9.8612   20.5738   53.2952 C   0  0  0  0  0  0  0  0  0  0  0  0
    6.6023   21.7305   54.8751 O   0  0  0  0  0  0  0  0  0  0  0  0
    4.1862   18.8743   52.1585 C   0  0  0  0  0  0  0  0  0  0  0  0
   10.3070   19.2710   53.3887 C   0  0  0  0  0  0  0  0  0  0  0  0
    3.4294   19.9336   52.8375 C   0  0  0  0  0  0  0  0  0  0  0  0
    8.5220   20.9311   52.6978 C   0  0  0  0  0  0  0  0  0  0  0  0
    3.8513   20.0696   54.2057 O   0  0  0  0  0  0  0  0  0  0  0  0
  1  2  1  0  0  0  0
  1  8  2  0  0  0  0
  1 14  1  0  0  0  0
  2  3  2  0  0  0  0
  2  7  1  0  0  0  0
  3  4  1  0  0  0  0
  4  5  2  0  0  0  0
  5  6  1  0  0  0  0
  6  7  2  0  0  0  0
  9 16  1  0  0  0  0
 10 21  1  0  0  0  0
 11 13  1  1  0  0  0
 11 17  1  0  0  0  0
 11 20  2  0  0  0  0
 11 31  1  0  0  0  0
 12 16  2  0  0  0  0
 12 28  1  0  0  0  0
 15 26  1  0  0  0  0
 15 18  1  0  0  0  0
 16 19  1  0  0  0  0
 18 30  1  0  0  0  0
 19 22  2  0  0  0  0
 21 18  1  1  0  0  0
 21 24  1  0  0  0  0
 22 23  1  0  0  0  0
 22 25  1  0  0  0  0
 24 14  1  1  0  0  0
 24 27  1  0  0  0  0
 25 28  2  0  0  0  0
 25 30  1  0  0  0  0
 27 29  1  0  0  0  0
 29 31  1  0  0  0  0
M  CHG  1  17  -1
M  END
>  <CHROM.1>
134.83715389,37.95086251,100.45581406,-131.58550678,-72.74366084,61.73762758
-99.21750193,-108.72186950,-117.60724335,-71.09797895,-178.52811702,65.79432405
6.53434786,19.49897624,52.75962678,-2.52351317,0.03385248,0.91350572

>  <Name>
ligand

>  <RI>
0

>  <Rbt.Current_Directory>
/home/itssahil/PROJECTS/Mol_Feturizer/New_Systems/rnas/2HOO

>  <Rbt.Executable>
rbdock ($Id: //depot/dev/client3/rdock/2013.1/src/exe/rbdock.cxx#4 $)

>  <Rbt.Library>
libRbt.so (2013.1, Build901 2013/11/27)

>  <Rbt.Parameter_File>
/export/apps/rDock/src/rDock_2013.1_src/data/scripts/dock_solv.prm

>  <Rbt.Receptor>
prm/pocket_docking_4.prm

>  <SCORE>
-29.0415

>  <SCORE.INTER>
-15.4663

>  <SCORE.INTER.CONST>
1

>  <SCORE.INTER.POLAR>
0

>  <SCORE.INTER.ROT>
12

>  <SCORE.INTER.SOLV>
15.9507

>  <SCORE.INTER.VDW>
-27.2278

>  <SCORE.INTER.norm>
-0.498914

>  <SCORE.INTRA>
-13.5752

>  <SCORE.INTRA.DIHEDRAL>
-0.282916

>  <SCORE.INTRA.DIHEDRAL.0>
14.6094

>  <SCORE.INTRA.POLAR>
0

>  <SCORE.INTRA.POLAR.0>
0

>  <SCORE.INTRA.REPUL>
0.0192359

>  <SCORE.INTRA.REPUL.0>
0

>  <SCORE.INTRA.SOLV>
3.14287

>  <SCORE.INTRA.SOLV.lig_0>
-65.6478

>  <SCORE.INTRA.VDW>
-15.1014

>  <SCORE.INTRA.VDW.0>
9.35535

>  <SCORE.INTRA.norm>
-0.437909

>  <SCORE.RESTR>
0

>  <SCORE.RESTR.CAVITY>
0

>  <SCORE.RESTR.norm>
0

>  <SCORE.SYSTEM>
0

>  <SCORE.SYSTEM.CONST>
0

>  <SCORE.SYSTEM.DIHEDRAL>
0

>  <SCORE.SYSTEM.SOLV>
0

>  <SCORE.SYSTEM.norm>
0

>  <SCORE.heavy>
31

>  <SCORE.norm>
-0.936824

>  <RMSD>
2.576

$$$$
ligand
 OpenBabel11021811443D
libRbt.so/2013.1/901 2013/11/27
 31 32  0  0  0  0  0  0  0  0999 V2000
    5.6881   18.4653   49.9288 C   0  0  0  0  0  0  0  0  0  0  0  0
    7.1824   18.2729   49.6879 C   0  0  0  0  0  0  0  0  0  0  0  0
    7.8987   19.1875   48.8496 C   0  0  0  0  0  0  0  0  0  0  0  0
    9.2843   19.0016   48.6273 C   0  0  0  0  0  0  0  0  0  0  0  0
    9.9714   17.9214   49.2333 C   0  0  0  0  0  0  0  0  0  0  0  0
    9.2838   17.0153   50.0660 C   0  0  0  0  0  0  0  0  0  0  0  0
    7.9066   17.1817   50.2978 C   0  0  0  0  0  0  0  0  0  0  0  0
    4.8729   17.7847   49.3070 O   0  0  0  0  0  0  0  0  0  0  0  0
   13.5005   19.6365   55.0569 C   0  0  0  0  0  0  0  0  0  0  0  0
    7.2332   18.0132   53.3862 C   0  0  0  0  0  0  0  0  0  0  0  0
    1.5548   16.7695   55.0977 P   0  0  1  0  0  0  0  0  0  0  0  0
   11.4437   19.0034   54.0066 N   0  0  0  0  0  0  0  0  0  0  0  0
    0.2807   17.2718   55.6464 O   0  0  0  0  0  0  0  0  0  0  0  0
    5.2356   19.4020   50.8418 S   0  0  0  0  0  0  0  0  0  0  0  0
    6.9812   20.8460   54.8472 C   0  0  0  0  0  0  0  0  0  0  0  0
   12.2325   20.0365   54.4601 C   0  0  0  0  0  0  0  0  0  0  0  0
    2.5616   16.3843   56.1235 O   0  5  0  0  0  0  0  0  0  0  0  0
    7.2417   20.4982   53.5626 N   0  0  0  0  0  0  0  0  0  0  0  0
   11.9059   21.2883   54.3800 N   0  0  0  0  0  0  0  0  0  0  0  0
    1.2983   15.7085   54.0964 O   0  0  0  0  0  0  0  0  0  0  0  0
    6.5273   19.3068   53.0817 C   0  0  2  0  0  0  0  0  0  0  0  0
   10.6991   21.6602   53.8190 C   0  0  0  0  0  0  0  0  0  0  0  0
   10.3935   22.9586   53.7570 N   0  0  0  0  0  0  0  0  0  0  0  0
    5.2429   19.2706   52.3890 C   0  0  1  0  0  0  0  0  0  0  0  0
    9.8049   20.6254   53.3236 C   0  0  0  0  0  0  0  0  0  0  0  0
    5.8752   21.3205   54.9848 O   0  0  0  0  0  0  0  0  0  0  0  0
    3.9287   19.1277   53.0711 C   0  0  0  0  0  0  0  0  0  0  0  0
   10.2504   19.3252   53.4483 C   0  0  0  0  0  0  0  0  0  0  0  0
    3.6292   17.9047   53.8263 C   0  0  0  0  0  0  0  0  0  0  0  0
    8.4554   20.9673   52.7406 C   0  0  0  0  0  0  0  0  0  0  0  0
    2.2768   17.9218   54.3157 O   0  0  0  0  0  0  0  0  0  0  0  0
  1  2  1  0  0  0  0
  1  8  2  0  0  0  0
  1 14  1  0  0  0  0
  2  3  2  0  0  0  0
  2  7  1  0  0  0  0
  3  4  1  0  0  0  0
  4  5  2  0  0  0  0
  5  6  1  0  0  0  0
  6  7  2  0  0  0  0
  9 16  1  0  0  0  0
 10 21  1  0  0  0  0
 11 13  1  1  0  0  0
 11 17  1  0  0  0  0
 11 20  2  0  0  0  0
 11 31  1  0  0  0  0
 12 16  2  0  0  0  0
 12 28  1  0  0  0  0
 15 26  1  0  0  0  0
 15 18  1  0  0  0  0
 16 19  1  0  0  0  0
 18 30  1  0  0  0  0
 19 22  2  0  0  0  0
 21 18  1  1  0  0  0
 21 24  1  0  0  0  0
 22 23  1  0  0  0  0
 22 25  1  0  0  0  0
 24 14  1  1  0  0  0
 24 27  1  0  0  0  0
 25 28  2  0  0  0  0
 25 30  1  0  0  0  0
 27 29  1  0  0  0  0
 29 31  1  0  0  0  0
M  CHG  1  17  -1
M  END
>  <CHROM.1>
100.63281425,-76.31738604,69.91606688,-72.48346341,-86.40594077,58.46056411
-93.35788479,117.29755040,-112.58454935,-175.43366676,176.49996897,169.04662983
6.65167981,18.93268716,52.91433051,3.07131727,0.34900772,1.33392033

>  <Name>
ligand

>  <RI>
0

>  <Rbt.Current_Directory>
/home/itssahil/PROJECTS/Mol_Feturizer/New_Systems/rnas/2HOO

>  <Rbt.Executable>
rbdock ($Id: //depot/dev/client3/rdock/2013.1/src/exe/rbdock.cxx#4 $)

>  <Rbt.Library>
libRbt.so (2013.1, Build901 2013/11/27)

>  <Rbt.Parameter_File>
/export/apps/rDock/src/rDock_2013.1_src/data/scripts/dock_solv.prm

>  <Rbt.Receptor>
prm/pocket_docking_7.prm

>  <SCORE>
-34.5783

>  <SCORE.INTER>
-21.1563

>  <SCORE.INTER.CONST>
1

>  <SCORE.INTER.POLAR>
0

>  <SCORE.INTER.ROT>
12

>  <SCORE.INTER.SOLV>
21.6458

>  <SCORE.INTER.VDW>
-32.9195

>  <SCORE.INTER.norm>
-0.682462

>  <SCORE.INTRA>
-13.4219

>  <SCORE.INTRA.DIHEDRAL>
2.42888

>  <SCORE.INTRA.DIHEDRAL.0>
14.6094

>  <SCORE.INTRA.POLAR>
0

>  <SCORE.INTRA.POLAR.0>
0

>  <SCORE.INTRA.REPUL>
0

>  <SCORE.INTRA.REPUL.0>
0

>  <SCORE.INTRA.SOLV>
0.461789

>  <SCORE.INTRA.SOLV.lig_0>
-65.6478

>  <SCORE.INTRA.VDW>
-14.8673

>  <SCORE.INTRA.VDW.0>
9.35535

>  <SCORE.INTRA.norm>
-0.432966

>  <SCORE.RESTR>
0

>  <SCORE.RESTR.CAVITY>
0

>  <SCORE.RESTR.norm>
0

>  <SCORE.SYSTEM>
0

>  <SCORE.SYSTEM.CONST>
0

>  <SCORE.SYSTEM.DIHEDRAL>
0

>  <SCORE.SYSTEM.SOLV>
0

>  <SCORE.SYSTEM.norm>
0

>  <SCORE.heavy>
31

>  <SCORE.norm>
-1.11543

>  <RMSD>
2.584

$$$$
ligand
 OpenBabel11021811443D
libRbt.so/2013.1/901 2013/11/27
 31 32  0  0  0  0  0  0  0  0999 V2000
    4.4003   17.6728   51.1598 C   0  0  0  0  0  0  0  0  0  0  0  0
    4.6372   16.6521   50.0507 C   0  0  0  0  0  0  0  0  0  0  0  0
    4.0713   15.3397   50.1492 C   0  0  0  0  0  0  0  0  0  0  0  0
    4.2975   14.3961   49.1186 C   0  0  0  0  0  0  0  0  0  0  0  0
    5.0739   14.7411   47.9853 C   0  0  0  0  0  0  0  0  0  0  0  0
    5.6333   16.0298   47.8688 C   0  0  0  0  0  0  0  0  0  0  0  0
    5.4217   16.9809   48.8830 C   0  0  0  0  0  0  0  0  0  0  0  0
    4.7731   17.4307   52.3074 O   0  0  0  0  0  0  0  0  0  0  0  0
   11.7550   21.4907   54.1997 C   0  0  0  0  0  0  0  0  0  0  0  0
    3.4947   22.1458   52.9661 C   0  0  0  0  0  0  0  0  0  0  0  0
   -0.1213   20.9714   54.4630 P   0  0  1  0  0  0  0  0  0  0  0  0
    9.4728   22.1859   53.9925 N   0  0  0  0  0  0  0  0  0  0  0  0
    0.8403   21.0052   55.5815 O   0  0  0  0  0  0  0  0  0  0  0  0
    3.7668   18.8734   50.8901 S   0  0  0  0  0  0  0  0  0  0  0  0
    5.5088   19.7415   54.1754 C   0  0  0  0  0  0  0  0  0  0  0  0
   10.4295   21.2613   53.6389 C   0  0  0  0  0  0  0  0  0  0  0  0
   -1.5483   21.0814   54.8699 O   0  5  0  0  0  0  0  0  0  0  0  0
    5.3831   20.5245   53.0754 N   0  0  0  0  0  0  0  0  0  0  0  0
   10.2064   20.2457   52.8650 N   0  0  0  0  0  0  0  0  0  0  0  0
    0.2712   21.9479   53.4206 O   0  0  0  0  0  0  0  0  0  0  0  0
    4.0011   20.7675   52.6372 C   0  0  2  0  0  0  0  0  0  0  0  0
    8.9489   20.0379   52.3312 C   0  0  0  0  0  0  0  0  0  0  0  0
    8.7564   18.9838   51.5344 N   0  0  0  0  0  0  0  0  0  0  0  0
    3.1281   19.8401   51.9239 C   0  0  1  0  0  0  0  0  0  0  0  0
    7.8849   20.9767   52.6511 C   0  0  0  0  0  0  0  0  0  0  0  0
    6.0061   20.3300   55.1101 O   0  0  0  0  0  0  0  0  0  0  0  0
    1.6545   19.7658   52.1127 C   0  0  0  0  0  0  0  0  0  0  0  0
    8.2243   22.0184   53.4904 C   0  0  0  0  0  0  0  0  0  0  0  0
    1.0993   18.9437   53.1952 C   0  0  0  0  0  0  0  0  0  0  0  0
    6.5028   20.8266   52.0635 C   0  0  0  0  0  0  0  0  0  0  0  0
   -0.0640   19.5663   53.7677 O   0  0  0  0  0  0  0  0  0  0  0  0
  1  2  1  0  0  0  0
  1  8  2  0  0  0  0
  1 14  1  0  0  0  0
  2  3  2  0  0  0  0
  2  7  1  0  0  0  0
  3  4  1  0  0  0  0
  4  5  2  0  0  0  0
  5  6  1  0  0  0  0
  6  7  2  0  0  0  0
  9 16  1  0  0  0  0
 10 21  1  0  0  0  0
 11 13  1  1  0  0  0
 11 17  1  0  0  0  0
 11 20  2  0  0  0  0
 11 31  1  0  0  0  0
 12 16  2  0  0  0  0
 12 28  1  0  0  0  0
 15 26  1  0  0  0  0
 15 18  1  0  0  0  0
 16 19  1  0  0  0  0
 18 30  1  0  0  0  0
 19 22  2  0  0  0  0
 21 18  1  6  0  0  0
 21 24  1  0  0  0  0
 22 23  1  0  0  0  0
 22 25  1  0  0  0  0
 24 14  1  6  0  0  0
 24 27  1  0  0  0  0
 25 28  2  0  0  0  0
 25 30  1  0  0  0  0
 27 29  1  0  0  0  0
 29 31  1  0  0  0  0
M  CHG  1  17  -1
M  END
>  <CHROM.1>
59.98078704,163.02835870,81.67334261,-116.48625893,104.81155486,-36.43599117
144.12879812,95.15615008,115.04934512,143.63085776,-60.27522999,-57.02517556
4.60036457,19.58292629,52.49325644,0.12007200,-0.08173426,-2.40163479

>  <Name>
ligand

>  <RI>
0

>  <Rbt.Current_Directory>
/home/itssahil/PROJECTS/Mol_Feturizer/New_Systems/rnas/2HOO

>  <Rbt.Executable>
rbdock ($Id: //depot/dev/client3/rdock/2013.1/src/exe/rbdock.cxx#4 $)

>  <Rbt.Library>
libRbt.so (2013.1, Build901 2013/11/27)

>  <Rbt.Parameter_File>
/export/apps/rDock/src/rDock_2013.1_src/data/scripts/dock_solv.prm

>  <Rbt.Receptor>
prm/pocket_docking_2.prm

>  <SCORE>
-17.1692

>  <SCORE.INTER>
-6.73158

>  <SCORE.INTER.CONST>
1

>  <SCORE.INTER.POLAR>
0

>  <SCORE.INTER.ROT>
12

>  <SCORE.INTER.SOLV>
16.014

>  <SCORE.INTER.VDW>
-21.4257

>  <SCORE.INTER.norm>
-0.217148

>  <SCORE.INTRA>
-10.9693

>  <SCORE.INTRA.DIHEDRAL>
2.67186

>  <SCORE.INTRA.DIHEDRAL.0>
14.6094

>  <SCORE.INTRA.POLAR>
0

>  <SCORE.INTRA.POLAR.0>
0

>  <SCORE.INTRA.REPUL>
0

>  <SCORE.INTRA.REPUL.0>
0

>  <SCORE.INTRA.SOLV>
3.8364

>  <SCORE.INTRA.SOLV.lig_0>
-65.6478

>  <SCORE.INTRA.VDW>
-14.2234

>  <SCORE.INTRA.VDW.0>
9.35535

>  <SCORE.INTRA.norm>
-0.353847

>  <SCORE.RESTR>
0.531685

>  <SCORE.RESTR.CAVITY>
0.531685

>  <SCORE.RESTR.norm>
0.0171511

>  <SCORE.SYSTEM>
0

>  <SCORE.SYSTEM.CONST>
0

>  <SCORE.SYSTEM.DIHEDRAL>
0

>  <SCORE.SYSTEM.SOLV>
0

>  <SCORE.SYSTEM.norm>
0

>  <SCORE.heavy>
31

>  <SCORE.norm>
-0.553844

>  <RMSD>
2.624

$$$$
ligand
 OpenBabel11021811443D
libRbt.so/2013.1/901 2013/11/27
 31 32  0  0  0  0  0  0  0  0999 V2000
    3.5373   16.3059   50.4614 C   0  0  0  0  0  0  0  0  0  0  0  0
    3.8351   15.1972   49.4563 C   0  0  0  0  0  0  0  0  0  0  0  0
    4.7181   14.1258   49.8091 C   0  0  0  0  0  0  0  0  0  0  0  0
    4.9931   13.1018   48.8712 C   0  0  0  0  0  0  0  0  0  0  0  0
    4.3959   13.1237   47.5870 C   0  0  0  0  0  0  0  0  0  0  0  0
    3.5197   14.1670   47.2249 C   0  0  0  0  0  0  0  0  0  0  0  0
    3.2353   15.1945   48.1420 C   0  0  0  0  0  0  0  0  0  0  0  0
    2.6393   16.1591   51.2899 O   0  0  0  0  0  0  0  0  0  0  0  0
   12.3040   20.8606   54.5020 C   0  0  0  0  0  0  0  0  0  0  0  0
    4.4061   18.4716   54.0428 C   0  0  0  0  0  0  0  0  0  0  0  0
    0.0225   18.6293   53.0688 P   0  0  1  0  0  0  0  0  0  0  0  0
   10.8240   19.3824   53.3364 N   0  0  0  0  0  0  0  0  0  0  0  0
    0.3914   18.9010   54.4712 O   0  0  0  0  0  0  0  0  0  0  0  0
    4.2677   17.4816   50.4518 S   0  0  0  0  0  0  0  0  0  0  0  0
    7.0704   17.2997   52.9742 C   0  0  0  0  0  0  0  0  0  0  0  0
   11.0020   20.6306   53.8890 C   0  0  0  0  0  0  0  0  0  0  0  0
   -0.3714   17.2209   52.7939 O   0  5  0  0  0  0  0  0  0  0  0  0
    6.5180   18.5123   52.7220 N   0  0  0  0  0  0  0  0  0  0  0  0
   10.1003   21.5618   53.8845 N   0  0  0  0  0  0  0  0  0  0  0  0
   -0.9722   19.6216   52.5994 O   0  0  0  0  0  0  0  0  0  0  0  0
    5.0486   18.5325   52.6835 C   0  0  2  0  0  0  0  0  0  0  0  0
    8.8654   21.3348   53.3075 C   0  0  0  0  0  0  0  0  0  0  0  0
    7.9592   22.3153   53.3250 N   0  0  0  0  0  0  0  0  0  0  0  0
    4.2005   18.6260   51.4991 C   0  0  1  0  0  0  0  0  0  0  0  0
    8.5964   20.0365   52.7091 C   0  0  0  0  0  0  0  0  0  0  0  0
    7.4290   17.1831   54.1253 O   0  0  0  0  0  0  0  0  0  0  0  0
    3.2776   19.7585   51.2188 C   0  0  0  0  0  0  0  0  0  0  0  0
    9.6256   19.1183   52.7591 C   0  0  0  0  0  0  0  0  0  0  0  0
    2.1217   19.9900   52.0941 C   0  0  0  0  0  0  0  0  0  0  0  0
    7.2522   19.7150   52.1030 C   0  0  0  0  0  0  0  0  0  0  0  0
    1.2794   18.8255   52.1509 O   0  0  0  0  0  0  0  0  0  0  0  0
  1  2  1  0  0  0  0
  1  8  2  0  0  0  0
  1 14  1  0  0  0  0
  2  3  2  0  0  0  0
  2  7  1  0  0  0  0
  3  4  1  0  0  0  0
  4  5  2  0  0  0  0
  5  6  1  0  0  0  0
  6  7  2  0  0  0  0
  9 16  1  0  0  0  0
 10 21  1  0  0  0  0
 11 13  1  1  0  0  0
 11 17  1  0  0  0  0
 11 20  2  0  0  0  0
 11 31  1  0  0  0  0
 12 16  2  0  0  0  0
 12 28  1  0  0  0  0
 15 26  1  0  0  0  0
 15 18  1  0  0  0  0
 16 19  1  0  0  0  0
 18 30  1  0  0  0  0
 19 22  2  0  0  0  0
 21 18  1  1  0  0  0
 21 24  1  0  0  0  0
 22 23  1  0  0  0  0
 22 25  1  0  0  0  0
 24 14  1  6  0  0  0
 24 27  1  0  0  0  0
 25 28  2  0  0  0  0
 25 30  1  0  0  0  0
 27 29  1  0  0  0  0
 29 31  1  0  0  0  0
M  CHG  1  17  -1
M  END
>  <CHROM.1>
-85.74753642,-172.42907977,86.93534524,-100.98643529,75.96029833,-47.63464665
-118.48450959,114.84651368,-120.95792807,-57.35574464,174.27686829,-53.11374029
4.88600295,18.17888641,52.01465246,-2.67502617,0.03201989,0.69066011

>  <Name>
ligand

>  <RI>
0

>  <Rbt.Current_Directory>
/home/itssahil/PROJECTS/Mol_Feturizer/New_Systems/rnas/2HOO

>  <Rbt.Executable>
rbdock ($Id: //depot/dev/client3/rdock/2013.1/src/exe/rbdock.cxx#4 $)

>  <Rbt.Library>
libRbt.so (2013.1, Build901 2013/11/27)

>  <Rbt.Parameter_File>
/export/apps/rDock/src/rDock_2013.1_src/data/scripts/dock_solv.prm

>  <Rbt.Receptor>
prm/pocket_docking_4.prm

>  <SCORE>
-32.4823

>  <SCORE.INTER>
-17.6254

>  <SCORE.INTER.CONST>
1

>  <SCORE.INTER.POLAR>
0

>  <SCORE.INTER.ROT>
12

>  <SCORE.INTER.SOLV>
18.6803

>  <SCORE.INTER.VDW>
-29.577

>  <SCORE.INTER.norm>
-0.568561

>  <SCORE.INTRA>
-14.8569

>  <SCORE.INTRA.DIHEDRAL>
-1.65676

>  <SCORE.INTRA.DIHEDRAL.0>
14.6094

>  <SCORE.INTRA.POLAR>
0

>  <SCORE.INTRA.POLAR.0>
0

>  <SCORE.INTRA.REPUL>
0

>  <SCORE.INTRA.REPUL.0>
0

>  <SCORE.INTRA.SOLV>
0.42936

>  <SCORE.INTRA.SOLV.lig_0>
-65.6478

>  <SCORE.INTRA.VDW>
-14.2432

>  <SCORE.INTRA.VDW.0>
9.35535

>  <SCORE.INTRA.norm>
-0.479254

>  <SCORE.RESTR>
0

>  <SCORE.RESTR.CAVITY>
0

>  <SCORE.RESTR.norm>
0

>  <SCORE.SYSTEM>
0

>  <SCORE.SYSTEM.CONST>
0

>  <SCORE.SYSTEM.DIHEDRAL>
0

>  <SCORE.SYSTEM.SOLV>
0

>  <SCORE.SYSTEM.norm>
0

>  <SCORE.heavy>
31

>  <SCORE.norm>
-1.04782

>  <RMSD>
2.646

$$$$
ligand
 OpenBabel11021811443D
libRbt.so/2013.1/901 2013/11/27
 31 32  0  0  0  0  0  0  0  0999 V2000
    4.8473   18.7733   49.8936 C   0  0  0  0  0  0  0  0  0  0  0  0
    4.4167   17.3110   49.8278 C   0  0  0  0  0  0  0  0  0  0  0  0
    3.0255   16.9735   49.7736 C   0  0  0  0  0  0  0  0  0  0  0  0
    2.6322   15.6149   49.7160 C   0  0  0  0  0  0  0  0  0  0  0  0
    3.6041   14.5847   49.7044 C   0  0  0  0  0  0  0  0  0  0  0  0
    4.9776   14.8986   49.7510 C   0  0  0  0  0  0  0  0  0  0  0  0
    5.3887   16.2423   49.8104 C   0  0  0  0  0  0  0  0  0  0  0  0
    5.7571   19.1789   49.1710 O   0  0  0  0  0  0  0  0  0  0  0  0
   12.4867   20.4760   54.3922 C   0  0  0  0  0  0  0  0  0  0  0  0
    4.5510   19.9714   54.6219 C   0  0  0  0  0  0  0  0  0  0  0  0
    1.7356   17.1280   55.1449 P   0  0  1  0  0  0  0  0  0  0  0  0
   10.7486   19.1848   53.3693 N   0  0  0  0  0  0  0  0  0  0  0  0
    1.6075   18.5517   55.5105 O   0  0  0  0  0  0  0  0  0  0  0  0
    4.2250   19.6536   50.7616 S   0  0  0  0  0  0  0  0  0  0  0  0
    6.5524   17.7371   53.3694 C   0  0  0  0  0  0  0  0  0  0  0  0
   11.1335   20.4144   53.8543 C   0  0  0  0  0  0  0  0  0  0  0  0
    2.6875   16.3556   55.9883 O   0  5  0  0  0  0  0  0  0  0  0  0
    6.2886   19.0395   53.0992 N   0  0  0  0  0  0  0  0  0  0  0  0
   10.3757   21.4659   53.8505 N   0  0  0  0  0  0  0  0  0  0  0  0
    0.3965   16.5028   55.0441 O   0  0  0  0  0  0  0  0  0  0  0  0
    4.8818   19.4365   53.2549 C   0  0  2  0  0  0  0  0  0  0  0  0
    9.0914   21.3988   53.3451 C   0  0  0  0  0  0  0  0  0  0  0  0
    8.3373   22.5006   53.3612 N   0  0  0  0  0  0  0  0  0  0  0  0
    3.8344   19.3814   52.2396 C   0  0  1  0  0  0  0  0  0  0  0  0
    8.6069   20.1313   52.8212 C   0  0  0  0  0  0  0  0  0  0  0  0
    7.2245   17.5966   54.3674 O   0  0  0  0  0  0  0  0  0  0  0  0
    2.4042   19.0918   52.5285 C   0  0  0  0  0  0  0  0  0  0  0  0
    9.4950   19.0758   52.8635 C   0  0  0  0  0  0  0  0  0  0  0  0
    1.9279   17.7029   52.5295 C   0  0  0  0  0  0  0  0  0  0  0  0
    7.1993   19.9855   52.2963 C   0  0  0  0  0  0  0  0  0  0  0  0
    2.3645   17.0114   53.7126 O   0  0  0  0  0  0  0  0  0  0  0  0
  1  2  1  0  0  0  0
  1  8  2  0  0  0  0
  1 14  1  0  0  0  0
  2  3  2  0  0  0  0
  2  7  1  0  0  0  0
  3  4  1  0  0  0  0
  4  5  2  0  0  0  0
  5  6  1  0  0  0  0
  6  7  2  0  0  0  0
  9 16  1  0  0  0  0
 10 21  1  0  0  0  0
 11 13  1  1  0  0  0
 11 17  1  0  0  0  0
 11 20  2  0  0  0  0
 11 31  1  0  0  0  0
 12 16  2  0  0  0  0
 12 28  1  0  0  0  0
 15 26  1  0  0  0  0
 15 18  1  0  0  0  0
 16 19  1  0  0  0  0
 18 30  1  0  0  0  0
 19 22  2  0  0  0  0
 21 18  1  6  0  0  0
 21 24  1  0  0  0  0
 22 23  1  0  0  0  0
 22 25  1  0  0  0  0
 24 14  1  1  0  0  0
 24 27  1  0  0  0  0
 25 28  2  0  0  0  0
 25 30  1  0  0  0  0
 27 29  1  0  0  0  0
 29 31  1  0  0  0  0
M  CHG  1  17  -1
M  END
>  <CHROM.1>
-134.23999876,43.12544927,77.99367598,-111.92892094,92.23460465,-56.44682495
144.57774923,91.44859859,-114.61561910,74.58348235,78.36953883,-50.36907060
5.31396751,18.50447575,52.72101960,-2.98683659,0.39515874,1.30913556

>  <Name>
ligand

>  <RI>
0

>  <Rbt.Current_Directory>
/home/itssahil/PROJECTS/Mol_Feturizer/New_Systems/rnas/2HOO

>  <Rbt.Executable>
rbdock ($Id: //depot/dev/client3/rdock/2013.1/src/exe/rbdock.cxx#4 $)

>  <Rbt.Library>
libRbt.so (2013.1, Build901 2013/11/27)

>  <Rbt.Parameter_File>
/export/apps/rDock/src/rDock_2013.1_src/data/scripts/dock_solv.prm

>  <Rbt.Receptor>
prm/blind_docking_60.prm

>  <SCORE>
-30.1928

>  <SCORE.INTER>
-17.0087

>  <SCORE.INTER.CONST>
1

>  <SCORE.INTER.POLAR>
0

>  <SCORE.INTER.ROT>
12

>  <SCORE.INTER.SOLV>
16.4215

>  <SCORE.INTER.VDW>
-28.413

>  <SCORE.INTER.norm>
-0.548669

>  <SCORE.INTRA>
-13.1886

>  <SCORE.INTRA.DIHEDRAL>
3.51253

>  <SCORE.INTRA.DIHEDRAL.0>
14.6094

>  <SCORE.INTRA.POLAR>
0

>  <SCORE.INTRA.POLAR.0>
0

>  <SCORE.INTRA.REPUL>
0

>  <SCORE.INTRA.REPUL.0>
0

>  <SCORE.INTRA.SOLV>
1.16336

>  <SCORE.INTRA.SOLV.lig_0>
-65.6478

>  <SCORE.INTRA.VDW>
-15.5265

>  <SCORE.INTRA.VDW.0>
9.35535

>  <SCORE.INTRA.norm>
-0.425438

>  <SCORE.RESTR>
0.00454727

>  <SCORE.RESTR.CAVITY>
0.00454727

>  <SCORE.RESTR.norm>
0.000146686

>  <SCORE.SYSTEM>
0

>  <SCORE.SYSTEM.CONST>
0

>  <SCORE.SYSTEM.DIHEDRAL>
0

>  <SCORE.SYSTEM.SOLV>
0

>  <SCORE.SYSTEM.norm>
0

>  <SCORE.heavy>
31

>  <SCORE.norm>
-0.97396

>  <RMSD>
2.686

$$$$
ligand
 OpenBabel11021811443D
libRbt.so/2013.1/901 2013/11/27
 31 32  0  0  0  0  0  0  0  0999 V2000
    6.8335   16.7710   49.9308 C   0  0  0  0  0  0  0  0  0  0  0  0
    6.9271   16.6036   48.4171 C   0  0  0  0  0  0  0  0  0  0  0  0
    7.9781   15.8159   47.8450 C   0  0  0  0  0  0  0  0  0  0  0  0
    8.0616   15.6671   46.4398 C   0  0  0  0  0  0  0  0  0  0  0  0
    7.1091   16.2854   45.5933 C   0  0  0  0  0  0  0  0  0  0  0  0
    6.0647   17.0590   46.1392 C   0  0  0  0  0  0  0  0  0  0  0  0
    5.9656   17.2204   47.5328 C   0  0  0  0  0  0  0  0  0  0  0  0
    7.4433   16.0016   50.6729 O   0  0  0  0  0  0  0  0  0  0  0  0
   13.3120   19.4913   54.2730 C   0  0  0  0  0  0  0  0  0  0  0  0
    8.5151   19.5523   50.9248 C   0  0  0  0  0  0  0  0  0  0  0  0
    2.2119   18.2376   54.9631 P   0  0  1  0  0  0  0  0  0  0  0  0
   11.5656   21.1156   54.0574 N   0  0  0  0  0  0  0  0  0  0  0  0
    2.3472   19.3636   55.9067 O   0  0  0  0  0  0  0  0  0  0  0  0
    6.0661   17.7821   50.4826 S   0  0  0  0  0  0  0  0  0  0  0  0
    6.3377   21.8172   52.0818 C   0  0  0  0  0  0  0  0  0  0  0  0
   11.8857   19.7873   54.2261 C   0  0  0  0  0  0  0  0  0  0  0  0
    1.8220   16.9465   55.5917 O   0  5  0  0  0  0  0  0  0  0  0  0
    7.2079   20.8963   52.5653 N   0  0  0  0  0  0  0  0  0  0  0  0
   11.0101   18.8383   54.3390 N   0  0  0  0  0  0  0  0  0  0  0  0
    1.3459   18.6242   53.8252 O   0  0  0  0  0  0  0  0  0  0  0  0
    7.2893   19.6487   51.7921 C   0  0  2  0  0  0  0  0  0  0  0  0
    9.6594   19.1250   54.2869 C   0  0  0  0  0  0  0  0  0  0  0  0
    8.7857   18.1219   54.4023 N   0  0  0  0  0  0  0  0  0  0  0  0
    6.3414   18.5387   51.8104 C   0  0  1  0  0  0  0  0  0  0  0  0
    9.2399   20.5055   54.1021 C   0  0  0  0  0  0  0  0  0  0  0  0
    6.7377   22.9521   52.2207 O   0  0  0  0  0  0  0  0  0  0  0  0
    5.6059   18.0870   53.0219 C   0  0  0  0  0  0  0  0  0  0  0  0
   10.2501   21.4404   54.0014 C   0  0  0  0  0  0  0  0  0  0  0  0
    4.3176   18.7027   53.3638 C   0  0  0  0  0  0  0  0  0  0  0  0
    7.7804   20.8746   53.9937 C   0  0  0  0  0  0  0  0  0  0  0  0
    3.6121   17.9112   54.3356 O   0  0  0  0  0  0  0  0  0  0  0  0
  1  2  1  0  0  0  0
  1  8  2  0  0  0  0
  1 14  1  0  0  0  0
  2  3  2  0  0  0  0
  2  7  1  0  0  0  0
  3  4  1  0  0  0  0
  4  5  2  0  0  0  0
  5  6  1  0  0  0  0
  6  7  2  0  0  0  0
  9 16  1  0  0  0  0
 10 21  1  0  0  0  0
 11 13  1  1  0  0  0
 11 17  1  0  0  0  0
 11 20  2  0  0  0  0
 11 31  1  0  0  0  0
 12 16  2  0  0  0  0
 12 28  1  0  0  0  0
 15 26  1  0  0  0  0
 15 18  1  0  0  0  0
 16 19  1  0  0  0  0
 18 30  1  0  0  0  0
 19 22  2  0  0  0  0
 21 18  1  1  0  0  0
 21 24  1  0  0  0  0
 22 23  1  0  0  0  0
 22 25  1  0  0  0  0
 24 14  1  6  0  0  0
 24 27  1  0  0  0  0
 25 28  2  0  0  0  0
 25 30  1  0  0  0  0
 27 29  1  0  0  0  0
 29 31  1  0  0  0  0
M  CHG  1  17  -1
M  END
>  <CHROM.1>
-17.01846033,-148.20946532,82.35791726,-143.75620757,103.24639810,-139.92354091
-37.31010293,-91.43168638,-91.12076734,164.84808176,179.41340927,-72.32800689
6.74730949,18.69079119,52.23606927,0.36402841,-0.23185030,-2.00350616

>  <Name>
ligand

>  <RI>
0

>  <Rbt.Current_Directory>
/home/itssahil/PROJECTS/Mol_Feturizer/New_Systems/rnas/2HOO

>  <Rbt.Executable>
rbdock ($Id: //depot/dev/client3/rdock/2013.1/src/exe/rbdock.cxx#4 $)

>  <Rbt.Library>
libRbt.so (2013.1, Build901 2013/11/27)

>  <Rbt.Parameter_File>
/export/apps/rDock/src/rDock_2013.1_src/data/scripts/dock_solv.prm

>  <Rbt.Receptor>
prm/pocket_docking_3.prm

>  <SCORE>
-22.4084

>  <SCORE.INTER>
-11.5402

>  <SCORE.INTER.CONST>
1

>  <SCORE.INTER.POLAR>
0

>  <SCORE.INTER.ROT>
12

>  <SCORE.INTER.SOLV>
15.9263

>  <SCORE.INTER.VDW>
-24.6022

>  <SCORE.INTER.norm>
-0.372264

>  <SCORE.INTRA>
-10.9077

>  <SCORE.INTRA.DIHEDRAL>
0.508728

>  <SCORE.INTRA.DIHEDRAL.0>
14.6094

>  <SCORE.INTRA.POLAR>
0

>  <SCORE.INTRA.POLAR.0>
0

>  <SCORE.INTRA.REPUL>
0

>  <SCORE.INTRA.REPUL.0>
0

>  <SCORE.INTRA.SOLV>
4.18072

>  <SCORE.INTRA.SOLV.lig_0>
-65.6478

>  <SCORE.INTRA.VDW>
-13.2524

>  <SCORE.INTRA.VDW.0>
9.35535

>  <SCORE.INTRA.norm>
-0.35186

>  <SCORE.RESTR>
0.039505

>  <SCORE.RESTR.CAVITY>
0.039505

>  <SCORE.RESTR.norm>
0.00127436

>  <SCORE.SYSTEM>
0

>  <SCORE.SYSTEM.CONST>
0

>  <SCORE.SYSTEM.DIHEDRAL>
0

>  <SCORE.SYSTEM.SOLV>
0

>  <SCORE.SYSTEM.norm>
0

>  <SCORE.heavy>
31

>  <SCORE.norm>
-0.72285

>  <RMSD>
2.705

$$$$
ligand
 OpenBabel11021811443D
libRbt.so/2013.1/901 2013/11/27
 31 32  0  0  0  0  0  0  0  0999 V2000
    4.2010   17.1050   49.9698 C   0  0  0  0  0  0  0  0  0  0  0  0
    4.9500   15.7811   49.8500 C   0  0  0  0  0  0  0  0  0  0  0  0
    6.3800   15.7697   49.7661 C   0  0  0  0  0  0  0  0  0  0  0  0
    7.0691   14.5385   49.6518 C   0  0  0  0  0  0  0  0  0  0  0  0
    6.3560   13.3149   49.6268 C   0  0  0  0  0  0  0  0  0  0  0  0
    4.9490   13.3068   49.7145 C   0  0  0  0  0  0  0  0  0  0  0  0
    4.2460   14.5197   49.8268 C   0  0  0  0  0  0  0  0  0  0  0  0
    2.9760   17.1092   50.0878 O   0  0  0  0  0  0  0  0  0  0  0  0
   13.5524   19.8363   54.9673 C   0  0  0  0  0  0  0  0  0  0  0  0
    6.6858   17.4882   52.7243 C   0  0  0  0  0  0  0  0  0  0  0  0
    2.8513   22.9490   51.8045 P   0  0  1  0  0  0  0  0  0  0  0  0
   11.6699   18.9052   53.8167 N   0  0  0  0  0  0  0  0  0  0  0  0
    4.2923   23.2380   51.9339 O   0  0  0  0  0  0  0  0  0  0  0  0
    4.8856   18.3076   49.9458 S   0  0  0  0  0  0  0  0  0  0  0  0
    8.6013   18.9391   50.3609 C   0  0  0  0  0  0  0  0  0  0  0  0
   12.2573   20.0394   54.3304 C   0  0  0  0  0  0  0  0  0  0  0  0
    1.9936   23.6075   52.8267 O   0  5  0  0  0  0  0  0  0  0  0  0
    8.0269   19.2313   51.5541 N   0  0  0  0  0  0  0  0  0  0  0  0
   11.7282   21.2212   54.2715 N   0  0  0  0  0  0  0  0  0  0  0  0
    2.4030   23.1926   50.4137 O   0  0  0  0  0  0  0  0  0  0  0  0
    6.6944   18.6471   51.7646 C   0  0  2  0  0  0  0  0  0  0  0  0
   10.4969   21.4056   53.6721 C   0  0  0  0  0  0  0  0  0  0  0  0
    9.9801   22.6362   53.6334 N   0  0  0  0  0  0  0  0  0  0  0  0
    5.4363   19.0881   51.1700 C   0  0  1  0  0  0  0  0  0  0  0  0
    9.8075   20.2536   53.1122 C   0  0  0  0  0  0  0  0  0  0  0  0
    9.0155   17.8018   50.3110 O   0  0  0  0  0  0  0  0  0  0  0  0
    4.6454   20.2515   51.6535 C   0  0  0  0  0  0  0  0  0  0  0  0
   10.4602   19.0424   53.2192 C   0  0  0  0  0  0  0  0  0  0  0  0
    3.2071   20.3240   51.3673 C   0  0  0  0  0  0  0  0  0  0  0  0
    8.4414   20.3854   52.4842 C   0  0  0  0  0  0  0  0  0  0  0  0
    2.5991   21.4233   52.0678 O   0  0  0  0  0  0  0  0  0  0  0  0
  1  2  1  0  0  0  0
  1  8  2  0  0  0  0
  1 14  1  0  0  0  0
  2  3  2  0  0  0  0
  2  7  1  0  0  0  0
  3  4  1  0  0  0  0
  4  5  2  0  0  0  0
  5  6  1  0  0  0  0
  6  7  2  0  0  0  0
  9 16  1  0  0  0  0
 10 21  1  0  0  0  0
 11 13  1  1  0  0  0
 11 17  1  0  0  0  0
 11 20  2  0  0  0  0
 11 31  1  0  0  0  0
 12 16  2  0  0  0  0
 12 28  1  0  0  0  0
 15 26  1  0  0  0  0
 15 18  1  0  0  0  0
 16 19  1  0  0  0  0
 18 30  1  0  0  0  0
 19 22  2  0  0  0  0
 21 18  1  1  0  0  0
 21 24  1  0  0  0  0
 22 23  1  0  0  0  0
 22 25  1  0  0  0  0
 24 14  1  6  0  0  0
 24 27  1  0  0  0  0
 25 28  2  0  0  0  0
 25 30  1  0  0  0  0
 27 29  1  0  0  0  0
 29 31  1  0  0  0  0
M  CHG  1  17  -1
M  END
>  <CHROM.1>
-177.51314871,-91.56814501,79.58729038,-74.74896872,105.87834242,-67.21098713
-81.17950404,23.83997576,161.31662605,172.27415732,67.42491908,-56.57648706
6.49493344,19.29558600,51.63584892,-2.98708956,-0.30675130,0.36040356

>  <Name>
ligand

>  <RI>
0

>  <Rbt.Current_Directory>
/home/itssahil/PROJECTS/Mol_Feturizer/New_Systems/rnas/2HOO

>  <Rbt.Executable>
rbdock ($Id: //depot/dev/client3/rdock/2013.1/src/exe/rbdock.cxx#4 $)

>  <Rbt.Library>
libRbt.so (2013.1, Build901 2013/11/27)

>  <Rbt.Parameter_File>
/export/apps/rDock/src/rDock_2013.1_src/data/scripts/dock_solv.prm

>  <Rbt.Receptor>
prm/pocket_docking_5.prm

>  <SCORE>
-34.5567

>  <SCORE.INTER>
-22.9154

>  <SCORE.INTER.CONST>
1

>  <SCORE.INTER.POLAR>
0

>  <SCORE.INTER.ROT>
12

>  <SCORE.INTER.SOLV>
19.6133

>  <SCORE.INTER.VDW>
-33.4147

>  <SCORE.INTER.norm>
-0.739207

>  <SCORE.INTRA>
-11.6413

>  <SCORE.INTRA.DIHEDRAL>
3.34924

>  <SCORE.INTRA.DIHEDRAL.0>
14.6094

>  <SCORE.INTRA.POLAR>
0

>  <SCORE.INTRA.POLAR.0>
0

>  <SCORE.INTRA.REPUL>
0

>  <SCORE.INTRA.REPUL.0>
0

>  <SCORE.INTRA.SOLV>
-0.283853

>  <SCORE.INTRA.SOLV.lig_0>
-65.6478

>  <SCORE.INTRA.VDW>
-13.174

>  <SCORE.INTRA.VDW.0>
9.35535

>  <SCORE.INTRA.norm>
-0.375526

>  <SCORE.RESTR>
0

>  <SCORE.RESTR.CAVITY>
0

>  <SCORE.RESTR.norm>
0

>  <SCORE.SYSTEM>
0

>  <SCORE.SYSTEM.CONST>
0

>  <SCORE.SYSTEM.DIHEDRAL>
0

>  <SCORE.SYSTEM.SOLV>
0

>  <SCORE.SYSTEM.norm>
0

>  <SCORE.heavy>
31

>  <SCORE.norm>
-1.11473

>  <RMSD>
2.734

$$$$
ligand
 OpenBabel11021811443D
libRbt.so/2013.1/901 2013/11/27
 31 32  0  0  0  0  0  0  0  0999 V2000
    4.1428   15.9296   49.8166 C   0  0  0  0  0  0  0  0  0  0  0  0
    4.9093   14.6690   49.4273 C   0  0  0  0  0  0  0  0  0  0  0  0
    4.6749   13.4409   50.1267 C   0  0  0  0  0  0  0  0  0  0  0  0
    5.3915   12.2755   49.7632 C   0  0  0  0  0  0  0  0  0  0  0  0
    6.3349   12.3115   48.7073 C   0  0  0  0  0  0  0  0  0  0  0  0
    6.5739   13.5098   48.0041 C   0  0  0  0  0  0  0  0  0  0  0  0
    5.8733   14.6788   48.3514 C   0  0  0  0  0  0  0  0  0  0  0  0
    3.0108   15.8385   50.2906 O   0  0  0  0  0  0  0  0  0  0  0  0
   12.7216   20.6121   54.4921 C   0  0  0  0  0  0  0  0  0  0  0  0
    6.4569   17.4081   52.5544 C   0  0  0  0  0  0  0  0  0  0  0  0
    1.6734   21.3526   52.2701 P   0  0  1  0  0  0  0  0  0  0  0  0
   10.9650   19.4232   53.3809 N   0  0  0  0  0  0  0  0  0  0  0  0
    1.0601   20.0139   52.3626 O   0  0  0  0  0  0  0  0  0  0  0  0
    4.7074   17.1810   49.6408 S   0  0  0  0  0  0  0  0  0  0  0  0
    7.7341   19.2943   49.8722 C   0  0  0  0  0  0  0  0  0  0  0  0
   11.3902   20.6254   53.8994 C   0  0  0  0  0  0  0  0  0  0  0  0
    0.7392   22.4343   51.8560 O   0  5  0  0  0  0  0  0  0  0  0  0
    7.2754   19.2947   51.1483 N   0  0  0  0  0  0  0  0  0  0  0  0
   10.6862   21.7136   53.8810 N   0  0  0  0  0  0  0  0  0  0  0  0
    2.4189   21.6614   53.5124 O   0  0  0  0  0  0  0  0  0  0  0  0
    6.1787   18.3534   51.4173 C   0  0  2  0  0  0  0  0  0  0  0  0
    9.4219   21.7175   53.3235 C   0  0  0  0  0  0  0  0  0  0  0  0
    8.7233   22.8555   53.3259 N   0  0  0  0  0  0  0  0  0  0  0  0
    4.8957   18.2762   50.7253 C   0  0  1  0  0  0  0  0  0  0  0  0
    8.8970   20.4829   52.7614 C   0  0  0  0  0  0  0  0  0  0  0  0
    8.2125   18.2287   49.5509 O   0  0  0  0  0  0  0  0  0  0  0  0
    3.7509   19.1908   50.9819 C   0  0  0  0  0  0  0  0  0  0  0  0
    9.7293   19.3837   52.8236 C   0  0  0  0  0  0  0  0  0  0  0  0
    3.9866   20.6342   51.1119 C   0  0  0  0  0  0  0  0  0  0  0  0
    7.5066   20.4147   52.1784 C   0  0  0  0  0  0  0  0  0  0  0  0
    2.7439   21.3583   51.1234 O   0  0  0  0  0  0  0  0  0  0  0  0
  1  2  1  0  0  0  0
  1  8  2  0  0  0  0
  1 14  1  0  0  0  0
  2  3  2  0  0  0  0
  2  7  1  0  0  0  0
  3  4  1  0  0  0  0
  4  5  2  0  0  0  0
  5  6  1  0  0  0  0
  6  7  2  0  0  0  0
  9 16  1  0  0  0  0
 10 21  1  0  0  0  0
 11 13  1  1  0  0  0
 11 17  1  0  0  0  0
 11 20  2  0  0  0  0
 11 31  1  0  0  0  0
 12 16  2  0  0  0  0
 12 28  1  0  0  0  0
 15 26  1  0  0  0  0
 15 18  1  0  0  0  0
 16 19  1  0  0  0  0
 18 30  1  0  0  0  0
 19 22  2  0  0  0  0
 21 18  1  1  0  0  0
 21 24  1  0  0  0  0
 22 23  1  0  0  0  0
 22 25  1  0  0  0  0
 24 14  1  6  0  0  0
 24 27  1  0  0  0  0
 25 28  2  0  0  0  0
 25 30  1  0  0  0  0
 27 29  1  0  0  0  0
 29 31  1  0  0  0  0
M  CHG  1  17  -1
M  END
>  <CHROM.1>
-29.51220298,-124.96060907,95.03982050,-62.75995821,125.18150582,-74.47379236
-80.68021550,-135.12510917,156.44406956,169.99894874,69.74549908,-67.14977831
5.88778176,18.73265940,51.38969014,-2.34120196,-0.15293846,0.45537161

>  <Name>
ligand

>  <RI>
0

>  <Rbt.Current_Directory>
/home/itssahil/PROJECTS/Mol_Feturizer/New_Systems/rnas/2HOO

>  <Rbt.Executable>
rbdock ($Id: //depot/dev/client3/rdock/2013.1/src/exe/rbdock.cxx#4 $)

>  <Rbt.Library>
libRbt.so (2013.1, Build901 2013/11/27)

>  <Rbt.Parameter_File>
/export/apps/rDock/src/rDock_2013.1_src/data/scripts/dock_solv.prm

>  <Rbt.Receptor>
prm/pocket_docking_7.prm

>  <SCORE>
-30.7217

>  <SCORE.INTER>
-18.0769

>  <SCORE.INTER.CONST>
1

>  <SCORE.INTER.POLAR>
0

>  <SCORE.INTER.ROT>
12

>  <SCORE.INTER.SOLV>
12.3642

>  <SCORE.INTER.VDW>
-27.7727

>  <SCORE.INTER.norm>
-0.583127

>  <SCORE.INTRA>
-12.6448

>  <SCORE.INTRA.DIHEDRAL>
1.67086

>  <SCORE.INTRA.DIHEDRAL.0>
14.6094

>  <SCORE.INTRA.POLAR>
0

>  <SCORE.INTRA.POLAR.0>
0

>  <SCORE.INTRA.REPUL>
0

>  <SCORE.INTRA.REPUL.0>
0

>  <SCORE.INTRA.SOLV>
-0.235697

>  <SCORE.INTRA.SOLV.lig_0>
-65.6478

>  <SCORE.INTRA.VDW>
-13.3624

>  <SCORE.INTRA.VDW.0>
9.35535

>  <SCORE.INTRA.norm>
-0.407897

>  <SCORE.RESTR>
0

>  <SCORE.RESTR.CAVITY>
0

>  <SCORE.RESTR.norm>
0

>  <SCORE.SYSTEM>
0

>  <SCORE.SYSTEM.CONST>
0

>  <SCORE.SYSTEM.DIHEDRAL>
0

>  <SCORE.SYSTEM.SOLV>
0

>  <SCORE.SYSTEM.norm>
0

>  <SCORE.heavy>
31

>  <SCORE.norm>
-0.991023

>  <RMSD>
2.748

$$$$
ligand
 OpenBabel11021811443D
libRbt.so/2013.1/901 2013/11/27
 31 32  0  0  0  0  0  0  0  0999 V2000
    3.9160   18.8465   50.9539 C   0  0  0  0  0  0  0  0  0  0  0  0
    3.1518   17.5976   50.5246 C   0  0  0  0  0  0  0  0  0  0  0  0
    3.7863   16.6162   49.6961 C   0  0  0  0  0  0  0  0  0  0  0  0
    3.0710   15.4613   49.2984 C   0  0  0  0  0  0  0  0  0  0  0  0
    1.7330   15.2637   49.7192 C   0  0  0  0  0  0  0  0  0  0  0  0
    1.0948   16.2159   50.5397 C   0  0  0  0  0  0  0  0  0  0  0  0
    1.7880   17.3709   50.9440 C   0  0  0  0  0  0  0  0  0  0  0  0
    4.1547   19.7327   50.1341 O   0  0  0  0  0  0  0  0  0  0  0  0
   13.0318   20.2201   54.5927 C   0  0  0  0  0  0  0  0  0  0  0  0
    5.0271   22.6124   52.5595 C   0  0  0  0  0  0  0  0  0  0  0  0
    2.2060   17.5045   55.1796 P   0  0  1  0  0  0  0  0  0  0  0  0
   11.0134   19.3821   53.6139 N   0  0  0  0  0  0  0  0  0  0  0  0
    2.2925   17.2625   53.7268 O   0  0  0  0  0  0  0  0  0  0  0  0
    4.3476   18.9951   52.2605 S   0  0  0  0  0  0  0  0  0  0  0  0
    6.7903   20.5701   54.8551 C   0  0  0  0  0  0  0  0  0  0  0  0
   11.7024   20.4877   54.0588 C   0  0  0  0  0  0  0  0  0  0  0  0
    0.8911   18.0240   55.6435 O   0  5  0  0  0  0  0  0  0  0  0  0
    6.6701   21.0504   53.5926 N   0  0  0  0  0  0  0  0  0  0  0  0
   11.2364   21.6967   54.0222 N   0  0  0  0  0  0  0  0  0  0  0  0
    2.6641   16.3098   55.9259 O   0  0  0  0  0  0  0  0  0  0  0  0
    5.2890   21.2439   53.1276 C   0  0  2  0  0  0  0  0  0  0  0  0
    9.9725   21.9426   53.5209 C   0  0  0  0  0  0  0  0  0  0  0  0
    9.5230   23.1998   53.5027 N   0  0  0  0  0  0  0  0  0  0  0  0
    4.2085   20.2626   53.1467 C   0  0  1  0  0  0  0  0  0  0  0  0
    9.1771   20.8244   53.0384 C   0  0  0  0  0  0  0  0  0  0  0  0
    6.2618   21.2863   55.6768 O   0  0  0  0  0  0  0  0  0  0  0  0
    2.9672   20.4011   53.9548 C   0  0  0  0  0  0  0  0  0  0  0  0
    9.7686   19.5796   53.1134 C   0  0  0  0  0  0  0  0  0  0  0  0
    2.9871   20.0651   55.3839 C   0  0  0  0  0  0  0  0  0  0  0  0
    7.7739   21.0250   52.5203 C   0  0  0  0  0  0  0  0  0  0  0  0
    3.1955   18.6551   55.5769 O   0  0  0  0  0  0  0  0  0  0  0  0
  1  2  1  0  0  0  0
  1  8  2  0  0  0  0
  1 14  1  0  0  0  0
  2  3  2  0  0  0  0
  2  7  1  0  0  0  0
  3  4  1  0  0  0  0
  4  5  2  0  0  0  0
  5  6  1  0  0  0  0
  6  7  2  0  0  0  0
  9 16  1  0  0  0  0
 10 21  1  0  0  0  0
 11 13  1  6  0  0  0
 11 17  1  0  0  0  0
 11 20  2  0  0  0  0
 11 31  1  0  0  0  0
 12 16  2  0  0  0  0
 12 28  1  0  0  0  0
 15 26  1  0  0  0  0
 15 18  1  0  0  0  0
 16 19  1  0  0  0  0
 18 30  1  0  0  0  0
 19 22  2  0  0  0  0
 21 18  1  6  0  0  0
 21 24  1  0  0  0  0
 22 23  1  0  0  0  0
 22 25  1  0  0  0  0
 24 14  1  6  0  0  0
 24 27  1  0  0  0  0
 25 28  2  0  0  0  0
 25 30  1  0  0  0  0
 27 29  1  0  0  0  0
 29 31  1  0  0  0  0
M  CHG  1  17  -1
M  END
>  <CHROM.1>
72.27291503,-133.99162180,-90.52414903,-58.58907636,128.69490322,-18.49605311
113.87125843,100.38620381,-84.40106913,-67.03996512,-66.55479591,77.80126967
5.33545934,19.30089687,53.21053231,-2.85779816,0.37496354,1.21120230

>  <Name>
ligand

>  <RI>
0

>  <Rbt.Current_Directory>
/home/itssahil/PROJECTS/Mol_Feturizer/New_Systems/rnas/2HOO

>  <Rbt.Executable>
rbdock ($Id: //depot/dev/client3/rdock/2013.1/src/exe/rbdock.cxx#4 $)

>  <Rbt.Library>
libRbt.so (2013.1, Build901 2013/11/27)

>  <Rbt.Parameter_File>
/export/apps/rDock/src/rDock_2013.1_src/data/scripts/dock_solv.prm

>  <Rbt.Receptor>
prm/pocket_docking_6.prm

>  <SCORE>
-31.0005

>  <SCORE.INTER>
-17.823

>  <SCORE.INTER.CONST>
1

>  <SCORE.INTER.POLAR>
0

>  <SCORE.INTER.ROT>
12

>  <SCORE.INTER.SOLV>
19.4957

>  <SCORE.INTER.VDW>
-29.9806

>  <SCORE.INTER.norm>
-0.574936

>  <SCORE.INTRA>
-13.1775

>  <SCORE.INTRA.DIHEDRAL>
0.794525

>  <SCORE.INTRA.DIHEDRAL.0>
14.6094

>  <SCORE.INTRA.POLAR>
0

>  <SCORE.INTRA.POLAR.0>
0

>  <SCORE.INTRA.REPUL>
0

>  <SCORE.INTRA.REPUL.0>
0

>  <SCORE.INTRA.SOLV>
2.30225

>  <SCORE.INTRA.SOLV.lig_0>
-65.6478

>  <SCORE.INTRA.VDW>
-14.7258

>  <SCORE.INTRA.VDW.0>
9.35535

>  <SCORE.INTRA.norm>
-0.425079

>  <SCORE.RESTR>
0

>  <SCORE.RESTR.CAVITY>
0

>  <SCORE.RESTR.norm>
0

>  <SCORE.SYSTEM>
0

>  <SCORE.SYSTEM.CONST>
0

>  <SCORE.SYSTEM.DIHEDRAL>
0

>  <SCORE.SYSTEM.SOLV>
0

>  <SCORE.SYSTEM.norm>
0

>  <SCORE.heavy>
31

>  <SCORE.norm>
-1.00002

>  <RMSD>
2.758

$$$$
ligand
 OpenBabel11021811443D
libRbt.so/2013.1/901 2013/11/27
 31 32  0  0  0  0  0  0  0  0999 V2000
    6.5601   18.8206   49.9912 C   0  0  0  0  0  0  0  0  0  0  0  0
    6.6768   18.7489   48.4716 C   0  0  0  0  0  0  0  0  0  0  0  0
    6.0919   17.6537   47.7569 C   0  0  0  0  0  0  0  0  0  0  0  0
    6.2065   17.5910   46.3474 C   0  0  0  0  0  0  0  0  0  0  0  0
    6.8895   18.6074   45.6355 C   0  0  0  0  0  0  0  0  0  0  0  0
    7.4658   19.6956   46.3218 C   0  0  0  0  0  0  0  0  0  0  0  0
    7.3644   19.7750   47.7223 C   0  0  0  0  0  0  0  0  0  0  0  0
    7.3612   18.2103   50.6984 O   0  0  0  0  0  0  0  0  0  0  0  0
   13.2823   19.6534   54.2697 C   0  0  0  0  0  0  0  0  0  0  0  0
    4.9459   22.3692   52.7767 C   0  0  0  0  0  0  0  0  0  0  0  0
    2.1988   16.8840   51.0580 P   0  0  1  0  0  0  0  0  0  0  0  0
   11.7266   21.4738   54.2803 N   0  0  0  0  0  0  0  0  0  0  0  0
    0.8657   17.4669   50.8131 O   0  0  0  0  0  0  0  0  0  0  0  0
    5.5580   19.5665   50.5874 S   0  0  0  0  0  0  0  0  0  0  0  0
    7.8404   22.4082   51.5839 C   0  0  0  0  0  0  0  0  0  0  0  0
   11.8986   20.1090   54.2264 C   0  0  0  0  0  0  0  0  0  0  0  0
    2.2186   15.7827   52.0585 O   0  5  0  0  0  0  0  0  0  0  0  0
    7.3425   21.7051   52.6311 N   0  0  0  0  0  0  0  0  0  0  0  0
   10.9251   19.2574   54.1427 N   0  0  0  0  0  0  0  0  0  0  0  0
    2.8447   16.5255   49.7741 O   0  0  0  0  0  0  0  0  0  0  0  0
    5.9427   21.2797   52.4878 C   0  0  2  0  0  0  0  0  0  0  0  0
    9.6158   19.6965   54.0952 C   0  0  0  0  0  0  0  0  0  0  0  0
    8.6384   18.7913   54.0047 N   0  0  0  0  0  0  0  0  0  0  0  0
    5.4602   19.9620   52.0857 C   0  0  1  0  0  0  0  0  0  0  0  0
    9.3512   21.1262   54.1390 C   0  0  0  0  0  0  0  0  0  0  0  0
    7.7336   23.6053   51.7353 O   0  0  0  0  0  0  0  0  0  0  0  0
    4.8649   18.9687   53.0195 C   0  0  0  0  0  0  0  0  0  0  0  0
   10.4564   21.9470   54.2368 C   0  0  0  0  0  0  0  0  0  0  0  0
    4.3102   17.7154   52.4930 C   0  0  0  0  0  0  0  0  0  0  0  0
    7.9454   21.6675   54.0468 C   0  0  0  0  0  0  0  0  0  0  0  0
    3.1293   17.9652   51.7108 O   0  0  0  0  0  0  0  0  0  0  0  0
  1  2  1  0  0  0  0
  1  8  2  0  0  0  0
  1 14  1  0  0  0  0
  2  3  2  0  0  0  0
  2  7  1  0  0  0  0
  3  4  1  0  0  0  0
  4  5  2  0  0  0  0
  5  6  1  0  0  0  0
  6  7  2  0  0  0  0
  9 16  1  0  0  0  0
 10 21  1  0  0  0  0
 11 13  1  6  0  0  0
 11 17  1  0  0  0  0
 11 20  2  0  0  0  0
 11 31  1  0  0  0  0
 12 16  2  0  0  0  0
 12 28  1  0  0  0  0
 15 26  1  0  0  0  0
 15 18  1  0  0  0  0
 16 19  1  0  0  0  0
 18 30  1  0  0  0  0
 19 22  2  0  0  0  0
 21 18  1  6  0  0  0
 21 24  1  0  0  0  0
 22 23  1  0  0  0  0
 22 25  1  0  0  0  0
 24 14  1  6  0  0  0
 24 27  1  0  0  0  0
 25 28  2  0  0  0  0
 25 30  1  0  0  0  0
 27 29  1  0  0  0  0
 29 31  1  0  0  0  0
M  CHG  1  17  -1
M  END
>  <CHROM.1>
84.09853820,-167.45738996,96.64121228,93.52581629,-79.24114670,-60.91465358
103.54501021,-4.43353952,-78.33611985,-67.84863448,-175.82775537,157.90944476
6.55293906,19.39507730,51.48081447,-2.63491314,0.39122873,1.42063445

>  <Name>
ligand

>  <RI>
0

>  <Rbt.Current_Directory>
/home/itssahil/PROJECTS/Mol_Feturizer/New_Systems/rnas/2HOO

>  <Rbt.Executable>
rbdock ($Id: //depot/dev/client3/rdock/2013.1/src/exe/rbdock.cxx#4 $)

>  <Rbt.Library>
libRbt.so (2013.1, Build901 2013/11/27)

>  <Rbt.Parameter_File>
/export/apps/rDock/src/rDock_2013.1_src/data/scripts/dock_solv.prm

>  <Rbt.Receptor>
prm/pocket_docking_4.prm

>  <SCORE>
-28.7985

>  <SCORE.INTER>
-17.4387

>  <SCORE.INTER.CONST>
1

>  <SCORE.INTER.POLAR>
0

>  <SCORE.INTER.ROT>
12

>  <SCORE.INTER.SOLV>
16.3995

>  <SCORE.INTER.VDW>
-28.6923

>  <SCORE.INTER.norm>
-0.562538

>  <SCORE.INTRA>
-11.3599

>  <SCORE.INTRA.DIHEDRAL>
-1.47751

>  <SCORE.INTRA.DIHEDRAL.0>
14.6094

>  <SCORE.INTRA.POLAR>
0

>  <SCORE.INTRA.POLAR.0>
0

>  <SCORE.INTRA.REPUL>
0

>  <SCORE.INTRA.REPUL.0>
0

>  <SCORE.INTRA.SOLV>
4.64834

>  <SCORE.INTRA.SOLV.lig_0>
-65.6478

>  <SCORE.INTRA.VDW>
-12.9453

>  <SCORE.INTRA.VDW.0>
9.35535

>  <SCORE.INTRA.norm>
-0.366447

>  <SCORE.RESTR>
0

>  <SCORE.RESTR.CAVITY>
0

>  <SCORE.RESTR.norm>
0

>  <SCORE.SYSTEM>
0

>  <SCORE.SYSTEM.CONST>
0

>  <SCORE.SYSTEM.DIHEDRAL>
0

>  <SCORE.SYSTEM.SOLV>
0

>  <SCORE.SYSTEM.norm>
0

>  <SCORE.heavy>
31

>  <SCORE.norm>
-0.928985

>  <RMSD>
2.830

$$$$
ligand
 OpenBabel11021811443D
libRbt.so/2013.1/901 2013/11/27
 31 32  0  0  0  0  0  0  0  0999 V2000
    7.3995   17.1202   50.7991 C   0  0  0  0  0  0  0  0  0  0  0  0
    8.2930   16.7904   49.6071 C   0  0  0  0  0  0  0  0  0  0  0  0
    7.8224   15.9124   48.5776 C   0  0  0  0  0  0  0  0  0  0  0  0
    8.6573   15.6076   47.4759 C   0  0  0  0  0  0  0  0  0  0  0  0
    9.9537   16.1699   47.3788 C   0  0  0  0  0  0  0  0  0  0  0  0
   10.4309   17.0407   48.3794 C   0  0  0  0  0  0  0  0  0  0  0  0
    9.6172   17.3545   49.4829 C   0  0  0  0  0  0  0  0  0  0  0  0
    7.4761   16.4499   51.8283 O   0  0  0  0  0  0  0  0  0  0  0  0
   13.1528   20.0739   54.6232 C   0  0  0  0  0  0  0  0  0  0  0  0
    4.7907   21.1217   51.7561 C   0  0  0  0  0  0  0  0  0  0  0  0
    1.2647   17.3135   54.3878 P   0  0  1  0  0  0  0  0  0  0  0  0
   11.3605   21.6139   54.2356 N   0  0  0  0  0  0  0  0  0  0  0  0
    1.5710   18.0566   55.6251 O   0  0  0  0  0  0  0  0  0  0  0  0
    6.4981   18.1687   50.7364 S   0  0  0  0  0  0  0  0  0  0  0  0
    6.7527   20.2654   54.4531 C   0  0  0  0  0  0  0  0  0  0  0  0
   11.8292   20.3302   54.0697 C   0  0  0  0  0  0  0  0  0  0  0  0
    0.8399   15.9035   54.6017 O   0  5  0  0  0  0  0  0  0  0  0  0
    6.7988   20.6739   53.1608 N   0  0  0  0  0  0  0  0  0  0  0  0
   11.1704   19.3888   53.4699 N   0  0  0  0  0  0  0  0  0  0  0  0
    0.3275   18.0895   53.5431 O   0  0  0  0  0  0  0  0  0  0  0  0
    5.7620   20.1034   52.2888 C   0  0  2  0  0  0  0  0  0  0  0  0
    9.9187   19.6404   52.9414 C   0  0  0  0  0  0  0  0  0  0  0  0
    9.2706   18.6481   52.3264 N   0  0  0  0  0  0  0  0  0  0  0  0
    5.6147   18.7054   51.8952 C   0  0  1  0  0  0  0  0  0  0  0  0
    9.3569   20.9761   53.0686 C   0  0  0  0  0  0  0  0  0  0  0  0
    6.5311   21.1762   55.2205 O   0  0  0  0  0  0  0  0  0  0  0  0
    4.6593   17.7553   52.5255 C   0  0  0  0  0  0  0  0  0  0  0  0
   10.1351   21.9031   53.7318 C   0  0  0  0  0  0  0  0  0  0  0  0
    3.3267   18.2220   52.9281 C   0  0  0  0  0  0  0  0  0  0  0  0
    8.0138   21.3226   52.4738 C   0  0  0  0  0  0  0  0  0  0  0  0
    2.5720   17.1585   53.5348 O   0  0  0  0  0  0  0  0  0  0  0  0
  1  2  1  0  0  0  0
  1  8  2  0  0  0  0
  1 14  1  0  0  0  0
  2  3  2  0  0  0  0
  2  7  1  0  0  0  0
  3  4  1  0  0  0  0
  4  5  2  0  0  0  0
  5  6  1  0  0  0  0
  6  7  2  0  0  0  0
  9 16  1  0  0  0  0
 10 21  1  0  0  0  0
 11 13  1  1  0  0  0
 11 17  1  0  0  0  0
 11 20  2  0  0  0  0
 11 31  1  0  0  0  0
 12 16  2  0  0  0  0
 12 28  1  0  0  0  0
 15 26  1  0  0  0  0
 15 18  1  0  0  0  0
 16 19  1  0  0  0  0
 18 30  1  0  0  0  0
 19 22  2  0  0  0  0
 21 18  1  6  0  0  0
 21 24  1  0  0  0  0
 22 23  1  0  0  0  0
 22 25  1  0  0  0  0
 24 14  1  6  0  0  0
 24 27  1  0  0  0  0
 25 28  2  0  0  0  0
 25 30  1  0  0  0  0
 27 29  1  0  0  0  0
 29 31  1  0  0  0  0
M  CHG  1  17  -1
M  END
>  <CHROM.1>
92.84792283,-174.27193345,121.01478710,-116.70768284,114.85766619,25.67431178
97.88864837,-141.39589615,69.77040011,-179.01850909,164.68001454,-64.62701633
6.69658887,18.62037731,52.44715199,0.07584785,-0.28248545,-2.23641481

>  <Name>
ligand

>  <RI>
0

>  <Rbt.Current_Directory>
/home/itssahil/PROJECTS/Mol_Feturizer/New_Systems/rnas/2HOO

>  <Rbt.Executable>
rbdock ($Id: //depot/dev/client3/rdock/2013.1/src/exe/rbdock.cxx#4 $)

>  <Rbt.Library>
libRbt.so (2013.1, Build901 2013/11/27)

>  <Rbt.Parameter_File>
/export/apps/rDock/src/rDock_2013.1_src/data/scripts/dock_solv.prm

>  <Rbt.Receptor>
prm/blind_docking_80.prm

>  <SCORE>
-26.1841

>  <SCORE.INTER>
-16.2867

>  <SCORE.INTER.CONST>
1

>  <SCORE.INTER.POLAR>
0

>  <SCORE.INTER.ROT>
12

>  <SCORE.INTER.SOLV>
13.2184

>  <SCORE.INTER.VDW>
-26.864

>  <SCORE.INTER.norm>
-0.525379

>  <SCORE.INTRA>
-10.8355

>  <SCORE.INTRA.DIHEDRAL>
0.195586

>  <SCORE.INTRA.DIHEDRAL.0>
14.6094

>  <SCORE.INTRA.POLAR>
0

>  <SCORE.INTRA.POLAR.0>
0

>  <SCORE.INTRA.REPUL>
0

>  <SCORE.INTRA.REPUL.0>
0

>  <SCORE.INTRA.SOLV>
7.39894

>  <SCORE.INTRA.SOLV.lig_0>
-65.6478

>  <SCORE.INTRA.VDW>
-14.6328

>  <SCORE.INTRA.VDW.0>
9.35535

>  <SCORE.INTRA.norm>
-0.349532

>  <SCORE.RESTR>
0.938083

>  <SCORE.RESTR.CAVITY>
0.938083

>  <SCORE.RESTR.norm>
0.0302607

>  <SCORE.SYSTEM>
0

>  <SCORE.SYSTEM.CONST>
0

>  <SCORE.SYSTEM.DIHEDRAL>
0

>  <SCORE.SYSTEM.SOLV>
0

>  <SCORE.SYSTEM.norm>
0

>  <SCORE.heavy>
31

>  <SCORE.norm>
-0.84465

>  <RMSD>
2.845

$$$$
ligand
 OpenBabel11021811443D
libRbt.so/2013.1/901 2013/11/27
 31 32  0  0  0  0  0  0  0  0999 V2000
    6.1996   17.5487   48.3199 C   0  0  0  0  0  0  0  0  0  0  0  0
    5.7820   16.1302   48.6960 C   0  0  0  0  0  0  0  0  0  0  0  0
    6.7772   15.1295   48.9415 C   0  0  0  0  0  0  0  0  0  0  0  0
    6.3834   13.8143   49.2867 C   0  0  0  0  0  0  0  0  0  0  0  0
    5.0115   13.4805   49.3987 C   0  0  0  0  0  0  0  0  0  0  0  0
    4.0187   14.4541   49.1667 C   0  0  0  0  0  0  0  0  0  0  0  0
    4.3896   15.7659   48.8208 C   0  0  0  0  0  0  0  0  0  0  0  0
    6.3183   17.8605   47.1354 O   0  0  0  0  0  0  0  0  0  0  0  0
   13.9391   19.6420   55.1453 C   0  0  0  0  0  0  0  0  0  0  0  0
    9.0258   18.3375   50.8528 C   0  0  0  0  0  0  0  0  0  0  0  0
    2.0762   17.4482   51.9822 P   0  0  1  0  0  0  0  0  0  0  0  0
   11.8967   18.7212   54.2997 N   0  0  0  0  0  0  0  0  0  0  0  0
    1.8063   18.3061   50.8125 O   0  0  0  0  0  0  0  0  0  0  0  0
    6.4494   18.4938   49.2998 S   0  0  0  0  0  0  0  0  0  0  0  0
    7.6094   17.9665   53.8775 C   0  0  0  0  0  0  0  0  0  0  0  0
   12.5867   19.8605   54.6477 C   0  0  0  0  0  0  0  0  0  0  0  0
    0.9656   17.3811   52.9701 O   0  5  0  0  0  0  0  0  0  0  0  0
    7.8446   18.9390   52.9621 N   0  0  0  0  0  0  0  0  0  0  0  0
   12.1030   21.0593   54.5541 N   0  0  0  0  0  0  0  0  0  0  0  0
    2.5542   16.1171   51.5416 O   0  0  0  0  0  0  0  0  0  0  0  0
    7.7100   18.5209   51.5592 C   0  0  2  0  0  0  0  0  0  0  0  0
   10.8176   21.2588   54.0879 C   0  0  0  0  0  0  0  0  0  0  0  0
   10.3504   22.5072   54.0088 N   0  0  0  0  0  0  0  0  0  0  0  0
    6.4704   18.2581   50.8344 C   0  0  1  0  0  0  0  0  0  0  0  0
   10.0200   20.1035   53.7072 C   0  0  0  0  0  0  0  0  0  0  0  0
    6.7577   18.2800   54.6798 O   0  0  0  0  0  0  0  0  0  0  0  0
    5.2119   17.7877   51.4730 C   0  0  0  0  0  0  0  0  0  0  0  0
   10.6310   18.8727   53.8366 C   0  0  0  0  0  0  0  0  0  0  0  0
    4.4238   18.7122   52.2976 C   0  0  0  0  0  0  0  0  0  0  0  0
    8.5954   20.2551   53.2326 C   0  0  0  0  0  0  0  0  0  0  0  0
    3.2517   18.0624   52.8199 O   0  0  0  0  0  0  0  0  0  0  0  0
  1  2  1  0  0  0  0
  1  8  2  0  0  0  0
  1 14  1  0  0  0  0
  2  3  2  0  0  0  0
  2  7  1  0  0  0  0
  3  4  1  0  0  0  0
  4  5  2  0  0  0  0
  5  6  1  0  0  0  0
  6  7  2  0  0  0  0
  9 16  1  0  0  0  0
 10 21  1  0  0  0  0
 11 13  1  6  0  0  0
 11 17  1  0  0  0  0
 11 20  2  0  0  0  0
 11 31  1  0  0  0  0
 12 16  2  0  0  0  0
 12 28  1  0  0  0  0
 15 26  1  0  0  0  0
 15 18  1  0  0  0  0
 16 19  1  0  0  0  0
 18 30  1  0  0  0  0
 19 22  2  0  0  0  0
 21 18  1  1  0  0  0
 21 24  1  0  0  0  0
 22 23  1  0  0  0  0
 22 25  1  0  0  0  0
 24 14  1  1  0  0  0
 24 27  1  0  0  0  0
 25 28  2  0  0  0  0
 25 30  1  0  0  0  0
 27 29  1  0  0  0  0
 29 31  1  0  0  0  0
M  CHG  1  17  -1
M  END
>  <CHROM.1>
91.88241253,5.51898901,119.15143322,-124.90215068,-104.69741874,59.86045091
-30.03965861,-106.86859219,-175.76003368,-179.95790021,-61.72899901,-37.87812540
6.73321439,18.07633491,51.74344443,-2.56738425,0.13029299,1.01499872

>  <Name>
ligand

>  <RI>
0

>  <Rbt.Current_Directory>
/home/itssahil/PROJECTS/Mol_Feturizer/New_Systems/rnas/2HOO

>  <Rbt.Executable>
rbdock ($Id: //depot/dev/client3/rdock/2013.1/src/exe/rbdock.cxx#4 $)

>  <Rbt.Library>
libRbt.so (2013.1, Build901 2013/11/27)

>  <Rbt.Parameter_File>
/export/apps/rDock/src/rDock_2013.1_src/data/scripts/dock_solv.prm

>  <Rbt.Receptor>
prm/pocket_docking_4.prm

>  <SCORE>
-33.5171

>  <SCORE.INTER>
-20.1095

>  <SCORE.INTER.CONST>
1

>  <SCORE.INTER.POLAR>
0

>  <SCORE.INTER.ROT>
12

>  <SCORE.INTER.SOLV>
16.0701

>  <SCORE.INTER.VDW>
-30.363

>  <SCORE.INTER.norm>
-0.648692

>  <SCORE.INTRA>
-13.4077

>  <SCORE.INTRA.DIHEDRAL>
-1.59913

>  <SCORE.INTRA.DIHEDRAL.0>
14.6094

>  <SCORE.INTRA.POLAR>
0

>  <SCORE.INTRA.POLAR.0>
0

>  <SCORE.INTRA.REPUL>
0

>  <SCORE.INTRA.REPUL.0>
0

>  <SCORE.INTRA.SOLV>
0.380536

>  <SCORE.INTRA.SOLV.lig_0>
-65.6478

>  <SCORE.INTRA.VDW>
-12.7984

>  <SCORE.INTRA.VDW.0>
9.35535

>  <SCORE.INTRA.norm>
-0.432506

>  <SCORE.RESTR>
0

>  <SCORE.RESTR.CAVITY>
0

>  <SCORE.RESTR.norm>
0

>  <SCORE.SYSTEM>
0

>  <SCORE.SYSTEM.CONST>
0

>  <SCORE.SYSTEM.DIHEDRAL>
0

>  <SCORE.SYSTEM.SOLV>
0

>  <SCORE.SYSTEM.norm>
0

>  <SCORE.heavy>
31

>  <SCORE.norm>
-1.0812

>  <RMSD>
2.863

$$$$
ligand
 OpenBabel11021811443D
libRbt.so/2013.1/901 2013/11/27
 31 32  0  0  0  0  0  0  0  0999 V2000
    6.1352   17.5969   49.4660 C   0  0  0  0  0  0  0  0  0  0  0  0
    7.6561   17.6163   49.3446 C   0  0  0  0  0  0  0  0  0  0  0  0
    8.4711   17.5954   50.5225 C   0  0  0  0  0  0  0  0  0  0  0  0
    9.8815   17.6169   50.4035 C   0  0  0  0  0  0  0  0  0  0  0  0
   10.4951   17.6517   49.1274 C   0  0  0  0  0  0  0  0  0  0  0  0
    9.7087   17.6665   47.9575 C   0  0  0  0  0  0  0  0  0  0  0  0
    8.3058   17.6474   48.0547 C   0  0  0  0  0  0  0  0  0  0  0  0
    5.5270   16.5294   49.3966 O   0  0  0  0  0  0  0  0  0  0  0  0
   12.8846   19.5218   54.1932 C   0  0  0  0  0  0  0  0  0  0  0  0
    4.5994   21.5238   52.1777 C   0  0  0  0  0  0  0  0  0  0  0  0
    1.5442   16.1661   51.8714 P   0  0  1  0  0  0  0  0  0  0  0  0
   11.0771   20.9624   53.5671 N   0  0  0  0  0  0  0  0  0  0  0  0
    1.0383   16.9534   50.7308 O   0  0  0  0  0  0  0  0  0  0  0  0
    5.4274   18.7716   49.6527 S   0  0  0  0  0  0  0  0  0  0  0  0
    7.6078   21.0332   50.9283 C   0  0  0  0  0  0  0  0  0  0  0  0
   11.4498   19.7223   54.0344 C   0  0  0  0  0  0  0  0  0  0  0  0
    0.4855   15.5810   52.7380 O   0  5  0  0  0  0  0  0  0  0  0  0
    6.8755   20.5358   51.9556 N   0  0  0  0  0  0  0  0  0  0  0  0
   10.6144   18.7744   54.3238 N   0  0  0  0  0  0  0  0  0  0  0  0
    2.5406   15.1733   51.4066 O   0  0  0  0  0  0  0  0  0  0  0  0
    5.4401   20.3793   51.6801 C   0  0  2  0  0  0  0  0  0  0  0  0
    9.2556   18.9689   54.1645 C   0  0  0  0  0  0  0  0  0  0  0  0
    8.4245   17.9689   54.4684 N   0  0  0  0  0  0  0  0  0  0  0  0
    4.7940   19.2742   50.9784 C   0  0  1  0  0  0  0  0  0  0  0  0
    8.7820   20.2509   53.6666 C   0  0  0  0  0  0  0  0  0  0  0  0
    8.5402   20.3183   50.6336 O   0  0  0  0  0  0  0  0  0  0  0  0
    3.5530   18.5993   51.4443 C   0  0  0  0  0  0  0  0  0  0  0  0
    9.7519   21.1950   53.3968 C   0  0  0  0  0  0  0  0  0  0  0  0
    3.5982   17.7237   52.6220 C   0  0  0  0  0  0  0  0  0  0  0  0
    7.3135   20.5073   53.4308 C   0  0  0  0  0  0  0  0  0  0  0  0
    2.3180   17.1112   52.8558 O   0  0  0  0  0  0  0  0  0  0  0  0
  1  2  1  0  0  0  0
  1  8  2  0  0  0  0
  1 14  1  0  0  0  0
  2  3  2  0  0  0  0
  2  7  1  0  0  0  0
  3  4  1  0  0  0  0
  4  5  2  0  0  0  0
  5  6  1  0  0  0  0
  6  7  2  0  0  0  0
  9 16  1  0  0  0  0
 10 21  1  0  0  0  0
 11 13  1  6  0  0  0
 11 17  1  0  0  0  0
 11 20  2  0  0  0  0
 11 31  1  0  0  0  0
 12 16  2  0  0  0  0
 12 28  1  0  0  0  0
 15 26  1  0  0  0  0
 15 18  1  0  0  0  0
 16 19  1  0  0  0  0
 18 30  1  0  0  0  0
 19 22  2  0  0  0  0
 21 18  1  6  0  0  0
 21 24  1  0  0  0  0
 22 23  1  0  0  0  0
 22 25  1  0  0  0  0
 24 14  1  6  0  0  0
 24 27  1  0  0  0  0
 25 28  2  0  0  0  0
 25 30  1  0  0  0  0
 27 29  1  0  0  0  0
 29 31  1  0  0  0  0
M  CHG  1  17  -1
M  END
>  <CHROM.1>
-94.94310591,-103.87745499,106.20786325,-125.07059035,-97.09196480,-36.24588500
133.08873066,108.97757289,-106.07135478,-176.58847033,60.41736239,-71.14958353
6.47085384,18.49215133,51.61488572,-2.89657969,0.26670889,1.18207816

>  <Name>
ligand

>  <RI>
0

>  <Rbt.Current_Directory>
/home/itssahil/PROJECTS/Mol_Feturizer/New_Systems/rnas/2HOO

>  <Rbt.Executable>
rbdock ($Id: //depot/dev/client3/rdock/2013.1/src/exe/rbdock.cxx#4 $)

>  <Rbt.Library>
libRbt.so (2013.1, Build901 2013/11/27)

>  <Rbt.Parameter_File>
/export/apps/rDock/src/rDock_2013.1_src/data/scripts/dock_solv.prm

>  <Rbt.Receptor>
prm/blind_docking_100.prm

>  <SCORE>
-30.7103

>  <SCORE.INTER>
-18.2951

>  <SCORE.INTER.CONST>
1

>  <SCORE.INTER.POLAR>
0

>  <SCORE.INTER.ROT>
12

>  <SCORE.INTER.SOLV>
19.3421

>  <SCORE.INTER.VDW>
-30.2441

>  <SCORE.INTER.norm>
-0.590164

>  <SCORE.INTRA>
-13.387

>  <SCORE.INTRA.DIHEDRAL>
1.54116

>  <SCORE.INTRA.DIHEDRAL.0>
14.6094

>  <SCORE.INTRA.POLAR>
0

>  <SCORE.INTRA.POLAR.0>
0

>  <SCORE.INTRA.REPUL>
0

>  <SCORE.INTRA.REPUL.0>
0

>  <SCORE.INTRA.SOLV>
1.41475

>  <SCORE.INTRA.SOLV.lig_0>
-65.6478

>  <SCORE.INTRA.VDW>
-14.8649

>  <SCORE.INTRA.VDW.0>
9.35535

>  <SCORE.INTRA.norm>
-0.431838

>  <SCORE.RESTR>
0.971807

>  <SCORE.RESTR.CAVITY>
0.971807

>  <SCORE.RESTR.norm>
0.0313486

>  <SCORE.SYSTEM>
0

>  <SCORE.SYSTEM.CONST>
0

>  <SCORE.SYSTEM.DIHEDRAL>
0

>  <SCORE.SYSTEM.SOLV>
0

>  <SCORE.SYSTEM.norm>
0

>  <SCORE.heavy>
31

>  <SCORE.norm>
-0.990654

>  <RMSD>
2.966

$$$$
ligand
 OpenBabel11021811443D
libRbt.so/2013.1/901 2013/11/27
 31 32  0  0  0  0  0  0  0  0999 V2000
    7.3229   18.3910   49.8247 C   0  0  0  0  0  0  0  0  0  0  0  0
    7.8949   17.4438   48.7742 C   0  0  0  0  0  0  0  0  0  0  0  0
    7.3148   16.1480   48.5832 C   0  0  0  0  0  0  0  0  0  0  0  0
    7.8520   15.2724   47.6093 C   0  0  0  0  0  0  0  0  0  0  0  0
    8.9558   15.6699   46.8156 C   0  0  0  0  0  0  0  0  0  0  0  0
    9.5353   16.9436   46.9856 C   0  0  0  0  0  0  0  0  0  0  0  0
    9.0172   17.8273   47.9492 C   0  0  0  0  0  0  0  0  0  0  0  0
    7.9103   18.5487   50.8946 O   0  0  0  0  0  0  0  0  0  0  0  0
   11.9486   21.4962   54.3730 C   0  0  0  0  0  0  0  0  0  0  0  0
    3.5649   21.1602   51.3813 C   0  0  0  0  0  0  0  0  0  0  0  0
    0.8241   16.3598   52.1426 P   0  0  1  0  0  0  0  0  0  0  0  0
   10.1333   20.5102   53.1619 N   0  0  0  0  0  0  0  0  0  0  0  0
    0.5270   14.9357   51.8963 O   0  0  0  0  0  0  0  0  0  0  0  0
    6.1446   19.0777   49.5886 S   0  0  0  0  0  0  0  0  0  0  0  0
    5.9670   19.9671   53.4834 C   0  0  0  0  0  0  0  0  0  0  0  0
   10.6399   21.6473   53.7497 C   0  0  0  0  0  0  0  0  0  0  0  0
   -0.2319   17.3012   51.6815 O   0  5  0  0  0  0  0  0  0  0  0  0
    5.8036   20.7687   52.4019 N   0  0  0  0  0  0  0  0  0  0  0  0
   10.0273   22.7894   53.7683 N   0  0  0  0  0  0  0  0  0  0  0  0
    1.2191   16.5635   53.5557 O   0  0  0  0  0  0  0  0  0  0  0  0
    4.8034   20.3069   51.4285 C   0  0  2  0  0  0  0  0  0  0  0  0
    8.7837   22.9241   53.1813 C   0  0  0  0  0  0  0  0  0  0  0  0
    8.1799   24.1143   53.2233 N   0  0  0  0  0  0  0  0  0  0  0  0
    4.9129   19.1613   50.5305 C   0  0  1  0  0  0  0  0  0  0  0  0
    8.1764   21.7649   52.5461 C   0  0  0  0  0  0  0  0  0  0  0  0
    5.6771   20.5217   54.5206 O   0  0  0  0  0  0  0  0  0  0  0  0
    3.9103   18.0655   50.4468 C   0  0  0  0  0  0  0  0  0  0  0  0
    8.9147   20.5992   52.5736 C   0  0  0  0  0  0  0  0  0  0  0  0
    2.7922   18.0271   51.3976 C   0  0  0  0  0  0  0  0  0  0  0  0
    6.8020   21.8394   51.9269 C   0  0  0  0  0  0  0  0  0  0  0  0
    2.0696   16.7881   51.2905 O   0  0  0  0  0  0  0  0  0  0  0  0
  1  2  1  0  0  0  0
  1  8  2  0  0  0  0
  1 14  1  0  0  0  0
  2  3  2  0  0  0  0
  2  7  1  0  0  0  0
  3  4  1  0  0  0  0
  4  5  2  0  0  0  0
  5  6  1  0  0  0  0
  6  7  2  0  0  0  0
  9 16  1  0  0  0  0
 10 21  1  0  0  0  0
 11 13  1  6  0  0  0
 11 17  1  0  0  0  0
 11 20  2  0  0  0  0
 11 31  1  0  0  0  0
 12 16  2  0  0  0  0
 12 28  1  0  0  0  0
 15 26  1  0  0  0  0
 15 18  1  0  0  0  0
 16 19  1  0  0  0  0
 18 30  1  0  0  0  0
 19 22  2  0  0  0  0
 21 18  1  6  0  0  0
 21 24  1  0  0  0  0
 22 23  1  0  0  0  0
 22 25  1  0  0  0  0
 24 14  1  6  0  0  0
 24 27  1  0  0  0  0
 25 28  2  0  0  0  0
 25 30  1  0  0  0  0
 27 29  1  0  0  0  0
 29 31  1  0  0  0  0
M  CHG  1  17  -1
M  END
>  <CHROM.1>
103.47828915,130.03486319,95.21080288,-117.42712157,110.36983640,13.73528225
124.28517107,174.35709268,-127.25697683,-170.62716319,179.31126300,-170.07599924
5.96936125,19.01129980,51.40910422,-0.44512270,-0.32614090,-2.33765666

>  <Name>
ligand

>  <RI>
0

>  <Rbt.Current_Directory>
/home/itssahil/PROJECTS/Mol_Feturizer/New_Systems/rnas/2HOO

>  <Rbt.Executable>
rbdock ($Id: //depot/dev/client3/rdock/2013.1/src/exe/rbdock.cxx#4 $)

>  <Rbt.Library>
libRbt.so (2013.1, Build901 2013/11/27)

>  <Rbt.Parameter_File>
/export/apps/rDock/src/rDock_2013.1_src/data/scripts/dock_solv.prm

>  <Rbt.Receptor>
prm/pocket_docking_4.prm

>  <SCORE>
-27.8057

>  <SCORE.INTER>
-16.5202

>  <SCORE.INTER.CONST>
1

>  <SCORE.INTER.POLAR>
0

>  <SCORE.INTER.ROT>
12

>  <SCORE.INTER.SOLV>
12.7153

>  <SCORE.INTER.VDW>
-26.8519

>  <SCORE.INTER.norm>
-0.532911

>  <SCORE.INTRA>
-11.2854

>  <SCORE.INTRA.DIHEDRAL>
3.78973

>  <SCORE.INTRA.DIHEDRAL.0>
14.6094

>  <SCORE.INTRA.POLAR>
0

>  <SCORE.INTRA.POLAR.0>
0

>  <SCORE.INTRA.REPUL>
0

>  <SCORE.INTRA.REPUL.0>
0

>  <SCORE.INTRA.SOLV>
0.425685

>  <SCORE.INTRA.SOLV.lig_0>
-65.6478

>  <SCORE.INTRA.VDW>
-13.3931

>  <SCORE.INTRA.VDW.0>
9.35535

>  <SCORE.INTRA.norm>
-0.364047

>  <SCORE.RESTR>
0

>  <SCORE.RESTR.CAVITY>
0

>  <SCORE.RESTR.norm>
0

>  <SCORE.SYSTEM>
0

>  <SCORE.SYSTEM.CONST>
0

>  <SCORE.SYSTEM.DIHEDRAL>
0

>  <SCORE.SYSTEM.SOLV>
0

>  <SCORE.SYSTEM.norm>
0

>  <SCORE.heavy>
31

>  <SCORE.norm>
-0.896958

>  <RMSD>
3.093

$$$$
ligand
 OpenBabel11021811443D
libRbt.so/2013.1/901 2013/11/27
 31 32  0  0  0  0  0  0  0  0999 V2000
    3.4024   19.1209   51.2343 C   0  0  0  0  0  0  0  0  0  0  0  0
    2.2437   18.1878   51.5732 C   0  0  0  0  0  0  0  0  0  0  0  0
    0.9336   18.7216   51.7983 C   0  0  0  0  0  0  0  0  0  0  0  0
   -0.1366   17.8511   52.1156 C   0  0  0  0  0  0  0  0  0  0  0  0
    0.0756   16.4536   52.2057 C   0  0  0  0  0  0  0  0  0  0  0  0
    1.3569   15.9103   51.9813 C   0  0  0  0  0  0  0  0  0  0  0  0
    2.4336   16.7587   51.6667 C   0  0  0  0  0  0  0  0  0  0  0  0
    3.1821   20.1987   50.6827 O   0  0  0  0  0  0  0  0  0  0  0  0
   13.8706   19.0965   54.8479 C   0  0  0  0  0  0  0  0  0  0  0  0
    5.8206   21.7389   52.5993 C   0  0  0  0  0  0  0  0  0  0  0  0
    2.0450   20.0059   55.4368 P   0  0  1  0  0  0  0  0  0  0  0  0
   11.5835   18.7525   54.2273 N   0  0  0  0  0  0  0  0  0  0  0  0
    1.2080   20.0175   54.2219 O   0  0  0  0  0  0  0  0  0  0  0  0
    4.7053   18.7677   51.5400 S   0  0  0  0  0  0  0  0  0  0  0  0
    8.3687   19.9436   51.3647 C   0  0  0  0  0  0  0  0  0  0  0  0
   12.5668   19.6663   54.5325 C   0  0  0  0  0  0  0  0  0  0  0  0
    2.2026   21.3322   56.0928 O   0  5  0  0  0  0  0  0  0  0  0  0
    7.8773   20.3336   52.5670 N   0  0  0  0  0  0  0  0  0  0  0  0
   12.3853   20.9496   54.5489 N   0  0  0  0  0  0  0  0  0  0  0  0
    1.5908   18.9414   56.3614 O   0  0  0  0  0  0  0  0  0  0  0  0
    6.4107   20.3562   52.6638 C   0  0  2  0  0  0  0  0  0  0  0  0
   11.1448   21.4829   54.2554 C   0  0  0  0  0  0  0  0  0  0  0  0
   10.9931   22.8092   54.2862 N   0  0  0  0  0  0  0  0  0  0  0  0
    5.5191   19.2070   52.7873 C   0  0  1  0  0  0  0  0  0  0  0  0
   10.0504   20.5814   53.9307 C   0  0  0  0  0  0  0  0  0  0  0  0
    8.9837   18.9020   51.4300 O   0  0  0  0  0  0  0  0  0  0  0  0
    5.3261   18.4292   54.0406 C   0  0  0  0  0  0  0  0  0  0  0  0
   10.3506   19.2343   53.9326 C   0  0  0  0  0  0  0  0  0  0  0  0
    3.9895   18.3345   54.6406 C   0  0  0  0  0  0  0  0  0  0  0  0
    8.6631   21.1022   53.6443 C   0  0  0  0  0  0  0  0  0  0  0  0
    3.5185   19.6298   55.0520 O   0  0  0  0  0  0  0  0  0  0  0  0
  1  2  1  0  0  0  0
  1  8  2  0  0  0  0
  1 14  1  0  0  0  0
  2  3  2  0  0  0  0
  2  7  1  0  0  0  0
  3  4  1  0  0  0  0
  4  5  2  0  0  0  0
  5  6  1  0  0  0  0
  6  7  2  0  0  0  0
  9 16  1  0  0  0  0
 10 21  1  0  0  0  0
 11 13  1  6  0  0  0
 11 17  1  0  0  0  0
 11 20  2  0  0  0  0
 11 31  1  0  0  0  0
 12 16  2  0  0  0  0
 12 28  1  0  0  0  0
 15 26  1  0  0  0  0
 15 18  1  0  0  0  0
 16 19  1  0  0  0  0
 18 30  1  0  0  0  0
 19 22  2  0  0  0  0
 21 18  1  6  0  0  0
 21 24  1  0  0  0  0
 22 23  1  0  0  0  0
 22 25  1  0  0  0  0
 24 14  1  1  0  0  0
 24 27  1  0  0  0  0
 25 28  2  0  0  0  0
 25 30  1  0  0  0  0
 27 29  1  0  0  0  0
 29 31  1  0  0  0  0
M  CHG  1  17  -1
M  END
>  <CHROM.1>
-26.64222870,-97.29808190,-95.78801227,-115.00855332,-103.78049878,-45.82011596
74.02210979,-59.10528000,144.30805766,-63.29064708,165.58938582,-71.54652325
5.70270655,19.49600798,53.36124680,-2.99852902,0.11692836,1.07747297

>  <Name>
ligand

>  <RI>
0

>  <Rbt.Current_Directory>
/home/itssahil/PROJECTS/Mol_Feturizer/New_Systems/rnas/2HOO

>  <Rbt.Executable>
rbdock ($Id: //depot/dev/client3/rdock/2013.1/src/exe/rbdock.cxx#4 $)

>  <Rbt.Library>
libRbt.so (2013.1, Build901 2013/11/27)

>  <Rbt.Parameter_File>
/export/apps/rDock/src/rDock_2013.1_src/data/scripts/dock_solv.prm

>  <Rbt.Receptor>
prm/pocket_docking_3.prm

>  <SCORE>
-31.4711

>  <SCORE.INTER>
-19.1382

>  <SCORE.INTER.CONST>
1

>  <SCORE.INTER.POLAR>
0

>  <SCORE.INTER.ROT>
12

>  <SCORE.INTER.SOLV>
20.753

>  <SCORE.INTER.VDW>
-31.2764

>  <SCORE.INTER.norm>
-0.617361

>  <SCORE.INTRA>
-12.3397

>  <SCORE.INTRA.DIHEDRAL>
5.32337

>  <SCORE.INTRA.DIHEDRAL.0>
14.6094

>  <SCORE.INTRA.POLAR>
0

>  <SCORE.INTRA.POLAR.0>
0

>  <SCORE.INTRA.REPUL>
0

>  <SCORE.INTRA.REPUL.0>
0

>  <SCORE.INTRA.SOLV>
-0.656503

>  <SCORE.INTRA.SOLV.lig_0>
-65.6478

>  <SCORE.INTRA.VDW>
-14.6731

>  <SCORE.INTRA.VDW.0>
9.35535

>  <SCORE.INTRA.norm>
-0.398055

>  <SCORE.RESTR>
0.0067469

>  <SCORE.RESTR.CAVITY>
0.0067469

>  <SCORE.RESTR.norm>
0.000217642

>  <SCORE.SYSTEM>
0

>  <SCORE.SYSTEM.CONST>
0

>  <SCORE.SYSTEM.DIHEDRAL>
0

>  <SCORE.SYSTEM.SOLV>
0

>  <SCORE.SYSTEM.norm>
0

>  <SCORE.heavy>
31

>  <SCORE.norm>
-1.0152

>  <RMSD>
3.099

$$$$
ligand
 OpenBabel11021811443D
libRbt.so/2013.1/901 2013/11/27
 31 32  0  0  0  0  0  0  0  0999 V2000
    6.2442   16.9312   50.6239 C   0  0  0  0  0  0  0  0  0  0  0  0
    7.5019   17.4583   49.9394 C   0  0  0  0  0  0  0  0  0  0  0  0
    8.7950   17.0360   50.3885 C   0  0  0  0  0  0  0  0  0  0  0  0
    9.9581   17.5312   49.7516 C   0  0  0  0  0  0  0  0  0  0  0  0
    9.8542   18.4368   48.6675 C   0  0  0  0  0  0  0  0  0  0  0  0
    8.5897   18.8584   48.2083 C   0  0  0  0  0  0  0  0  0  0  0  0
    7.4223   18.3792   48.8291 C   0  0  0  0  0  0  0  0  0  0  0  0
    5.7681   15.8484   50.2845 O   0  0  0  0  0  0  0  0  0  0  0  0
   13.1773   19.8750   54.4708 C   0  0  0  0  0  0  0  0  0  0  0  0
    4.7668   21.3910   52.4769 C   0  0  0  0  0  0  0  0  0  0  0  0
    2.3236   15.4453   50.2009 P   0  0  1  0  0  0  0  0  0  0  0  0
   11.0005   18.9383   54.1269 N   0  0  0  0  0  0  0  0  0  0  0  0
    0.9273   15.6592   49.7750 O   0  0  0  0  0  0  0  0  0  0  0  0
    5.6283   17.6603   51.6262 S   0  0  0  0  0  0  0  0  0  0  0  0
    7.7168   20.8623   51.1623 C   0  0  0  0  0  0  0  0  0  0  0  0
   11.7507   20.0850   54.2589 C   0  0  0  0  0  0  0  0  0  0  0  0
    2.4766   14.9560   51.5978 O   0  5  0  0  0  0  0  0  0  0  0  0
    7.0432   20.4054   52.2470 N   0  0  0  0  0  0  0  0  0  0  0  0
   11.2604   21.2836   54.2043 N   0  0  0  0  0  0  0  0  0  0  0  0
    3.0418   14.6172   49.2045 O   0  0  0  0  0  0  0  0  0  0  0  0
    5.5993   20.2128   52.0491 C   0  0  2  0  0  0  0  0  0  0  0  0
    9.9059   21.4754   54.0098 C   0  0  0  0  0  0  0  0  0  0  0  0
    9.4350   22.7240   53.9633 N   0  0  0  0  0  0  0  0  0  0  0  0
    4.9375   19.0432   51.4791 C   0  0  1  0  0  0  0  0  0  0  0  0
    9.0437   20.3123   53.8697 C   0  0  0  0  0  0  0  0  0  0  0  0
    8.6411   20.1431   50.8526 O   0  0  0  0  0  0  0  0  0  0  0  0
    3.6417   19.0881   50.7500 C   0  0  0  0  0  0  0  0  0  0  0  0
    9.6658   19.0821   53.9340 C   0  0  0  0  0  0  0  0  0  0  0  0
    2.6660   18.0060   50.9314 C   0  0  0  0  0  0  0  0  0  0  0  0
    7.5512   20.4577   53.6989 C   0  0  0  0  0  0  0  0  0  0  0  0
    3.0775   16.8206   50.2284 O   0  0  0  0  0  0  0  0  0  0  0  0
  1  2  1  0  0  0  0
  1  8  2  0  0  0  0
  1 14  1  0  0  0  0
  2  3  2  0  0  0  0
  2  7  1  0  0  0  0
  3  4  1  0  0  0  0
  4  5  2  0  0  0  0
  5  6  1  0  0  0  0
  6  7  2  0  0  0  0
  9 16  1  0  0  0  0
 10 21  1  0  0  0  0
 11 13  1  6  0  0  0
 11 17  1  0  0  0  0
 11 20  2  0  0  0  0
 11 31  1  0  0  0  0
 12 16  2  0  0  0  0
 12 28  1  0  0  0  0
 15 26  1  0  0  0  0
 15 18  1  0  0  0  0
 16 19  1  0  0  0  0
 18 30  1  0  0  0  0
 19 22  2  0  0  0  0
 21 18  1  6  0  0  0
 21 24  1  0  0  0  0
 22 23  1  0  0  0  0
 22 25  1  0  0  0  0
 24 14  1  6  0  0  0
 24 27  1  0  0  0  0
 25 28  2  0  0  0  0
 25 30  1  0  0  0  0
 27 29  1  0  0  0  0
 29 31  1  0  0  0  0
M  CHG  1  17  -1
M  END
>  <CHROM.1>
-84.33090355,65.24516875,-108.08761710,-124.57234891,-94.67451376,-33.01856054
-153.05786865,38.73291507,96.71286866,-74.87243441,178.59468732,53.93583739
6.69009656,18.46221253,51.49150944,-2.52942471,0.07064709,0.72580942

>  <Name>
ligand

>  <RI>
0

>  <Rbt.Current_Directory>
/home/itssahil/PROJECTS/Mol_Feturizer/New_Systems/rnas/2HOO

>  <Rbt.Executable>
rbdock ($Id: //depot/dev/client3/rdock/2013.1/src/exe/rbdock.cxx#4 $)

>  <Rbt.Library>
libRbt.so (2013.1, Build901 2013/11/27)

>  <Rbt.Parameter_File>
/export/apps/rDock/src/rDock_2013.1_src/data/scripts/dock_solv.prm

>  <Rbt.Receptor>
prm/pocket_docking_7.prm

>  <SCORE>
-32.6493

>  <SCORE.INTER>
-21.0528

>  <SCORE.INTER.CONST>
1

>  <SCORE.INTER.POLAR>
0

>  <SCORE.INTER.ROT>
12

>  <SCORE.INTER.SOLV>
16.9165

>  <SCORE.INTER.VDW>
-31.274

>  <SCORE.INTER.norm>
-0.679121

>  <SCORE.INTRA>
-11.5965

>  <SCORE.INTRA.DIHEDRAL>
3.38115

>  <SCORE.INTRA.DIHEDRAL.0>
14.6094

>  <SCORE.INTRA.POLAR>
0

>  <SCORE.INTRA.POLAR.0>
0

>  <SCORE.INTRA.REPUL>
0

>  <SCORE.INTRA.REPUL.0>
0

>  <SCORE.INTRA.SOLV>
4.43854

>  <SCORE.INTRA.SOLV.lig_0>
-65.6478

>  <SCORE.INTRA.VDW>
-15.5064

>  <SCORE.INTRA.VDW.0>
9.35535

>  <SCORE.INTRA.norm>
-0.374081

>  <SCORE.RESTR>
0

>  <SCORE.RESTR.CAVITY>
0

>  <SCORE.RESTR.norm>
0

>  <SCORE.SYSTEM>
0

>  <SCORE.SYSTEM.CONST>
0

>  <SCORE.SYSTEM.DIHEDRAL>
0

>  <SCORE.SYSTEM.SOLV>
0

>  <SCORE.SYSTEM.norm>
0

>  <SCORE.heavy>
31

>  <SCORE.norm>
-1.0532

>  <RMSD>
3.110

$$$$
ligand
 OpenBabel11021811443D
libRbt.so/2013.1/901 2013/11/27
 31 32  0  0  0  0  0  0  0  0999 V2000
    4.6742   15.8531   49.4674 C   0  0  0  0  0  0  0  0  0  0  0  0
    3.3247   15.2449   49.8375 C   0  0  0  0  0  0  0  0  0  0  0  0
    3.1692   14.5406   51.0752 C   0  0  0  0  0  0  0  0  0  0  0  0
    1.9156   13.9756   51.4114 C   0  0  0  0  0  0  0  0  0  0  0  0
    0.8096   14.1070   50.5363 C   0  0  0  0  0  0  0  0  0  0  0  0
    0.9428   14.8020   49.3170 C   0  0  0  0  0  0  0  0  0  0  0  0
    2.1806   15.3689   48.9640 C   0  0  0  0  0  0  0  0  0  0  0  0
    5.5357   15.1566   48.9316 O   0  0  0  0  0  0  0  0  0  0  0  0
   12.8075   20.5148   54.4813 C   0  0  0  0  0  0  0  0  0  0  0  0
    6.8831   17.2052   52.7147 C   0  0  0  0  0  0  0  0  0  0  0  0
    0.9394   17.3167   53.3083 P   0  0  1  0  0  0  0  0  0  0  0  0
   10.9153   19.2806   53.6872 N   0  0  0  0  0  0  0  0  0  0  0  0
    0.6411   15.9052   52.9995 O   0  0  0  0  0  0  0  0  0  0  0  0
    4.9432   17.1853   49.7294 S   0  0  0  0  0  0  0  0  0  0  0  0
    7.3137   19.6310   50.1265 C   0  0  0  0  0  0  0  0  0  0  0  0
   11.4342   20.5184   53.9935 C   0  0  0  0  0  0  0  0  0  0  0  0
   -0.2204   18.0974   53.8176 O   0  5  0  0  0  0  0  0  0  0  0  0
    7.1490   19.3279   51.4380 N   0  0  0  0  0  0  0  0  0  0  0  0
   10.7799   21.6305   53.8703 N   0  0  0  0  0  0  0  0  0  0  0  0
    2.1379   17.4093   54.1740 O   0  0  0  0  0  0  0  0  0  0  0  0
    6.3005   18.1577   51.7060 C   0  0  2  0  0  0  0  0  0  0  0  0
    9.4757   21.6261   53.4136 C   0  0  0  0  0  0  0  0  0  0  0  0
    8.8307   22.7900   53.3034 N   0  0  0  0  0  0  0  0  0  0  0  0
    4.9939   17.8663   51.1239 C   0  0  1  0  0  0  0  0  0  0  0  0
    8.8527   20.3556   53.0765 C   0  0  0  0  0  0  0  0  0  0  0  0
    8.4575   19.9264   49.8581 O   0  0  0  0  0  0  0  0  0  0  0  0
    3.6968   18.1912   51.7757 C   0  0  0  0  0  0  0  0  0  0  0  0
    9.6378   19.2317   53.2348 C   0  0  0  0  0  0  0  0  0  0  0  0
    2.4385   17.7929   51.1325 C   0  0  0  0  0  0  0  0  0  0  0  0
    7.4178   20.2833   52.6143 C   0  0  0  0  0  0  0  0  0  0  0  0
    1.3149   18.0723   51.9859 O   0  0  0  0  0  0  0  0  0  0  0  0
  1  2  1  0  0  0  0
  1  8  2  0  0  0  0
  1 14  1  0  0  0  0
  2  3  2  0  0  0  0
  2  7  1  0  0  0  0
  3  4  1  0  0  0  0
  4  5  2  0  0  0  0
  5  6  1  0  0  0  0
  6  7  2  0  0  0  0
  9 16  1  0  0  0  0
 10 21  1  0  0  0  0
 11 13  1  6  0  0  0
 11 17  1  0  0  0  0
 11 20  2  0  0  0  0
 11 31  1  0  0  0  0
 12 16  2  0  0  0  0
 12 28  1  0  0  0  0
 15 26  1  0  0  0  0
 15 18  1  0  0  0  0
 16 19  1  0  0  0  0
 18 30  1  0  0  0  0
 19 22  2  0  0  0  0
 21 18  1  1  0  0  0
 21 24  1  0  0  0  0
 22 23  1  0  0  0  0
 22 25  1  0  0  0  0
 24 14  1  6  0  0  0
 24 27  1  0  0  0  0
 25 28  2  0  0  0  0
 25 30  1  0  0  0  0
 27 29  1  0  0  0  0
 29 31  1  0  0  0  0
M  CHG  1  17  -1
M  END
>  <CHROM.1>
84.14261428,62.41514773,102.89883209,-137.51490722,133.63146627,-83.84135037
-97.89383130,3.64912442,137.71690261,173.90174910,-70.94845043,-62.57078892
5.25593893,17.96621511,51.85175040,-2.70447884,0.29036106,0.91341492

>  <Name>
ligand

>  <RI>
0

>  <Rbt.Current_Directory>
/home/itssahil/PROJECTS/Mol_Feturizer/New_Systems/rnas/2HOO

>  <Rbt.Executable>
rbdock ($Id: //depot/dev/client3/rdock/2013.1/src/exe/rbdock.cxx#4 $)

>  <Rbt.Library>
libRbt.so (2013.1, Build901 2013/11/27)

>  <Rbt.Parameter_File>
/export/apps/rDock/src/rDock_2013.1_src/data/scripts/dock_solv.prm

>  <Rbt.Receptor>
prm/blind_docking_80.prm

>  <SCORE>
-31.9494

>  <SCORE.INTER>
-19.5496

>  <SCORE.INTER.CONST>
1

>  <SCORE.INTER.POLAR>
0

>  <SCORE.INTER.ROT>
12

>  <SCORE.INTER.SOLV>
12.3017

>  <SCORE.INTER.VDW>
-28.7336

>  <SCORE.INTER.norm>
-0.630632

>  <SCORE.INTRA>
-12.3998

>  <SCORE.INTRA.DIHEDRAL>
1.70421

>  <SCORE.INTRA.DIHEDRAL.0>
14.6094

>  <SCORE.INTRA.POLAR>
0

>  <SCORE.INTRA.POLAR.0>
0

>  <SCORE.INTRA.REPUL>
0

>  <SCORE.INTRA.REPUL.0>
0

>  <SCORE.INTRA.SOLV>
0.100844

>  <SCORE.INTRA.SOLV.lig_0>
-65.6478

>  <SCORE.INTRA.VDW>
-13.3024

>  <SCORE.INTRA.VDW.0>
9.35535

>  <SCORE.INTRA.norm>
-0.399994

>  <SCORE.RESTR>
0

>  <SCORE.RESTR.CAVITY>
0

>  <SCORE.RESTR.norm>
0

>  <SCORE.SYSTEM>
0

>  <SCORE.SYSTEM.CONST>
0

>  <SCORE.SYSTEM.DIHEDRAL>
0

>  <SCORE.SYSTEM.SOLV>
0

>  <SCORE.SYSTEM.norm>
0

>  <SCORE.heavy>
31

>  <SCORE.norm>
-1.03063

>  <RMSD>
3.171

$$$$
ligand
 OpenBabel11021811443D
libRbt.so/2013.1/901 2013/11/27
 31 32  0  0  0  0  0  0  0  0999 V2000
    3.7426   19.1560   51.1040 C   0  0  0  0  0  0  0  0  0  0  0  0
    3.0358   17.8634   50.7070 C   0  0  0  0  0  0  0  0  0  0  0  0
    1.6681   17.6498   51.0758 C   0  0  0  0  0  0  0  0  0  0  0  0
    1.0188   16.4471   50.7074 C   0  0  0  0  0  0  0  0  0  0  0  0
    1.7088   15.4542   49.9698 C   0  0  0  0  0  0  0  0  0  0  0  0
    3.0531   15.6500   49.5931 C   0  0  0  0  0  0  0  0  0  0  0  0
    3.7163   16.8374   49.9511 C   0  0  0  0  0  0  0  0  0  0  0  0
    3.5178   20.1946   50.4835 O   0  0  0  0  0  0  0  0  0  0  0  0
   13.6999   19.8337   55.0335 C   0  0  0  0  0  0  0  0  0  0  0  0
    7.0290   20.0446   54.6313 C   0  0  0  0  0  0  0  0  0  0  0  0
    2.0313   23.4546   51.7471 P   0  0  1  0  0  0  0  0  0  0  0  0
   12.1884   21.6269   54.5497 N   0  0  0  0  0  0  0  0  0  0  0  0
    1.5859   22.0840   52.0629 O   0  0  0  0  0  0  0  0  0  0  0  0
    4.6393   19.1746   52.1582 S   0  0  0  0  0  0  0  0  0  0  0  0
    7.7018   20.2948   51.0771 C   0  0  0  0  0  0  0  0  0  0  0  0
   12.4241   20.2723   54.4821 C   0  0  0  0  0  0  0  0  0  0  0  0
    2.2850   23.7057   50.3025 O   0  5  0  0  0  0  0  0  0  0  0  0
    7.8084   20.7150   52.3620 N   0  0  0  0  0  0  0  0  0  0  0  0
   11.5955   19.4158   53.9721 N   0  0  0  0  0  0  0  0  0  0  0  0
    1.1198   24.4447   52.3661 O   0  0  0  0  0  0  0  0  0  0  0  0
    6.6552   20.4023   53.2183 C   0  0  2  0  0  0  0  0  0  0  0  0
   10.3905   19.8393   53.4448 C   0  0  0  0  0  0  0  0  0  0  0  0
    9.5633   18.9298   52.9237 N   0  0  0  0  0  0  0  0  0  0  0  0
    5.2454   20.4307   52.8407 C   0  0  1  0  0  0  0  0  0  0  0  0
   10.0709   21.2581   53.4710 C   0  0  0  0  0  0  0  0  0  0  0  0
    7.8945   21.1860   50.2795 O   0  0  0  0  0  0  0  0  0  0  0  0
    4.3453   21.5954   53.0559 C   0  0  0  0  0  0  0  0  0  0  0  0
   11.0164   22.0845   54.0436 C   0  0  0  0  0  0  0  0  0  0  0  0
    4.5820   22.8444   52.3213 C   0  0  0  0  0  0  0  0  0  0  0  0
    8.7902   21.7853   52.8714 C   0  0  0  0  0  0  0  0  0  0  0  0
    3.4358   23.7099   52.3974 O   0  0  0  0  0  0  0  0  0  0  0  0
  1  2  1  0  0  0  0
  1  8  2  0  0  0  0
  1 14  1  0  0  0  0
  2  3  2  0  0  0  0
  2  7  1  0  0  0  0
  3  4  1  0  0  0  0
  4  5  2  0  0  0  0
  5  6  1  0  0  0  0
  6  7  2  0  0  0  0
  9 16  1  0  0  0  0
 10 21  1  0  0  0  0
 11 13  1  1  0  0  0
 11 17  1  0  0  0  0
 11 20  2  0  0  0  0
 11 31  1  0  0  0  0
 12 16  2  0  0  0  0
 12 28  1  0  0  0  0
 15 26  1  0  0  0  0
 15 18  1  0  0  0  0
 16 19  1  0  0  0  0
 18 30  1  0  0  0  0
 19 22  2  0  0  0  0
 21 18  1  1  0  0  0
 21 24  1  0  0  0  0
 22 23  1  0  0  0  0
 22 25  1  0  0  0  0
 24 14  1  6  0  0  0
 24 27  1  0  0  0  0
 25 28  2  0  0  0  0
 25 30  1  0  0  0  0
 27 29  1  0  0  0  0
 29 31  1  0  0  0  0
M  CHG  1  17  -1
M  END
>  <CHROM.1>
-76.95549355,-168.52722089,-139.76907255,126.89171764,143.32286939,-96.70703592
-96.41765621,-113.12131939,5.50823334,165.12773539,-67.53628362,48.32171572
5.81524368,20.49149164,52.22199510,-3.05931933,-0.28792490,0.22393241

>  <Name>
ligand

>  <RI>
0

>  <Rbt.Current_Directory>
/home/itssahil/PROJECTS/Mol_Feturizer/New_Systems/rnas/2HOO

>  <Rbt.Executable>
rbdock ($Id: //depot/dev/client3/rdock/2013.1/src/exe/rbdock.cxx#4 $)

>  <Rbt.Library>
libRbt.so (2013.1, Build901 2013/11/27)

>  <Rbt.Parameter_File>
/export/apps/rDock/src/rDock_2013.1_src/data/scripts/dock_solv.prm

>  <Rbt.Receptor>
prm/pocket_docking_8.prm

>  <SCORE>
-30.5322

>  <SCORE.INTER>
-21.775

>  <SCORE.INTER.CONST>
1

>  <SCORE.INTER.POLAR>
0

>  <SCORE.INTER.ROT>
12

>  <SCORE.INTER.SOLV>
17.2645

>  <SCORE.INTER.VDW>
-31.8715

>  <SCORE.INTER.norm>
-0.702419

>  <SCORE.INTRA>
-8.76112

>  <SCORE.INTRA.DIHEDRAL>
0.364388

>  <SCORE.INTRA.DIHEDRAL.0>
14.6094

>  <SCORE.INTRA.POLAR>
0

>  <SCORE.INTRA.POLAR.0>
0

>  <SCORE.INTRA.REPUL>
0

>  <SCORE.INTRA.REPUL.0>
0

>  <SCORE.INTRA.SOLV>
7.26995

>  <SCORE.INTRA.SOLV.lig_0>
-65.6478

>  <SCORE.INTRA.VDW>
-12.5783

>  <SCORE.INTRA.VDW.0>
9.35535

>  <SCORE.INTRA.norm>
-0.282617

>  <SCORE.RESTR>
0.00394994

>  <SCORE.RESTR.CAVITY>
0.00394994

>  <SCORE.RESTR.norm>
0.000127418

>  <SCORE.SYSTEM>
0

>  <SCORE.SYSTEM.CONST>
0

>  <SCORE.SYSTEM.DIHEDRAL>
0

>  <SCORE.SYSTEM.SOLV>
0

>  <SCORE.SYSTEM.norm>
0

>  <SCORE.heavy>
31

>  <SCORE.norm>
-0.984909

>  <RMSD>
3.187

$$$$
ligand
 OpenBabel11021811443D
libRbt.so/2013.1/901 2013/11/27
 31 32  0  0  0  0  0  0  0  0999 V2000
    4.1112   19.0331   50.4562 C   0  0  0  0  0  0  0  0  0  0  0  0
    3.1885   17.8210   50.3701 C   0  0  0  0  0  0  0  0  0  0  0  0
    3.6117   16.6440   49.6717 C   0  0  0  0  0  0  0  0  0  0  0  0
    2.7498   15.5239   49.5924 C   0  0  0  0  0  0  0  0  0  0  0  0
    1.4730   15.5543   50.2049 C   0  0  0  0  0  0  0  0  0  0  0  0
    1.0425   16.7018   50.9014 C   0  0  0  0  0  0  0  0  0  0  0  0
    1.8835   17.8256   50.9899 C   0  0  0  0  0  0  0  0  0  0  0  0
    5.2189   19.0012   49.9209 O   0  0  0  0  0  0  0  0  0  0  0  0
   12.6243   20.5894   54.3921 C   0  0  0  0  0  0  0  0  0  0  0  0
    4.3629   23.1287   52.3078 C   0  0  0  0  0  0  0  0  0  0  0  0
    2.1479   17.3851   55.1926 P   0  0  1  0  0  0  0  0  0  0  0  0
   10.9206   22.1364   53.7298 N   0  0  0  0  0  0  0  0  0  0  0  0
    1.3744   18.6304   55.3587 O   0  0  0  0  0  0  0  0  0  0  0  0
    3.7164   20.1737   51.1336 S   0  0  0  0  0  0  0  0  0  0  0  0
    6.4249   21.7758   54.5945 C   0  0  0  0  0  0  0  0  0  0  0  0
   11.2893   20.8158   53.8529 C   0  0  0  0  0  0  0  0  0  0  0  0
    2.1588   16.4990   56.3880 O   0  5  0  0  0  0  0  0  0  0  0  0
    6.3116   21.8941   53.2484 N   0  0  0  0  0  0  0  0  0  0  0  0
   10.5318   19.8169   53.5237 N   0  0  0  0  0  0  0  0  0  0  0  0
    1.7407   16.6915   53.9486 O   0  0  0  0  0  0  0  0  0  0  0  0
    4.9399   21.8039   52.7274 C   0  0  2  0  0  0  0  0  0  0  0  0
    9.2697   20.0388   53.0067 C   0  0  0  0  0  0  0  0  0  0  0  0
    8.5184   18.9861   52.6744 N   0  0  0  0  0  0  0  0  0  0  0  0
    4.1370   20.5953   52.5677 C   0  0  1  0  0  0  0  0  0  0  0  0
    8.8094   21.4082   52.8378 C   0  0  0  0  0  0  0  0  0  0  0  0
    6.3819   22.8461   55.1601 O   0  0  0  0  0  0  0  0  0  0  0  0
    3.6801   19.7397   53.6955 C   0  0  0  0  0  0  0  0  0  0  0  0
    9.6888   22.3983   53.2267 C   0  0  0  0  0  0  0  0  0  0  0  0
    4.2538   18.3997   53.8721 C   0  0  0  0  0  0  0  0  0  0  0  0
    7.4586   21.7139   52.2380 C   0  0  0  0  0  0  0  0  0  0  0  0
    3.6654   17.7344   55.0034 O   0  0  0  0  0  0  0  0  0  0  0  0
  1  2  1  0  0  0  0
  1  8  2  0  0  0  0
  1 14  1  0  0  0  0
  2  3  2  0  0  0  0
  2  7  1  0  0  0  0
  3  4  1  0  0  0  0
  4  5  2  0  0  0  0
  5  6  1  0  0  0  0
  6  7  2  0  0  0  0
  9 16  1  0  0  0  0
 10 21  1  0  0  0  0
 11 13  1  1  0  0  0
 11 17  1  0  0  0  0
 11 20  2  0  0  0  0
 11 31  1  0  0  0  0
 12 16  2  0  0  0  0
 12 28  1  0  0  0  0
 15 26  1  0  0  0  0
 15 18  1  0  0  0  0
 16 19  1  0  0  0  0
 18 30  1  0  0  0  0
 19 22  2  0  0  0  0
 21 18  1  6  0  0  0
 21 24  1  0  0  0  0
 22 23  1  0  0  0  0
 22 25  1  0  0  0  0
 24 14  1  1  0  0  0
 24 27  1  0  0  0  0
 25 28  2  0  0  0  0
 25 30  1  0  0  0  0
 27 29  1  0  0  0  0
 29 31  1  0  0  0  0
M  CHG  1  17  -1
M  END
>  <CHROM.1>
0.25065579,100.58312009,114.70526051,-91.63299519,105.02121926,-1.26620215
62.57911007,70.31794490,93.43845544,-179.17709818,60.33284127,-67.94497689
5.19846130,19.43771861,52.93289528,-2.95755034,0.47882122,1.41481860

>  <Name>
ligand

>  <RI>
0

>  <Rbt.Current_Directory>
/home/itssahil/PROJECTS/Mol_Feturizer/New_Systems/rnas/2HOO

>  <Rbt.Executable>
rbdock ($Id: //depot/dev/client3/rdock/2013.1/src/exe/rbdock.cxx#4 $)

>  <Rbt.Library>
libRbt.so (2013.1, Build901 2013/11/27)

>  <Rbt.Parameter_File>
/export/apps/rDock/src/rDock_2013.1_src/data/scripts/dock_solv.prm

>  <Rbt.Receptor>
prm/pocket_docking_7.prm

>  <SCORE>
-33.1261

>  <SCORE.INTER>
-22.3122

>  <SCORE.INTER.CONST>
1

>  <SCORE.INTER.POLAR>
0

>  <SCORE.INTER.ROT>
12

>  <SCORE.INTER.SOLV>
15.8545

>  <SCORE.INTER.VDW>
-31.7596

>  <SCORE.INTER.norm>
-0.719748

>  <SCORE.INTRA>
-10.8139

>  <SCORE.INTRA.DIHEDRAL>
4.4899

>  <SCORE.INTRA.DIHEDRAL.0>
14.6094

>  <SCORE.INTRA.POLAR>
0

>  <SCORE.INTRA.POLAR.0>
0

>  <SCORE.INTRA.REPUL>
0

>  <SCORE.INTRA.REPUL.0>
0

>  <SCORE.INTRA.SOLV>
2.30858

>  <SCORE.INTRA.SOLV.lig_0>
-65.6478

>  <SCORE.INTRA.VDW>
-14.2132

>  <SCORE.INTRA.VDW.0>
9.35535

>  <SCORE.INTRA.norm>
-0.348837

>  <SCORE.RESTR>
0

>  <SCORE.RESTR.CAVITY>
0

>  <SCORE.RESTR.norm>
0

>  <SCORE.SYSTEM>
0

>  <SCORE.SYSTEM.CONST>
0

>  <SCORE.SYSTEM.DIHEDRAL>
0

>  <SCORE.SYSTEM.SOLV>
0

>  <SCORE.SYSTEM.norm>
0

>  <SCORE.heavy>
31

>  <SCORE.norm>
-1.06859

>  <RMSD>
3.211

$$$$
ligand
 OpenBabel11021811443D
libRbt.so/2013.1/901 2013/11/27
 31 32  0  0  0  0  0  0  0  0999 V2000
    4.1946   15.2442   49.7112 C   0  0  0  0  0  0  0  0  0  0  0  0
    5.2322   16.0279   48.9128 C   0  0  0  0  0  0  0  0  0  0  0  0
    6.5622   16.1840   49.4215 C   0  0  0  0  0  0  0  0  0  0  0  0
    7.5194   16.9150   48.6778 C   0  0  0  0  0  0  0  0  0  0  0  0
    7.1750   17.4884   47.4293 C   0  0  0  0  0  0  0  0  0  0  0  0
    5.8727   17.3396   46.9105 C   0  0  0  0  0  0  0  0  0  0  0  0
    4.9068   16.6185   47.6351 C   0  0  0  0  0  0  0  0  0  0  0  0
    3.8112   14.1461   49.3091 O   0  0  0  0  0  0  0  0  0  0  0  0
    9.8893   23.0050   53.4186 C   0  0  0  0  0  0  0  0  0  0  0  0
    4.9344   18.1403   53.2457 C   0  0  0  0  0  0  0  0  0  0  0  0
    0.4116   19.7953   53.0681 P   0  0  1  0  0  0  0  0  0  0  0  0
    8.5593   21.8675   51.7841 N   0  0  0  0  0  0  0  0  0  0  0  0
    1.4972   20.6144   52.4960 O   0  0  0  0  0  0  0  0  0  0  0  0
    3.6754   15.7565   50.8875 S   0  0  0  0  0  0  0  0  0  0  0  0
    5.4702   19.4080   50.0277 C   0  0  0  0  0  0  0  0  0  0  0  0
    9.2288   21.7807   52.9838 C   0  0  0  0  0  0  0  0  0  0  0  0
    0.7220   19.1948   54.3937 O   0  5  0  0  0  0  0  0  0  0  0  0
    5.8503   18.4958   50.9564 N   0  0  0  0  0  0  0  0  0  0  0  0
    9.2904   20.7052   53.7046 N   0  0  0  0  0  0  0  0  0  0  0  0
   -0.8639   20.5482   53.0464 O   0  0  0  0  0  0  0  0  0  0  0  0
    4.7576   17.9367   51.7653 C   0  0  2  0  0  0  0  0  0  0  0  0
    8.6676   19.5460   53.2832 C   0  0  0  0  0  0  0  0  0  0  0  0
    8.7556   18.4556   54.0490 N   0  0  0  0  0  0  0  0  0  0  0  0
    3.5621   17.2550   51.2785 C   0  0  1  0  0  0  0  0  0  0  0  0
    7.9458   19.5542   52.0203 C   0  0  0  0  0  0  0  0  0  0  0  0
    6.1095   19.3211   49.0025 O   0  0  0  0  0  0  0  0  0  0  0  0
    2.2345   17.9067   51.1184 C   0  0  0  0  0  0  0  0  0  0  0  0
    7.9334   20.7517   51.3342 C   0  0  0  0  0  0  0  0  0  0  0  0
    1.1003   17.4599   51.9368 C   0  0  0  0  0  0  0  0  0  0  0  0
    7.2827   18.3077   51.4871 C   0  0  0  0  0  0  0  0  0  0  0  0
    0.1741   18.5369   52.1621 O   0  0  0  0  0  0  0  0  0  0  0  0
  1  2  1  0  0  0  0
  1  8  2  0  0  0  0
  1 14  1  0  0  0  0
  2  3  2  0  0  0  0
  2  7  1  0  0  0  0
  3  4  1  0  0  0  0
  4  5  2  0  0  0  0
  5  6  1  0  0  0  0
  6  7  2  0  0  0  0
  9 16  1  0  0  0  0
 10 21  1  0  0  0  0
 11 13  1  6  0  0  0
 11 17  1  0  0  0  0
 11 20  2  0  0  0  0
 11 31  1  0  0  0  0
 12 16  2  0  0  0  0
 12 28  1  0  0  0  0
 15 26  1  0  0  0  0
 15 18  1  0  0  0  0
 16 19  1  0  0  0  0
 18 30  1  0  0  0  0
 19 22  2  0  0  0  0
 21 18  1  6  0  0  0
 21 24  1  0  0  0  0
 22 23  1  0  0  0  0
 22 25  1  0  0  0  0
 24 14  1  6  0  0  0
 24 27  1  0  0  0  0
 25 28  2  0  0  0  0
 25 30  1  0  0  0  0
 27 29  1  0  0  0  0
 29 31  1  0  0  0  0
M  CHG  1  17  -1
M  END
>  <CHROM.1>
-109.65544046,26.02571848,-78.94901426,-143.01669938,-122.45363864,53.34822760
-100.36120335,65.00399493,134.26905866,150.92966092,-70.49215303,65.35741160
4.85183888,18.50994509,51.35128931,-3.00756334,0.18388425,0.75517526

>  <Name>
ligand

>  <RI>
0

>  <Rbt.Current_Directory>
/home/itssahil/PROJECTS/Mol_Feturizer/New_Systems/rnas/2HOO

>  <Rbt.Executable>
rbdock ($Id: //depot/dev/client3/rdock/2013.1/src/exe/rbdock.cxx#4 $)

>  <Rbt.Library>
libRbt.so (2013.1, Build901 2013/11/27)

>  <Rbt.Parameter_File>
/export/apps/rDock/src/rDock_2013.1_src/data/scripts/dock_solv.prm

>  <Rbt.Receptor>
prm/pocket_docking_2.prm

>  <SCORE>
-13.2872

>  <SCORE.INTER>
-5.27479

>  <SCORE.INTER.CONST>
1

>  <SCORE.INTER.POLAR>
0

>  <SCORE.INTER.ROT>
12

>  <SCORE.INTER.SOLV>
19.2611

>  <SCORE.INTER.VDW>
-21.5369

>  <SCORE.INTER.norm>
-0.170155

>  <SCORE.INTRA>
-10.6585

>  <SCORE.INTRA.DIHEDRAL>
4.00557

>  <SCORE.INTRA.DIHEDRAL.0>
14.6094

>  <SCORE.INTRA.POLAR>
0

>  <SCORE.INTRA.POLAR.0>
0

>  <SCORE.INTRA.REPUL>
0

>  <SCORE.INTRA.REPUL.0>
0

>  <SCORE.INTRA.SOLV>
1.57153

>  <SCORE.INTRA.SOLV.lig_0>
-65.6478

>  <SCORE.INTRA.VDW>
-13.4471

>  <SCORE.INTRA.VDW.0>
9.35535

>  <SCORE.INTRA.norm>
-0.343823

>  <SCORE.RESTR>
2.64609

>  <SCORE.RESTR.CAVITY>
2.64609

>  <SCORE.RESTR.norm>
0.0853577

>  <SCORE.SYSTEM>
0

>  <SCORE.SYSTEM.CONST>
0

>  <SCORE.SYSTEM.DIHEDRAL>
0

>  <SCORE.SYSTEM.SOLV>
0

>  <SCORE.SYSTEM.norm>
0

>  <SCORE.heavy>
31

>  <SCORE.norm>
-0.42862

>  <RMSD>
3.216

$$$$
ligand
 OpenBabel11021811443D
libRbt.so/2013.1/901 2013/11/27
 31 32  0  0  0  0  0  0  0  0999 V2000
    7.4844   19.3551   48.7635 C   0  0  0  0  0  0  0  0  0  0  0  0
    8.4478   18.2326   48.3896 C   0  0  0  0  0  0  0  0  0  0  0  0
    8.0543   17.2344   47.4404 C   0  0  0  0  0  0  0  0  0  0  0  0
    8.9513   16.1936   47.1001 C   0  0  0  0  0  0  0  0  0  0  0  0
   10.2396   16.1344   47.6857 C   0  0  0  0  0  0  0  0  0  0  0  0
   10.6459   17.1116   48.6170 C   0  0  0  0  0  0  0  0  0  0  0  0
    9.7685   18.1527   48.9696 C   0  0  0  0  0  0  0  0  0  0  0  0
    7.8647   20.5252   48.7375 O   0  0  0  0  0  0  0  0  0  0  0  0
   12.8402   20.2945   54.4110 C   0  0  0  0  0  0  0  0  0  0  0  0
    7.6758   16.8043   51.2288 C   0  0  0  0  0  0  0  0  0  0  0  0
    0.7788   17.8791   51.9499 P   0  0  1  0  0  0  0  0  0  0  0  0
   11.0284   19.1315   53.3627 N   0  0  0  0  0  0  0  0  0  0  0  0
   -0.4230   17.4606   51.2034 O   0  0  0  0  0  0  0  0  0  0  0  0
    6.1814   19.0721   49.1350 S   0  0  0  0  0  0  0  0  0  0  0  0
    6.6831   17.8351   53.7826 C   0  0  0  0  0  0  0  0  0  0  0  0
   11.4509   20.2921   53.9708 C   0  0  0  0  0  0  0  0  0  0  0  0
    0.8001   19.3168   52.3331 O   0  5  0  0  0  0  0  0  0  0  0  0
    6.7990   18.6246   52.6862 N   0  0  0  0  0  0  0  0  0  0  0  0
   10.6972   21.3300   54.1569 N   0  0  0  0  0  0  0  0  0  0  0  0
    1.0198   16.9623   53.0881 O   0  0  0  0  0  0  0  0  0  0  0  0
    6.6856   17.9245   51.3985 C   0  0  2  0  0  0  0  0  0  0  0  0
    9.3789   21.3185   53.7431 C   0  0  0  0  0  0  0  0  0  0  0  0
    8.6305   22.4038   53.9550 N   0  0  0  0  0  0  0  0  0  0  0  0
    5.7262   18.1939   50.3319 C   0  0  1  0  0  0  0  0  0  0  0  0
    8.8541   20.1245   53.0990 C   0  0  0  0  0  0  0  0  0  0  0  0
    7.7580   17.5184   54.2426 O   0  0  0  0  0  0  0  0  0  0  0  0
    4.3265   17.6904   50.3193 C   0  0  0  0  0  0  0  0  0  0  0  0
    9.7406   19.0786   52.9409 C   0  0  0  0  0  0  0  0  0  0  0  0
    3.3862   18.1263   51.3594 C   0  0  0  0  0  0  0  0  0  0  0  0
    7.4112   20.0366   52.6650 C   0  0  0  0  0  0  0  0  0  0  0  0
    2.0398   17.7455   51.0264 O   0  0  0  0  0  0  0  0  0  0  0  0
  1  2  1  0  0  0  0
  1  8  2  0  0  0  0
  1 14  1  0  0  0  0
  2  3  2  0  0  0  0
  2  7  1  0  0  0  0
  3  4  1  0  0  0  0
  4  5  2  0  0  0  0
  5  6  1  0  0  0  0
  6  7  2  0  0  0  0
  9 16  1  0  0  0  0
 10 21  1  0  0  0  0
 11 13  1  6  0  0  0
 11 17  1  0  0  0  0
 11 20  2  0  0  0  0
 11 31  1  0  0  0  0
 12 16  2  0  0  0  0
 12 28  1  0  0  0  0
 15 26  1  0  0  0  0
 15 18  1  0  0  0  0
 16 19  1  0  0  0  0
 18 30  1  0  0  0  0
 19 22  2  0  0  0  0
 21 18  1  1  0  0  0
 21 24  1  0  0  0  0
 22 23  1  0  0  0  0
 22 25  1  0  0  0  0
 24 14  1  1  0  0  0
 24 27  1  0  0  0  0
 25 28  2  0  0  0  0
 25 30  1  0  0  0  0
 27 29  1  0  0  0  0
 29 31  1  0  0  0  0
M  CHG  1  17  -1
M  END
>  <CHROM.1>
-130.11636988,59.75973806,18.35062386,97.82099895,-56.55399793,60.20263251
-83.24788570,-115.95642224,-149.85553029,168.68666460,172.44461703,176.24350063
6.66292743,18.63681893,51.37368306,-0.12183660,-0.14412410,-1.96628477

>  <Name>
ligand

>  <RI>
0

>  <Rbt.Current_Directory>
/home/itssahil/PROJECTS/Mol_Feturizer/New_Systems/rnas/2HOO

>  <Rbt.Executable>
rbdock ($Id: //depot/dev/client3/rdock/2013.1/src/exe/rbdock.cxx#4 $)

>  <Rbt.Library>
libRbt.so (2013.1, Build901 2013/11/27)

>  <Rbt.Parameter_File>
/export/apps/rDock/src/rDock_2013.1_src/data/scripts/dock_solv.prm

>  <Rbt.Receptor>
prm/pocket_docking_5.prm

>  <SCORE>
-35.0714

>  <SCORE.INTER>
-22.4047

>  <SCORE.INTER.CONST>
1

>  <SCORE.INTER.POLAR>
0

>  <SCORE.INTER.ROT>
12

>  <SCORE.INTER.SOLV>
16.6596

>  <SCORE.INTER.VDW>
-32.0897

>  <SCORE.INTER.norm>
-0.722733

>  <SCORE.INTRA>
-12.6667

>  <SCORE.INTRA.DIHEDRAL>
0.970156

>  <SCORE.INTRA.DIHEDRAL.0>
14.6094

>  <SCORE.INTRA.POLAR>
0

>  <SCORE.INTRA.POLAR.0>
0

>  <SCORE.INTRA.REPUL>
0

>  <SCORE.INTRA.REPUL.0>
0

>  <SCORE.INTRA.SOLV>
-0.0770751

>  <SCORE.INTRA.SOLV.lig_0>
-65.6478

>  <SCORE.INTRA.VDW>
-13.1133

>  <SCORE.INTRA.VDW.0>
9.35535

>  <SCORE.INTRA.norm>
-0.408604

>  <SCORE.RESTR>
0

>  <SCORE.RESTR.CAVITY>
0

>  <SCORE.RESTR.norm>
0

>  <SCORE.SYSTEM>
0

>  <SCORE.SYSTEM.CONST>
0

>  <SCORE.SYSTEM.DIHEDRAL>
0

>  <SCORE.SYSTEM.SOLV>
0

>  <SCORE.SYSTEM.norm>
0

>  <SCORE.heavy>
31

>  <SCORE.norm>
-1.13134

>  <RMSD>
3.224

$$$$
ligand
 OpenBabel11021811443D
libRbt.so/2013.1/901 2013/11/27
 31 32  0  0  0  0  0  0  0  0999 V2000
    4.1764   19.5268   53.7322 C   0  0  0  0  0  0  0  0  0  0  0  0
    4.0360   18.8427   52.3755 C   0  0  0  0  0  0  0  0  0  0  0  0
    2.7455   18.7103   51.7678 C   0  0  0  0  0  0  0  0  0  0  0  0
    2.6213   18.0716   50.5106 C   0  0  0  0  0  0  0  0  0  0  0  0
    3.7649   17.5679   49.8438 C   0  0  0  0  0  0  0  0  0  0  0  0
    5.0433   17.6948   50.4242 C   0  0  0  0  0  0  0  0  0  0  0  0
    5.1874   18.3245   51.6735 C   0  0  0  0  0  0  0  0  0  0  0  0
    3.5871   19.0733   54.7127 O   0  0  0  0  0  0  0  0  0  0  0  0
   13.2582   19.2316   54.2082 C   0  0  0  0  0  0  0  0  0  0  0  0
    6.1913   23.9966   52.1703 C   0  0  0  0  0  0  0  0  0  0  0  0
    1.4648   24.1153   50.6757 P   0  0  1  0  0  0  0  0  0  0  0  0
   10.8719   19.3891   54.0853 N   0  0  0  0  0  0  0  0  0  0  0  0
    2.0937   24.4576   49.3856 O   0  0  0  0  0  0  0  0  0  0  0  0
    4.9615   20.6578   53.8740 S   0  0  0  0  0  0  0  0  0  0  0  0
    7.8986   21.3911   51.4420 C   0  0  0  0  0  0  0  0  0  0  0  0
   12.0705   20.0662   54.0784 C   0  0  0  0  0  0  0  0  0  0  0  0
    2.0245   24.8397   51.8487 O   0  5  0  0  0  0  0  0  0  0  0  0
    7.5207   21.9390   52.6235 N   0  0  0  0  0  0  0  0  0  0  0  0
   12.1765   21.3532   53.9664 N   0  0  0  0  0  0  0  0  0  0  0  0
   -0.0093   24.2159   50.5694 O   0  0  0  0  0  0  0  0  0  0  0  0
    6.1893   22.5621   52.6247 C   0  0  2  0  0  0  0  0  0  0  0  0
   11.0460   22.1392   53.8505 C   0  0  0  0  0  0  0  0  0  0  0  0
   11.1927   23.4619   53.7414 N   0  0  0  0  0  0  0  0  0  0  0  0
    4.9234   21.9326   52.9882 C   0  0  1  0  0  0  0  0  0  0  0  0
    9.7400   21.4987   53.8581 C   0  0  0  0  0  0  0  0  0  0  0  0
    7.2310   20.4255   51.1431 O   0  0  0  0  0  0  0  0  0  0  0  0
    3.5890   22.4261   52.5541 C   0  0  0  0  0  0  0  0  0  0  0  0
    9.7373   20.1234   53.9732 C   0  0  0  0  0  0  0  0  0  0  0  0
    3.0560   22.0291   51.2449 C   0  0  0  0  0  0  0  0  0  0  0  0
    8.4685   22.3078   53.7787 C   0  0  0  0  0  0  0  0  0  0  0  0
    1.7615   22.6137   51.0189 O   0  0  0  0  0  0  0  0  0  0  0  0
  1  2  1  0  0  0  0
  1  8  2  0  0  0  0
  1 14  1  0  0  0  0
  2  3  2  0  0  0  0
  2  7  1  0  0  0  0
  3  4  1  0  0  0  0
  4  5  2  0  0  0  0
  5  6  1  0  0  0  0
  6  7  2  0  0  0  0
  9 16  1  0  0  0  0
 10 21  1  0  0  0  0
 11 13  1  6  0  0  0
 11 17  1  0  0  0  0
 11 20  2  0  0  0  0
 11 31  1  0  0  0  0
 12 16  2  0  0  0  0
 12 28  1  0  0  0  0
 15 26  1  0  0  0  0
 15 18  1  0  0  0  0
 16 19  1  0  0  0  0
 18 30  1  0  0  0  0
 19 22  2  0  0  0  0
 21 18  1  6  0  0  0
 21 24  1  0  0  0  0
 22 23  1  0  0  0  0
 22 25  1  0  0  0  0
 24 14  1  6  0  0  0
 24 27  1  0  0  0  0
 25 28  2  0  0  0  0
 25 30  1  0  0  0  0
 27 29  1  0  0  0  0
 29 31  1  0  0  0  0
M  CHG  1  17  -1
M  END
>  <CHROM.1>
59.73957942,49.62629120,-139.30170612,-67.21724879,-86.60584542,-27.22537331
-160.28279399,-94.98569638,123.97097982,-179.87439847,74.01835196,62.57345372
5.78821044,21.34253521,52.38300794,2.93274750,-0.28956269,-0.04370887

>  <Name>
ligand

>  <RI>
0

>  <Rbt.Current_Directory>
/home/itssahil/PROJECTS/Mol_Feturizer/New_Systems/rnas/2HOO

>  <Rbt.Executable>
rbdock ($Id: //depot/dev/client3/rdock/2013.1/src/exe/rbdock.cxx#4 $)

>  <Rbt.Library>
libRbt.so (2013.1, Build901 2013/11/27)

>  <Rbt.Parameter_File>
/export/apps/rDock/src/rDock_2013.1_src/data/scripts/dock_solv.prm

>  <Rbt.Receptor>
prm/pocket_docking_7.prm

>  <SCORE>
-32.5972

>  <SCORE.INTER>
-20.2411

>  <SCORE.INTER.CONST>
1

>  <SCORE.INTER.POLAR>
0

>  <SCORE.INTER.ROT>
12

>  <SCORE.INTER.SOLV>
24.1183

>  <SCORE.INTER.VDW>
-33.1335

>  <SCORE.INTER.norm>
-0.652939

>  <SCORE.INTRA>
-12.3561

>  <SCORE.INTRA.DIHEDRAL>
1.50403

>  <SCORE.INTRA.DIHEDRAL.0>
14.6094

>  <SCORE.INTRA.POLAR>
0

>  <SCORE.INTRA.POLAR.0>
0

>  <SCORE.INTRA.REPUL>
0

>  <SCORE.INTRA.REPUL.0>
0

>  <SCORE.INTRA.SOLV>
1.14977

>  <SCORE.INTRA.SOLV.lig_0>
-65.6478

>  <SCORE.INTRA.VDW>
-13.683

>  <SCORE.INTRA.VDW.0>
9.35535

>  <SCORE.INTRA.norm>
-0.398583

>  <SCORE.RESTR>
0

>  <SCORE.RESTR.CAVITY>
0

>  <SCORE.RESTR.norm>
0

>  <SCORE.SYSTEM>
0

>  <SCORE.SYSTEM.CONST>
0

>  <SCORE.SYSTEM.DIHEDRAL>
0

>  <SCORE.SYSTEM.SOLV>
0

>  <SCORE.SYSTEM.norm>
0

>  <SCORE.heavy>
31

>  <SCORE.norm>
-1.05152

>  <RMSD>
3.225

$$$$
ligand
 OpenBabel11021811443D
libRbt.so/2013.1/901 2013/11/27
 31 32  0  0  0  0  0  0  0  0999 V2000
    4.1013   19.3352   50.8715 C   0  0  0  0  0  0  0  0  0  0  0  0
    3.2702   18.0946   50.5580 C   0  0  0  0  0  0  0  0  0  0  0  0
    3.8267   17.0380   49.7667 C   0  0  0  0  0  0  0  0  0  0  0  0
    3.0495   15.8911   49.4765 C   0  0  0  0  0  0  0  0  0  0  0  0
    1.7264   15.7756   49.9685 C   0  0  0  0  0  0  0  0  0  0  0  0
    1.1647   16.8028   50.7538 C   0  0  0  0  0  0  0  0  0  0  0  0
    1.9200   17.9511   51.0517 C   0  0  0  0  0  0  0  0  0  0  0  0
    4.9108   19.7569   50.0462 O   0  0  0  0  0  0  0  0  0  0  0  0
   12.8400   20.1739   54.5690 C   0  0  0  0  0  0  0  0  0  0  0  0
    5.7252   23.5001   52.4756 C   0  0  0  0  0  0  0  0  0  0  0  0
    0.0666   23.6170   51.1595 P   0  0  1  0  0  0  0  0  0  0  0  0
   10.8801   19.3553   53.4631 N   0  0  0  0  0  0  0  0  0  0  0  0
   -0.2797   23.1868   49.7914 O   0  0  0  0  0  0  0  0  0  0  0  0
    3.9561   19.9947   52.0797 S   0  0  0  0  0  0  0  0  0  0  0  0
    6.3888   20.5418   54.2584 C   0  0  0  0  0  0  0  0  0  0  0  0
   11.5550   20.4556   53.9418 C   0  0  0  0  0  0  0  0  0  0  0  0
   -0.6609   24.8264   51.6310 O   0  5  0  0  0  0  0  0  0  0  0  0
    6.6013   21.2613   53.1288 N   0  0  0  0  0  0  0  0  0  0  0  0
   11.1124   21.6710   53.8595 N   0  0  0  0  0  0  0  0  0  0  0  0
   -0.0251   22.4721   52.0949 O   0  0  0  0  0  0  0  0  0  0  0  0
    5.4437   22.0326   52.6533 C   0  0  2  0  0  0  0  0  0  0  0  0
    9.8901   21.9303   53.2696 C   0  0  0  0  0  0  0  0  0  0  0  0
    9.4635   23.1940   53.2062 N   0  0  0  0  0  0  0  0  0  0  0  0
    4.1159   21.5186   52.3317 C   0  0  1  0  0  0  0  0  0  0  0  0
    9.1116   20.8187   52.7462 C   0  0  0  0  0  0  0  0  0  0  0  0
    7.3324   20.5789   55.0172 O   0  0  0  0  0  0  0  0  0  0  0  0
    2.8974   22.3640   52.2158 C   0  0  0  0  0  0  0  0  0  0  0  0
    9.6760   19.5659   52.8760 C   0  0  0  0  0  0  0  0  0  0  0  0
    2.7210   23.2309   51.0440 C   0  0  0  0  0  0  0  0  0  0  0  0
    7.7506   21.0346   52.1305 C   0  0  0  0  0  0  0  0  0  0  0  0
    1.5666   24.0747   51.1988 O   0  0  0  0  0  0  0  0  0  0  0  0
  1  2  1  0  0  0  0
  1  8  2  0  0  0  0
  1 14  1  0  0  0  0
  2  3  2  0  0  0  0
  2  7  1  0  0  0  0
  3  4  1  0  0  0  0
  4  5  2  0  0  0  0
  5  6  1  0  0  0  0
  6  7  2  0  0  0  0
  9 16  1  0  0  0  0
 10 21  1  0  0  0  0
 11 13  1  6  0  0  0
 11 17  1  0  0  0  0
 11 20  2  0  0  0  0
 11 31  1  0  0  0  0
 12 16  2  0  0  0  0
 12 28  1  0  0  0  0
 15 26  1  0  0  0  0
 15 18  1  0  0  0  0
 16 19  1  0  0  0  0
 18 30  1  0  0  0  0
 19 22  2  0  0  0  0
 21 18  1  6  0  0  0
 21 24  1  0  0  0  0
 22 23  1  0  0  0  0
 22 25  1  0  0  0  0
 24 14  1  6  0  0  0
 24 27  1  0  0  0  0
 25 28  2  0  0  0  0
 25 30  1  0  0  0  0
 27 29  1  0  0  0  0
 29 31  1  0  0  0  0
M  CHG  1  17  -1
M  END
>  <CHROM.1>
33.70652478,-147.64586510,-88.41883205,-139.63759292,124.90552268,-44.68191626
160.79182646,-105.73712885,-77.27840107,-173.23190454,-70.63177447,-68.35069248
4.92022452,20.94202890,52.04626837,3.10740924,-0.29683007,0.24670452

>  <Name>
ligand

>  <RI>
0

>  <Rbt.Current_Directory>
/home/itssahil/PROJECTS/Mol_Feturizer/New_Systems/rnas/2HOO

>  <Rbt.Executable>
rbdock ($Id: //depot/dev/client3/rdock/2013.1/src/exe/rbdock.cxx#4 $)

>  <Rbt.Library>
libRbt.so (2013.1, Build901 2013/11/27)

>  <Rbt.Parameter_File>
/export/apps/rDock/src/rDock_2013.1_src/data/scripts/dock_solv.prm

>  <Rbt.Receptor>
prm/pocket_docking_8.prm

>  <SCORE>
-31.4422

>  <SCORE.INTER>
-20.925

>  <SCORE.INTER.CONST>
1

>  <SCORE.INTER.POLAR>
0

>  <SCORE.INTER.ROT>
12

>  <SCORE.INTER.SOLV>
18.2307

>  <SCORE.INTER.VDW>
-31.6269

>  <SCORE.INTER.norm>
-0.674999

>  <SCORE.INTRA>
-10.5173

>  <SCORE.INTRA.DIHEDRAL>
-0.617456

>  <SCORE.INTRA.DIHEDRAL.0>
14.6094

>  <SCORE.INTRA.POLAR>
0

>  <SCORE.INTRA.POLAR.0>
0

>  <SCORE.INTRA.REPUL>
0

>  <SCORE.INTRA.REPUL.0>
0

>  <SCORE.INTRA.SOLV>
4.20552

>  <SCORE.INTRA.SOLV.lig_0>
-65.6478

>  <SCORE.INTRA.VDW>
-12.3113

>  <SCORE.INTRA.VDW.0>
9.35535

>  <SCORE.INTRA.norm>
-0.339267

>  <SCORE.RESTR>
0

>  <SCORE.RESTR.CAVITY>
0

>  <SCORE.RESTR.norm>
0

>  <SCORE.SYSTEM>
0

>  <SCORE.SYSTEM.CONST>
0

>  <SCORE.SYSTEM.DIHEDRAL>
0

>  <SCORE.SYSTEM.SOLV>
0

>  <SCORE.SYSTEM.norm>
0

>  <SCORE.heavy>
31

>  <SCORE.norm>
-1.01427

>  <RMSD>
3.236

$$$$
ligand
 OpenBabel11021811443D
libRbt.so/2013.1/901 2013/11/27
 31 32  0  0  0  0  0  0  0  0999 V2000
    3.7612   15.0912   50.3232 C   0  0  0  0  0  0  0  0  0  0  0  0
    4.3677   14.0198   49.4219 C   0  0  0  0  0  0  0  0  0  0  0  0
    5.2295   13.0184   49.9759 C   0  0  0  0  0  0  0  0  0  0  0  0
    5.7918   12.0290   49.1340 C   0  0  0  0  0  0  0  0  0  0  0  0
    5.5036   12.0163   47.7473 C   0  0  0  0  0  0  0  0  0  0  0  0
    4.6529   12.9903   47.1861 C   0  0  0  0  0  0  0  0  0  0  0  0
    4.0858   13.9827   48.0055 C   0  0  0  0  0  0  0  0  0  0  0  0
    2.8739   14.7920   51.1217 O   0  0  0  0  0  0  0  0  0  0  0  0
   11.4264   22.1104   54.0216 C   0  0  0  0  0  0  0  0  0  0  0  0
    5.5240   19.5815   50.8495 C   0  0  0  0  0  0  0  0  0  0  0  0
    2.0516   18.4765   55.2759 P   0  0  1  0  0  0  0  0  0  0  0  0
   10.5192   19.9162   53.7107 N   0  0  0  0  0  0  0  0  0  0  0  0
    2.9090   17.2808   55.3853 O   0  0  0  0  0  0  0  0  0  0  0  0
    4.1980   16.4026   50.2525 S   0  0  0  0  0  0  0  0  0  0  0  0
    7.7083   17.3479   51.4476 C   0  0  0  0  0  0  0  0  0  0  0  0
   10.2537   21.2530   53.9046 C   0  0  0  0  0  0  0  0  0  0  0  0
    0.7436   18.3666   55.9768 O   0  5  0  0  0  0  0  0  0  0  0  0
    6.7475   17.9041   52.2263 N   0  0  0  0  0  0  0  0  0  0  0  0
    9.0601   21.7521   53.9828 N   0  0  0  0  0  0  0  0  0  0  0  0
    2.8168   19.6906   55.6431 O   0  0  0  0  0  0  0  0  0  0  0  0
    5.4971   18.2398   51.5301 C   0  0  2  0  0  0  0  0  0  0  0  0
    7.9526   20.9325   53.8777 C   0  0  0  0  0  0  0  0  0  0  0  0
    6.7382   21.4804   53.9674 N   0  0  0  0  0  0  0  0  0  0  0  0
    4.2981   17.4134   51.4269 C   0  0  1  0  0  0  0  0  0  0  0  0
    8.1500   19.5050   53.6801 C   0  0  0  0  0  0  0  0  0  0  0  0
    7.4173   16.2320   51.0767 O   0  0  0  0  0  0  0  0  0  0  0  0
    3.1508   17.4830   52.3712 C   0  0  0  0  0  0  0  0  0  0  0  0
    9.4597   19.0768   53.6018 C   0  0  0  0  0  0  0  0  0  0  0  0
    2.5126   18.7760   52.6479 C   0  0  0  0  0  0  0  0  0  0  0  0
    6.9804   18.5543   53.6018 C   0  0  0  0  0  0  0  0  0  0  0  0
    1.6292   18.6808   53.7790 O   0  0  0  0  0  0  0  0  0  0  0  0
  1  2  1  0  0  0  0
  1  8  2  0  0  0  0
  1 14  1  0  0  0  0
  2  3  2  0  0  0  0
  2  7  1  0  0  0  0
  3  4  1  0  0  0  0
  4  5  2  0  0  0  0
  5  6  1  0  0  0  0
  6  7  2  0  0  0  0
  9 16  1  0  0  0  0
 10 21  1  0  0  0  0
 11 13  1  1  0  0  0
 11 17  1  0  0  0  0
 11 20  2  0  0  0  0
 11 31  1  0  0  0  0
 12 16  2  0  0  0  0
 12 28  1  0  0  0  0
 15 26  1  0  0  0  0
 15 18  1  0  0  0  0
 16 19  1  0  0  0  0
 18 30  1  0  0  0  0
 19 22  2  0  0  0  0
 21 18  1  6  0  0  0
 21 24  1  0  0  0  0
 22 23  1  0  0  0  0
 22 25  1  0  0  0  0
 24 14  1  6  0  0  0
 24 27  1  0  0  0  0
 25 28  2  0  0  0  0
 25 30  1  0  0  0  0
 27 29  1  0  0  0  0
 29 31  1  0  0  0  0
M  CHG  1  17  -1
M  END
>  <CHROM.1>
-71.53074012,-146.26539552,136.06627338,-68.85080325,-84.63374006,46.15875644
90.59876785,-126.57925620,112.24285365,-167.78481721,69.46252947,-54.33119970
5.34313292,17.64535122,52.32714074,-2.05038152,0.28523012,0.75835299

>  <Name>
ligand

>  <RI>
0

>  <Rbt.Current_Directory>
/home/itssahil/PROJECTS/Mol_Feturizer/New_Systems/rnas/2HOO

>  <Rbt.Executable>
rbdock ($Id: //depot/dev/client3/rdock/2013.1/src/exe/rbdock.cxx#4 $)

>  <Rbt.Library>
libRbt.so (2013.1, Build901 2013/11/27)

>  <Rbt.Parameter_File>
/export/apps/rDock/src/rDock_2013.1_src/data/scripts/dock_solv.prm

>  <Rbt.Receptor>
prm/pocket_docking_4.prm

>  <SCORE>
-28.8173

>  <SCORE.INTER>
-16.3616

>  <SCORE.INTER.CONST>
1

>  <SCORE.INTER.POLAR>
0

>  <SCORE.INTER.ROT>
12

>  <SCORE.INTER.SOLV>
14.3283

>  <SCORE.INTER.VDW>
-27.2839

>  <SCORE.INTER.norm>
-0.527795

>  <SCORE.INTRA>
-12.4557

>  <SCORE.INTRA.DIHEDRAL>
0.284242

>  <SCORE.INTRA.DIHEDRAL.0>
14.6094

>  <SCORE.INTRA.POLAR>
0

>  <SCORE.INTRA.POLAR.0>
0

>  <SCORE.INTRA.REPUL>
0

>  <SCORE.INTRA.REPUL.0>
0

>  <SCORE.INTRA.SOLV>
1.5219

>  <SCORE.INTRA.SOLV.lig_0>
-65.6478

>  <SCORE.INTRA.VDW>
-13.3587

>  <SCORE.INTRA.VDW.0>
9.35535

>  <SCORE.INTRA.norm>
-0.401795

>  <SCORE.RESTR>
0

>  <SCORE.RESTR.CAVITY>
0

>  <SCORE.RESTR.norm>
0

>  <SCORE.SYSTEM>
0

>  <SCORE.SYSTEM.CONST>
0

>  <SCORE.SYSTEM.DIHEDRAL>
0

>  <SCORE.SYSTEM.SOLV>
0

>  <SCORE.SYSTEM.norm>
0

>  <SCORE.heavy>
31

>  <SCORE.norm>
-0.92959

>  <RMSD>
3.333

$$$$
ligand
 OpenBabel11021811443D
libRbt.so/2013.1/901 2013/11/27
 31 32  0  0  0  0  0  0  0  0999 V2000
    3.8951   16.3763   49.1905 C   0  0  0  0  0  0  0  0  0  0  0  0
    2.8912   15.7910   50.1792 C   0  0  0  0  0  0  0  0  0  0  0  0
    3.1852   14.5661   50.8614 C   0  0  0  0  0  0  0  0  0  0  0  0
    2.2483   14.0263   51.7750 C   0  0  0  0  0  0  0  0  0  0  0  0
    1.0235   14.6917   52.0263 C   0  0  0  0  0  0  0  0  0  0  0  0
    0.7202   15.9012   51.3686 C   0  0  0  0  0  0  0  0  0  0  0  0
    1.6371   16.4527   50.4559 C   0  0  0  0  0  0  0  0  0  0  0  0
    4.1369   15.7856   48.1383 O   0  0  0  0  0  0  0  0  0  0  0  0
   11.9624   20.9730   54.1718 C   0  0  0  0  0  0  0  0  0  0  0  0
    6.8273   19.3630   50.6638 C   0  0  0  0  0  0  0  0  0  0  0  0
    0.7395   19.8729   53.1834 P   0  0  1  0  0  0  0  0  0  0  0  0
   10.1542   19.4034   54.2010 N   0  0  0  0  0  0  0  0  0  0  0  0
   -0.7160   19.7658   52.9670 O   0  0  0  0  0  0  0  0  0  0  0  0
    4.5418   17.5689   49.4645 S   0  0  0  0  0  0  0  0  0  0  0  0
    6.3584   17.2199   53.1911 C   0  0  0  0  0  0  0  0  0  0  0  0
   10.5355   20.7146   54.0263 C   0  0  0  0  0  0  0  0  0  0  0  0
    1.1437   20.9079   54.1731 O   0  5  0  0  0  0  0  0  0  0  0  0
    6.0542   18.5018   52.8699 N   0  0  0  0  0  0  0  0  0  0  0  0
    9.7143   21.6789   53.7510 N   0  0  0  0  0  0  0  0  0  0  0  0
    1.3158   18.5365   53.4596 O   0  0  0  0  0  0  0  0  0  0  0  0
    5.7175   18.7278   51.4569 C   0  0  2  0  0  0  0  0  0  0  0  0
    8.3616   21.4280   53.6211 C   0  0  0  0  0  0  0  0  0  0  0  0
    7.5443   22.4462   53.3415 N   0  0  0  0  0  0  0  0  0  0  0  0
    4.4685   18.3841   50.7841 C   0  0  1  0  0  0  0  0  0  0  0  0
    7.8781   20.0678   53.7998 C   0  0  0  0  0  0  0  0  0  0  0  0
    7.4842   16.9140   52.8651 O   0  0  0  0  0  0  0  0  0  0  0  0
    3.1195   18.7753   51.2741 C   0  0  0  0  0  0  0  0  0  0  0  0
    8.8347   19.1138   54.0815 C   0  0  0  0  0  0  0  0  0  0  0  0
    2.8113   20.1920   51.5059 C   0  0  0  0  0  0  0  0  0  0  0  0
    6.4074   19.7399   53.7132 C   0  0  0  0  0  0  0  0  0  0  0  0
    1.4288   20.3648   51.8629 O   0  0  0  0  0  0  0  0  0  0  0  0
  1  2  1  0  0  0  0
  1  8  2  0  0  0  0
  1 14  1  0  0  0  0
  2  3  2  0  0  0  0
  2  7  1  0  0  0  0
  3  4  1  0  0  0  0
  4  5  2  0  0  0  0
  5  6  1  0  0  0  0
  6  7  2  0  0  0  0
  9 16  1  0  0  0  0
 10 21  1  0  0  0  0
 11 13  1  6  0  0  0
 11 17  1  0  0  0  0
 11 20  2  0  0  0  0
 11 31  1  0  0  0  0
 12 16  2  0  0  0  0
 12 28  1  0  0  0  0
 15 26  1  0  0  0  0
 15 18  1  0  0  0  0
 16 19  1  0  0  0  0
 18 30  1  0  0  0  0
 19 22  2  0  0  0  0
 21 18  1  6  0  0  0
 21 24  1  0  0  0  0
 22 23  1  0  0  0  0
 22 25  1  0  0  0  0
 24 14  1  6  0  0  0
 24 27  1  0  0  0  0
 25 28  2  0  0  0  0
 25 30  1  0  0  0  0
 27 29  1  0  0  0  0
 29 31  1  0  0  0  0
M  CHG  1  17  -1
M  END
>  <CHROM.1>
66.91897170,6.01801308,125.52794393,78.29538673,-103.08062956,68.00233833
50.11507004,-123.20387930,134.20280333,174.97760604,67.36674241,-158.40381916
4.71581521,18.61228926,52.15469578,-2.69465782,-0.01319879,0.60292376

>  <Name>
ligand

>  <RI>
0

>  <Rbt.Current_Directory>
/home/itssahil/PROJECTS/Mol_Feturizer/New_Systems/rnas/2HOO

>  <Rbt.Executable>
rbdock ($Id: //depot/dev/client3/rdock/2013.1/src/exe/rbdock.cxx#4 $)

>  <Rbt.Library>
libRbt.so (2013.1, Build901 2013/11/27)

>  <Rbt.Parameter_File>
/export/apps/rDock/src/rDock_2013.1_src/data/scripts/dock_solv.prm

>  <Rbt.Receptor>
prm/pocket_docking_6.prm

>  <SCORE>
-34.7863

>  <SCORE.INTER>
-22.2998

>  <SCORE.INTER.CONST>
1

>  <SCORE.INTER.POLAR>
0

>  <SCORE.INTER.ROT>
12

>  <SCORE.INTER.SOLV>
10.0887

>  <SCORE.INTER.VDW>
-29.8294

>  <SCORE.INTER.norm>
-0.719349

>  <SCORE.INTRA>
-12.4865

>  <SCORE.INTRA.DIHEDRAL>
-2.40634

>  <SCORE.INTRA.DIHEDRAL.0>
14.6094

>  <SCORE.INTRA.POLAR>
0

>  <SCORE.INTRA.POLAR.0>
0

>  <SCORE.INTRA.REPUL>
0

>  <SCORE.INTRA.REPUL.0>
0

>  <SCORE.INTRA.SOLV>
1.94974

>  <SCORE.INTRA.SOLV.lig_0>
-65.6478

>  <SCORE.INTRA.VDW>
-12.2582

>  <SCORE.INTRA.VDW.0>
9.35535

>  <SCORE.INTRA.norm>
-0.40279

>  <SCORE.RESTR>
0

>  <SCORE.RESTR.CAVITY>
0

>  <SCORE.RESTR.norm>
0

>  <SCORE.SYSTEM>
0

>  <SCORE.SYSTEM.CONST>
0

>  <SCORE.SYSTEM.DIHEDRAL>
0

>  <SCORE.SYSTEM.SOLV>
0

>  <SCORE.SYSTEM.norm>
0

>  <SCORE.heavy>
31

>  <SCORE.norm>
-1.12214

>  <RMSD>
3.381

$$$$
ligand
 OpenBabel11021811443D
libRbt.so/2013.1/901 2013/11/27
 31 32  0  0  0  0  0  0  0  0999 V2000
    3.3628   16.2580   49.8232 C   0  0  0  0  0  0  0  0  0  0  0  0
    3.8549   14.9797   49.1512 C   0  0  0  0  0  0  0  0  0  0  0  0
    4.6559   14.0451   49.8843 C   0  0  0  0  0  0  0  0  0  0  0  0
    5.1123   12.8625   49.2543 C   0  0  0  0  0  0  0  0  0  0  0  0
    4.7772   12.5911   47.9051 C   0  0  0  0  0  0  0  0  0  0  0  0
    3.9849   13.4965   47.1704 C   0  0  0  0  0  0  0  0  0  0  0  0
    3.5233   14.6780   47.7779 C   0  0  0  0  0  0  0  0  0  0  0  0
    2.3548   16.2323   50.5288 O   0  0  0  0  0  0  0  0  0  0  0  0
   12.0647   21.4707   54.3466 C   0  0  0  0  0  0  0  0  0  0  0  0
    6.2999   17.3268   52.0029 C   0  0  0  0  0  0  0  0  0  0  0  0
    2.0635   23.0970   51.4323 P   0  0  1  0  0  0  0  0  0  0  0  0
   10.1431   22.2191   53.1294 N   0  0  0  0  0  0  0  0  0  0  0  0
    2.2647   23.5944   50.0579 O   0  0  0  0  0  0  0  0  0  0  0  0
    4.0387   17.4529   49.6470 S   0  0  0  0  0  0  0  0  0  0  0  0
    7.2027   19.8380   49.8740 C   0  0  0  0  0  0  0  0  0  0  0  0
   10.7158   21.2047   53.8630 C   0  0  0  0  0  0  0  0  0  0  0  0
    3.0553   23.5963   52.4228 O   0  5  0  0  0  0  0  0  0  0  0  0
    6.7352   19.6183   51.1278 N   0  0  0  0  0  0  0  0  0  0  0  0
   10.1296   20.0791   54.1264 N   0  0  0  0  0  0  0  0  0  0  0  0
    0.6576   23.3032   51.8508 O   0  0  0  0  0  0  0  0  0  0  0  0
    5.7697   18.5164   51.2494 C   0  0  2  0  0  0  0  0  0  0  0  0
    8.8532   19.8307   53.6591 C   0  0  0  0  0  0  0  0  0  0  0  0
    8.2818   18.6585   53.9458 N   0  0  0  0  0  0  0  0  0  0  0  0
    4.3994   18.4877   50.7471 C   0  0  1  0  0  0  0  0  0  0  0  0
    8.1827   20.8509   52.8681 C   0  0  0  0  0  0  0  0  0  0  0  0
    8.3837   19.5896   49.7685 O   0  0  0  0  0  0  0  0  0  0  0  0
    3.3189   19.3981   51.2125 C   0  0  0  0  0  0  0  0  0  0  0  0
    8.8900   22.0162   52.6522 C   0  0  0  0  0  0  0  0  0  0  0  0
    3.5039   20.8521   51.1263 C   0  0  0  0  0  0  0  0  0  0  0  0
    6.8062   20.6202   52.2940 C   0  0  0  0  0  0  0  0  0  0  0  0
    2.2897   21.5450   51.4641 O   0  0  0  0  0  0  0  0  0  0  0  0
  1  2  1  0  0  0  0
  1  8  2  0  0  0  0
  1 14  1  0  0  0  0
  2  3  2  0  0  0  0
  2  7  1  0  0  0  0
  3  4  1  0  0  0  0
  4  5  2  0  0  0  0
  5  6  1  0  0  0  0
  6  7  2  0  0  0  0
  9 16  1  0  0  0  0
 10 21  1  0  0  0  0
 11 13  1  6  0  0  0
 11 17  1  0  0  0  0
 11 20  2  0  0  0  0
 11 31  1  0  0  0  0
 12 16  2  0  0  0  0
 12 28  1  0  0  0  0
 15 26  1  0  0  0  0
 15 18  1  0  0  0  0
 16 19  1  0  0  0  0
 18 30  1  0  0  0  0
 19 22  2  0  0  0  0
 21 18  1  1  0  0  0
 21 24  1  0  0  0  0
 22 23  1  0  0  0  0
 22 25  1  0  0  0  0
 24 14  1  6  0  0  0
 24 27  1  0  0  0  0
 25 28  2  0  0  0  0
 25 30  1  0  0  0  0
 27 29  1  0  0  0  0
 29 31  1  0  0  0  0
M  CHG  1  17  -1
M  END
>  <CHROM.1>
-82.37778790,-135.35891319,102.06863608,-113.32164698,111.12750474,-71.26008256
-65.24146250,-122.93636445,-71.33754562,172.68179753,-177.25522977,60.90368323
5.40745467,19.24749929,51.16685626,2.10046589,0.31513094,-2.77928560

>  <Name>
ligand

>  <RI>
0

>  <Rbt.Current_Directory>
/home/itssahil/PROJECTS/Mol_Feturizer/New_Systems/rnas/2HOO

>  <Rbt.Executable>
rbdock ($Id: //depot/dev/client3/rdock/2013.1/src/exe/rbdock.cxx#4 $)

>  <Rbt.Library>
libRbt.so (2013.1, Build901 2013/11/27)

>  <Rbt.Parameter_File>
/export/apps/rDock/src/rDock_2013.1_src/data/scripts/dock_solv.prm

>  <Rbt.Receptor>
prm/pocket_docking_5.prm

>  <SCORE>
-32.6443

>  <SCORE.INTER>
-19.8282

>  <SCORE.INTER.CONST>
1

>  <SCORE.INTER.POLAR>
0

>  <SCORE.INTER.ROT>
12

>  <SCORE.INTER.SOLV>
14.2162

>  <SCORE.INTER.VDW>
-29.5575

>  <SCORE.INTER.norm>
-0.63962

>  <SCORE.INTRA>
-12.8161

>  <SCORE.INTRA.DIHEDRAL>
0.189341

>  <SCORE.INTRA.DIHEDRAL.0>
14.6094

>  <SCORE.INTRA.POLAR>
0

>  <SCORE.INTRA.POLAR.0>
0

>  <SCORE.INTRA.REPUL>
0

>  <SCORE.INTRA.REPUL.0>
0

>  <SCORE.INTRA.SOLV>
3.11724

>  <SCORE.INTRA.SOLV.lig_0>
-65.6478

>  <SCORE.INTRA.VDW>
-14.4694

>  <SCORE.INTRA.VDW.0>
9.35535

>  <SCORE.INTRA.norm>
-0.413423

>  <SCORE.RESTR>
0

>  <SCORE.RESTR.CAVITY>
0

>  <SCORE.RESTR.norm>
0

>  <SCORE.SYSTEM>
0

>  <SCORE.SYSTEM.CONST>
0

>  <SCORE.SYSTEM.DIHEDRAL>
0

>  <SCORE.SYSTEM.SOLV>
0

>  <SCORE.SYSTEM.norm>
0

>  <SCORE.heavy>
31

>  <SCORE.norm>
-1.05304

>  <RMSD>
3.394

$$$$
ligand
 OpenBabel11021811443D
libRbt.so/2013.1/901 2013/11/27
 31 32  0  0  0  0  0  0  0  0999 V2000
    5.9168   16.9316   48.6574 C   0  0  0  0  0  0  0  0  0  0  0  0
    7.1056   17.8877   48.6334 C   0  0  0  0  0  0  0  0  0  0  0  0
    6.8919   19.2962   48.4826 C   0  0  0  0  0  0  0  0  0  0  0  0
    7.9990   20.1779   48.4578 C   0  0  0  0  0  0  0  0  0  0  0  0
    9.3184   19.6794   48.5881 C   0  0  0  0  0  0  0  0  0  0  0  0
    9.5470   18.2970   48.7434 C   0  0  0  0  0  0  0  0  0  0  0  0
    8.4603   17.4046   48.7687 C   0  0  0  0  0  0  0  0  0  0  0  0
    5.5701   16.3565   47.6261 O   0  0  0  0  0  0  0  0  0  0  0  0
   10.5913   22.9344   53.9454 C   0  0  0  0  0  0  0  0  0  0  0  0
    4.4862   20.1784   51.1897 C   0  0  0  0  0  0  0  0  0  0  0  0
    0.7559   19.2541   53.2327 P   0  0  1  0  0  0  0  0  0  0  0  0
    9.0220   22.0503   52.3675 N   0  0  0  0  0  0  0  0  0  0  0  0
   -0.6202   18.9201   52.8183 O   0  0  0  0  0  0  0  0  0  0  0  0
    5.2190   16.7028   49.8306 S   0  0  0  0  0  0  0  0  0  0  0  0
    5.5393   18.0329   53.5727 C   0  0  0  0  0  0  0  0  0  0  0  0
    9.7894   21.8081   53.4844 C   0  0  0  0  0  0  0  0  0  0  0  0
    1.0188   20.7102   53.3904 O   0  5  0  0  0  0  0  0  0  0  0  0
    5.9576   18.5749   52.4022 N   0  0  0  0  0  0  0  0  0  0  0  0
    9.8235   20.6732   54.1096 N   0  0  0  0  0  0  0  0  0  0  0  0
    1.1422   18.4539   54.4179 O   0  0  0  0  0  0  0  0  0  0  0  0
    4.9102   18.7479   51.3853 C   0  0  2  0  0  0  0  0  0  0  0  0
    9.0659   19.6074   53.6631 C   0  0  0  0  0  0  0  0  0  0  0  0
    9.1291   18.4518   54.3291 N   0  0  0  0  0  0  0  0  0  0  0  0
    4.2929   17.7051   50.5715 C   0  0  1  0  0  0  0  0  0  0  0  0
    8.2340   19.7811   52.4826 C   0  0  0  0  0  0  0  0  0  0  0  0
    4.8252   18.7819   54.2024 O   0  0  0  0  0  0  0  0  0  0  0  0
    2.8250   17.5432   50.3924 C   0  0  0  0  0  0  0  0  0  0  0  0
    8.2625   21.0303   51.8964 C   0  0  0  0  0  0  0  0  0  0  0  0
    1.9463   17.5160   51.5684 C   0  0  0  0  0  0  0  0  0  0  0  0
    7.4185   18.6414   51.9223 C   0  0  0  0  0  0  0  0  0  0  0  0
    1.7577   18.8394   52.0990 O   0  0  0  0  0  0  0  0  0  0  0  0
  1  2  1  0  0  0  0
  1  8  2  0  0  0  0
  1 14  1  0  0  0  0
  2  3  2  0  0  0  0
  2  7  1  0  0  0  0
  3  4  1  0  0  0  0
  4  5  2  0  0  0  0
  5  6  1  0  0  0  0
  6  7  2  0  0  0  0
  9 16  1  0  0  0  0
 10 21  1  0  0  0  0
 11 13  1  6  0  0  0
 11 17  1  0  0  0  0
 11 20  2  0  0  0  0
 11 31  1  0  0  0  0
 12 16  2  0  0  0  0
 12 28  1  0  0  0  0
 15 26  1  0  0  0  0
 15 18  1  0  0  0  0
 16 19  1  0  0  0  0
 18 30  1  0  0  0  0
 19 22  2  0  0  0  0
 21 18  1  6  0  0  0
 21 24  1  0  0  0  0
 22 23  1  0  0  0  0
 22 25  1  0  0  0  0
 24 14  1  6  0  0  0
 24 27  1  0  0  0  0
 25 28  2  0  0  0  0
 25 30  1  0  0  0  0
 27 29  1  0  0  0  0
 29 31  1  0  0  0  0
M  CHG  1  17  -1
M  END
>  <CHROM.1>
96.03816487,69.85667235,-78.29950598,-69.27299131,106.42337429,-82.12125415
129.43690693,130.31283242,94.54646111,76.29175733,171.90472286,-59.32659318
5.59077594,18.97273547,51.61549016,0.01860043,-0.21759957,-2.10361706

>  <Name>
ligand

>  <RI>
0

>  <Rbt.Current_Directory>
/home/itssahil/PROJECTS/Mol_Feturizer/New_Systems/rnas/2HOO

>  <Rbt.Executable>
rbdock ($Id: //depot/dev/client3/rdock/2013.1/src/exe/rbdock.cxx#4 $)

>  <Rbt.Library>
libRbt.so (2013.1, Build901 2013/11/27)

>  <Rbt.Parameter_File>
/export/apps/rDock/src/rDock_2013.1_src/data/scripts/dock_solv.prm

>  <Rbt.Receptor>
prm/pocket_docking_4.prm

>  <SCORE>
-28.9751

>  <SCORE.INTER>
-14.7978

>  <SCORE.INTER.CONST>
1

>  <SCORE.INTER.POLAR>
0

>  <SCORE.INTER.ROT>
12

>  <SCORE.INTER.SOLV>
14.5358

>  <SCORE.INTER.VDW>
-26.3104

>  <SCORE.INTER.norm>
-0.477347

>  <SCORE.INTRA>
-14.1774

>  <SCORE.INTRA.DIHEDRAL>
3.37601

>  <SCORE.INTRA.DIHEDRAL.0>
14.6094

>  <SCORE.INTRA.POLAR>
0

>  <SCORE.INTRA.POLAR.0>
0

>  <SCORE.INTRA.REPUL>
0

>  <SCORE.INTRA.REPUL.0>
0

>  <SCORE.INTRA.SOLV>
2.14614

>  <SCORE.INTRA.SOLV.lig_0>
-65.6478

>  <SCORE.INTRA.VDW>
-16.9384

>  <SCORE.INTRA.VDW.0>
9.35535

>  <SCORE.INTRA.norm>
-0.457334

>  <SCORE.RESTR>
0

>  <SCORE.RESTR.CAVITY>
0

>  <SCORE.RESTR.norm>
0

>  <SCORE.SYSTEM>
0

>  <SCORE.SYSTEM.CONST>
0

>  <SCORE.SYSTEM.DIHEDRAL>
0

>  <SCORE.SYSTEM.SOLV>
0

>  <SCORE.SYSTEM.norm>
0

>  <SCORE.heavy>
31

>  <SCORE.norm>
-0.934681

>  <RMSD>
3.400

$$$$
ligand
 OpenBabel11021811443D
libRbt.so/2013.1/901 2013/11/27
 31 32  0  0  0  0  0  0  0  0999 V2000
    6.9557   16.6025   50.1737 C   0  0  0  0  0  0  0  0  0  0  0  0
    7.6808   17.7646   49.5014 C   0  0  0  0  0  0  0  0  0  0  0  0
    9.1100   17.8470   49.5546 C   0  0  0  0  0  0  0  0  0  0  0  0
    9.7767   18.9293   48.9318 C   0  0  0  0  0  0  0  0  0  0  0  0
    9.0421   19.9295   48.2491 C   0  0  0  0  0  0  0  0  0  0  0  0
    7.6356   19.8612   48.1814 C   0  0  0  0  0  0  0  0  0  0  0  0
    6.9546   18.7948   48.7954 C   0  0  0  0  0  0  0  0  0  0  0  0
    7.1766   15.4478   49.8101 O   0  0  0  0  0  0  0  0  0  0  0  0
   13.0312   19.5337   54.0765 C   0  0  0  0  0  0  0  0  0  0  0  0
    5.2182   18.7416   53.9799 C   0  0  0  0  0  0  0  0  0  0  0  0
    1.5520   15.6059   50.6947 P   0  0  1  0  0  0  0  0  0  0  0  0
   11.1690   20.9931   53.7073 N   0  0  0  0  0  0  0  0  0  0  0  0
    1.8115   14.7439   51.8637 O   0  0  0  0  0  0  0  0  0  0  0  0
    6.0468   16.8324   51.1919 S   0  0  0  0  0  0  0  0  0  0  0  0
    6.6972   20.8340   51.4124 C   0  0  0  0  0  0  0  0  0  0  0  0
   11.5870   19.7285   54.0555 C   0  0  0  0  0  0  0  0  0  0  0  0
    1.4791   14.8827   49.3963 O   0  5  0  0  0  0  0  0  0  0  0  0
    6.7459   20.0844   52.5414 N   0  0  0  0  0  0  0  0  0  0  0  0
   10.7847   18.7542   54.3504 N   0  0  0  0  0  0  0  0  0  0  0  0
    0.3816   16.4770   50.9506 O   0  0  0  0  0  0  0  0  0  0  0  0
    5.7728   18.9842   52.6023 C   0  0  2  0  0  0  0  0  0  0  0  0
    9.4163   18.9440   54.3219 C   0  0  0  0  0  0  0  0  0  0  0  0
    8.6197   17.9168   54.6272 N   0  0  0  0  0  0  0  0  0  0  0  0
    5.3032   18.1623   51.4912 C   0  0  1  0  0  0  0  0  0  0  0  0
    8.8948   20.2514   53.9549 C   0  0  0  0  0  0  0  0  0  0  0  0
    7.7963   21.0536   50.9528 O   0  0  0  0  0  0  0  0  0  0  0  0
    4.1589   18.5209   50.6109 C   0  0  0  0  0  0  0  0  0  0  0  0
    9.8329   21.2221   53.6677 C   0  0  0  0  0  0  0  0  0  0  0  0
    2.8289   17.9603   50.8805 C   0  0  0  0  0  0  0  0  0  0  0  0
    7.4102   20.5070   53.8640 C   0  0  0  0  0  0  0  0  0  0  0  0
    2.7642   16.5791   50.4845 O   0  0  0  0  0  0  0  0  0  0  0  0
  1  2  1  0  0  0  0
  1  8  2  0  0  0  0
  1 14  1  0  0  0  0
  2  3  2  0  0  0  0
  2  7  1  0  0  0  0
  3  4  1  0  0  0  0
  4  5  2  0  0  0  0
  5  6  1  0  0  0  0
  6  7  2  0  0  0  0
  9 16  1  0  0  0  0
 10 21  1  0  0  0  0
 11 13  1  1  0  0  0
 11 17  1  0  0  0  0
 11 20  2  0  0  0  0
 11 31  1  0  0  0  0
 12 16  2  0  0  0  0
 12 28  1  0  0  0  0
 15 26  1  0  0  0  0
 15 18  1  0  0  0  0
 16 19  1  0  0  0  0
 18 30  1  0  0  0  0
 19 22  2  0  0  0  0
 21 18  1  6  0  0  0
 21 24  1  0  0  0  0
 22 23  1  0  0  0  0
 22 25  1  0  0  0  0
 24 14  1  6  0  0  0
 24 27  1  0  0  0  0
 25 28  2  0  0  0  0
 25 30  1  0  0  0  0
 27 29  1  0  0  0  0
 29 31  1  0  0  0  0
M  CHG  1  17  -1
M  END
>  <CHROM.1>
-60.91135460,20.67200408,-102.95058946,-134.79910439,-143.61180151,-84.55656760
-88.75793982,83.55435140,-82.64266074,-74.91556086,175.67830577,-100.43916808
6.49847511,18.22051796,51.54645770,-2.81018212,0.40532632,1.42476626

>  <Name>
ligand

>  <RI>
0

>  <Rbt.Current_Directory>
/home/itssahil/PROJECTS/Mol_Feturizer/New_Systems/rnas/2HOO

>  <Rbt.Executable>
rbdock ($Id: //depot/dev/client3/rdock/2013.1/src/exe/rbdock.cxx#4 $)

>  <Rbt.Library>
libRbt.so (2013.1, Build901 2013/11/27)

>  <Rbt.Parameter_File>
/export/apps/rDock/src/rDock_2013.1_src/data/scripts/dock_solv.prm

>  <Rbt.Receptor>
prm/blind_docking_80.prm

>  <SCORE>
-28.7027

>  <SCORE.INTER>
-18.9666

>  <SCORE.INTER.CONST>
1

>  <SCORE.INTER.POLAR>
0

>  <SCORE.INTER.ROT>
12

>  <SCORE.INTER.SOLV>
22.501

>  <SCORE.INTER.VDW>
-31.7448

>  <SCORE.INTER.norm>
-0.611827

>  <SCORE.INTRA>
-9.77225

>  <SCORE.INTRA.DIHEDRAL>
2.62771

>  <SCORE.INTRA.DIHEDRAL.0>
14.6094

>  <SCORE.INTRA.POLAR>
0

>  <SCORE.INTRA.POLAR.0>
0

>  <SCORE.INTRA.REPUL>
0

>  <SCORE.INTRA.REPUL.0>
0

>  <SCORE.INTRA.SOLV>
2.65557

>  <SCORE.INTRA.SOLV.lig_0>
-65.6478

>  <SCORE.INTRA.VDW>
-12.4139

>  <SCORE.INTRA.VDW.0>
9.35535

>  <SCORE.INTRA.norm>
-0.315234

>  <SCORE.RESTR>
0.0361864

>  <SCORE.RESTR.CAVITY>
0.0361864

>  <SCORE.RESTR.norm>
0.0011673

>  <SCORE.SYSTEM>
0

>  <SCORE.SYSTEM.CONST>
0

>  <SCORE.SYSTEM.DIHEDRAL>
0

>  <SCORE.SYSTEM.SOLV>
0

>  <SCORE.SYSTEM.norm>
0

>  <SCORE.heavy>
31

>  <SCORE.norm>
-0.925894

>  <RMSD>
3.426

$$$$
ligand
 OpenBabel11021811443D
libRbt.so/2013.1/901 2013/11/27
 31 32  0  0  0  0  0  0  0  0999 V2000
    3.8264   17.7787   50.1228 C   0  0  0  0  0  0  0  0  0  0  0  0
    2.7900   17.6918   51.2392 C   0  0  0  0  0  0  0  0  0  0  0  0
    1.3937   17.6505   50.9216 C   0  0  0  0  0  0  0  0  0  0  0  0
    0.4367   17.5733   51.9618 C   0  0  0  0  0  0  0  0  0  0  0  0
    0.8489   17.5291   53.3162 C   0  0  0  0  0  0  0  0  0  0  0  0
    2.2188   17.5625   53.6469 C   0  0  0  0  0  0  0  0  0  0  0  0
    3.1850   17.6411   52.6279 C   0  0  0  0  0  0  0  0  0  0  0  0
    3.7676   17.0043   49.1682 O   0  0  0  0  0  0  0  0  0  0  0  0
   13.6011   19.7349   54.9351 C   0  0  0  0  0  0  0  0  0  0  0  0
    6.6204   18.0692   53.0357 C   0  0  0  0  0  0  0  0  0  0  0  0
    2.6402   23.3576   51.7911 P   0  0  1  0  0  0  0  0  0  0  0  0
   11.5302   18.9967   53.9861 N   0  0  0  0  0  0  0  0  0  0  0  0
    4.0974   23.5734   51.8724 O   0  0  0  0  0  0  0  0  0  0  0  0
    4.8383   18.7219   50.1715 S   0  0  0  0  0  0  0  0  0  0  0  0
    8.3106   19.8370   50.5390 C   0  0  0  0  0  0  0  0  0  0  0  0
   12.2802   20.0677   54.4170 C   0  0  0  0  0  0  0  0  0  0  0  0
    1.8605   23.9728   52.8991 O   0  5  0  0  0  0  0  0  0  0  0  0
    7.8645   19.8524   51.8195 N   0  0  0  0  0  0  0  0  0  0  0  0
   11.8758   21.2986   54.3808 N   0  0  0  0  0  0  0  0  0  0  0  0
    2.1424   23.7253   50.4453 O   0  0  0  0  0  0  0  0  0  0  0  0
    6.5686   19.1932   52.0366 C   0  0  2  0  0  0  0  0  0  0  0  0
   10.6195   21.6065   53.8945 C   0  0  0  0  0  0  0  0  0  0  0  0
   10.2343   22.8849   53.8762 N   0  0  0  0  0  0  0  0  0  0  0  0
    5.2928   19.5340   51.4145 C   0  0  1  0  0  0  0  0  0  0  0  0
    9.7622   20.5282   53.4274 C   0  0  0  0  0  0  0  0  0  0  0  0
    8.5149   18.7146   50.1318 O   0  0  0  0  0  0  0  0  0  0  0  0
    4.3967   20.6235   51.8867 C   0  0  0  0  0  0  0  0  0  0  0  0
   10.2906   19.2553   53.5007 C   0  0  0  0  0  0  0  0  0  0  0  0
    3.0413   20.7424   51.3349 C   0  0  0  0  0  0  0  0  0  0  0  0
    8.3643   20.7978   52.9264 C   0  0  0  0  0  0  0  0  0  0  0  0
    2.3290   21.8285   51.9527 O   0  0  0  0  0  0  0  0  0  0  0  0
  1  2  1  0  0  0  0
  1  8  2  0  0  0  0
  1 14  1  0  0  0  0
  2  3  2  0  0  0  0
  2  7  1  0  0  0  0
  3  4  1  0  0  0  0
  4  5  2  0  0  0  0
  5  6  1  0  0  0  0
  6  7  2  0  0  0  0
  9 16  1  0  0  0  0
 10 21  1  0  0  0  0
 11 13  1  1  0  0  0
 11 17  1  0  0  0  0
 11 20  2  0  0  0  0
 11 31  1  0  0  0  0
 12 16  2  0  0  0  0
 12 28  1  0  0  0  0
 15 26  1  0  0  0  0
 15 18  1  0  0  0  0
 16 19  1  0  0  0  0
 18 30  1  0  0  0  0
 19 22  2  0  0  0  0
 21 18  1  1  0  0  0
 21 24  1  0  0  0  0
 22 23  1  0  0  0  0
 22 25  1  0  0  0  0
 24 14  1  6  0  0  0
 24 27  1  0  0  0  0
 25 28  2  0  0  0  0
 25 30  1  0  0  0  0
 27 29  1  0  0  0  0
 29 31  1  0  0  0  0
M  CHG  1  17  -1
M  END
>  <CHROM.1>
-49.47576033,16.13253890,107.37787364,-62.98355707,121.76213018,-70.79118373
-83.97907909,10.65053036,148.02209102,178.14818591,68.35328895,-43.27206953
5.81363816,20.09475260,52.10984560,-3.07691864,-0.23522182,0.17913020

>  <Name>
ligand

>  <RI>
0

>  <Rbt.Current_Directory>
/home/itssahil/PROJECTS/Mol_Feturizer/New_Systems/rnas/2HOO

>  <Rbt.Executable>
rbdock ($Id: //depot/dev/client3/rdock/2013.1/src/exe/rbdock.cxx#4 $)

>  <Rbt.Library>
libRbt.so (2013.1, Build901 2013/11/27)

>  <Rbt.Parameter_File>
/export/apps/rDock/src/rDock_2013.1_src/data/scripts/dock_solv.prm

>  <Rbt.Receptor>
prm/pocket_docking_6.prm

>  <SCORE>
-35.0623

>  <SCORE.INTER>
-21.3873

>  <SCORE.INTER.CONST>
1

>  <SCORE.INTER.POLAR>
0

>  <SCORE.INTER.ROT>
12

>  <SCORE.INTER.SOLV>
19.0947

>  <SCORE.INTER.VDW>
-32.2231

>  <SCORE.INTER.norm>
-0.689912

>  <SCORE.INTRA>
-13.675

>  <SCORE.INTRA.DIHEDRAL>
-1.44333

>  <SCORE.INTRA.DIHEDRAL.0>
14.6094

>  <SCORE.INTRA.POLAR>
0

>  <SCORE.INTRA.POLAR.0>
0

>  <SCORE.INTRA.REPUL>
0

>  <SCORE.INTRA.REPUL.0>
0

>  <SCORE.INTRA.SOLV>
-0.606341

>  <SCORE.INTRA.SOLV.lig_0>
-65.6478

>  <SCORE.INTRA.VDW>
-12.6502

>  <SCORE.INTRA.VDW.0>
9.35535

>  <SCORE.INTRA.norm>
-0.441129

>  <SCORE.RESTR>
0

>  <SCORE.RESTR.CAVITY>
0

>  <SCORE.RESTR.norm>
0

>  <SCORE.SYSTEM>
0

>  <SCORE.SYSTEM.CONST>
0

>  <SCORE.SYSTEM.DIHEDRAL>
0

>  <SCORE.SYSTEM.SOLV>
0

>  <SCORE.SYSTEM.norm>
0

>  <SCORE.heavy>
31

>  <SCORE.norm>
-1.13104

>  <RMSD>
3.590

$$$$
ligand
 OpenBabel11021811443D
libRbt.so/2013.1/901 2013/11/27
 31 32  0  0  0  0  0  0  0  0999 V2000
    2.6568   18.3134   52.2307 C   0  0  0  0  0  0  0  0  0  0  0  0
    2.4090   16.8188   52.0501 C   0  0  0  0  0  0  0  0  0  0  0  0
    3.0599   16.1052   50.9921 C   0  0  0  0  0  0  0  0  0  0  0  0
    2.8234   14.7193   50.8276 C   0  0  0  0  0  0  0  0  0  0  0  0
    1.9526   14.0292   51.7061 C   0  0  0  0  0  0  0  0  0  0  0  0
    1.3084   14.7140   52.7564 C   0  0  0  0  0  0  0  0  0  0  0  0
    1.5289   16.0915   52.9353 C   0  0  0  0  0  0  0  0  0  0  0  0
    1.7054   19.0814   52.3700 O   0  0  0  0  0  0  0  0  0  0  0  0
   12.7524   20.2745   54.3044 C   0  0  0  0  0  0  0  0  0  0  0  0
    6.6824   19.7291   50.5413 C   0  0  0  0  0  0  0  0  0  0  0  0
    2.2870   23.4921   54.0605 P   0  0  1  0  0  0  0  0  0  0  0  0
   10.7835   21.6057   54.0119 N   0  0  0  0  0  0  0  0  0  0  0  0
    1.1907   24.2477   53.4248 O   0  0  0  0  0  0  0  0  0  0  0  0
    3.9452   18.8191   52.2384 S   0  0  0  0  0  0  0  0  0  0  0  0
    6.5483   22.6537   52.1227 C   0  0  0  0  0  0  0  0  0  0  0  0
   11.3004   20.3436   54.1991 C   0  0  0  0  0  0  0  0  0  0  0  0
    3.5498   24.2601   54.2323 O   0  5  0  0  0  0  0  0  0  0  0  0
    6.6240   21.3380   52.4424 N   0  0  0  0  0  0  0  0  0  0  0  0
   10.5803   19.2690   54.2809 N   0  0  0  0  0  0  0  0  0  0  0  0
    1.8114   22.8530   55.3094 O   0  0  0  0  0  0  0  0  0  0  0  0
    5.8498   20.4395   51.5739 C   0  0  2  0  0  0  0  0  0  0  0  0
    9.2046   19.3408   54.1734 C   0  0  0  0  0  0  0  0  0  0  0  0
    8.4947   18.2131   54.2581 N   0  0  0  0  0  0  0  0  0  0  0  0
    4.4163   20.1719   51.6392 C   0  0  1  0  0  0  0  0  0  0  0  0
    8.5820   20.6390   53.9660 C   0  0  0  0  0  0  0  0  0  0  0  0
    7.6394   23.1622   51.9866 O   0  0  0  0  0  0  0  0  0  0  0  0
    3.3677   21.1096   51.1555 C   0  0  0  0  0  0  0  0  0  0  0  0
    9.4367   21.7207   53.9018 C   0  0  0  0  0  0  0  0  0  0  0  0
    3.2272   22.4306   51.7807 C   0  0  0  0  0  0  0  0  0  0  0  0
    7.0883   20.7752   53.7976 C   0  0  0  0  0  0  0  0  0  0  0  0
    2.7209   22.3126   53.1218 O   0  0  0  0  0  0  0  0  0  0  0  0
  1  2  1  0  0  0  0
  1  8  2  0  0  0  0
  1 14  1  0  0  0  0
  2  3  2  0  0  0  0
  2  7  1  0  0  0  0
  3  4  1  0  0  0  0
  4  5  2  0  0  0  0
  5  6  1  0  0  0  0
  6  7  2  0  0  0  0
  9 16  1  0  0  0  0
 10 21  1  0  0  0  0
 11 13  1  6  0  0  0
 11 17  1  0  0  0  0
 11 20  2  0  0  0  0
 11 31  1  0  0  0  0
 12 16  2  0  0  0  0
 12 28  1  0  0  0  0
 15 26  1  0  0  0  0
 15 18  1  0  0  0  0
 16 19  1  0  0  0  0
 18 30  1  0  0  0  0
 19 22  2  0  0  0  0
 21 18  1  1  0  0  0
 21 24  1  0  0  0  0
 22 23  1  0  0  0  0
 22 25  1  0  0  0  0
 24 14  1  6  0  0  0
 24 27  1  0  0  0  0
 25 28  2  0  0  0  0
 25 30  1  0  0  0  0
 27 29  1  0  0  0  0
 29 31  1  0  0  0  0
M  CHG  1  17  -1
M  END
>  <CHROM.1>
131.36069006,143.21276362,-171.15643189,-126.87424164,100.86887678,-83.77436961
74.12875620,118.01005943,-117.62042396,-69.51434105,-172.88285272,59.97160919
5.15369812,20.24038733,52.89677766,-2.82839383,-0.10980318,0.19986539

>  <Name>
ligand

>  <RI>
0

>  <Rbt.Current_Directory>
/home/itssahil/PROJECTS/Mol_Feturizer/New_Systems/rnas/2HOO

>  <Rbt.Executable>
rbdock ($Id: //depot/dev/client3/rdock/2013.1/src/exe/rbdock.cxx#4 $)

>  <Rbt.Library>
libRbt.so (2013.1, Build901 2013/11/27)

>  <Rbt.Parameter_File>
/export/apps/rDock/src/rDock_2013.1_src/data/scripts/dock_solv.prm

>  <Rbt.Receptor>
prm/pocket_docking_5.prm

>  <SCORE>
-30.5266

>  <SCORE.INTER>
-16.9004

>  <SCORE.INTER.CONST>
1

>  <SCORE.INTER.POLAR>
0

>  <SCORE.INTER.ROT>
12

>  <SCORE.INTER.SOLV>
12.5283

>  <SCORE.INTER.VDW>
-27.043

>  <SCORE.INTER.norm>
-0.545175

>  <SCORE.INTRA>
-13.6262

>  <SCORE.INTRA.DIHEDRAL>
0.552743

>  <SCORE.INTRA.DIHEDRAL.0>
14.6094

>  <SCORE.INTRA.POLAR>
0

>  <SCORE.INTRA.POLAR.0>
0

>  <SCORE.INTRA.REPUL>
0

>  <SCORE.INTRA.REPUL.0>
0

>  <SCORE.INTRA.SOLV>
0.586965

>  <SCORE.INTRA.SOLV.lig_0>
-65.6478

>  <SCORE.INTRA.VDW>
-14.196

>  <SCORE.INTRA.VDW.0>
9.35535

>  <SCORE.INTRA.norm>
-0.439553

>  <SCORE.RESTR>
0

>  <SCORE.RESTR.CAVITY>
0

>  <SCORE.RESTR.norm>
0

>  <SCORE.SYSTEM>
0

>  <SCORE.SYSTEM.CONST>
0

>  <SCORE.SYSTEM.DIHEDRAL>
0

>  <SCORE.SYSTEM.SOLV>
0

>  <SCORE.SYSTEM.norm>
0

>  <SCORE.heavy>
31

>  <SCORE.norm>
-0.984729

>  <RMSD>
3.671

$$$$
ligand
 OpenBabel11021811443D
libRbt.so/2013.1/901 2013/11/27
 31 32  0  0  0  0  0  0  0  0999 V2000
    3.8739   16.0280   49.7743 C   0  0  0  0  0  0  0  0  0  0  0  0
    2.6496   15.2665   49.2751 C   0  0  0  0  0  0  0  0  0  0  0  0
    2.5817   14.8293   47.9126 C   0  0  0  0  0  0  0  0  0  0  0  0
    1.4418   14.1261   47.4544 C   0  0  0  0  0  0  0  0  0  0  0  0
    0.3687   13.8443   48.3350 C   0  0  0  0  0  0  0  0  0  0  0  0
    0.4211   14.2616   49.6806 C   0  0  0  0  0  0  0  0  0  0  0  0
    1.5442   14.9630   50.1545 C   0  0  0  0  0  0  0  0  0  0  0  0
    4.8867   15.4128   50.1064 O   0  0  0  0  0  0  0  0  0  0  0  0
   11.3460   20.8936   54.1097 C   0  0  0  0  0  0  0  0  0  0  0  0
    3.4688   20.7287   51.6289 C   0  0  0  0  0  0  0  0  0  0  0  0
    1.7994   17.5114   55.2964 P   0  0  1  0  0  0  0  0  0  0  0  0
    9.9941   19.4089   52.8049 N   0  0  0  0  0  0  0  0  0  0  0  0
    1.8937   18.6982   56.1680 O   0  0  0  0  0  0  0  0  0  0  0  0
    3.8589   17.4093   49.8602 S   0  0  0  0  0  0  0  0  0  0  0  0
    5.5133   18.3948   53.1977 C   0  0  0  0  0  0  0  0  0  0  0  0
   10.1085   20.6556   53.3775 C   0  0  0  0  0  0  0  0  0  0  0  0
    2.8993   16.5249   55.4728 O   0  5  0  0  0  0  0  0  0  0  0  0
    5.3903   19.2253   52.1328 N   0  0  0  0  0  0  0  0  0  0  0  0
    9.2025   21.5788   53.2939 N   0  0  0  0  0  0  0  0  0  0  0  0
    0.4485   16.9114   55.3928 O   0  0  0  0  0  0  0  0  0  0  0  0
    4.0323   19.3344   51.5804 C   0  0  2  0  0  0  0  0  0  0  0  0
    8.0286   21.3441   52.6038 C   0  0  0  0  0  0  0  0  0  0  0  0
    7.1155   22.3164   52.5419 N   0  0  0  0  0  0  0  0  0  0  0  0
    3.2316   18.2632   50.9954 C   0  0  1  0  0  0  0  0  0  0  0  0
    7.8283   20.0469   51.9770 C   0  0  0  0  0  0  0  0  0  0  0  0
    5.9627   17.3119   52.8928 O   0  0  0  0  0  0  0  0  0  0  0  0
    1.8396   17.9390   51.4077 C   0  0  0  0  0  0  0  0  0  0  0  0
    8.8569   19.1375   52.1177 C   0  0  0  0  0  0  0  0  0  0  0  0
    1.6038   17.1760   52.6398 C   0  0  0  0  0  0  0  0  0  0  0  0
    6.5491   19.7169   51.2472 C   0  0  0  0  0  0  0  0  0  0  0  0
    1.9604   17.9495   53.7988 O   0  0  0  0  0  0  0  0  0  0  0  0
  1  2  1  0  0  0  0
  1  8  2  0  0  0  0
  1 14  1  0  0  0  0
  2  3  2  0  0  0  0
  2  7  1  0  0  0  0
  3  4  1  0  0  0  0
  4  5  2  0  0  0  0
  5  6  1  0  0  0  0
  6  7  2  0  0  0  0
  9 16  1  0  0  0  0
 10 21  1  0  0  0  0
 11 13  1  1  0  0  0
 11 17  1  0  0  0  0
 11 20  2  0  0  0  0
 11 31  1  0  0  0  0
 12 16  2  0  0  0  0
 12 28  1  0  0  0  0
 15 26  1  0  0  0  0
 15 18  1  0  0  0  0
 16 19  1  0  0  0  0
 18 30  1  0  0  0  0
 19 22  2  0  0  0  0
 21 18  1  6  0  0  0
 21 24  1  0  0  0  0
 22 23  1  0  0  0  0
 22 25  1  0  0  0  0
 24 14  1  6  0  0  0
 24 27  1  0  0  0  0
 25 28  2  0  0  0  0
 25 30  1  0  0  0  0
 27 29  1  0  0  0  0
 29 31  1  0  0  0  0
M  CHG  1  17  -1
M  END
>  <CHROM.1>
-81.76868832,80.35002243,131.48962598,100.45569747,119.27336159,-39.04859394
126.11707580,102.28901042,-83.82610362,68.06650319,177.28291191,-163.30174370
4.39726732,17.97992900,52.09556102,-2.65767339,0.45242700,1.13770089

>  <Name>
ligand

>  <RI>
0

>  <Rbt.Current_Directory>
/home/itssahil/PROJECTS/Mol_Feturizer/New_Systems/rnas/2HOO

>  <Rbt.Executable>
rbdock ($Id: //depot/dev/client3/rdock/2013.1/src/exe/rbdock.cxx#4 $)

>  <Rbt.Library>
libRbt.so (2013.1, Build901 2013/11/27)

>  <Rbt.Parameter_File>
/export/apps/rDock/src/rDock_2013.1_src/data/scripts/dock_solv.prm

>  <Rbt.Receptor>
prm/pocket_docking_6.prm

>  <SCORE>
-32.4137

>  <SCORE.INTER>
-19.2971

>  <SCORE.INTER.CONST>
1

>  <SCORE.INTER.POLAR>
0

>  <SCORE.INTER.ROT>
12

>  <SCORE.INTER.SOLV>
14.2851

>  <SCORE.INTER.VDW>
-29.2265

>  <SCORE.INTER.norm>
-0.622489

>  <SCORE.INTRA>
-13.1166

>  <SCORE.INTRA.DIHEDRAL>
1.67313

>  <SCORE.INTRA.DIHEDRAL.0>
14.6094

>  <SCORE.INTRA.POLAR>
0

>  <SCORE.INTRA.POLAR.0>
0

>  <SCORE.INTRA.REPUL>
0

>  <SCORE.INTRA.REPUL.0>
0

>  <SCORE.INTRA.SOLV>
3.0217

>  <SCORE.INTRA.SOLV.lig_0>
-65.6478

>  <SCORE.INTRA.VDW>
-15.464

>  <SCORE.INTRA.VDW.0>
9.35535

>  <SCORE.INTRA.norm>
-0.423115

>  <SCORE.RESTR>
0

>  <SCORE.RESTR.CAVITY>
0

>  <SCORE.RESTR.norm>
0

>  <SCORE.SYSTEM>
0

>  <SCORE.SYSTEM.CONST>
0

>  <SCORE.SYSTEM.DIHEDRAL>
0

>  <SCORE.SYSTEM.SOLV>
0

>  <SCORE.SYSTEM.norm>
0

>  <SCORE.heavy>
31

>  <SCORE.norm>
-1.0456

>  <RMSD>
3.672

$$$$
ligand
 OpenBabel11021811443D
libRbt.so/2013.1/901 2013/11/27
 31 32  0  0  0  0  0  0  0  0999 V2000
    7.0549   20.1419   50.5059 C   0  0  0  0  0  0  0  0  0  0  0  0
    7.4617   18.7363   50.0737 C   0  0  0  0  0  0  0  0  0  0  0  0
    8.5594   18.0766   50.7157 C   0  0  0  0  0  0  0  0  0  0  0  0
    8.9341   16.7739   50.3080 C   0  0  0  0  0  0  0  0  0  0  0  0
    8.2274   16.1129   49.2736 C   0  0  0  0  0  0  0  0  0  0  0  0
    7.1409   16.7445   48.6350 C   0  0  0  0  0  0  0  0  0  0  0  0
    6.7542   18.0394   49.0244 C   0  0  0  0  0  0  0  0  0  0  0  0
    7.7915   21.0970   50.2617 O   0  0  0  0  0  0  0  0  0  0  0  0
   12.3678   19.2351   53.6279 C   0  0  0  0  0  0  0  0  0  0  0  0
    3.4639   18.9323   53.7437 C   0  0  0  0  0  0  0  0  0  0  0  0
    2.0834   15.2880   50.2297 P   0  0  1  0  0  0  0  0  0  0  0  0
   10.2884   20.4022   53.4076 N   0  0  0  0  0  0  0  0  0  0  0  0
    0.7201   15.2104   49.6709 O   0  0  0  0  0  0  0  0  0  0  0  0
    5.8620   20.3570   51.1741 S   0  0  0  0  0  0  0  0  0  0  0  0
    6.3205   17.2196   53.7303 C   0  0  0  0  0  0  0  0  0  0  0  0
   10.9369   19.2918   53.8991 C   0  0  0  0  0  0  0  0  0  0  0  0
    2.1886   14.8977   51.6617 O   0  5  0  0  0  0  0  0  0  0  0  0
    5.9147   18.5053   53.8762 N   0  0  0  0  0  0  0  0  0  0  0  0
   10.3519   18.3430   54.5606 N   0  0  0  0  0  0  0  0  0  0  0  0
    3.0380   14.5720   49.3521 O   0  0  0  0  0  0  0  0  0  0  0  0
    4.7850   18.9034   53.0240 C   0  0  2  0  0  0  0  0  0  0  0  0
    8.9937   18.3997   54.8084 C   0  0  0  0  0  0  0  0  0  0  0  0
    8.4237   17.4025   55.4892 N   0  0  0  0  0  0  0  0  0  0  0  0
    4.8356   19.2781   51.6140 C   0  0  1  0  0  0  0  0  0  0  0  0
    8.2353   19.5382   54.3139 C   0  0  0  0  0  0  0  0  0  0  0  0
    7.0151   17.0600   52.7508 O   0  0  0  0  0  0  0  0  0  0  0  0
    3.9551   18.7007   50.5632 C   0  0  0  0  0  0  0  0  0  0  0  0
    8.9539   20.4972   53.6294 C   0  0  0  0  0  0  0  0  0  0  0  0
    3.9148   17.2465   50.3648 C   0  0  0  0  0  0  0  0  0  0  0  0
    6.7427   19.6343   54.5156 C   0  0  0  0  0  0  0  0  0  0  0  0
    2.5591   16.7828   50.2396 O   0  0  0  0  0  0  0  0  0  0  0  0
  1  2  1  0  0  0  0
  1  8  2  0  0  0  0
  1 14  1  0  0  0  0
  2  3  2  0  0  0  0
  2  7  1  0  0  0  0
  3  4  1  0  0  0  0
  4  5  2  0  0  0  0
  5  6  1  0  0  0  0
  6  7  2  0  0  0  0
  9 16  1  0  0  0  0
 10 21  1  0  0  0  0
 11 13  1  6  0  0  0
 11 17  1  0  0  0  0
 11 20  2  0  0  0  0
 11 31  1  0  0  0  0
 12 16  2  0  0  0  0
 12 28  1  0  0  0  0
 15 26  1  0  0  0  0
 15 18  1  0  0  0  0
 16 19  1  0  0  0  0
 18 30  1  0  0  0  0
 19 22  2  0  0  0  0
 21 18  1  1  0  0  0
 21 24  1  0  0  0  0
 22 23  1  0  0  0  0
 22 25  1  0  0  0  0
 24 14  1  1  0  0  0
 24 27  1  0  0  0  0
 25 28  2  0  0  0  0
 25 30  1  0  0  0  0
 27 29  1  0  0  0  0
 29 31  1  0  0  0  0
M  CHG  1  17  -1
M  END
>  <CHROM.1>
69.49043670,2.37663365,104.12204425,79.30891063,101.23353676,32.67347406
127.81007094,124.76280430,-60.82659870,134.40199675,-170.33342145,-162.40042265
6.24371406,18.04167279,51.81290530,-0.47335565,-0.35889262,-1.77527399

>  <Name>
ligand

>  <RI>
0

>  <Rbt.Current_Directory>
/home/itssahil/PROJECTS/Mol_Feturizer/New_Systems/rnas/2HOO

>  <Rbt.Executable>
rbdock ($Id: //depot/dev/client3/rdock/2013.1/src/exe/rbdock.cxx#4 $)

>  <Rbt.Library>
libRbt.so (2013.1, Build901 2013/11/27)

>  <Rbt.Parameter_File>
/export/apps/rDock/src/rDock_2013.1_src/data/scripts/dock_solv.prm

>  <Rbt.Receptor>
prm/blind_docking_60.prm

>  <SCORE>
-26.3767

>  <SCORE.INTER>
-14.149

>  <SCORE.INTER.CONST>
1

>  <SCORE.INTER.POLAR>
0

>  <SCORE.INTER.ROT>
12

>  <SCORE.INTER.SOLV>
24.0256

>  <SCORE.INTER.VDW>
-29.0412

>  <SCORE.INTER.norm>
-0.456419

>  <SCORE.INTRA>
-12.2543

>  <SCORE.INTRA.DIHEDRAL>
3.06631

>  <SCORE.INTRA.DIHEDRAL.0>
14.6094

>  <SCORE.INTRA.POLAR>
0

>  <SCORE.INTRA.POLAR.0>
0

>  <SCORE.INTRA.REPUL>
0

>  <SCORE.INTRA.REPUL.0>
0

>  <SCORE.INTRA.SOLV>
4.86767

>  <SCORE.INTRA.SOLV.lig_0>
-65.6478

>  <SCORE.INTRA.VDW>
-16.2213

>  <SCORE.INTRA.VDW.0>
9.35535

>  <SCORE.INTRA.norm>
-0.3953

>  <SCORE.RESTR>
0.0266106

>  <SCORE.RESTR.CAVITY>
0.0266106

>  <SCORE.RESTR.norm>
0.000858407

>  <SCORE.SYSTEM>
0

>  <SCORE.SYSTEM.CONST>
0

>  <SCORE.SYSTEM.DIHEDRAL>
0

>  <SCORE.SYSTEM.SOLV>
0

>  <SCORE.SYSTEM.norm>
0

>  <SCORE.heavy>
31

>  <SCORE.norm>
-0.85086

>  <RMSD>
3.759

$$$$
ligand
 OpenBabel11021811443D
libRbt.so/2013.1/901 2013/11/27
 31 32  0  0  0  0  0  0  0  0999 V2000
    4.6937   18.1851   51.0989 C   0  0  0  0  0  0  0  0  0  0  0  0
    3.6773   17.1099   50.7265 C   0  0  0  0  0  0  0  0  0  0  0  0
    2.2750   17.3980   50.7782 C   0  0  0  0  0  0  0  0  0  0  0  0
    1.3367   16.3953   50.4348 C   0  0  0  0  0  0  0  0  0  0  0  0
    1.7734   15.1092   50.0328 C   0  0  0  0  0  0  0  0  0  0  0  0
    3.1496   14.8099   49.9702 C   0  0  0  0  0  0  0  0  0  0  0  0
    4.0974   15.7921   50.3093 C   0  0  0  0  0  0  0  0  0  0  0  0
    4.9224   19.1103   50.3203 O   0  0  0  0  0  0  0  0  0  0  0  0
    7.5503   19.5142   47.6060 C   0  0  0  0  0  0  0  0  0  0  0  0
    6.6423   20.8429   54.8739 C   0  0  0  0  0  0  0  0  0  0  0  0
    1.2819   20.3484   56.5431 P   0  0  1  0  0  0  0  0  0  0  0  0
    8.1646   18.2717   49.5588 N   0  0  0  0  0  0  0  0  0  0  0  0
    0.9517   18.9819   56.9908 O   0  0  0  0  0  0  0  0  0  0  0  0
    5.3664   18.1318   52.3074 S   0  0  0  0  0  0  0  0  0  0  0  0
    7.7581   17.5638   54.6821 C   0  0  0  0  0  0  0  0  0  0  0  0
    7.8779   19.5084   49.0261 C   0  0  0  0  0  0  0  0  0  0  0  0
    0.1134   21.1510   56.0909 O   0  5  0  0  0  0  0  0  0  0  0  0
    7.8248   18.7893   54.1053 N   0  0  0  0  0  0  0  0  0  0  0  0
    7.8879   20.6117   49.7062 N   0  0  0  0  0  0  0  0  0  0  0  0
    2.1098   21.0350   57.5616 O   0  0  0  0  0  0  0  0  0  0  0  0
    6.5666   19.5496   54.1085 C   0  0  2  0  0  0  0  0  0  0  0  0
    8.2059   20.5999   51.0509 C   0  0  0  0  0  0  0  0  0  0  0  0
    8.2106   21.7559   51.7192 N   0  0  0  0  0  0  0  0  0  0  0  0
    5.3177   19.1871   53.4454 C   0  0  1  0  0  0  0  0  0  0  0  0
    8.5296   19.3321   51.6862 C   0  0  0  0  0  0  0  0  0  0  0  0
    7.3423   16.7156   53.9238 O   0  0  0  0  0  0  0  0  0  0  0  0
    3.9923   19.7736   53.7802 C   0  0  0  0  0  0  0  0  0  0  0  0
    8.4816   18.2156   50.8762 C   0  0  0  0  0  0  0  0  0  0  0  0
    3.4491   19.6199   55.1355 C   0  0  0  0  0  0  0  0  0  0  0  0
    8.9270   19.2617   53.1404 C   0  0  0  0  0  0  0  0  0  0  0  0
    2.1738   20.2743   55.2547 O   0  0  0  0  0  0  0  0  0  0  0  0
  1  2  1  0  0  0  0
  1  8  2  0  0  0  0
  1 14  1  0  0  0  0
  2  3  2  0  0  0  0
  2  7  1  0  0  0  0
  3  4  1  0  0  0  0
  4  5  2  0  0  0  0
  5  6  1  0  0  0  0
  6  7  2  0  0  0  0
  9 16  1  0  0  0  0
 10 21  1  0  0  0  0
 11 13  1  1  0  0  0
 11 17  1  0  0  0  0
 11 20  2  0  0  0  0
 11 31  1  0  0  0  0
 12 16  2  0  0  0  0
 12 28  1  0  0  0  0
 15 26  1  0  0  0  0
 15 18  1  0  0  0  0
 16 19  1  0  0  0  0
 18 30  1  0  0  0  0
 19 22  2  0  0  0  0
 21 18  1  6  0  0  0
 21 24  1  0  0  0  0
 22 23  1  0  0  0  0
 22 25  1  0  0  0  0
 24 14  1  6  0  0  0
 24 27  1  0  0  0  0
 25 28  2  0  0  0  0
 25 30  1  0  0  0  0
 27 29  1  0  0  0  0
 29 31  1  0  0  0  0
M  CHG  1  17  -1
M  END
>  <CHROM.1>
-74.77668317,-118.78396858,-137.35840528,83.61442576,118.22675067,104.96589733
160.39199338,120.26716473,101.85425225,179.11623777,-179.39147758,-58.60444315
5.00506514,18.92083205,52.77006227,0.72945500,-0.31849062,-2.11237712

>  <Name>
ligand

>  <RI>
0

>  <Rbt.Current_Directory>
/home/itssahil/PROJECTS/Mol_Feturizer/New_Systems/rnas/2HOO

>  <Rbt.Executable>
rbdock ($Id: //depot/dev/client3/rdock/2013.1/src/exe/rbdock.cxx#4 $)

>  <Rbt.Library>
libRbt.so (2013.1, Build901 2013/11/27)

>  <Rbt.Parameter_File>
/export/apps/rDock/src/rDock_2013.1_src/data/scripts/dock_solv.prm

>  <Rbt.Receptor>
prm/pocket_docking_4.prm

>  <SCORE>
-24.9159

>  <SCORE.INTER>
-10.8869

>  <SCORE.INTER.CONST>
1

>  <SCORE.INTER.POLAR>
0

>  <SCORE.INTER.ROT>
12

>  <SCORE.INTER.SOLV>
16.8571

>  <SCORE.INTER.VDW>
-24.477

>  <SCORE.INTER.norm>
-0.35119

>  <SCORE.INTRA>
-14.029

>  <SCORE.INTRA.DIHEDRAL>
0.0109608

>  <SCORE.INTRA.DIHEDRAL.0>
14.6094

>  <SCORE.INTRA.POLAR>
0

>  <SCORE.INTRA.POLAR.0>
0

>  <SCORE.INTRA.REPUL>
0

>  <SCORE.INTRA.REPUL.0>
0

>  <SCORE.INTRA.SOLV>
2.71754

>  <SCORE.INTRA.SOLV.lig_0>
-65.6478

>  <SCORE.INTRA.VDW>
-15.3933

>  <SCORE.INTRA.VDW.0>
9.35535

>  <SCORE.INTRA.norm>
-0.452548

>  <SCORE.RESTR>
0

>  <SCORE.RESTR.CAVITY>
0

>  <SCORE.RESTR.norm>
0

>  <SCORE.SYSTEM>
0

>  <SCORE.SYSTEM.CONST>
0

>  <SCORE.SYSTEM.DIHEDRAL>
0

>  <SCORE.SYSTEM.SOLV>
0

>  <SCORE.SYSTEM.norm>
0

>  <SCORE.heavy>
31

>  <SCORE.norm>
-0.803739

>  <RMSD>
3.924

$$$$
ligand
 OpenBabel11021811443D
libRbt.so/2013.1/901 2013/11/27
 31 32  0  0  0  0  0  0  0  0999 V2000
    5.3068   16.8244   49.2166 C   0  0  0  0  0  0  0  0  0  0  0  0
    5.5775   15.3404   49.4463 C   0  0  0  0  0  0  0  0  0  0  0  0
    6.9237   14.8514   49.4730 C   0  0  0  0  0  0  0  0  0  0  0  0
    7.1682   13.4730   49.6832 C   0  0  0  0  0  0  0  0  0  0  0  0
    6.0917   12.5727   49.8748 C   0  0  0  0  0  0  0  0  0  0  0  0
    4.7609   13.0374   49.8578 C   0  0  0  0  0  0  0  0  0  0  0  0
    4.4971   14.4029   49.6486 C   0  0  0  0  0  0  0  0  0  0  0  0
    5.5862   17.3395   48.1344 O   0  0  0  0  0  0  0  0  0  0  0  0
    7.8076   25.2680   51.9398 C   0  0  0  0  0  0  0  0  0  0  0  0
    6.6940   17.3824   52.9021 C   0  0  0  0  0  0  0  0  0  0  0  0
    3.1658   22.6330   52.0686 P   0  0  1  0  0  0  0  0  0  0  0  0
    7.2783   22.9931   51.4119 N   0  0  0  0  0  0  0  0  0  0  0  0
    2.5184   23.8822   51.6245 O   0  0  0  0  0  0  0  0  0  0  0  0
    4.7492   17.6027   50.2160 S   0  0  0  0  0  0  0  0  0  0  0  0
    8.3976   18.7028   50.0656 C   0  0  0  0  0  0  0  0  0  0  0  0
    8.0959   23.8500   52.1136 C   0  0  0  0  0  0  0  0  0  0  0  0
    4.6432   22.7220   52.2220 O   0  5  0  0  0  0  0  0  0  0  0  0
    8.0753   18.7900   51.3799 N   0  0  0  0  0  0  0  0  0  0  0  0
    9.0635   23.4622   52.8840 N   0  0  0  0  0  0  0  0  0  0  0  0
    2.4799   22.0992   53.2682 O   0  0  0  0  0  0  0  0  0  0  0  0
    6.7263   18.3181   51.7240 C   0  0  2  0  0  0  0  0  0  0  0  0
    9.3357   22.1164   53.0390 C   0  0  0  0  0  0  0  0  0  0  0  0
   10.3427   21.7533   53.8371 N   0  0  0  0  0  0  0  0  0  0  0  0
    5.4734   18.6800   51.0682 C   0  0  1  0  0  0  0  0  0  0  0  0
    8.5209   21.1469   52.3234 C   0  0  0  0  0  0  0  0  0  0  0  0
    9.5515   18.3779   49.8908 O   0  0  0  0  0  0  0  0  0  0  0  0
    4.8443   20.0254   51.1512 C   0  0  0  0  0  0  0  0  0  0  0  0
    7.5113   21.6629   51.5366 C   0  0  0  0  0  0  0  0  0  0  0  0
    3.3843   20.1536   51.0622 C   0  0  0  0  0  0  0  0  0  0  0  0
    8.7978   19.6663   52.4187 C   0  0  0  0  0  0  0  0  0  0  0  0
    2.9955   21.5346   50.9616 O   0  0  0  0  0  0  0  0  0  0  0  0
  1  2  1  0  0  0  0
  1  8  2  0  0  0  0
  1 14  1  0  0  0  0
  2  3  2  0  0  0  0
  2  7  1  0  0  0  0
  3  4  1  0  0  0  0
  4  5  2  0  0  0  0
  5  6  1  0  0  0  0
  6  7  2  0  0  0  0
  9 16  1  0  0  0  0
 10 21  1  0  0  0  0
 11 13  1  6  0  0  0
 11 17  1  0  0  0  0
 11 20  2  0  0  0  0
 11 31  1  0  0  0  0
 12 16  2  0  0  0  0
 12 28  1  0  0  0  0
 15 26  1  0  0  0  0
 15 18  1  0  0  0  0
 16 19  1  0  0  0  0
 18 30  1  0  0  0  0
 19 22  2  0  0  0  0
 21 18  1  1  0  0  0
 21 24  1  0  0  0  0
 22 23  1  0  0  0  0
 22 25  1  0  0  0  0
 24 14  1  6  0  0  0
 24 27  1  0  0  0  0
 25 28  2  0  0  0  0
 25 30  1  0  0  0  0
 27 29  1  0  0  0  0
 29 31  1  0  0  0  0
M  CHG  1  17  -1
M  END
>  <CHROM.1>
66.03743914,107.24005167,-50.86207665,-142.00046442,131.85187805,73.95929039
-71.54399092,30.32744715,-166.82065979,-171.34406851,-66.35398629,-174.30345919
6.09788277,19.58514284,51.20055981,1.59407180,0.11186286,-2.84144027

>  <Name>
ligand

>  <RI>
0

>  <Rbt.Current_Directory>
/home/itssahil/PROJECTS/Mol_Feturizer/New_Systems/rnas/2HOO

>  <Rbt.Executable>
rbdock ($Id: //depot/dev/client3/rdock/2013.1/src/exe/rbdock.cxx#4 $)

>  <Rbt.Library>
libRbt.so (2013.1, Build901 2013/11/27)

>  <Rbt.Parameter_File>
/export/apps/rDock/src/rDock_2013.1_src/data/scripts/dock_solv.prm

>  <Rbt.Receptor>
prm/pocket_docking_6.prm

>  <SCORE>
-27.6028

>  <SCORE.INTER>
-16.7111

>  <SCORE.INTER.CONST>
1

>  <SCORE.INTER.POLAR>
0

>  <SCORE.INTER.ROT>
12

>  <SCORE.INTER.SOLV>
18.601

>  <SCORE.INTER.VDW>
-28.9411

>  <SCORE.INTER.norm>
-0.539068

>  <SCORE.INTRA>
-10.8917

>  <SCORE.INTRA.DIHEDRAL>
2.88125

>  <SCORE.INTRA.DIHEDRAL.0>
14.6094

>  <SCORE.INTRA.POLAR>
0

>  <SCORE.INTRA.POLAR.0>
0

>  <SCORE.INTRA.REPUL>
0

>  <SCORE.INTRA.REPUL.0>
0

>  <SCORE.INTRA.SOLV>
2.1494

>  <SCORE.INTRA.SOLV.lig_0>
-65.6478

>  <SCORE.INTRA.VDW>
-13.4071

>  <SCORE.INTRA.VDW.0>
9.35535

>  <SCORE.INTRA.norm>
-0.351346

>  <SCORE.RESTR>
0

>  <SCORE.RESTR.CAVITY>
0

>  <SCORE.RESTR.norm>
0

>  <SCORE.SYSTEM>
0

>  <SCORE.SYSTEM.CONST>
0

>  <SCORE.SYSTEM.DIHEDRAL>
0

>  <SCORE.SYSTEM.SOLV>
0

>  <SCORE.SYSTEM.norm>
0

>  <SCORE.heavy>
31

>  <SCORE.norm>
-0.890414

>  <RMSD>
3.929

$$$$
ligand
 OpenBabel11021811443D
libRbt.so/2013.1/901 2013/11/27
 31 32  0  0  0  0  0  0  0  0999 V2000
    7.3727   16.5949   50.2190 C   0  0  0  0  0  0  0  0  0  0  0  0
    7.9630   16.7935   48.8261 C   0  0  0  0  0  0  0  0  0  0  0  0
    7.3340   17.6874   47.9001 C   0  0  0  0  0  0  0  0  0  0  0  0
    7.8845   17.8649   46.6081 C   0  0  0  0  0  0  0  0  0  0  0  0
    9.0580   17.1706   46.2248 C   0  0  0  0  0  0  0  0  0  0  0  0
    9.6937   16.2918   47.1252 C   0  0  0  0  0  0  0  0  0  0  0  0
    9.1613   16.1004   48.4128 C   0  0  0  0  0  0  0  0  0  0  0  0
    8.1126   16.5715   51.2021 O   0  0  0  0  0  0  0  0  0  0  0  0
   10.8195   22.0115   53.8442 C   0  0  0  0  0  0  0  0  0  0  0  0
    5.7334   19.9262   51.3172 C   0  0  0  0  0  0  0  0  0  0  0  0
    2.0721   14.8940   51.0266 P   0  0  1  0  0  0  0  0  0  0  0  0
   10.0990   19.7865   53.3296 N   0  0  0  0  0  0  0  0  0  0  0  0
    1.0287   14.9214   49.9839 O   0  0  0  0  0  0  0  0  0  0  0  0
    6.0084   16.4384   50.3913 S   0  0  0  0  0  0  0  0  0  0  0  0
    4.2520   18.1696   53.8394 C   0  0  0  0  0  0  0  0  0  0  0  0
    9.7533   21.0179   53.8388 C   0  0  0  0  0  0  0  0  0  0  0  0
    1.7064   14.1273   52.2483 O   0  5  0  0  0  0  0  0  0  0  0  0
    5.4426   18.3346   53.2116 N   0  0  0  0  0  0  0  0  0  0  0  0
    8.5745   21.3117   54.2907 N   0  0  0  0  0  0  0  0  0  0  0  0
    3.3703   14.4861   50.4415 O   0  0  0  0  0  0  0  0  0  0  0  0
    5.3585   18.5371   51.7580 C   0  0  2  0  0  0  0  0  0  0  0  0
    7.5699   20.3628   54.2889 C   0  0  0  0  0  0  0  0  0  0  0  0
    6.3690   20.6991   54.7660 N   0  0  0  0  0  0  0  0  0  0  0  0
    4.9838   17.5481   50.7519 C   0  0  1  0  0  0  0  0  0  0  0  0
    7.8589   19.0334   53.7743 C   0  0  0  0  0  0  0  0  0  0  0  0
    4.2752   18.5543   54.9878 O   0  0  0  0  0  0  0  0  0  0  0  0
    3.6812   17.5380   50.0336 C   0  0  0  0  0  0  0  0  0  0  0  0
    9.1417   18.8262   53.3091 C   0  0  0  0  0  0  0  0  0  0  0  0
    2.4277   17.5454   50.7981 C   0  0  0  0  0  0  0  0  0  0  0  0
    6.8154   17.9430   53.7867 C   0  0  0  0  0  0  0  0  0  0  0  0
    2.2959   16.3450   51.5794 O   0  0  0  0  0  0  0  0  0  0  0  0
  1  2  1  0  0  0  0
  1  8  2  0  0  0  0
  1 14  1  0  0  0  0
  2  3  2  0  0  0  0
  2  7  1  0  0  0  0
  3  4  1  0  0  0  0
  4  5  2  0  0  0  0
  5  6  1  0  0  0  0
  6  7  2  0  0  0  0
  9 16  1  0  0  0  0
 10 21  1  0  0  0  0
 11 13  1  6  0  0  0
 11 17  1  0  0  0  0
 11 20  2  0  0  0  0
 11 31  1  0  0  0  0
 12 16  2  0  0  0  0
 12 28  1  0  0  0  0
 15 26  1  0  0  0  0
 15 18  1  0  0  0  0
 16 19  1  0  0  0  0
 18 30  1  0  0  0  0
 19 22  2  0  0  0  0
 21 18  1  6  0  0  0
 21 24  1  0  0  0  0
 22 23  1  0  0  0  0
 22 25  1  0  0  0  0
 24 14  1  6  0  0  0
 24 27  1  0  0  0  0
 25 28  2  0  0  0  0
 25 30  1  0  0  0  0
 27 29  1  0  0  0  0
 29 31  1  0  0  0  0
M  CHG  1  17  -1
M  END
>  <CHROM.1>
-136.29291937,-95.75356087,-41.49477161,-151.08356529,110.91008264,-127.66680190
104.76218827,126.57458513,49.48094937,-64.16725164,-68.28229031,-45.47708183
5.99784231,17.64247044,51.44789420,-0.57687577,-0.41909781,-2.09921515

>  <Name>
ligand

>  <RI>
0

>  <Rbt.Current_Directory>
/home/itssahil/PROJECTS/Mol_Feturizer/New_Systems/rnas/2HOO

>  <Rbt.Executable>
rbdock ($Id: //depot/dev/client3/rdock/2013.1/src/exe/rbdock.cxx#4 $)

>  <Rbt.Library>
libRbt.so (2013.1, Build901 2013/11/27)

>  <Rbt.Parameter_File>
/export/apps/rDock/src/rDock_2013.1_src/data/scripts/dock_solv.prm

>  <Rbt.Receptor>
prm/blind_docking_80.prm

>  <SCORE>
-27.475

>  <SCORE.INTER>
-16.3046

>  <SCORE.INTER.CONST>
1

>  <SCORE.INTER.POLAR>
0

>  <SCORE.INTER.ROT>
12

>  <SCORE.INTER.SOLV>
20.3484

>  <SCORE.INTER.VDW>
-29.2526

>  <SCORE.INTER.norm>
-0.525956

>  <SCORE.INTRA>
-11.1703

>  <SCORE.INTRA.DIHEDRAL>
2.20974

>  <SCORE.INTRA.DIHEDRAL.0>
14.6094

>  <SCORE.INTRA.POLAR>
0

>  <SCORE.INTRA.POLAR.0>
0

>  <SCORE.INTRA.REPUL>
0

>  <SCORE.INTRA.REPUL.0>
0

>  <SCORE.INTRA.SOLV>
7.84494

>  <SCORE.INTRA.SOLV.lig_0>
-65.6478

>  <SCORE.INTRA.VDW>
-16.1977

>  <SCORE.INTRA.VDW.0>
9.35535

>  <SCORE.INTRA.norm>
-0.360333

>  <SCORE.RESTR>
0

>  <SCORE.RESTR.CAVITY>
0

>  <SCORE.RESTR.norm>
0

>  <SCORE.SYSTEM>
0

>  <SCORE.SYSTEM.CONST>
0

>  <SCORE.SYSTEM.DIHEDRAL>
0

>  <SCORE.SYSTEM.SOLV>
0

>  <SCORE.SYSTEM.norm>
0

>  <SCORE.heavy>
31

>  <SCORE.norm>
-0.886289

>  <RMSD>
4.019

$$$$
ligand
 OpenBabel11021811443D
libRbt.so/2013.1/901 2013/11/27
 31 32  0  0  0  0  0  0  0  0999 V2000
    7.1312   19.3968   47.7668 C   0  0  0  0  0  0  0  0  0  0  0  0
    6.9408   19.2509   46.2600 C   0  0  0  0  0  0  0  0  0  0  0  0
    6.1865   18.1523   45.7341 C   0  0  0  0  0  0  0  0  0  0  0  0
    6.0162   18.0205   44.3351 C   0  0  0  0  0  0  0  0  0  0  0  0
    6.5800   18.9711   43.4493 C   0  0  0  0  0  0  0  0  0  0  0  0
    7.3201   20.0617   43.9494 C   0  0  0  0  0  0  0  0  0  0  0  0
    7.5021   20.2093   45.3361 C   0  0  0  0  0  0  0  0  0  0  0  0
    7.7585   20.3552   48.2167 O   0  0  0  0  0  0  0  0  0  0  0  0
   13.5515   19.7639   54.9940 C   0  0  0  0  0  0  0  0  0  0  0  0
    8.8045   18.0043   50.6252 C   0  0  0  0  0  0  0  0  0  0  0  0
    3.7625   15.7320   50.0458 P   0  0  1  0  0  0  0  0  0  0  0  0
   11.6534   18.9515   53.7809 N   0  0  0  0  0  0  0  0  0  0  0  0
    3.8885   16.4870   48.7844 O   0  0  0  0  0  0  0  0  0  0  0  0
    6.6056   18.4588   48.6384 S   0  0  0  0  0  0  0  0  0  0  0  0
    7.2041   18.6095   53.4027 C   0  0  0  0  0  0  0  0  0  0  0  0
   12.2776   20.0422   54.3430 C   0  0  0  0  0  0  0  0  0  0  0  0
    2.3915   15.7173   50.6241 O   0  5  0  0  0  0  0  0  0  0  0  0
    7.6231   19.3570   52.3517 N   0  0  0  0  0  0  0  0  0  0  0  0
   11.7988   21.2463   54.3161 N   0  0  0  0  0  0  0  0  0  0  0  0
    4.3532   14.3820   49.8957 O   0  0  0  0  0  0  0  0  0  0  0  0
    7.5348   18.6962   51.0416 C   0  0  2  0  0  0  0  0  0  0  0  0
   10.5871   21.5021   53.7031 C   0  0  0  0  0  0  0  0  0  0  0  0
   10.1221   22.7538   53.6983 N   0  0  0  0  0  0  0  0  0  0  0  0
    6.3706   18.6359   50.1630 C   0  0  1  0  0  0  0  0  0  0  0  0
    9.8610   20.3994   53.0925 C   0  0  0  0  0  0  0  0  0  0  0  0
    6.4185   19.2014   54.1098 O   0  0  0  0  0  0  0  0  0  0  0  0
    4.9629   18.7459   50.6314 C   0  0  0  0  0  0  0  0  0  0  0  0
   10.4614   19.1591   53.1685 C   0  0  0  0  0  0  0  0  0  0  0  0
    4.4488   17.7933   51.6233 C   0  0  0  0  0  0  0  0  0  0  0  0
    8.5131   20.6092   52.4468 C   0  0  0  0  0  0  0  0  0  0  0  0
    4.6053   16.4393   51.1639 O   0  0  0  0  0  0  0  0  0  0  0  0
  1  2  1  0  0  0  0
  1  8  2  0  0  0  0
  1 14  1  0  0  0  0
  2  3  2  0  0  0  0
  2  7  1  0  0  0  0
  3  4  1  0  0  0  0
  4  5  2  0  0  0  0
  5  6  1  0  0  0  0
  6  7  2  0  0  0  0
  9 16  1  0  0  0  0
 10 21  1  0  0  0  0
 11 13  1  6  0  0  0
 11 17  1  0  0  0  0
 11 20  2  0  0  0  0
 11 31  1  0  0  0  0
 12 16  2  0  0  0  0
 12 28  1  0  0  0  0
 15 26  1  0  0  0  0
 15 18  1  0  0  0  0
 16 19  1  0  0  0  0
 18 30  1  0  0  0  0
 19 22  2  0  0  0  0
 21 18  1  1  0  0  0
 21 24  1  0  0  0  0
 22 23  1  0  0  0  0
 22 25  1  0  0  0  0
 24 14  1  6  0  0  0
 24 27  1  0  0  0  0
 25 28  2  0  0  0  0
 25 30  1  0  0  0  0
 27 29  1  0  0  0  0
 29 31  1  0  0  0  0
M  CHG  1  17  -1
M  END
>  <CHROM.1>
-178.64443399,-162.29943024,-70.43798264,-130.05371330,-93.51656259,58.81038378
-27.20752542,122.47272683,-156.59040984,-56.28892356,-73.56034024,58.46451966
7.26389055,18.66386689,50.40906733,-2.44707325,0.60276449,1.74546641

>  <Name>
ligand

>  <RI>
0

>  <Rbt.Current_Directory>
/home/itssahil/PROJECTS/Mol_Feturizer/New_Systems/rnas/2HOO

>  <Rbt.Executable>
rbdock ($Id: //depot/dev/client3/rdock/2013.1/src/exe/rbdock.cxx#4 $)

>  <Rbt.Library>
libRbt.so (2013.1, Build901 2013/11/27)

>  <Rbt.Parameter_File>
/export/apps/rDock/src/rDock_2013.1_src/data/scripts/dock_solv.prm

>  <Rbt.Receptor>
prm/pocket_docking_7.prm

>  <SCORE>
-34.3758

>  <SCORE.INTER>
-22.1536

>  <SCORE.INTER.CONST>
1

>  <SCORE.INTER.POLAR>
0

>  <SCORE.INTER.ROT>
12

>  <SCORE.INTER.SOLV>
20.1

>  <SCORE.INTER.VDW>
-33.0691

>  <SCORE.INTER.norm>
-0.714632

>  <SCORE.INTRA>
-12.2632

>  <SCORE.INTRA.DIHEDRAL>
-0.501894

>  <SCORE.INTRA.DIHEDRAL.0>
14.6094

>  <SCORE.INTRA.POLAR>
0

>  <SCORE.INTRA.POLAR.0>
0

>  <SCORE.INTRA.REPUL>
0

>  <SCORE.INTRA.REPUL.0>
0

>  <SCORE.INTRA.SOLV>
0.234149

>  <SCORE.INTRA.SOLV.lig_0>
-65.6478

>  <SCORE.INTRA.VDW>
-12.1293

>  <SCORE.INTRA.VDW.0>
9.35535

>  <SCORE.INTRA.norm>
-0.395586

>  <SCORE.RESTR>
0.0409723

>  <SCORE.RESTR.CAVITY>
0.0409723

>  <SCORE.RESTR.norm>
0.00132169

>  <SCORE.SYSTEM>
0

>  <SCORE.SYSTEM.CONST>
0

>  <SCORE.SYSTEM.DIHEDRAL>
0

>  <SCORE.SYSTEM.SOLV>
0

>  <SCORE.SYSTEM.norm>
0

>  <SCORE.heavy>
31

>  <SCORE.norm>
-1.1089

>  <RMSD>
4.030

$$$$
ligand
 OpenBabel11021811443D
libRbt.so/2013.1/901 2013/11/27
 31 32  0  0  0  0  0  0  0  0999 V2000
    4.6060   15.6118   47.9836 C   0  0  0  0  0  0  0  0  0  0  0  0
    5.2766   14.3742   48.5725 C   0  0  0  0  0  0  0  0  0  0  0  0
    6.4860   14.5039   49.3293 C   0  0  0  0  0  0  0  0  0  0  0  0
    7.1052   13.3516   49.8704 C   0  0  0  0  0  0  0  0  0  0  0  0
    6.5345   12.0700   49.6756 C   0  0  0  0  0  0  0  0  0  0  0  0
    5.3415   11.9243   48.9388 C   0  0  0  0  0  0  0  0  0  0  0  0
    4.7120   13.0568   48.3916 C   0  0  0  0  0  0  0  0  0  0  0  0
    4.8115   15.9223   46.8106 O   0  0  0  0  0  0  0  0  0  0  0  0
   10.2278   21.9669   53.7749 C   0  0  0  0  0  0  0  0  0  0  0  0
    6.4363   17.5551   49.9694 C   0  0  0  0  0  0  0  0  0  0  0  0
    1.1202   16.9279   54.5607 P   0  0  1  0  0  0  0  0  0  0  0  0
    8.9912   20.3689   52.4898 N   0  0  0  0  0  0  0  0  0  0  0  0
    0.0860   17.8925   54.1403 O   0  0  0  0  0  0  0  0  0  0  0  0
    3.7661   16.3944   48.7567 S   0  0  0  0  0  0  0  0  0  0  0  0
    4.0730   19.9587   50.7994 C   0  0  0  0  0  0  0  0  0  0  0  0
    8.9795   21.2496   53.5477 C   0  0  0  0  0  0  0  0  0  0  0  0
    2.2406   17.5217   55.3394 O   0  5  0  0  0  0  0  0  0  0  0  0
    4.9357   19.0373   51.2951 N   0  0  0  0  0  0  0  0  0  0  0  0
    7.9518   21.4544   54.3105 N   0  0  0  0  0  0  0  0  0  0  0  0
    0.4932   15.7622   55.2257 O   0  0  0  0  0  0  0  0  0  0  0  0
    5.0522   17.8032   50.5049 C   0  0  2  0  0  0  0  0  0  0  0  0
    6.7735   20.7660   54.0937 C   0  0  0  0  0  0  0  0  0  0  0  0
    5.7364   20.9989   54.9019 N   0  0  0  0  0  0  0  0  0  0  0  0
    3.9976   16.8326   50.2283 C   0  0  1  0  0  0  0  0  0  0  0  0
    6.7084   19.8101   52.9992 C   0  0  0  0  0  0  0  0  0  0  0  0
    2.9661   19.8659   51.2827 O   0  0  0  0  0  0  0  0  0  0  0  0
    3.1139   16.2389   51.2674 C   0  0  0  0  0  0  0  0  0  0  0  0
    7.8540   19.6728   52.2420 C   0  0  0  0  0  0  0  0  0  0  0  0
    2.4149   17.1147   52.2161 C   0  0  0  0  0  0  0  0  0  0  0  0
    5.4635   18.9970   52.7403 C   0  0  0  0  0  0  0  0  0  0  0  0
    1.8431   16.3520   53.2932 O   0  0  0  0  0  0  0  0  0  0  0  0
  1  2  1  0  0  0  0
  1  8  2  0  0  0  0
  1 14  1  0  0  0  0
  2  3  2  0  0  0  0
  2  7  1  0  0  0  0
  3  4  1  0  0  0  0
  4  5  2  0  0  0  0
  5  6  1  0  0  0  0
  6  7  2  0  0  0  0
  9 16  1  0  0  0  0
 10 21  1  0  0  0  0
 11 13  1  6  0  0  0
 11 17  1  0  0  0  0
 11 20  2  0  0  0  0
 11 31  1  0  0  0  0
 12 16  2  0  0  0  0
 12 28  1  0  0  0  0
 15 26  1  0  0  0  0
 15 18  1  0  0  0  0
 16 19  1  0  0  0  0
 18 30  1  0  0  0  0
 19 22  2  0  0  0  0
 21 18  1  1  0  0  0
 21 24  1  0  0  0  0
 22 23  1  0  0  0  0
 22 25  1  0  0  0  0
 24 14  1  6  0  0  0
 24 27  1  0  0  0  0
 25 28  2  0  0  0  0
 25 30  1  0  0  0  0
 27 29  1  0  0  0  0
 29 31  1  0  0  0  0
M  CHG  1  17  -1
M  END
>  <CHROM.1>
96.84817919,42.58160657,70.02699091,94.10009655,118.56619999,-87.85218126
-51.51294756,-128.63918415,128.59733608,-168.14663289,174.77579961,50.87445102
4.71545120,17.47424628,51.68280865,-1.92666413,0.45075683,0.78344573

>  <Name>
ligand

>  <RI>
0

>  <Rbt.Current_Directory>
/home/itssahil/PROJECTS/Mol_Feturizer/New_Systems/rnas/2HOO

>  <Rbt.Executable>
rbdock ($Id: //depot/dev/client3/rdock/2013.1/src/exe/rbdock.cxx#4 $)

>  <Rbt.Library>
libRbt.so (2013.1, Build901 2013/11/27)

>  <Rbt.Parameter_File>
/export/apps/rDock/src/rDock_2013.1_src/data/scripts/dock_solv.prm

>  <Rbt.Receptor>
prm/pocket_docking_4.prm

>  <SCORE>
-23.5791

>  <SCORE.INTER>
-9.94777

>  <SCORE.INTER.CONST>
1

>  <SCORE.INTER.POLAR>
0

>  <SCORE.INTER.ROT>
12

>  <SCORE.INTER.SOLV>
13.1988

>  <SCORE.INTER.VDW>
-22.6315

>  <SCORE.INTER.norm>
-0.320896

>  <SCORE.INTRA>
-13.6313

>  <SCORE.INTRA.DIHEDRAL>
0.925505

>  <SCORE.INTRA.DIHEDRAL.0>
14.6094

>  <SCORE.INTRA.POLAR>
0

>  <SCORE.INTRA.POLAR.0>
0

>  <SCORE.INTRA.REPUL>
0

>  <SCORE.INTRA.REPUL.0>
0

>  <SCORE.INTRA.SOLV>
-0.233132

>  <SCORE.INTRA.SOLV.lig_0>
-65.6478

>  <SCORE.INTRA.VDW>
-13.9775

>  <SCORE.INTRA.VDW.0>
9.35535

>  <SCORE.INTRA.norm>
-0.439721

>  <SCORE.RESTR>
0

>  <SCORE.RESTR.CAVITY>
0

>  <SCORE.RESTR.norm>
0

>  <SCORE.SYSTEM>
0

>  <SCORE.SYSTEM.CONST>
0

>  <SCORE.SYSTEM.DIHEDRAL>
0

>  <SCORE.SYSTEM.SOLV>
0

>  <SCORE.SYSTEM.norm>
0

>  <SCORE.heavy>
31

>  <SCORE.norm>
-0.760616

>  <RMSD>
4.064

$$$$
ligand
 OpenBabel11021811443D
libRbt.so/2013.1/901 2013/11/27
 31 32  0  0  0  0  0  0  0  0999 V2000
    8.3176   20.2494   48.5183 C   0  0  0  0  0  0  0  0  0  0  0  0
    8.6342   18.7811   48.2503 C   0  0  0  0  0  0  0  0  0  0  0  0
    7.6533   17.9346   47.6391 C   0  0  0  0  0  0  0  0  0  0  0  0
    7.9518   16.5723   47.3961 C   0  0  0  0  0  0  0  0  0  0  0  0
    9.2167   16.0398   47.7462 C   0  0  0  0  0  0  0  0  0  0  0  0
   10.1961   16.8596   48.3428 C   0  0  0  0  0  0  0  0  0  0  0  0
    9.9182   18.2152   48.5941 C   0  0  0  0  0  0  0  0  0  0  0  0
    8.5916   21.1011   47.6732 O   0  0  0  0  0  0  0  0  0  0  0  0
   14.0814   19.1934   55.1972 C   0  0  0  0  0  0  0  0  0  0  0  0
    7.9893   17.5798   51.4661 C   0  0  0  0  0  0  0  0  0  0  0  0
    4.6808   15.9879   49.4798 P   0  0  1  0  0  0  0  0  0  0  0  0
   12.0402   18.6430   54.0727 N   0  0  0  0  0  0  0  0  0  0  0  0
    4.2381   15.4626   50.7855 O   0  0  0  0  0  0  0  0  0  0  0  0
    7.7242   20.6377   49.7069 S   0  0  0  0  0  0  0  0  0  0  0  0
    7.6299   18.6743   54.0751 C   0  0  0  0  0  0  0  0  0  0  0  0
   12.7938   19.6277   54.6706 C   0  0  0  0  0  0  0  0  0  0  0  0
    5.8608   15.2909   48.9000 O   0  5  0  0  0  0  0  0  0  0  0  0
    7.9515   19.5022   53.0503 N   0  0  0  0  0  0  0  0  0  0  0  0
   12.4196   20.8641   54.7771 N   0  0  0  0  0  0  0  0  0  0  0  0
    3.5328   16.0776   48.5480 O   0  0  0  0  0  0  0  0  0  0  0  0
    7.5899   19.0094   51.7133 C   0  0  2  0  0  0  0  0  0  0  0  0
   11.1945   21.2678   54.2816 C   0  0  0  0  0  0  0  0  0  0  0  0
   10.8399   22.5484   54.4128 N   0  0  0  0  0  0  0  0  0  0  0  0
    6.8897   19.7442   50.6643 C   0  0  1  0  0  0  0  0  0  0  0  0
   10.3353   20.2835   53.6424 C   0  0  0  0  0  0  0  0  0  0  0  0
    7.7221   19.2149   55.1553 O   0  0  0  0  0  0  0  0  0  0  0  0
    5.4173   19.7048   50.4558 C   0  0  0  0  0  0  0  0  0  0  0  0
   10.8305   18.9972   53.5724 C   0  0  0  0  0  0  0  0  0  0  0  0
    4.6965   18.4326   50.5895 C   0  0  0  0  0  0  0  0  0  0  0  0
    8.9685   20.6552   53.1212 C   0  0  0  0  0  0  0  0  0  0  0  0
    5.1966   17.4588   49.6565 O   0  0  0  0  0  0  0  0  0  0  0  0
  1  2  1  0  0  0  0
  1  8  2  0  0  0  0
  1 14  1  0  0  0  0
  2  3  2  0  0  0  0
  2  7  1  0  0  0  0
  3  4  1  0  0  0  0
  4  5  2  0  0  0  0
  5  6  1  0  0  0  0
  6  7  2  0  0  0  0
  9 16  1  0  0  0  0
 10 21  1  0  0  0  0
 11 13  1  1  0  0  0
 11 17  1  0  0  0  0
 11 20  2  0  0  0  0
 11 31  1  0  0  0  0
 12 16  2  0  0  0  0
 12 28  1  0  0  0  0
 15 26  1  0  0  0  0
 15 18  1  0  0  0  0
 16 19  1  0  0  0  0
 18 30  1  0  0  0  0
 19 22  2  0  0  0  0
 21 18  1  1  0  0  0
 21 24  1  0  0  0  0
 22 23  1  0  0  0  0
 22 25  1  0  0  0  0
 24 14  1  1  0  0  0
 24 27  1  0  0  0  0
 25 28  2  0  0  0  0
 25 30  1  0  0  0  0
 27 29  1  0  0  0  0
 29 31  1  0  0  0  0
M  CHG  1  17  -1
M  END
>  <CHROM.1>
-91.37952433,-22.01701527,88.86664134,-167.52835002,-47.14797768,52.75234567
-95.31507857,139.94958633,-154.14490658,-59.44591952,-179.42823964,-33.21523621
8.14418032,18.67040333,51.07335647,-2.41325869,0.43067217,1.44684934

>  <Name>
ligand

>  <RI>
0

>  <Rbt.Current_Directory>
/home/itssahil/PROJECTS/Mol_Feturizer/New_Systems/rnas/2HOO

>  <Rbt.Executable>
rbdock ($Id: //depot/dev/client3/rdock/2013.1/src/exe/rbdock.cxx#4 $)

>  <Rbt.Library>
libRbt.so (2013.1, Build901 2013/11/27)

>  <Rbt.Parameter_File>
/export/apps/rDock/src/rDock_2013.1_src/data/scripts/dock_solv.prm

>  <Rbt.Receptor>
prm/blind_docking_80.prm

>  <SCORE>
-36.7505

>  <SCORE.INTER>
-23.3478

>  <SCORE.INTER.CONST>
1

>  <SCORE.INTER.POLAR>
0

>  <SCORE.INTER.ROT>
12

>  <SCORE.INTER.SOLV>
25.2515

>  <SCORE.INTER.VDW>
-35.5823

>  <SCORE.INTER.norm>
-0.753153

>  <SCORE.INTRA>
-13.4038

>  <SCORE.INTRA.DIHEDRAL>
-0.459492

>  <SCORE.INTRA.DIHEDRAL.0>
14.6094

>  <SCORE.INTRA.POLAR>
0

>  <SCORE.INTRA.POLAR.0>
0

>  <SCORE.INTRA.REPUL>
0

>  <SCORE.INTRA.REPUL.0>
0

>  <SCORE.INTRA.SOLV>
0.121862

>  <SCORE.INTRA.SOLV.lig_0>
-65.6478

>  <SCORE.INTRA.VDW>
-13.235

>  <SCORE.INTRA.VDW.0>
9.35535

>  <SCORE.INTRA.norm>
-0.43238

>  <SCORE.RESTR>
0.0010778

>  <SCORE.RESTR.CAVITY>
0.0010778

>  <SCORE.RESTR.norm>
3.47678e-05

>  <SCORE.SYSTEM>
0

>  <SCORE.SYSTEM.CONST>
0

>  <SCORE.SYSTEM.DIHEDRAL>
0

>  <SCORE.SYSTEM.SOLV>
0

>  <SCORE.SYSTEM.norm>
0

>  <SCORE.heavy>
31

>  <SCORE.norm>
-1.1855

>  <RMSD>
4.104

$$$$
ligand
 OpenBabel11021811443D
libRbt.so/2013.1/901 2013/11/27
 31 32  0  0  0  0  0  0  0  0999 V2000
    5.8629   16.3171   49.5037 C   0  0  0  0  0  0  0  0  0  0  0  0
    7.1155   16.7708   48.7598 C   0  0  0  0  0  0  0  0  0  0  0  0
    8.3126   15.9865   48.8235 C   0  0  0  0  0  0  0  0  0  0  0  0
    9.4724   16.4145   48.1339 C   0  0  0  0  0  0  0  0  0  0  0  0
    9.4574   17.6098   47.3743 C   0  0  0  0  0  0  0  0  0  0  0  0
    8.2865   18.3908   47.2954 C   0  0  0  0  0  0  0  0  0  0  0  0
    7.1244   17.9836   47.9749 C   0  0  0  0  0  0  0  0  0  0  0  0
    4.9265   15.8164   48.8817 O   0  0  0  0  0  0  0  0  0  0  0  0
    7.0223   25.6957   54.0039 C   0  0  0  0  0  0  0  0  0  0  0  0
    6.1717   18.0459   54.0088 C   0  0  0  0  0  0  0  0  0  0  0  0
    0.6975   17.6930   51.7765 P   0  0  1  0  0  0  0  0  0  0  0  0
    7.2271   24.3258   52.0506 N   0  0  0  0  0  0  0  0  0  0  0  0
   -0.7073   17.7217   51.3265 O   0  0  0  0  0  0  0  0  0  0  0  0
    5.7658   16.4637   50.8766 S   0  0  0  0  0  0  0  0  0  0  0  0
    8.4516   19.0937   52.3174 C   0  0  0  0  0  0  0  0  0  0  0  0
    6.8838   24.3847   53.3824 C   0  0  0  0  0  0  0  0  0  0  0  0
    1.0993   18.8470   52.6256 O   0  5  0  0  0  0  0  0  0  0  0  0
    7.1482   19.4473   52.1953 N   0  0  0  0  0  0  0  0  0  0  0  0
    6.4634   23.3692   54.0693 N   0  0  0  0  0  0  0  0  0  0  0  0
    1.0150   16.3782   52.3806 O   0  0  0  0  0  0  0  0  0  0  0  0
    6.1814   18.3968   52.5456 C   0  0  2  0  0  0  0  0  0  0  0  0
    6.3409   22.1275   53.4756 C   0  0  0  0  0  0  0  0  0  0  0  0
    5.9089   21.1028   54.2147 N   0  0  0  0  0  0  0  0  0  0  0  0
    5.2581   17.7145   51.6441 C   0  0  1  0  0  0  0  0  0  0  0  0
    6.6925   21.9812   52.0717 C   0  0  0  0  0  0  0  0  0  0  0  0
    8.9173   18.6714   51.2819 O   0  0  0  0  0  0  0  0  0  0  0  0
    3.8559   18.1466   51.3991 C   0  0  0  0  0  0  0  0  0  0  0  0
    7.1208   23.1251   51.4291 C   0  0  0  0  0  0  0  0  0  0  0  0
    3.0166   17.3963   50.4566 C   0  0  0  0  0  0  0  0  0  0  0  0
    6.6211   20.6417   51.3801 C   0  0  0  0  0  0  0  0  0  0  0  0
    1.6464   17.8266   50.5345 O   0  0  0  0  0  0  0  0  0  0  0  0
  1  2  1  0  0  0  0
  1  8  2  0  0  0  0
  1 14  1  0  0  0  0
  2  3  2  0  0  0  0
  2  7  1  0  0  0  0
  3  4  1  0  0  0  0
  4  5  2  0  0  0  0
  5  6  1  0  0  0  0
  6  7  2  0  0  0  0
  9 16  1  0  0  0  0
 10 21  1  0  0  0  0
 11 13  1  6  0  0  0
 11 17  1  0  0  0  0
 11 20  2  0  0  0  0
 11 31  1  0  0  0  0
 12 16  2  0  0  0  0
 12 28  1  0  0  0  0
 15 26  1  0  0  0  0
 15 18  1  0  0  0  0
 16 19  1  0  0  0  0
 18 30  1  0  0  0  0
 19 22  2  0  0  0  0
 21 18  1  1  0  0  0
 21 24  1  0  0  0  0
 22 23  1  0  0  0  0
 22 25  1  0  0  0  0
 24 14  1  6  0  0  0
 24 27  1  0  0  0  0
 25 28  2  0  0  0  0
 25 30  1  0  0  0  0
 27 29  1  0  0  0  0
 29 31  1  0  0  0  0
M  CHG  1  17  -1
M  END
>  <CHROM.1>
-104.30712000,87.07431028,-118.23214097,93.05630639,67.81647021,-81.85175554
-94.73319508,-0.21581113,-41.91558491,170.05753186,-63.89168884,-157.05238398
5.44088305,18.97091280,51.31196111,-2.24873053,0.30286905,0.56010798

>  <Name>
ligand

>  <RI>
0

>  <Rbt.Current_Directory>
/home/itssahil/PROJECTS/Mol_Feturizer/New_Systems/rnas/2HOO

>  <Rbt.Executable>
rbdock ($Id: //depot/dev/client3/rdock/2013.1/src/exe/rbdock.cxx#4 $)

>  <Rbt.Library>
libRbt.so (2013.1, Build901 2013/11/27)

>  <Rbt.Parameter_File>
/export/apps/rDock/src/rDock_2013.1_src/data/scripts/dock_solv.prm

>  <Rbt.Receptor>
prm/blind_docking_60.prm

>  <SCORE>
-15.9985

>  <SCORE.INTER>
-9.18365

>  <SCORE.INTER.CONST>
1

>  <SCORE.INTER.POLAR>
0

>  <SCORE.INTER.ROT>
12

>  <SCORE.INTER.SOLV>
12.3952

>  <SCORE.INTER.VDW>
-21.8542

>  <SCORE.INTER.norm>
-0.296247

>  <SCORE.INTRA>
-7.34124

>  <SCORE.INTRA.DIHEDRAL>
2.61821

>  <SCORE.INTRA.DIHEDRAL.0>
14.6094

>  <SCORE.INTRA.POLAR>
0

>  <SCORE.INTRA.POLAR.0>
0

>  <SCORE.INTRA.REPUL>
0

>  <SCORE.INTRA.REPUL.0>
0

>  <SCORE.INTRA.SOLV>
7.32042

>  <SCORE.INTRA.SOLV.lig_0>
-65.6478

>  <SCORE.INTRA.VDW>
-12.3106

>  <SCORE.INTRA.VDW.0>
9.35535

>  <SCORE.INTRA.norm>
-0.236814

>  <SCORE.RESTR>
0.526386

>  <SCORE.RESTR.CAVITY>
0.526386

>  <SCORE.RESTR.norm>
0.0169802

>  <SCORE.SYSTEM>
0

>  <SCORE.SYSTEM.CONST>
0

>  <SCORE.SYSTEM.DIHEDRAL>
0

>  <SCORE.SYSTEM.SOLV>
0

>  <SCORE.SYSTEM.norm>
0

>  <SCORE.heavy>
31

>  <SCORE.norm>
-0.516081

>  <RMSD>
4.108

$$$$
ligand
 OpenBabel11021811443D
libRbt.so/2013.1/901 2013/11/27
 31 32  0  0  0  0  0  0  0  0999 V2000
    4.3941   17.0552   49.5069 C   0  0  0  0  0  0  0  0  0  0  0  0
    3.1973   16.1593   49.8117 C   0  0  0  0  0  0  0  0  0  0  0  0
    2.7563   15.9846   51.1635 C   0  0  0  0  0  0  0  0  0  0  0  0
    1.6474   15.1495   51.4402 C   0  0  0  0  0  0  0  0  0  0  0  0
    0.9642   14.4895   50.3895 C   0  0  0  0  0  0  0  0  0  0  0  0
    1.3805   14.6548   49.0528 C   0  0  0  0  0  0  0  0  0  0  0  0
    2.4812   15.4788   48.7575 C   0  0  0  0  0  0  0  0  0  0  0  0
    5.2373   16.6956   48.6858 O   0  0  0  0  0  0  0  0  0  0  0  0
    7.9431   26.0033   52.2792 C   0  0  0  0  0  0  0  0  0  0  0  0
    7.6091   17.1746   51.0859 C   0  0  0  0  0  0  0  0  0  0  0  0
    2.6214   18.4333   54.9285 P   0  0  1  0  0  0  0  0  0  0  0  0
    7.1226   23.8409   51.6586 N   0  0  0  0  0  0  0  0  0  0  0  0
    2.1301   19.2727   56.0379 O   0  0  0  0  0  0  0  0  0  0  0  0
    4.5448   18.2731   50.1469 S   0  0  0  0  0  0  0  0  0  0  0  0
    7.8368   20.2015   49.6805 C   0  0  0  0  0  0  0  0  0  0  0  0
    8.1079   24.5554   52.3020 C   0  0  0  0  0  0  0  0  0  0  0  0
    2.3487   16.9789   55.0849 O   0  5  0  0  0  0  0  0  0  0  0  0
    7.8550   19.6480   50.9183 N   0  0  0  0  0  0  0  0  0  0  0  0
    9.1250   24.0156   52.8971 N   0  0  0  0  0  0  0  0  0  0  0  0
    2.1653   18.9821   53.6304 O   0  0  0  0  0  0  0  0  0  0  0  0
    6.9335   18.5189   51.1104 C   0  0  2  0  0  0  0  0  0  0  0  0
    9.2787   22.6424   52.9091 C   0  0  0  0  0  0  0  0  0  0  0  0
   10.3409   22.1212   53.5279 N   0  0  0  0  0  0  0  0  0  0  0  0
    5.4929   18.5873   51.3358 C   0  0  1  0  0  0  0  0  0  0  0  0
    8.2831   21.8173   52.2429 C   0  0  0  0  0  0  0  0  0  0  0  0
    8.1212   19.4064   48.8119 O   0  0  0  0  0  0  0  0  0  0  0  0
    4.8661   18.9525   52.6345 C   0  0  0  0  0  0  0  0  0  0  0  0
    7.2352   22.4895   51.6473 C   0  0  0  0  0  0  0  0  0  0  0  0
    5.0280   18.0685   53.7956 C   0  0  0  0  0  0  0  0  0  0  0  0
    8.4199   20.3153   52.1850 C   0  0  0  0  0  0  0  0  0  0  0  0
    4.1884   18.4917   54.8840 O   0  0  0  0  0  0  0  0  0  0  0  0
  1  2  1  0  0  0  0
  1  8  2  0  0  0  0
  1 14  1  0  0  0  0
  2  3  2  0  0  0  0
  2  7  1  0  0  0  0
  3  4  1  0  0  0  0
  4  5  2  0  0  0  0
  5  6  1  0  0  0  0
  6  7  2  0  0  0  0
  9 16  1  0  0  0  0
 10 21  1  0  0  0  0
 11 13  1  1  0  0  0
 11 17  1  0  0  0  0
 11 20  2  0  0  0  0
 11 31  1  0  0  0  0
 12 16  2  0  0  0  0
 12 28  1  0  0  0  0
 15 26  1  0  0  0  0
 15 18  1  0  0  0  0
 16 19  1  0  0  0  0
 18 30  1  0  0  0  0
 19 22  2  0  0  0  0
 21 18  1  1  0  0  0
 21 24  1  0  0  0  0
 22 23  1  0  0  0  0
 22 25  1  0  0  0  0
 24 14  1  6  0  0  0
 24 27  1  0  0  0  0
 25 28  2  0  0  0  0
 25 30  1  0  0  0  0
 27 29  1  0  0  0  0
 29 31  1  0  0  0  0
M  CHG  1  17  -1
M  END
>  <CHROM.1>
137.70189223,101.69836380,65.75840002,-59.38091674,102.89273134,32.42659036
-78.69749135,114.73188922,-147.51427341,-171.32823895,68.36313506,-165.07531955
5.34631390,19.14940837,51.88767524,-2.61909099,0.69244421,0.94063629

>  <Name>
ligand

>  <RI>
0

>  <Rbt.Current_Directory>
/home/itssahil/PROJECTS/Mol_Feturizer/New_Systems/rnas/2HOO

>  <Rbt.Executable>
rbdock ($Id: //depot/dev/client3/rdock/2013.1/src/exe/rbdock.cxx#4 $)

>  <Rbt.Library>
libRbt.so (2013.1, Build901 2013/11/27)

>  <Rbt.Parameter_File>
/export/apps/rDock/src/rDock_2013.1_src/data/scripts/dock_solv.prm

>  <Rbt.Receptor>
prm/pocket_docking_5.prm

>  <SCORE>
-30.2647

>  <SCORE.INTER>
-18.8414

>  <SCORE.INTER.CONST>
1

>  <SCORE.INTER.POLAR>
0

>  <SCORE.INTER.ROT>
12

>  <SCORE.INTER.SOLV>
19.156

>  <SCORE.INTER.VDW>
-30.5463

>  <SCORE.INTER.norm>
-0.607788

>  <SCORE.INTRA>
-11.4233

>  <SCORE.INTRA.DIHEDRAL>
3.19217

>  <SCORE.INTRA.DIHEDRAL.0>
14.6094

>  <SCORE.INTRA.POLAR>
0

>  <SCORE.INTRA.POLAR.0>
0

>  <SCORE.INTRA.REPUL>
0

>  <SCORE.INTRA.REPUL.0>
0

>  <SCORE.INTRA.SOLV>
1.48911

>  <SCORE.INTRA.SOLV.lig_0>
-65.6478

>  <SCORE.INTRA.VDW>
-13.7639

>  <SCORE.INTRA.VDW.0>
9.35535

>  <SCORE.INTRA.norm>
-0.368493

>  <SCORE.RESTR>
0

>  <SCORE.RESTR.CAVITY>
0

>  <SCORE.RESTR.norm>
0

>  <SCORE.SYSTEM>
0

>  <SCORE.SYSTEM.CONST>
0

>  <SCORE.SYSTEM.DIHEDRAL>
0

>  <SCORE.SYSTEM.SOLV>
0

>  <SCORE.SYSTEM.norm>
0

>  <SCORE.heavy>
31

>  <SCORE.norm>
-0.976281

>  <RMSD>
4.111

$$$$
ligand
 OpenBabel11021811443D
libRbt.so/2013.1/901 2013/11/27
 31 32  0  0  0  0  0  0  0  0999 V2000
    5.9972   17.5645   49.4155 C   0  0  0  0  0  0  0  0  0  0  0  0
    4.9391   16.7730   48.6525 C   0  0  0  0  0  0  0  0  0  0  0  0
    5.0992   16.5252   47.2507 C   0  0  0  0  0  0  0  0  0  0  0  0
    4.1124   15.7932   46.5477 C   0  0  0  0  0  0  0  0  0  0  0  0
    2.9695   15.2966   47.2210 C   0  0  0  0  0  0  0  0  0  0  0  0
    2.7986   15.5257   48.6014 C   0  0  0  0  0  0  0  0  0  0  0  0
    3.7668   16.2524   49.3173 C   0  0  0  0  0  0  0  0  0  0  0  0
    7.0260   17.0065   49.7960 O   0  0  0  0  0  0  0  0  0  0  0  0
    6.5083   24.2615   57.5312 C   0  0  0  0  0  0  0  0  0  0  0  0
    6.0754   19.4734   53.3661 C   0  0  0  0  0  0  0  0  0  0  0  0
    0.4792   17.3855   51.6698 P   0  0  1  0  0  0  0  0  0  0  0  0
    7.5783   24.0145   55.4032 N   0  0  0  0  0  0  0  0  0  0  0  0
    0.6209   16.3704   50.6084 O   0  0  0  0  0  0  0  0  0  0  0  0
    5.8127   18.9090   49.6876 S   0  0  0  0  0  0  0  0  0  0  0  0
    8.1540   20.9123   51.1616 C   0  0  0  0  0  0  0  0  0  0  0  0
    6.4282   23.8380   56.1390 C   0  0  0  0  0  0  0  0  0  0  0  0
   -0.7865   18.1659   51.6151 O   0  5  0  0  0  0  0  0  0  0  0  0
    7.0089   21.1979   51.8295 N   0  0  0  0  0  0  0  0  0  0  0  0
    5.3324   23.3347   55.6636 N   0  0  0  0  0  0  0  0  0  0  0  0
    0.7412   16.7797   52.9959 O   0  0  0  0  0  0  0  0  0  0  0  0
    6.0792   20.0698   51.9846 C   0  0  2  0  0  0  0  0  0  0  0  0
    5.2654   22.9289   54.3444 C   0  0  0  0  0  0  0  0  0  0  0  0
    4.1218   22.4108   53.8899 N   0  0  0  0  0  0  0  0  0  0  0  0
    5.1854   19.5201   50.9698 C   0  0  1  0  0  0  0  0  0  0  0  0
    6.4429   23.0748   53.5029 C   0  0  0  0  0  0  0  0  0  0  0  0
    8.0232   20.9923   49.9600 O   0  0  0  0  0  0  0  0  0  0  0  0
    3.7016   19.5167   51.0757 C   0  0  0  0  0  0  0  0  0  0  0  0
    7.5550   23.6296   54.1030 C   0  0  0  0  0  0  0  0  0  0  0  0
    3.0005   18.2802   51.4434 C   0  0  0  0  0  0  0  0  0  0  0  0
    6.4439   22.6098   52.0671 C   0  0  0  0  0  0  0  0  0  0  0  0
    1.5782   18.4897   51.4860 O   0  0  0  0  0  0  0  0  0  0  0  0
  1  2  1  0  0  0  0
  1  8  2  0  0  0  0
  1 14  1  0  0  0  0
  2  3  2  0  0  0  0
  2  7  1  0  0  0  0
  3  4  1  0  0  0  0
  4  5  2  0  0  0  0
  5  6  1  0  0  0  0
  6  7  2  0  0  0  0
  9 16  1  0  0  0  0
 10 21  1  0  0  0  0
 11 13  1  6  0  0  0
 11 17  1  0  0  0  0
 11 20  2  0  0  0  0
 11 31  1  0  0  0  0
 12 16  2  0  0  0  0
 12 28  1  0  0  0  0
 15 26  1  0  0  0  0
 15 18  1  0  0  0  0
 16 19  1  0  0  0  0
 18 30  1  0  0  0  0
 19 22  2  0  0  0  0
 21 18  1  1  0  0  0
 21 24  1  0  0  0  0
 22 23  1  0  0  0  0
 22 25  1  0  0  0  0
 24 14  1  6  0  0  0
 24 27  1  0  0  0  0
 25 28  2  0  0  0  0
 25 30  1  0  0  0  0
 27 29  1  0  0  0  0
 29 31  1  0  0  0  0
M  CHG  1  17  -1
M  END
>  <CHROM.1>
-80.81455535,92.64828618,101.16795583,84.81348271,103.95829373,-112.78703113
-118.92496970,77.99007971,-95.27345764,-179.82850294,172.22408427,-56.93817960
4.59930909,19.47322161,51.57671016,-2.05445771,0.38543529,0.86124559

>  <Name>
ligand

>  <RI>
0

>  <Rbt.Current_Directory>
/home/itssahil/PROJECTS/Mol_Feturizer/New_Systems/rnas/2HOO

>  <Rbt.Executable>
rbdock ($Id: //depot/dev/client3/rdock/2013.1/src/exe/rbdock.cxx#4 $)

>  <Rbt.Library>
libRbt.so (2013.1, Build901 2013/11/27)

>  <Rbt.Parameter_File>
/export/apps/rDock/src/rDock_2013.1_src/data/scripts/dock_solv.prm

>  <Rbt.Receptor>
prm/pocket_docking_4.prm

>  <SCORE>
-19.6684

>  <SCORE.INTER>
-7.55728

>  <SCORE.INTER.CONST>
1

>  <SCORE.INTER.POLAR>
0

>  <SCORE.INTER.ROT>
12

>  <SCORE.INTER.SOLV>
15.8128

>  <SCORE.INTER.VDW>
-21.9091

>  <SCORE.INTER.norm>
-0.243783

>  <SCORE.INTRA>
-12.2998

>  <SCORE.INTRA.DIHEDRAL>
3.67367

>  <SCORE.INTRA.DIHEDRAL.0>
14.6094

>  <SCORE.INTRA.POLAR>
0

>  <SCORE.INTRA.POLAR.0>
0

>  <SCORE.INTRA.REPUL>
0

>  <SCORE.INTRA.REPUL.0>
0

>  <SCORE.INTRA.SOLV>
3.0059

>  <SCORE.INTRA.SOLV.lig_0>
-65.6478

>  <SCORE.INTRA.VDW>
-15.6396

>  <SCORE.INTRA.VDW.0>
9.35535

>  <SCORE.INTRA.norm>
-0.396767

>  <SCORE.RESTR>
0.188701

>  <SCORE.RESTR.CAVITY>
0.188701

>  <SCORE.RESTR.norm>
0.00608714

>  <SCORE.SYSTEM>
0

>  <SCORE.SYSTEM.CONST>
0

>  <SCORE.SYSTEM.DIHEDRAL>
0

>  <SCORE.SYSTEM.SOLV>
0

>  <SCORE.SYSTEM.norm>
0

>  <SCORE.heavy>
31

>  <SCORE.norm>
-0.634463

>  <RMSD>
4.121

$$$$
ligand
 OpenBabel11021811443D
libRbt.so/2013.1/901 2013/11/27
 31 32  0  0  0  0  0  0  0  0999 V2000
    4.9152   16.3477   48.7545 C   0  0  0  0  0  0  0  0  0  0  0  0
    5.4377   14.9569   49.1020 C   0  0  0  0  0  0  0  0  0  0  0  0
    4.5865   13.8134   48.9602 C   0  0  0  0  0  0  0  0  0  0  0  0
    5.0760   12.5261   49.2875 C   0  0  0  0  0  0  0  0  0  0  0  0
    6.4048   12.3577   49.7480 C   0  0  0  0  0  0  0  0  0  0  0  0
    7.2583   13.4709   49.8879 C   0  0  0  0  0  0  0  0  0  0  0  0
    6.7902   14.7584   49.5696 C   0  0  0  0  0  0  0  0  0  0  0  0
    5.4692   17.0107   47.8782 O   0  0  0  0  0  0  0  0  0  0  0  0
    7.8486   24.5282   54.6573 C   0  0  0  0  0  0  0  0  0  0  0  0
    6.0093   17.2388   51.9836 C   0  0  0  0  0  0  0  0  0  0  0  0
    0.8631   18.7236   54.8280 P   0  0  1  0  0  0  0  0  0  0  0  0
    6.4478   23.9553   52.8016 N   0  0  0  0  0  0  0  0  0  0  0  0
    0.3420   17.4348   55.3221 O   0  0  0  0  0  0  0  0  0  0  0  0
    3.8209   16.8761   49.4170 S   0  0  0  0  0  0  0  0  0  0  0  0
    6.7116   19.6557   50.1929 C   0  0  0  0  0  0  0  0  0  0  0  0
    7.0883   23.5144   53.9376 C   0  0  0  0  0  0  0  0  0  0  0  0
   -0.1384   19.8236   54.7924 O   0  5  0  0  0  0  0  0  0  0  0  0
    5.6980   19.5419   51.0865 N   0  0  0  0  0  0  0  0  0  0  0  0
    7.0425   22.2930   54.3690 N   0  0  0  0  0  0  0  0  0  0  0  0
    2.1072   19.0826   55.5473 O   0  0  0  0  0  0  0  0  0  0  0  0
    5.1315   18.1919   51.2187 C   0  0  2  0  0  0  0  0  0  0  0  0
    6.3252   21.3351   53.6781 C   0  0  0  0  0  0  0  0  0  0  0  0
    6.3036   20.0859   54.1492 N   0  0  0  0  0  0  0  0  0  0  0  0
    3.8426   17.7254   50.7168 C   0  0  1  0  0  0  0  0  0  0  0  0
    5.6266   21.7207   52.4618 C   0  0  0  0  0  0  0  0  0  0  0  0
    6.3660   19.3910   49.0624 O   0  0  0  0  0  0  0  0  0  0  0  0
    2.5363   18.0211   51.3642 C   0  0  0  0  0  0  0  0  0  0  0  0
    5.7318   23.0467   52.0938 C   0  0  0  0  0  0  0  0  0  0  0  0
    2.3730   17.8045   52.8072 C   0  0  0  0  0  0  0  0  0  0  0  0
    4.8632   20.7100   51.6412 C   0  0  0  0  0  0  0  0  0  0  0  0
    1.2743   18.5773   53.3212 O   0  0  0  0  0  0  0  0  0  0  0  0
  1  2  1  0  0  0  0
  1  8  2  0  0  0  0
  1 14  1  0  0  0  0
  2  3  2  0  0  0  0
  2  7  1  0  0  0  0
  3  4  1  0  0  0  0
  4  5  2  0  0  0  0
  5  6  1  0  0  0  0
  6  7  2  0  0  0  0
  9 16  1  0  0  0  0
 10 21  1  0  0  0  0
 11 13  1  1  0  0  0
 11 17  1  0  0  0  0
 11 20  2  0  0  0  0
 11 31  1  0  0  0  0
 12 16  2  0  0  0  0
 12 28  1  0  0  0  0
 15 26  1  0  0  0  0
 15 18  1  0  0  0  0
 16 19  1  0  0  0  0
 18 30  1  0  0  0  0
 19 22  2  0  0  0  0
 21 18  1  1  0  0  0
 21 24  1  0  0  0  0
 22 23  1  0  0  0  0
 22 25  1  0  0  0  0
 24 14  1  6  0  0  0
 24 27  1  0  0  0  0
 25 28  2  0  0  0  0
 25 30  1  0  0  0  0
 27 29  1  0  0  0  0
 29 31  1  0  0  0  0
M  CHG  1  17  -1
M  END
>  <CHROM.1>
-120.16392563,89.83737795,9.31140724,62.24438999,74.69750606,-63.80785060
-79.17148566,131.61678037,-60.14951114,158.77666651,-173.91005022,-68.55703870
4.55602773,18.55801755,51.86883854,-1.51581120,0.55047112,0.55734812

>  <Name>
ligand

>  <RI>
0

>  <Rbt.Current_Directory>
/home/itssahil/PROJECTS/Mol_Feturizer/New_Systems/rnas/2HOO

>  <Rbt.Executable>
rbdock ($Id: //depot/dev/client3/rdock/2013.1/src/exe/rbdock.cxx#4 $)

>  <Rbt.Library>
libRbt.so (2013.1, Build901 2013/11/27)

>  <Rbt.Parameter_File>
/export/apps/rDock/src/rDock_2013.1_src/data/scripts/dock_solv.prm

>  <Rbt.Receptor>
prm/pocket_docking_6.prm

>  <SCORE>
-19.1819

>  <SCORE.INTER>
-8.3511

>  <SCORE.INTER.CONST>
1

>  <SCORE.INTER.POLAR>
0

>  <SCORE.INTER.ROT>
12

>  <SCORE.INTER.SOLV>
12.8817

>  <SCORE.INTER.VDW>
-21.4613

>  <SCORE.INTER.norm>
-0.26939

>  <SCORE.INTRA>
-10.8308

>  <SCORE.INTRA.DIHEDRAL>
3.11924

>  <SCORE.INTRA.DIHEDRAL.0>
14.6094

>  <SCORE.INTRA.POLAR>
0

>  <SCORE.INTRA.POLAR.0>
0

>  <SCORE.INTRA.REPUL>
0

>  <SCORE.INTRA.REPUL.0>
0

>  <SCORE.INTRA.SOLV>
4.14588

>  <SCORE.INTRA.SOLV.lig_0>
-65.6478

>  <SCORE.INTRA.VDW>
-14.4634

>  <SCORE.INTRA.VDW.0>
9.35535

>  <SCORE.INTRA.norm>
-0.349381

>  <SCORE.RESTR>
0

>  <SCORE.RESTR.CAVITY>
0

>  <SCORE.RESTR.norm>
0

>  <SCORE.SYSTEM>
0

>  <SCORE.SYSTEM.CONST>
0

>  <SCORE.SYSTEM.DIHEDRAL>
0

>  <SCORE.SYSTEM.SOLV>
0

>  <SCORE.SYSTEM.norm>
0

>  <SCORE.heavy>
31

>  <SCORE.norm>
-0.618771

>  <RMSD>
4.156

$$$$
ligand
 OpenBabel11021811443D
libRbt.so/2013.1/901 2013/11/27
 31 32  0  0  0  0  0  0  0  0999 V2000
    6.6028   16.9786   50.0394 C   0  0  0  0  0  0  0  0  0  0  0  0
    7.9640   16.8952   49.3553 C   0  0  0  0  0  0  0  0  0  0  0  0
    8.1441   16.0474   48.2147 C   0  0  0  0  0  0  0  0  0  0  0  0
    9.4103   15.9717   47.5863 C   0  0  0  0  0  0  0  0  0  0  0  0
   10.5009   16.7339   48.0720 C   0  0  0  0  0  0  0  0  0  0  0  0
   10.3402   17.5781   49.1895 C   0  0  0  0  0  0  0  0  0  0  0  0
    9.0906   17.6657   49.8288 C   0  0  0  0  0  0  0  0  0  0  0  0
    5.9958   15.9476   50.3275 O   0  0  0  0  0  0  0  0  0  0  0  0
    7.9699   24.7630   51.9560 C   0  0  0  0  0  0  0  0  0  0  0  0
    5.1501   19.6016   53.9158 C   0  0  0  0  0  0  0  0  0  0  0  0
    2.5919   14.8960   50.9654 P   0  0  1  0  0  0  0  0  0  0  0  0
    7.2161   22.5453   51.4581 N   0  0  0  0  0  0  0  0  0  0  0  0
    3.5762   13.8163   50.7600 O   0  0  0  0  0  0  0  0  0  0  0  0
    6.0385   18.2061   50.3404 S   0  0  0  0  0  0  0  0  0  0  0  0
    7.2915   17.2034   53.8790 C   0  0  0  0  0  0  0  0  0  0  0  0
    8.1125   23.3259   52.1524 C   0  0  0  0  0  0  0  0  0  0  0  0
    1.6561   15.1052   49.8275 O   0  5  0  0  0  0  0  0  0  0  0  0
    7.2147   18.3897   53.2265 N   0  0  0  0  0  0  0  0  0  0  0  0
    9.0320   22.8542   52.9348 N   0  0  0  0  0  0  0  0  0  0  0  0
    1.9071   14.7238   52.2675 O   0  0  0  0  0  0  0  0  0  0  0  0
    5.8566   18.8080   52.8503 C   0  0  2  0  0  0  0  0  0  0  0  0
    9.1660   21.4903   53.1113 C   0  0  0  0  0  0  0  0  0  0  0  0
   10.1272   21.0397   53.9213 N   0  0  0  0  0  0  0  0  0  0  0  0
    5.1761   18.5526   51.5844 C   0  0  1  0  0  0  0  0  0  0  0  0
    8.2611   20.5972   52.4047 C   0  0  0  0  0  0  0  0  0  0  0  0
    7.4301   16.2662   53.1241 O   0  0  0  0  0  0  0  0  0  0  0  0
    3.7013   18.6142   51.4004 C   0  0  0  0  0  0  0  0  0  0  0  0
    7.3128   21.2005   51.6037 C   0  0  0  0  0  0  0  0  0  0  0  0
    2.8752   17.4499   51.7436 C   0  0  0  0  0  0  0  0  0  0  0  0
    8.3865   19.0979   52.5235 C   0  0  0  0  0  0  0  0  0  0  0  0
    3.3388   16.2722   51.0604 O   0  0  0  0  0  0  0  0  0  0  0  0
  1  2  1  0  0  0  0
  1  8  2  0  0  0  0
  1 14  1  0  0  0  0
  2  3  2  0  0  0  0
  2  7  1  0  0  0  0
  3  4  1  0  0  0  0
  4  5  2  0  0  0  0
  5  6  1  0  0  0  0
  6  7  2  0  0  0  0
  9 16  1  0  0  0  0
 10 21  1  0  0  0  0
 11 13  1  6  0  0  0
 11 17  1  0  0  0  0
 11 20  2  0  0  0  0
 11 31  1  0  0  0  0
 12 16  2  0  0  0  0
 12 28  1  0  0  0  0
 15 26  1  0  0  0  0
 15 18  1  0  0  0  0
 16 19  1  0  0  0  0
 18 30  1  0  0  0  0
 19 22  2  0  0  0  0
 21 18  1  6  0  0  0
 21 24  1  0  0  0  0
 22 23  1  0  0  0  0
 22 25  1  0  0  0  0
 24 14  1  6  0  0  0
 24 27  1  0  0  0  0
 25 28  2  0  0  0  0
 25 30  1  0  0  0  0
 27 29  1  0  0  0  0
 29 31  1  0  0  0  0
M  CHG  1  17  -1
M  END
>  <CHROM.1>
48.38782605,-144.60319183,79.33239240,90.25167751,88.36976124,-154.20255491
158.35144012,97.01904914,113.75847439,-54.42658030,-168.83950315,-154.13372509
6.35570405,18.13658733,51.34737038,-2.31919813,0.37880770,0.54777275

>  <Name>
ligand

>  <RI>
0

>  <Rbt.Current_Directory>
/home/itssahil/PROJECTS/Mol_Feturizer/New_Systems/rnas/2HOO

>  <Rbt.Executable>
rbdock ($Id: //depot/dev/client3/rdock/2013.1/src/exe/rbdock.cxx#4 $)

>  <Rbt.Library>
libRbt.so (2013.1, Build901 2013/11/27)

>  <Rbt.Parameter_File>
/export/apps/rDock/src/rDock_2013.1_src/data/scripts/dock_solv.prm

>  <Rbt.Receptor>
prm/blind_docking_100.prm

>  <SCORE>
-29.8652

>  <SCORE.INTER>
-16.1883

>  <SCORE.INTER.CONST>
1

>  <SCORE.INTER.POLAR>
0

>  <SCORE.INTER.ROT>
12

>  <SCORE.INTER.SOLV>
22.33

>  <SCORE.INTER.VDW>
-29.8355

>  <SCORE.INTER.norm>
-0.522204

>  <SCORE.INTRA>
-14.0009

>  <SCORE.INTRA.DIHEDRAL>
0.720063

>  <SCORE.INTRA.DIHEDRAL.0>
14.6094

>  <SCORE.INTRA.POLAR>
0

>  <SCORE.INTRA.POLAR.0>
0

>  <SCORE.INTRA.REPUL>
0

>  <SCORE.INTRA.REPUL.0>
0

>  <SCORE.INTRA.SOLV>
1.93237

>  <SCORE.INTRA.SOLV.lig_0>
-65.6478

>  <SCORE.INTRA.VDW>
-15.3271

>  <SCORE.INTRA.VDW.0>
9.35535

>  <SCORE.INTRA.norm>
-0.451642

>  <SCORE.RESTR>
0.32404

>  <SCORE.RESTR.CAVITY>
0.32404

>  <SCORE.RESTR.norm>
0.0104529

>  <SCORE.SYSTEM>
0

>  <SCORE.SYSTEM.CONST>
0

>  <SCORE.SYSTEM.DIHEDRAL>
0

>  <SCORE.SYSTEM.SOLV>
0

>  <SCORE.SYSTEM.norm>
0

>  <SCORE.heavy>
31

>  <SCORE.norm>
-0.963393

>  <RMSD>
4.185

$$$$
ligand
 OpenBabel11021811443D
libRbt.so/2013.1/901 2013/11/27
 31 32  0  0  0  0  0  0  0  0999 V2000
    4.0965   17.9865   54.4026 C   0  0  0  0  0  0  0  0  0  0  0  0
    3.0554   18.7763   53.6150 C   0  0  0  0  0  0  0  0  0  0  0  0
    2.8809   18.5367   52.2134 C   0  0  0  0  0  0  0  0  0  0  0  0
    1.9157   19.2751   51.4875 C   0  0  0  0  0  0  0  0  0  0  0  0
    1.1145   20.2455   52.1375 C   0  0  0  0  0  0  0  0  0  0  0  0
    1.2683   20.4901   53.5173 C   0  0  0  0  0  0  0  0  0  0  0  0
    2.2231   19.7682   54.2557 C   0  0  0  0  0  0  0  0  0  0  0  0
    3.7371   17.1173   55.1961 O   0  0  0  0  0  0  0  0  0  0  0  0
   13.7149   19.4930   55.0179 C   0  0  0  0  0  0  0  0  0  0  0  0
    5.5095   20.7671   52.2879 C   0  0  0  0  0  0  0  0  0  0  0  0
    3.3986   15.6085   50.3662 P   0  0  1  0  0  0  0  0  0  0  0  0
   11.5566   18.9995   54.1054 N   0  0  0  0  0  0  0  0  0  0  0  0
    3.8352   14.2113   50.1816 O   0  0  0  0  0  0  0  0  0  0  0  0
    5.4473   18.2378   54.2356 S   0  0  0  0  0  0  0  0  0  0  0  0
    8.2730   20.0176   50.7888 C   0  0  0  0  0  0  0  0  0  0  0  0
   12.4354   19.9768   54.5149 C   0  0  0  0  0  0  0  0  0  0  0  0
    3.4200   16.4326   49.1275 O   0  5  0  0  0  0  0  0  0  0  0  0
    7.9255   20.1934   52.0877 N   0  0  0  0  0  0  0  0  0  0  0  0
   12.1802   21.2469   54.4719 N   0  0  0  0  0  0  0  0  0  0  0  0
    2.1006   15.6494   51.0788 O   0  0  0  0  0  0  0  0  0  0  0  0
    6.5796   19.7207   52.4429 C   0  0  2  0  0  0  0  0  0  0  0  0
   10.9625   21.6985   54.0001 C   0  0  0  0  0  0  0  0  0  0  0  0
   10.7323   23.0135   53.9742 N   0  0  0  0  0  0  0  0  0  0  0  0
    6.2064   18.3817   52.8887 C   0  0  1  0  0  0  0  0  0  0  0  0
    9.9758   20.7265   53.5560 C   0  0  0  0  0  0  0  0  0  0  0  0
    8.0288   20.9887   50.1071 O   0  0  0  0  0  0  0  0  0  0  0  0
    6.5170   17.1343   52.1402 C   0  0  0  0  0  0  0  0  0  0  0  0
   10.3495   19.4002   53.6348 C   0  0  0  0  0  0  0  0  0  0  0  0
    5.7393   16.7901   50.9434 C   0  0  0  0  0  0  0  0  0  0  0  0
    8.6126   21.1569   53.0718 C   0  0  0  0  0  0  0  0  0  0  0  0
    4.4156   16.3543   51.2991 O   0  0  0  0  0  0  0  0  0  0  0  0
  1  2  1  0  0  0  0
  1  8  2  0  0  0  0
  1 14  1  0  0  0  0
  2  3  2  0  0  0  0
  2  7  1  0  0  0  0
  3  4  1  0  0  0  0
  4  5  2  0  0  0  0
  5  6  1  0  0  0  0
  6  7  2  0  0  0  0
  9 16  1  0  0  0  0
 10 21  1  0  0  0  0
 11 13  1  6  0  0  0
 11 17  1  0  0  0  0
 11 20  2  0  0  0  0
 11 31  1  0  0  0  0
 12 16  2  0  0  0  0
 12 28  1  0  0  0  0
 15 26  1  0  0  0  0
 15 18  1  0  0  0  0
 16 19  1  0  0  0  0
 18 30  1  0  0  0  0
 19 22  2  0  0  0  0
 21 18  1  6  0  0  0
 21 24  1  0  0  0  0
 22 23  1  0  0  0  0
 22 25  1  0  0  0  0
 24 14  1  1  0  0  0
 24 27  1  0  0  0  0
 25 28  2  0  0  0  0
 25 30  1  0  0  0  0
 27 29  1  0  0  0  0
 29 31  1  0  0  0  0
M  CHG  1  17  -1
M  END
>  <CHROM.1>
-107.61251283,-47.31810517,103.84213048,93.18567117,-90.19492946,-73.42051622
-56.39012794,104.87529798,153.95451516,-72.81398545,-165.48659735,73.62372118
6.24858828,18.73943353,52.58842559,2.66793304,-0.00575627,-2.56414294

>  <Name>
ligand

>  <RI>
0

>  <Rbt.Current_Directory>
/home/itssahil/PROJECTS/Mol_Feturizer/New_Systems/rnas/2HOO

>  <Rbt.Executable>
rbdock ($Id: //depot/dev/client3/rdock/2013.1/src/exe/rbdock.cxx#4 $)

>  <Rbt.Library>
libRbt.so (2013.1, Build901 2013/11/27)

>  <Rbt.Parameter_File>
/export/apps/rDock/src/rDock_2013.1_src/data/scripts/dock_solv.prm

>  <Rbt.Receptor>
prm/pocket_docking_5.prm

>  <SCORE>
-33.7018

>  <SCORE.INTER>
-19.137

>  <SCORE.INTER.CONST>
1

>  <SCORE.INTER.POLAR>
0

>  <SCORE.INTER.ROT>
12

>  <SCORE.INTER.SOLV>
25.7924

>  <SCORE.INTER.VDW>
-32.9555

>  <SCORE.INTER.norm>
-0.617323

>  <SCORE.INTRA>
-14.5648

>  <SCORE.INTRA.DIHEDRAL>
1.76565

>  <SCORE.INTRA.DIHEDRAL.0>
14.6094

>  <SCORE.INTRA.POLAR>
0

>  <SCORE.INTRA.POLAR.0>
0

>  <SCORE.INTRA.REPUL>
0

>  <SCORE.INTRA.REPUL.0>
0

>  <SCORE.INTRA.SOLV>
-0.230839

>  <SCORE.INTRA.SOLV.lig_0>
-65.6478

>  <SCORE.INTRA.VDW>
-15.3322

>  <SCORE.INTRA.VDW.0>
9.35535

>  <SCORE.INTRA.norm>
-0.469832

>  <SCORE.RESTR>
0

>  <SCORE.RESTR.CAVITY>
0

>  <SCORE.RESTR.norm>
0

>  <SCORE.SYSTEM>
0

>  <SCORE.SYSTEM.CONST>
0

>  <SCORE.SYSTEM.DIHEDRAL>
0

>  <SCORE.SYSTEM.SOLV>
0

>  <SCORE.SYSTEM.norm>
0

>  <SCORE.heavy>
31

>  <SCORE.norm>
-1.08715

>  <RMSD>
4.225

$$$$
ligand
 OpenBabel11021811443D
libRbt.so/2013.1/901 2013/11/27
 31 32  0  0  0  0  0  0  0  0999 V2000
    4.0188   17.9315   53.7194 C   0  0  0  0  0  0  0  0  0  0  0  0
    2.6287   17.9895   53.0930 C   0  0  0  0  0  0  0  0  0  0  0  0
    1.9443   16.7787   52.7494 C   0  0  0  0  0  0  0  0  0  0  0  0
    0.6563   16.8391   52.1655 C   0  0  0  0  0  0  0  0  0  0  0  0
    0.0340   18.0884   51.9241 C   0  0  0  0  0  0  0  0  0  0  0  0
    0.6901   19.2897   52.2614 C   0  0  0  0  0  0  0  0  0  0  0  0
    1.9710   19.2508   52.8408 C   0  0  0  0  0  0  0  0  0  0  0  0
    4.1400   17.7420   54.9292 O   0  0  0  0  0  0  0  0  0  0  0  0
   13.4248   19.5736   54.5653 C   0  0  0  0  0  0  0  0  0  0  0  0
    5.1181   21.5649   52.7300 C   0  0  0  0  0  0  0  0  0  0  0  0
    4.5666   15.7594   49.5610 P   0  0  1  0  0  0  0  0  0  0  0  0
   11.1240   19.0787   54.1230 N   0  0  0  0  0  0  0  0  0  0  0  0
    4.1974   14.3885   49.9624 O   0  0  0  0  0  0  0  0  0  0  0  0
    5.1511   18.0917   52.9397 S   0  0  0  0  0  0  0  0  0  0  0  0
    7.9595   20.9775   51.0104 C   0  0  0  0  0  0  0  0  0  0  0  0
   12.0764   20.0573   54.2971 C   0  0  0  0  0  0  0  0  0  0  0  0
    5.9826   16.1247   49.8360 O   0  5  0  0  0  0  0  0  0  0  0  0
    7.4301   20.7755   52.2424 N   0  0  0  0  0  0  0  0  0  0  0  0
   11.8310   21.3285   54.2345 N   0  0  0  0  0  0  0  0  0  0  0  0
    4.1542   16.0116   48.1608 O   0  0  0  0  0  0  0  0  0  0  0  0
    5.9991   20.4396   52.2590 C   0  0  2  0  0  0  0  0  0  0  0  0
   10.5489   21.7804   53.9865 C   0  0  0  0  0  0  0  0  0  0  0  0
   10.3318   23.0968   53.9332 N   0  0  0  0  0  0  0  0  0  0  0  0
    5.3866   19.1776   51.8550 C   0  0  1  0  0  0  0  0  0  0  0  0
    9.4839   20.8075   53.7994 C   0  0  0  0  0  0  0  0  0  0  0  0
    8.1974   19.9404   50.4313 O   0  0  0  0  0  0  0  0  0  0  0  0
    4.9806   18.8536   50.4611 C   0  0  0  0  0  0  0  0  0  0  0  0
    9.8521   19.4796   53.8769 C   0  0  0  0  0  0  0  0  0  0  0  0
    3.6847   18.2105   50.2107 C   0  0  0  0  0  0  0  0  0  0  0  0
    8.0566   21.2406   53.5690 C   0  0  0  0  0  0  0  0  0  0  0  0
    3.7651   16.7912   50.4292 O   0  0  0  0  0  0  0  0  0  0  0  0
  1  2  1  0  0  0  0
  1  8  2  0  0  0  0
  1 14  1  0  0  0  0
  2  3  2  0  0  0  0
  2  7  1  0  0  0  0
  3  4  1  0  0  0  0
  4  5  2  0  0  0  0
  5  6  1  0  0  0  0
  6  7  2  0  0  0  0
  9 16  1  0  0  0  0
 10 21  1  0  0  0  0
 11 13  1  1  0  0  0
 11 17  1  0  0  0  0
 11 20  2  0  0  0  0
 11 31  1  0  0  0  0
 12 16  2  0  0  0  0
 12 28  1  0  0  0  0
 15 26  1  0  0  0  0
 15 18  1  0  0  0  0
 16 19  1  0  0  0  0
 18 30  1  0  0  0  0
 19 22  2  0  0  0  0
 21 18  1  6  0  0  0
 21 24  1  0  0  0  0
 22 23  1  0  0  0  0
 22 25  1  0  0  0  0
 24 14  1  6  0  0  0
 24 27  1  0  0  0  0
 25 28  2  0  0  0  0
 25 30  1  0  0  0  0
 27 29  1  0  0  0  0
 29 31  1  0  0  0  0
M  CHG  1  17  -1
M  END
>  <CHROM.1>
-82.51132565,45.83801655,90.25635998,-78.84831873,-106.16023692,-53.60924997
-88.80830699,44.49379374,120.16220716,-81.51244595,-68.10136660,-169.72004037
6.06133946,18.74800770,52.17250567,2.61531038,-0.07598031,-2.39657454

>  <Name>
ligand

>  <RI>
0

>  <Rbt.Current_Directory>
/home/itssahil/PROJECTS/Mol_Feturizer/New_Systems/rnas/2HOO

>  <Rbt.Executable>
rbdock ($Id: //depot/dev/client3/rdock/2013.1/src/exe/rbdock.cxx#4 $)

>  <Rbt.Library>
libRbt.so (2013.1, Build901 2013/11/27)

>  <Rbt.Parameter_File>
/export/apps/rDock/src/rDock_2013.1_src/data/scripts/dock_solv.prm

>  <Rbt.Receptor>
prm/pocket_docking_3.prm

>  <SCORE>
-29.9887

>  <SCORE.INTER>
-18.5969

>  <SCORE.INTER.CONST>
1

>  <SCORE.INTER.POLAR>
0

>  <SCORE.INTER.ROT>
12

>  <SCORE.INTER.SOLV>
19.2843

>  <SCORE.INTER.VDW>
-30.426

>  <SCORE.INTER.norm>
-0.599899

>  <SCORE.INTRA>
-11.395

>  <SCORE.INTRA.DIHEDRAL>
4.04192

>  <SCORE.INTRA.DIHEDRAL.0>
14.6094

>  <SCORE.INTRA.POLAR>
0

>  <SCORE.INTRA.POLAR.0>
0

>  <SCORE.INTRA.REPUL>
0

>  <SCORE.INTRA.REPUL.0>
0

>  <SCORE.INTRA.SOLV>
2.78389

>  <SCORE.INTRA.SOLV.lig_0>
-65.6478

>  <SCORE.INTRA.VDW>
-14.8079

>  <SCORE.INTRA.VDW.0>
9.35535

>  <SCORE.INTRA.norm>
-0.367579

>  <SCORE.RESTR>
0.00314425

>  <SCORE.RESTR.CAVITY>
0.00314425

>  <SCORE.RESTR.norm>
0.000101428

>  <SCORE.SYSTEM>
0

>  <SCORE.SYSTEM.CONST>
0

>  <SCORE.SYSTEM.DIHEDRAL>
0

>  <SCORE.SYSTEM.SOLV>
0

>  <SCORE.SYSTEM.norm>
0

>  <SCORE.heavy>
31

>  <SCORE.norm>
-0.967377

>  <RMSD>
4.256

$$$$
ligand
 OpenBabel11021811443D
libRbt.so/2013.1/901 2013/11/27
 31 32  0  0  0  0  0  0  0  0999 V2000
    2.7370   20.1476   53.8194 C   0  0  0  0  0  0  0  0  0  0  0  0
    1.6631   19.1314   53.4422 C   0  0  0  0  0  0  0  0  0  0  0  0
    1.0256   18.3489   54.4588 C   0  0  0  0  0  0  0  0  0  0  0  0
    0.0324   17.4055   54.1023 C   0  0  0  0  0  0  0  0  0  0  0  0
   -0.3424   17.2332   52.7473 C   0  0  0  0  0  0  0  0  0  0  0  0
    0.2700   17.9989   51.7344 C   0  0  0  0  0  0  0  0  0  0  0  0
    1.2603   18.9402   52.0681 C   0  0  0  0  0  0  0  0  0  0  0  0
    2.4152   21.2918   54.1382 O   0  0  0  0  0  0  0  0  0  0  0  0
   13.3375   19.7433   54.5503 C   0  0  0  0  0  0  0  0  0  0  0  0
    5.2286   22.4772   52.5598 C   0  0  0  0  0  0  0  0  0  0  0  0
    4.0098   16.1496   50.3417 P   0  0  1  0  0  0  0  0  0  0  0  0
   11.0165   19.4490   54.0395 N   0  0  0  0  0  0  0  0  0  0  0  0
    3.8585   16.9384   49.1041 O   0  0  0  0  0  0  0  0  0  0  0  0
    4.0759   19.7968   53.8061 S   0  0  0  0  0  0  0  0  0  0  0  0
    7.8066   20.9490   51.1156 C   0  0  0  0  0  0  0  0  0  0  0  0
   12.0386   20.3420   54.2701 C   0  0  0  0  0  0  0  0  0  0  0  0
    3.0160   16.4662   51.4030 O   0  5  0  0  0  0  0  0  0  0  0  0
    7.3487   21.1826   52.3704 N   0  0  0  0  0  0  0  0  0  0  0  0
   11.8958   21.6301   54.2482 N   0  0  0  0  0  0  0  0  0  0  0  0
    4.0905   14.7055   50.0219 O   0  0  0  0  0  0  0  0  0  0  0  0
    5.8876   21.1250   52.5221 C   0  0  2  0  0  0  0  0  0  0  0  0
   10.6600   22.1910   53.9886 C   0  0  0  0  0  0  0  0  0  0  0  0
   10.5488   23.5216   53.9783 N   0  0  0  0  0  0  0  0  0  0  0  0
    5.0587   19.9267   52.6110 C   0  0  1  0  0  0  0  0  0  0  0  0
    9.5265   21.3131   53.7428 C   0  0  0  0  0  0  0  0  0  0  0  0
    7.8960   19.7670   50.8662 O   0  0  0  0  0  0  0  0  0  0  0  0
    5.1006   18.8064   51.6331 C   0  0  0  0  0  0  0  0  0  0  0  0
    9.7867   19.9582   53.7801 C   0  0  0  0  0  0  0  0  0  0  0  0
    5.5833   17.4864   52.0578 C   0  0  0  0  0  0  0  0  0  0  0  0
    8.1441   21.8664   53.4968 C   0  0  0  0  0  0  0  0  0  0  0  0
    5.3758   16.5072   51.0250 O   0  0  0  0  0  0  0  0  0  0  0  0
  1  2  1  0  0  0  0
  1  8  2  0  0  0  0
  1 14  1  0  0  0  0
  2  3  2  0  0  0  0
  2  7  1  0  0  0  0
  3  4  1  0  0  0  0
  4  5  2  0  0  0  0
  5  6  1  0  0  0  0
  6  7  2  0  0  0  0
  9 16  1  0  0  0  0
 10 21  1  0  0  0  0
 11 13  1  6  0  0  0
 11 17  1  0  0  0  0
 11 20  2  0  0  0  0
 11 31  1  0  0  0  0
 12 16  2  0  0  0  0
 12 28  1  0  0  0  0
 15 26  1  0  0  0  0
 15 18  1  0  0  0  0
 16 19  1  0  0  0  0
 18 30  1  0  0  0  0
 19 22  2  0  0  0  0
 21 18  1  6  0  0  0
 21 24  1  0  0  0  0
 22 23  1  0  0  0  0
 22 25  1  0  0  0  0
 24 14  1  1  0  0  0
 24 27  1  0  0  0  0
 25 28  2  0  0  0  0
 25 30  1  0  0  0  0
 27 29  1  0  0  0  0
 29 31  1  0  0  0  0
M  CHG  1  17  -1
M  END
>  <CHROM.1>
-86.73635030,90.48654568,94.68610740,-82.68846155,-100.78172387,-50.25716113
-53.88419197,-65.59580987,137.75870323,172.22202202,-56.11243618,94.20519209
5.73055051,19.29616325,52.59256202,2.71081984,-0.06896893,-2.54619719

>  <Name>
ligand

>  <RI>
0

>  <Rbt.Current_Directory>
/home/itssahil/PROJECTS/Mol_Feturizer/New_Systems/rnas/2HOO

>  <Rbt.Executable>
rbdock ($Id: //depot/dev/client3/rdock/2013.1/src/exe/rbdock.cxx#4 $)

>  <Rbt.Library>
libRbt.so (2013.1, Build901 2013/11/27)

>  <Rbt.Parameter_File>
/export/apps/rDock/src/rDock_2013.1_src/data/scripts/dock_solv.prm

>  <Rbt.Receptor>
prm/pocket_docking_2.prm

>  <SCORE>
-24.5029

>  <SCORE.INTER>
-15.7986

>  <SCORE.INTER.CONST>
1

>  <SCORE.INTER.POLAR>
0

>  <SCORE.INTER.ROT>
12

>  <SCORE.INTER.SOLV>
20.1535

>  <SCORE.INTER.VDW>
-28.8502

>  <SCORE.INTER.norm>
-0.509631

>  <SCORE.INTRA>
-9.63773

>  <SCORE.INTRA.DIHEDRAL>
5.88102

>  <SCORE.INTRA.DIHEDRAL.0>
14.6094

>  <SCORE.INTRA.POLAR>
0

>  <SCORE.INTRA.POLAR.0>
0

>  <SCORE.INTRA.REPUL>
0

>  <SCORE.INTRA.REPUL.0>
0

>  <SCORE.INTRA.SOLV>
1.99315

>  <SCORE.INTRA.SOLV.lig_0>
-65.6478

>  <SCORE.INTRA.VDW>
-13.5748

>  <SCORE.INTRA.VDW.0>
9.35535

>  <SCORE.INTRA.norm>
-0.310895

>  <SCORE.RESTR>
0.93338

>  <SCORE.RESTR.CAVITY>
0.93338

>  <SCORE.RESTR.norm>
0.030109

>  <SCORE.SYSTEM>
0

>  <SCORE.SYSTEM.CONST>
0

>  <SCORE.SYSTEM.DIHEDRAL>
0

>  <SCORE.SYSTEM.SOLV>
0

>  <SCORE.SYSTEM.norm>
0

>  <SCORE.heavy>
31

>  <SCORE.norm>
-0.790417

>  <RMSD>
4.319

$$$$
ligand
 OpenBabel11021811443D
libRbt.so/2013.1/901 2013/11/27
 31 32  0  0  0  0  0  0  0  0999 V2000
    6.8317   17.9880   47.5537 C   0  0  0  0  0  0  0  0  0  0  0  0
    7.9725   17.0319   47.2182 C   0  0  0  0  0  0  0  0  0  0  0  0
    7.9427   16.2769   46.0011 C   0  0  0  0  0  0  0  0  0  0  0  0
    9.0025   15.3890   45.6970 C   0  0  0  0  0  0  0  0  0  0  0  0
   10.0975   15.2457   46.5839 C   0  0  0  0  0  0  0  0  0  0  0  0
   10.1464   15.9853   47.7830 C   0  0  0  0  0  0  0  0  0  0  0  0
    9.1024   16.8713   48.1040 C   0  0  0  0  0  0  0  0  0  0  0  0
    6.8403   19.1350   47.1081 O   0  0  0  0  0  0  0  0  0  0  0  0
    8.0398   26.0494   52.3092 C   0  0  0  0  0  0  0  0  0  0  0  0
    7.5032   17.3742   51.3701 C   0  0  0  0  0  0  0  0  0  0  0  0
    1.4724   18.1314   52.3285 P   0  0  1  0  0  0  0  0  0  0  0  0
    6.4232   24.3172   51.9619 N   0  0  0  0  0  0  0  0  0  0  0  0
    2.2315   16.8955   52.5988 O   0  0  0  0  0  0  0  0  0  0  0  0
    5.7824   17.5793   48.3585 S   0  0  0  0  0  0  0  0  0  0  0  0
    7.7215   20.3673   49.7639 C   0  0  0  0  0  0  0  0  0  0  0  0
    7.7261   24.6264   52.2814 C   0  0  0  0  0  0  0  0  0  0  0  0
    0.0546   17.9132   51.9330 O   0  5  0  0  0  0  0  0  0  0  0  0
    7.1489   19.7838   50.8459 N   0  0  0  0  0  0  0  0  0  0  0  0
    8.6379   23.7437   52.5452 N   0  0  0  0  0  0  0  0  0  0  0  0
    1.6309   19.0854   53.4506 O   0  0  0  0  0  0  0  0  0  0  0  0
    6.6857   18.4041   50.6385 C   0  0  2  0  0  0  0  0  0  0  0  0
    8.3354   22.3959   52.5105 C   0  0  0  0  0  0  0  0  0  0  0  0
    9.3006   21.5146   52.7834 N   0  0  0  0  0  0  0  0  0  0  0  0
    5.5420   17.9702   49.8419 C   0  0  1  0  0  0  0  0  0  0  0  0
    6.9809   21.9874   52.1724 C   0  0  0  0  0  0  0  0  0  0  0  0
    8.6722   19.7425   49.3479 O   0  0  0  0  0  0  0  0  0  0  0  0
    4.1483   17.8880   50.3553 C   0  0  0  0  0  0  0  0  0  0  0  0
    6.0840   23.0049   51.9173 C   0  0  0  0  0  0  0  0  0  0  0  0
    3.4715   19.1041   50.8234 C   0  0  0  0  0  0  0  0  0  0  0  0
    6.6017   20.5297   52.0759 C   0  0  0  0  0  0  0  0  0  0  0  0
    2.0778   18.8520   51.0735 O   0  0  0  0  0  0  0  0  0  0  0  0
  1  2  1  0  0  0  0
  1  8  2  0  0  0  0
  1 14  1  0  0  0  0
  2  3  2  0  0  0  0
  2  7  1  0  0  0  0
  3  4  1  0  0  0  0
  4  5  2  0  0  0  0
  5  6  1  0  0  0  0
  6  7  2  0  0  0  0
  9 16  1  0  0  0  0
 10 21  1  0  0  0  0
 11 13  1  1  0  0  0
 11 17  1  0  0  0  0
 11 20  2  0  0  0  0
 11 31  1  0  0  0  0
 12 16  2  0  0  0  0
 12 28  1  0  0  0  0
 15 26  1  0  0  0  0
 15 18  1  0  0  0  0
 16 19  1  0  0  0  0
 18 30  1  0  0  0  0
 19 22  2  0  0  0  0
 21 18  1  1  0  0  0
 21 24  1  0  0  0  0
 22 23  1  0  0  0  0
 22 25  1  0  0  0  0
 24 14  1  6  0  0  0
 24 27  1  0  0  0  0
 25 28  2  0  0  0  0
 25 30  1  0  0  0  0
 27 29  1  0  0  0  0
 29 31  1  0  0  0  0
M  CHG  1  17  -1
M  END
>  <CHROM.1>
-84.90244174,105.00969419,-23.06716614,-57.61266914,109.90339506,-12.11508887
-88.24787009,-117.49787835,-72.44115844,170.76357299,77.76218696,-47.01546403
6.09668690,19.29851210,50.39030174,1.07212180,-0.41799010,-2.54903183

>  <Name>
ligand

>  <RI>
0

>  <Rbt.Current_Directory>
/home/itssahil/PROJECTS/Mol_Feturizer/New_Systems/rnas/2HOO

>  <Rbt.Executable>
rbdock ($Id: //depot/dev/client3/rdock/2013.1/src/exe/rbdock.cxx#4 $)

>  <Rbt.Library>
libRbt.so (2013.1, Build901 2013/11/27)

>  <Rbt.Parameter_File>
/export/apps/rDock/src/rDock_2013.1_src/data/scripts/dock_solv.prm

>  <Rbt.Receptor>
prm/pocket_docking_5.prm

>  <SCORE>
-25.8411

>  <SCORE.INTER>
-14.118

>  <SCORE.INTER.CONST>
1

>  <SCORE.INTER.POLAR>
0

>  <SCORE.INTER.ROT>
12

>  <SCORE.INTER.SOLV>
16.743

>  <SCORE.INTER.VDW>
-26.593

>  <SCORE.INTER.norm>
-0.455421

>  <SCORE.INTRA>
-11.7231

>  <SCORE.INTRA.DIHEDRAL>
2.9367

>  <SCORE.INTRA.DIHEDRAL.0>
14.6094

>  <SCORE.INTRA.POLAR>
0

>  <SCORE.INTRA.POLAR.0>
0

>  <SCORE.INTRA.REPUL>
0

>  <SCORE.INTRA.REPUL.0>
0

>  <SCORE.INTRA.SOLV>
3.4556

>  <SCORE.INTRA.SOLV.lig_0>
-65.6478

>  <SCORE.INTRA.VDW>
-14.9192

>  <SCORE.INTRA.VDW.0>
9.35535

>  <SCORE.INTRA.norm>
-0.378164

>  <SCORE.RESTR>
0

>  <SCORE.RESTR.CAVITY>
0

>  <SCORE.RESTR.norm>
0

>  <SCORE.SYSTEM>
0

>  <SCORE.SYSTEM.CONST>
0

>  <SCORE.SYSTEM.DIHEDRAL>
0

>  <SCORE.SYSTEM.SOLV>
0

>  <SCORE.SYSTEM.norm>
0

>  <SCORE.heavy>
31

>  <SCORE.norm>
-0.833585

>  <RMSD>
4.332

$$$$
ligand
 OpenBabel11021811443D
libRbt.so/2013.1/901 2013/11/27
 31 32  0  0  0  0  0  0  0  0999 V2000
    4.4738   17.3833   50.4595 C   0  0  0  0  0  0  0  0  0  0  0  0
    5.8542   18.0331   50.4788 C   0  0  0  0  0  0  0  0  0  0  0  0
    5.9894   19.4399   50.2444 C   0  0  0  0  0  0  0  0  0  0  0  0
    7.2730   20.0364   50.2603 C   0  0  0  0  0  0  0  0  0  0  0  0
    8.4264   19.2542   50.5135 C   0  0  0  0  0  0  0  0  0  0  0  0
    8.3116   17.8696   50.7523 C   0  0  0  0  0  0  0  0  0  0  0  0
    7.0452   17.2579   50.7389 C   0  0  0  0  0  0  0  0  0  0  0  0
    4.0828   16.8016   49.4480 O   0  0  0  0  0  0  0  0  0  0  0  0
    8.9862   19.2422   53.9132 C   0  0  0  0  0  0  0  0  0  0  0  0
    3.2677   20.7857   51.3818 C   0  0  0  0  0  0  0  0  0  0  0  0
    0.3311   16.6692   54.3168 P   0  0  1  0  0  0  0  0  0  0  0  0
    6.7945   18.2855   53.7889 N   0  0  0  0  0  0  0  0  0  0  0  0
   -0.9852   16.0196   54.4652 O   0  0  0  0  0  0  0  0  0  0  0  0
    3.6511   17.4414   51.5710 S   0  0  0  0  0  0  0  0  0  0  0  0
    1.3845   20.9290   53.8912 C   0  0  0  0  0  0  0  0  0  0  0  0
    7.5532   19.3786   54.1418 C   0  0  0  0  0  0  0  0  0  0  0  0
    0.9984   17.0164   55.6007 O   0  5  0  0  0  0  0  0  0  0  0  0
    2.5141   20.2077   53.6849 N   0  0  0  0  0  0  0  0  0  0  0  0
    7.0654   20.4693   54.6442 N   0  0  0  0  0  0  0  0  0  0  0  0
    1.1895   15.8835   53.4002 O   0  0  0  0  0  0  0  0  0  0  0  0
    2.7108   19.7371   52.3062 C   0  0  2  0  0  0  0  0  0  0  0  0
    5.7066   20.5894   54.8646 C   0  0  0  0  0  0  0  0  0  0  0  0
    5.2395   21.7257   55.3876 N   0  0  0  0  0  0  0  0  0  0  0  0
    2.4475   18.3984   51.7873 C   0  0  1  0  0  0  0  0  0  0  0  0
    4.8375   19.4734   54.5254 C   0  0  0  0  0  0  0  0  0  0  0  0
    0.8609   20.6782   54.9544 O   0  0  0  0  0  0  0  0  0  0  0  0
    1.0947   17.8883   51.4372 C   0  0  0  0  0  0  0  0  0  0  0  0
    5.4553   18.3621   53.9885 C   0  0  0  0  0  0  0  0  0  0  0  0
   -0.0691   18.3078   52.2280 C   0  0  0  0  0  0  0  0  0  0  0  0
    3.3515   19.5290   54.7836 C   0  0  0  0  0  0  0  0  0  0  0  0
    0.1487   18.0673   53.6292 O   0  0  0  0  0  0  0  0  0  0  0  0
  1  2  1  0  0  0  0
  1  8  2  0  0  0  0
  1 14  1  0  0  0  0
  2  3  2  0  0  0  0
  2  7  1  0  0  0  0
  3  4  1  0  0  0  0
  4  5  2  0  0  0  0
  5  6  1  0  0  0  0
  6  7  2  0  0  0  0
  9 16  1  0  0  0  0
 10 21  1  0  0  0  0
 11 13  1  1  0  0  0
 11 17  1  0  0  0  0
 11 20  2  0  0  0  0
 11 31  1  0  0  0  0
 12 16  2  0  0  0  0
 12 28  1  0  0  0  0
 15 26  1  0  0  0  0
 15 18  1  0  0  0  0
 16 19  1  0  0  0  0
 18 30  1  0  0  0  0
 19 22  2  0  0  0  0
 21 18  1  1  0  0  0
 21 24  1  0  0  0  0
 22 23  1  0  0  0  0
 22 25  1  0  0  0  0
 24 14  1  6  0  0  0
 24 27  1  0  0  0  0
 25 28  2  0  0  0  0
 25 30  1  0  0  0  0
 27 29  1  0  0  0  0
 29 31  1  0  0  0  0
M  CHG  1  17  -1
M  END
>  <CHROM.1>
98.38424107,101.03699626,-84.50857202,141.22877811,80.29312950,-146.93837448
76.87224425,145.74036023,84.76853639,-53.11833498,-64.58700594,-77.74706113
3.73286576,18.58492945,52.89743648,0.08521254,-0.31354118,-2.15783452

>  <Name>
ligand

>  <RI>
0

>  <Rbt.Current_Directory>
/home/itssahil/PROJECTS/Mol_Feturizer/New_Systems/rnas/2HOO

>  <Rbt.Executable>
rbdock ($Id: //depot/dev/client3/rdock/2013.1/src/exe/rbdock.cxx#4 $)

>  <Rbt.Library>
libRbt.so (2013.1, Build901 2013/11/27)

>  <Rbt.Parameter_File>
/export/apps/rDock/src/rDock_2013.1_src/data/scripts/dock_solv.prm

>  <Rbt.Receptor>
prm/pocket_docking_3.prm

>  <SCORE>
-22.7578

>  <SCORE.INTER>
-10.577

>  <SCORE.INTER.CONST>
1

>  <SCORE.INTER.POLAR>
0

>  <SCORE.INTER.ROT>
12

>  <SCORE.INTER.SOLV>
11.3413

>  <SCORE.INTER.VDW>
-22.4318

>  <SCORE.INTER.norm>
-0.341193

>  <SCORE.INTRA>
-12.1849

>  <SCORE.INTRA.DIHEDRAL>
3.70517

>  <SCORE.INTRA.DIHEDRAL.0>
14.6094

>  <SCORE.INTRA.POLAR>
0

>  <SCORE.INTRA.POLAR.0>
0

>  <SCORE.INTRA.REPUL>
0

>  <SCORE.INTRA.REPUL.0>
0

>  <SCORE.INTRA.SOLV>
6.83779

>  <SCORE.INTRA.SOLV.lig_0>
-65.6478

>  <SCORE.INTRA.VDW>
-17.4564

>  <SCORE.INTRA.VDW.0>
9.35535

>  <SCORE.INTRA.norm>
-0.393062

>  <SCORE.RESTR>
0.00408596

>  <SCORE.RESTR.CAVITY>
0.00408596

>  <SCORE.RESTR.norm>
0.000131805

>  <SCORE.SYSTEM>
0

>  <SCORE.SYSTEM.CONST>
0

>  <SCORE.SYSTEM.DIHEDRAL>
0

>  <SCORE.SYSTEM.SOLV>
0

>  <SCORE.SYSTEM.norm>
0

>  <SCORE.heavy>
31

>  <SCORE.norm>
-0.734124

>  <RMSD>
4.388

$$$$
ligand
 OpenBabel11021811443D
libRbt.so/2013.1/901 2013/11/27
 31 32  0  0  0  0  0  0  0  0999 V2000
    4.7321   18.5203   50.8037 C   0  0  0  0  0  0  0  0  0  0  0  0
    5.7373   17.4401   50.4154 C   0  0  0  0  0  0  0  0  0  0  0  0
    6.8445   17.1463   51.2756 C   0  0  0  0  0  0  0  0  0  0  0  0
    7.7756   16.1454   50.9083 C   0  0  0  0  0  0  0  0  0  0  0  0
    7.6178   15.4255   49.6987 C   0  0  0  0  0  0  0  0  0  0  0  0
    6.5309   15.6971   48.8430 C   0  0  0  0  0  0  0  0  0  0  0  0
    5.5960   16.6891   49.1894 C   0  0  0  0  0  0  0  0  0  0  0  0
    4.6487   19.5505   50.1357 O   0  0  0  0  0  0  0  0  0  0  0  0
    9.4613   19.3455   53.7729 C   0  0  0  0  0  0  0  0  0  0  0  0
    2.3079   21.6532   52.0737 C   0  0  0  0  0  0  0  0  0  0  0  0
    2.2424   15.2323   49.7805 P   0  0  1  0  0  0  0  0  0  0  0  0
    7.1114   19.1397   54.1854 N   0  0  0  0  0  0  0  0  0  0  0  0
    0.9259   14.6249   49.5071 O   0  0  0  0  0  0  0  0  0  0  0  0
    3.9096   18.3556   51.9046 S   0  0  0  0  0  0  0  0  0  0  0  0
    2.6400   19.8131   55.1611 C   0  0  0  0  0  0  0  0  0  0  0  0
    8.1604   19.9880   53.9110 C   0  0  0  0  0  0  0  0  0  0  0  0
    3.0312   14.5490   50.8412 O   0  5  0  0  0  0  0  0  0  0  0  0
    3.0943   20.6912   54.2329 N   0  0  0  0  0  0  0  0  0  0  0  0
    8.0402   21.2717   53.7777 N   0  0  0  0  0  0  0  0  0  0  0  0
    2.9923   15.4197   48.5168 O   0  0  0  0  0  0  0  0  0  0  0  0
    2.6669   20.4173   52.8533 C   0  0  2  0  0  0  0  0  0  0  0  0
    6.8049   21.8752   53.9166 C   0  0  0  0  0  0  0  0  0  0  0  0
    6.7191   23.2003   53.7771 N   0  0  0  0  0  0  0  0  0  0  0  0
    2.5875   19.1150   52.1988 C   0  0  1  0  0  0  0  0  0  0  0  0
    5.6470   21.0471   54.2156 C   0  0  0  0  0  0  0  0  0  0  0  0
    1.4453   19.9027   55.3398 O   0  0  0  0  0  0  0  0  0  0  0  0
    1.3163   18.4657   51.7799 C   0  0  0  0  0  0  0  0  0  0  0  0
    5.8810   19.6917   54.3290 C   0  0  0  0  0  0  0  0  0  0  0  0
    1.2823   17.0174   51.5411 C   0  0  0  0  0  0  0  0  0  0  0  0
    4.2804   21.6536   54.4216 C   0  0  0  0  0  0  0  0  0  0  0  0
    2.0408   16.6725   50.3688 O   0  0  0  0  0  0  0  0  0  0  0  0
  1  2  1  0  0  0  0
  1  8  2  0  0  0  0
  1 14  1  0  0  0  0
  2  3  2  0  0  0  0
  2  7  1  0  0  0  0
  3  4  1  0  0  0  0
  4  5  2  0  0  0  0
  5  6  1  0  0  0  0
  6  7  2  0  0  0  0
  9 16  1  0  0  0  0
 10 21  1  0  0  0  0
 11 13  1  6  0  0  0
 11 17  1  0  0  0  0
 11 20  2  0  0  0  0
 11 31  1  0  0  0  0
 12 16  2  0  0  0  0
 12 28  1  0  0  0  0
 15 26  1  0  0  0  0
 15 18  1  0  0  0  0
 16 19  1  0  0  0  0
 18 30  1  0  0  0  0
 19 22  2  0  0  0  0
 21 18  1  6  0  0  0
 21 24  1  0  0  0  0
 22 23  1  0  0  0  0
 22 25  1  0  0  0  0
 24 14  1  6  0  0  0
 24 27  1  0  0  0  0
 25 28  2  0  0  0  0
 25 30  1  0  0  0  0
 27 29  1  0  0  0  0
 29 31  1  0  0  0  0
M  CHG  1  17  -1
M  END
>  <CHROM.1>
113.56301273,-160.64886112,-84.61777401,-69.18321118,140.08386292,81.21177493
110.97965476,20.43874000,159.16154641,-68.78225766,-179.78814306,56.54567127
4.40013552,18.41813550,51.95536604,-1.99837833,0.03574933,0.68488321

>  <Name>
ligand

>  <RI>
0

>  <Rbt.Current_Directory>
/home/itssahil/PROJECTS/Mol_Feturizer/New_Systems/rnas/2HOO

>  <Rbt.Executable>
rbdock ($Id: //depot/dev/client3/rdock/2013.1/src/exe/rbdock.cxx#4 $)

>  <Rbt.Library>
libRbt.so (2013.1, Build901 2013/11/27)

>  <Rbt.Parameter_File>
/export/apps/rDock/src/rDock_2013.1_src/data/scripts/dock_solv.prm

>  <Rbt.Receptor>
prm/pocket_docking_5.prm

>  <SCORE>
-23.8564

>  <SCORE.INTER>
-9.40377

>  <SCORE.INTER.CONST>
1

>  <SCORE.INTER.POLAR>
0

>  <SCORE.INTER.ROT>
12

>  <SCORE.INTER.SOLV>
12.7966

>  <SCORE.INTER.VDW>
-22.1347

>  <SCORE.INTER.norm>
-0.303347

>  <SCORE.INTRA>
-14.4526

>  <SCORE.INTRA.DIHEDRAL>
-1.08489

>  <SCORE.INTRA.DIHEDRAL.0>
14.6094

>  <SCORE.INTRA.POLAR>
0

>  <SCORE.INTRA.POLAR.0>
0

>  <SCORE.INTRA.REPUL>
0

>  <SCORE.INTRA.REPUL.0>
0

>  <SCORE.INTRA.SOLV>
1.69089

>  <SCORE.INTRA.SOLV.lig_0>
-65.6478

>  <SCORE.INTRA.VDW>
-14.7556

>  <SCORE.INTRA.VDW.0>
9.35535

>  <SCORE.INTRA.norm>
-0.466214

>  <SCORE.RESTR>
0

>  <SCORE.RESTR.CAVITY>
0

>  <SCORE.RESTR.norm>
0

>  <SCORE.SYSTEM>
0

>  <SCORE.SYSTEM.CONST>
0

>  <SCORE.SYSTEM.DIHEDRAL>
0

>  <SCORE.SYSTEM.SOLV>
0

>  <SCORE.SYSTEM.norm>
0

>  <SCORE.heavy>
31

>  <SCORE.norm>
-0.769562

>  <RMSD>
4.399

$$$$
ligand
 OpenBabel11021811443D
libRbt.so/2013.1/901 2013/11/27
 31 32  0  0  0  0  0  0  0  0999 V2000
    3.1330   20.2350   52.3002 C   0  0  0  0  0  0  0  0  0  0  0  0
    2.5056   18.8451   52.2496 C   0  0  0  0  0  0  0  0  0  0  0  0
    2.3464   18.0844   53.4530 C   0  0  0  0  0  0  0  0  0  0  0  0
    1.7666   16.7942   53.3992 C   0  0  0  0  0  0  0  0  0  0  0  0
    1.3352   16.2506   52.1644 C   0  0  0  0  0  0  0  0  0  0  0  0
    1.4785   16.9875   50.9712 C   0  0  0  0  0  0  0  0  0  0  0  0
    2.0538   18.2705   51.0035 C   0  0  0  0  0  0  0  0  0  0  0  0
    2.6021   21.1249   52.9640 O   0  0  0  0  0  0  0  0  0  0  0  0
   13.5601   19.9016   54.8215 C   0  0  0  0  0  0  0  0  0  0  0  0
    6.6224   18.4131   53.0630 C   0  0  0  0  0  0  0  0  0  0  0  0
    4.1899   15.1558   48.4379 P   0  0  1  0  0  0  0  0  0  0  0  0
   11.5147   19.1807   53.8063 N   0  0  0  0  0  0  0  0  0  0  0  0
    3.9185   14.9816   46.9982 O   0  0  0  0  0  0  0  0  0  0  0  0
    4.2975   20.5092   51.6040 S   0  0  0  0  0  0  0  0  0  0  0  0
    8.2794   20.0547   50.3531 C   0  0  0  0  0  0  0  0  0  0  0  0
   12.2466   20.2418   54.2896 C   0  0  0  0  0  0  0  0  0  0  0  0
    3.0274   14.8798   49.3248 O   0  5  0  0  0  0  0  0  0  0  0  0
    7.8602   20.0431   51.6427 N   0  0  0  0  0  0  0  0  0  0  0  0
   11.8319   21.4698   54.2892 N   0  0  0  0  0  0  0  0  0  0  0  0
    5.4132   14.4140   48.8219 O   0  0  0  0  0  0  0  0  0  0  0  0
    6.5901   19.3418   51.8795 C   0  0  2  0  0  0  0  0  0  0  0  0
   10.5826   21.7845   53.7896 C   0  0  0  0  0  0  0  0  0  0  0  0
   10.1864   23.0594   53.8091 N   0  0  0  0  0  0  0  0  0  0  0  0
    5.3532   19.4799   51.1168 C   0  0  1  0  0  0  0  0  0  0  0  0
    9.7442   20.7165   53.2677 C   0  0  0  0  0  0  0  0  0  0  0  0
    8.4852   18.9417   49.9215 O   0  0  0  0  0  0  0  0  0  0  0  0
    5.0270   18.6865   49.9015 C   0  0  0  0  0  0  0  0  0  0  0  0
   10.2824   19.4462   53.3061 C   0  0  0  0  0  0  0  0  0  0  0  0
    4.8408   17.2341   50.0081 C   0  0  0  0  0  0  0  0  0  0  0  0
    8.3539   20.9923   52.7492 C   0  0  0  0  0  0  0  0  0  0  0  0
    4.5021   16.6649   48.7314 O   0  0  0  0  0  0  0  0  0  0  0  0
  1  2  1  0  0  0  0
  1  8  2  0  0  0  0
  1 14  1  0  0  0  0
  2  3  2  0  0  0  0
  2  7  1  0  0  0  0
  3  4  1  0  0  0  0
  4  5  2  0  0  0  0
  5  6  1  0  0  0  0
  6  7  2  0  0  0  0
  9 16  1  0  0  0  0
 10 21  1  0  0  0  0
 11 13  1  6  0  0  0
 11 17  1  0  0  0  0
 11 20  2  0  0  0  0
 11 31  1  0  0  0  0
 12 16  2  0  0  0  0
 12 28  1  0  0  0  0
 15 26  1  0  0  0  0
 15 18  1  0  0  0  0
 16 19  1  0  0  0  0
 18 30  1  0  0  0  0
 19 22  2  0  0  0  0
 21 18  1  1  0  0  0
 21 24  1  0  0  0  0
 22 23  1  0  0  0  0
 22 25  1  0  0  0  0
 24 14  1  1  0  0  0
 24 27  1  0  0  0  0
 25 28  2  0  0  0  0
 25 30  1  0  0  0  0
 27 29  1  0  0  0  0
 29 31  1  0  0  0  0
M  CHG  1  17  -1
M  END
>  <CHROM.1>
-60.65037554,-21.86591443,-102.04271955,-61.66612196,133.99959181,-73.79565621
85.92267728,-114.37759896,150.62510691,178.61025352,-178.35798484,-178.76084980
6.12869931,18.65800166,51.53122922,2.51460351,-0.01204066,-2.41456393

>  <Name>
ligand

>  <RI>
0

>  <Rbt.Current_Directory>
/home/itssahil/PROJECTS/Mol_Feturizer/New_Systems/rnas/2HOO

>  <Rbt.Executable>
rbdock ($Id: //depot/dev/client3/rdock/2013.1/src/exe/rbdock.cxx#4 $)

>  <Rbt.Library>
libRbt.so (2013.1, Build901 2013/11/27)

>  <Rbt.Parameter_File>
/export/apps/rDock/src/rDock_2013.1_src/data/scripts/dock_solv.prm

>  <Rbt.Receptor>
prm/pocket_docking_3.prm

>  <SCORE>
-34.2485

>  <SCORE.INTER>
-18.8028

>  <SCORE.INTER.CONST>
1

>  <SCORE.INTER.POLAR>
0

>  <SCORE.INTER.ROT>
12

>  <SCORE.INTER.SOLV>
14.838

>  <SCORE.INTER.VDW>
-29.0812

>  <SCORE.INTER.norm>
-0.606542

>  <SCORE.INTRA>
-15.4457

>  <SCORE.INTRA.DIHEDRAL>
-1.81244

>  <SCORE.INTRA.DIHEDRAL.0>
14.6094

>  <SCORE.INTRA.POLAR>
0

>  <SCORE.INTRA.POLAR.0>
0

>  <SCORE.INTRA.REPUL>
0

>  <SCORE.INTRA.REPUL.0>
0

>  <SCORE.INTRA.SOLV>
0.0118566

>  <SCORE.INTRA.SOLV.lig_0>
-65.6478

>  <SCORE.INTRA.VDW>
-14.5454

>  <SCORE.INTRA.VDW.0>
9.35535

>  <SCORE.INTRA.norm>
-0.498249

>  <SCORE.RESTR>
0

>  <SCORE.RESTR.CAVITY>
0

>  <SCORE.RESTR.norm>
0

>  <SCORE.SYSTEM>
0

>  <SCORE.SYSTEM.CONST>
0

>  <SCORE.SYSTEM.DIHEDRAL>
0

>  <SCORE.SYSTEM.SOLV>
0

>  <SCORE.SYSTEM.norm>
0

>  <SCORE.heavy>
31

>  <SCORE.norm>
-1.10479

>  <RMSD>
4.420

$$$$
ligand
 OpenBabel11021811443D
libRbt.so/2013.1/901 2013/11/27
 31 32  0  0  0  0  0  0  0  0999 V2000
    2.5306   19.7909   54.6574 C   0  0  0  0  0  0  0  0  0  0  0  0
    1.4487   19.2406   53.7329 C   0  0  0  0  0  0  0  0  0  0  0  0
    0.2190   19.9551   53.5610 C   0  0  0  0  0  0  0  0  0  0  0  0
   -0.7823   19.4378   52.7045 C   0  0  0  0  0  0  0  0  0  0  0  0
   -0.5757   18.2213   52.0092 C   0  0  0  0  0  0  0  0  0  0  0  0
    0.6307   17.5080   52.1616 C   0  0  0  0  0  0  0  0  0  0  0  0
    1.6370   18.0044   53.0094 C   0  0  0  0  0  0  0  0  0  0  0  0
    2.5293   19.4914   55.8510 O   0  0  0  0  0  0  0  0  0  0  0  0
   13.1778   19.2747   54.1635 C   0  0  0  0  0  0  0  0  0  0  0  0
    5.2354   22.7051   52.5348 C   0  0  0  0  0  0  0  0  0  0  0  0
    4.9357   16.7068   50.1638 P   0  0  1  0  0  0  0  0  0  0  0  0
   10.7976   19.0294   54.0697 N   0  0  0  0  0  0  0  0  0  0  0  0
    5.8430   17.6724   49.5148 O   0  0  0  0  0  0  0  0  0  0  0  0
    3.5180   20.6282   54.1679 S   0  0  0  0  0  0  0  0  0  0  0  0
    7.4875   20.6625   51.4431 C   0  0  0  0  0  0  0  0  0  0  0  0
   11.8649   19.8988   54.0596 C   0  0  0  0  0  0  0  0  0  0  0  0
    3.4880   16.9912   49.9704 O   0  5  0  0  0  0  0  0  0  0  0  0
    7.0478   21.0020   52.6801 N   0  0  0  0  0  0  0  0  0  0  0  0
   11.7513   21.1866   53.9659 N   0  0  0  0  0  0  0  0  0  0  0  0
    5.3177   15.3221   49.8018 O   0  0  0  0  0  0  0  0  0  0  0  0
    5.6051   21.2670   52.7784 C   0  0  2  0  0  0  0  0  0  0  0  0
   10.5031   21.7724   53.8745 C   0  0  0  0  0  0  0  0  0  0  0  0
   10.4237   23.1022   53.7838 N   0  0  0  0  0  0  0  0  0  0  0  0
    4.5493   20.2978   53.0550 C   0  0  1  0  0  0  0  0  0  0  0  0
    9.3238   20.9209   53.8870 C   0  0  0  0  0  0  0  0  0  0  0  0
    8.1777   19.6670   51.4525 O   0  0  0  0  0  0  0  0  0  0  0  0
    4.3999   18.9986   52.3459 C   0  0  0  0  0  0  0  0  0  0  0  0
    9.5541   19.5634   53.9814 C   0  0  0  0  0  0  0  0  0  0  0  0
    5.4432   17.9737   52.4758 C   0  0  0  0  0  0  0  0  0  0  0  0
    7.9333   21.5053   53.8340 C   0  0  0  0  0  0  0  0  0  0  0  0
    5.1041   16.7975   51.7208 O   0  0  0  0  0  0  0  0  0  0  0  0
  1  2  1  0  0  0  0
  1  8  2  0  0  0  0
  1 14  1  0  0  0  0
  2  3  2  0  0  0  0
  2  7  1  0  0  0  0
  3  4  1  0  0  0  0
  4  5  2  0  0  0  0
  5  6  1  0  0  0  0
  6  7  2  0  0  0  0
  9 16  1  0  0  0  0
 10 21  1  0  0  0  0
 11 13  1  6  0  0  0
 11 17  1  0  0  0  0
 11 20  2  0  0  0  0
 11 31  1  0  0  0  0
 12 16  2  0  0  0  0
 12 28  1  0  0  0  0
 15 26  1  0  0  0  0
 15 18  1  0  0  0  0
 16 19  1  0  0  0  0
 18 30  1  0  0  0  0
 19 22  2  0  0  0  0
 21 18  1  6  0  0  0
 21 24  1  0  0  0  0
 22 23  1  0  0  0  0
 22 25  1  0  0  0  0
 24 14  1  1  0  0  0
 24 27  1  0  0  0  0
 25 28  2  0  0  0  0
 25 30  1  0  0  0  0
 27 29  1  0  0  0  0
 29 31  1  0  0  0  0
M  CHG  1  17  -1
M  END
>  <CHROM.1>
88.96574218,-59.95361457,-173.51106602,-130.58209982,-90.03153415,-33.65902549
-51.13902943,-115.23011552,123.69781532,179.72795034,63.48183182,31.53210412
5.73305773,19.39811200,52.71040932,2.87305735,-0.05715363,-2.43507474

>  <Name>
ligand

>  <RI>
0

>  <Rbt.Current_Directory>
/home/itssahil/PROJECTS/Mol_Feturizer/New_Systems/rnas/2HOO

>  <Rbt.Executable>
rbdock ($Id: //depot/dev/client3/rdock/2013.1/src/exe/rbdock.cxx#4 $)

>  <Rbt.Library>
libRbt.so (2013.1, Build901 2013/11/27)

>  <Rbt.Parameter_File>
/export/apps/rDock/src/rDock_2013.1_src/data/scripts/dock_solv.prm

>  <Rbt.Receptor>
prm/pocket_docking_2.prm

>  <SCORE>
-23.7926

>  <SCORE.INTER>
-12.8397

>  <SCORE.INTER.CONST>
1

>  <SCORE.INTER.POLAR>
0

>  <SCORE.INTER.ROT>
12

>  <SCORE.INTER.SOLV>
18.6209

>  <SCORE.INTER.VDW>
-26.3668

>  <SCORE.INTER.norm>
-0.414185

>  <SCORE.INTRA>
-11.9968

>  <SCORE.INTRA.DIHEDRAL>
2.07828

>  <SCORE.INTRA.DIHEDRAL.0>
14.6094

>  <SCORE.INTRA.POLAR>
0

>  <SCORE.INTRA.POLAR.0>
0

>  <SCORE.INTRA.REPUL>
0

>  <SCORE.INTRA.REPUL.0>
0

>  <SCORE.INTRA.SOLV>
0.691649

>  <SCORE.INTRA.SOLV.lig_0>
-65.6478

>  <SCORE.INTRA.VDW>
-13.3817

>  <SCORE.INTRA.VDW.0>
9.35535

>  <SCORE.INTRA.norm>
-0.386992

>  <SCORE.RESTR>
1.04394

>  <SCORE.RESTR.CAVITY>
1.04394

>  <SCORE.RESTR.norm>
0.0336756

>  <SCORE.SYSTEM>
0

>  <SCORE.SYSTEM.CONST>
0

>  <SCORE.SYSTEM.DIHEDRAL>
0

>  <SCORE.SYSTEM.SOLV>
0

>  <SCORE.SYSTEM.norm>
0

>  <SCORE.heavy>
31

>  <SCORE.norm>
-0.767502

>  <RMSD>
4.469

$$$$
ligand
 OpenBabel11021811443D
libRbt.so/2013.1/901 2013/11/27
 31 32  0  0  0  0  0  0  0  0999 V2000
    3.4357   21.6052   52.7714 C   0  0  0  0  0  0  0  0  0  0  0  0
    2.5636   20.3743   53.0003 C   0  0  0  0  0  0  0  0  0  0  0  0
    1.5635   20.0137   52.0401 C   0  0  0  0  0  0  0  0  0  0  0  0
    0.7552   18.8726   52.2597 C   0  0  0  0  0  0  0  0  0  0  0  0
    0.9318   18.0787   53.4193 C   0  0  0  0  0  0  0  0  0  0  0  0
    1.9151   18.4151   54.3718 C   0  0  0  0  0  0  0  0  0  0  0  0
    2.7270   19.5461   54.1726 C   0  0  0  0  0  0  0  0  0  0  0  0
    3.0392   22.7141   53.1285 O   0  0  0  0  0  0  0  0  0  0  0  0
   13.5940   19.5864   54.9657 C   0  0  0  0  0  0  0  0  0  0  0  0
    7.0026   18.9951   53.3949 C   0  0  0  0  0  0  0  0  0  0  0  0
    4.4645   16.2000   49.8982 P   0  0  1  0  0  0  0  0  0  0  0  0
   11.4522   19.2312   53.9553 N   0  0  0  0  0  0  0  0  0  0  0  0
    5.8132   15.8122   50.3538 O   0  0  0  0  0  0  0  0  0  0  0  0
    4.6733   21.4895   52.1625 S   0  0  0  0  0  0  0  0  0  0  0  0
    8.1541   20.6516   50.4581 C   0  0  0  0  0  0  0  0  0  0  0  0
   12.3716   20.1506   54.4078 C   0  0  0  0  0  0  0  0  0  0  0  0
    3.8855   15.3133   48.8529 O   0  5  0  0  0  0  0  0  0  0  0  0
    7.9840   20.6415   51.8034 N   0  0  0  0  0  0  0  0  0  0  0  0
   12.1991   21.4343   54.3584 N   0  0  0  0  0  0  0  0  0  0  0  0
    3.5696   16.4024   51.0611 O   0  0  0  0  0  0  0  0  0  0  0  0
    6.7640   19.9690   52.2729 C   0  0  2  0  0  0  0  0  0  0  0  0
   11.0348   21.9625   53.8343 C   0  0  0  0  0  0  0  0  0  0  0  0
   10.8893   23.2894   53.8034 N   0  0  0  0  0  0  0  0  0  0  0  0
    5.4035   20.1724   51.7843 C   0  0  1  0  0  0  0  0  0  0  0  0
   10.0097   21.0552   53.3425 C   0  0  0  0  0  0  0  0  0  0  0  0
    8.4001   19.5522   50.0128 O   0  0  0  0  0  0  0  0  0  0  0  0
    4.6583   19.1901   50.9520 C   0  0  0  0  0  0  0  0  0  0  0  0
   10.2952   19.7079   53.4327 C   0  0  0  0  0  0  0  0  0  0  0  0
    5.2063   18.7690   49.6566 C   0  0  0  0  0  0  0  0  0  0  0  0
    8.6996   21.5714   52.7995 C   0  0  0  0  0  0  0  0  0  0  0  0
    4.5374   17.5902   49.1751 O   0  0  0  0  0  0  0  0  0  0  0  0
  1  2  1  0  0  0  0
  1  8  2  0  0  0  0
  1 14  1  0  0  0  0
  2  3  2  0  0  0  0
  2  7  1  0  0  0  0
  3  4  1  0  0  0  0
  4  5  2  0  0  0  0
  5  6  1  0  0  0  0
  6  7  2  0  0  0  0
  9 16  1  0  0  0  0
 10 21  1  0  0  0  0
 11 13  1  1  0  0  0
 11 17  1  0  0  0  0
 11 20  2  0  0  0  0
 11 31  1  0  0  0  0
 12 16  2  0  0  0  0
 12 28  1  0  0  0  0
 15 26  1  0  0  0  0
 15 18  1  0  0  0  0
 16 19  1  0  0  0  0
 18 30  1  0  0  0  0
 19 22  2  0  0  0  0
 21 18  1  1  0  0  0
 21 24  1  0  0  0  0
 22 23  1  0  0  0  0
 22 25  1  0  0  0  0
 24 14  1  1  0  0  0
 24 27  1  0  0  0  0
 25 28  2  0  0  0  0
 25 30  1  0  0  0  0
 27 29  1  0  0  0  0
 29 31  1  0  0  0  0
M  CHG  1  17  -1
M  END
>  <CHROM.1>
85.87182431,-7.07905418,-125.90982911,-69.57275210,131.92064364,-90.13144971
105.89811237,121.71404172,155.14481622,165.25171996,-59.48410162,-47.71364168
6.28298587,19.50595415,52.13387415,2.73629914,0.05007576,-2.53865412

>  <Name>
ligand

>  <RI>
0

>  <Rbt.Current_Directory>
/home/itssahil/PROJECTS/Mol_Feturizer/New_Systems/rnas/2HOO

>  <Rbt.Executable>
rbdock ($Id: //depot/dev/client3/rdock/2013.1/src/exe/rbdock.cxx#4 $)

>  <Rbt.Library>
libRbt.so (2013.1, Build901 2013/11/27)

>  <Rbt.Parameter_File>
/export/apps/rDock/src/rDock_2013.1_src/data/scripts/dock_solv.prm

>  <Rbt.Receptor>
prm/pocket_docking_2.prm

>  <SCORE>
-30.1622

>  <SCORE.INTER>
-16.2474

>  <SCORE.INTER.CONST>
1

>  <SCORE.INTER.POLAR>
0

>  <SCORE.INTER.ROT>
12

>  <SCORE.INTER.SOLV>
20.3043

>  <SCORE.INTER.VDW>
-29.1997

>  <SCORE.INTER.norm>
-0.524111

>  <SCORE.INTRA>
-14.7349

>  <SCORE.INTRA.DIHEDRAL>
-0.96393

>  <SCORE.INTRA.DIHEDRAL.0>
14.6094

>  <SCORE.INTRA.POLAR>
0

>  <SCORE.INTRA.POLAR.0>
0

>  <SCORE.INTRA.REPUL>
0

>  <SCORE.INTRA.REPUL.0>
0

>  <SCORE.INTRA.SOLV>
0.22729

>  <SCORE.INTRA.SOLV.lig_0>
-65.6478

>  <SCORE.INTRA.VDW>
-14.3665

>  <SCORE.INTRA.VDW.0>
9.35535

>  <SCORE.INTRA.norm>
-0.475318

>  <SCORE.RESTR>
0.820069

>  <SCORE.RESTR.CAVITY>
0.820069

>  <SCORE.RESTR.norm>
0.0264538

>  <SCORE.SYSTEM>
0

>  <SCORE.SYSTEM.CONST>
0

>  <SCORE.SYSTEM.DIHEDRAL>
0

>  <SCORE.SYSTEM.SOLV>
0

>  <SCORE.SYSTEM.norm>
0

>  <SCORE.heavy>
31

>  <SCORE.norm>
-0.972975

>  <RMSD>
4.494

$$$$
ligand
 OpenBabel11021811443D
libRbt.so/2013.1/901 2013/11/27
 31 32  0  0  0  0  0  0  0  0999 V2000
    6.6412   16.4063   47.2233 C   0  0  0  0  0  0  0  0  0  0  0  0
    6.1196   15.2421   48.0603 C   0  0  0  0  0  0  0  0  0  0  0  0
    7.0281   14.2561   48.5648 C   0  0  0  0  0  0  0  0  0  0  0  0
    6.5377   13.1765   49.3379 C   0  0  0  0  0  0  0  0  0  0  0  0
    5.1548   13.0664   49.6236 C   0  0  0  0  0  0  0  0  0  0  0  0
    4.2471   14.0307   49.1404 C   0  0  0  0  0  0  0  0  0  0  0  0
    4.7144   15.1098   48.3689 C   0  0  0  0  0  0  0  0  0  0  0  0
    7.2193   16.1874   46.1592 O   0  0  0  0  0  0  0  0  0  0  0  0
    4.4626   22.1105   56.0696 C   0  0  0  0  0  0  0  0  0  0  0  0
    8.4587   19.6321   48.6471 C   0  0  0  0  0  0  0  0  0  0  0  0
    2.1437   18.8468   52.0740 P   0  0  1  0  0  0  0  0  0  0  0  0
    5.0798   20.6507   54.2745 N   0  0  0  0  0  0  0  0  0  0  0  0
    0.9169   18.3797   51.4007 O   0  0  0  0  0  0  0  0  0  0  0  0
    6.4725   17.7125   47.6489 S   0  0  0  0  0  0  0  0  0  0  0  0
    8.3579   18.6513   51.7714 C   0  0  0  0  0  0  0  0  0  0  0  0
    5.2583   21.8786   54.8708 C   0  0  0  0  0  0  0  0  0  0  0  0
    2.4291   20.2972   51.9044 O   0  5  0  0  0  0  0  0  0  0  0  0
    7.6555   19.5201   51.0027 N   0  0  0  0  0  0  0  0  0  0  0  0
    6.0668   22.7899   54.4281 N   0  0  0  0  0  0  0  0  0  0  0  0
    2.1510   18.4063   53.4883 O   0  0  0  0  0  0  0  0  0  0  0  0
    7.4402   19.0906   49.6134 C   0  0  2  0  0  0  0  0  0  0  0  0
    6.8133   22.5660   53.2871 C   0  0  0  0  0  0  0  0  0  0  0  0
    7.6327   23.5287   52.8574 N   0  0  0  0  0  0  0  0  0  0  0  0
    6.3885   18.2076   49.1182 C   0  0  1  0  0  0  0  0  0  0  0  0
    6.6746   21.2948   52.5938 C   0  0  0  0  0  0  0  0  0  0  0  0
    9.5428   18.9023   51.7918 O   0  0  0  0  0  0  0  0  0  0  0  0
    5.2256   17.7560   49.9284 C   0  0  0  0  0  0  0  0  0  0  0  0
    5.7943   20.3901   53.1517 C   0  0  0  0  0  0  0  0  0  0  0  0
    4.2454   18.7389   50.4068 C   0  0  0  0  0  0  0  0  0  0  0  0
    7.4305   21.0094   51.3190 C   0  0  0  0  0  0  0  0  0  0  0  0
    3.3932   18.1658   51.4137 O   0  0  0  0  0  0  0  0  0  0  0  0
  1  2  1  0  0  0  0
  1  8  2  0  0  0  0
  1 14  1  0  0  0  0
  2  3  2  0  0  0  0
  2  7  1  0  0  0  0
  3  4  1  0  0  0  0
  4  5  2  0  0  0  0
  5  6  1  0  0  0  0
  6  7  2  0  0  0  0
  9 16  1  0  0  0  0
 10 21  1  0  0  0  0
 11 13  1  6  0  0  0
 11 17  1  0  0  0  0
 11 20  2  0  0  0  0
 11 31  1  0  0  0  0
 12 16  2  0  0  0  0
 12 28  1  0  0  0  0
 15 26  1  0  0  0  0
 15 18  1  0  0  0  0
 16 19  1  0  0  0  0
 18 30  1  0  0  0  0
 19 22  2  0  0  0  0
 21 18  1  1  0  0  0
 21 24  1  0  0  0  0
 22 23  1  0  0  0  0
 22 25  1  0  0  0  0
 24 14  1  6  0  0  0
 24 27  1  0  0  0  0
 25 28  2  0  0  0  0
 25 30  1  0  0  0  0
 27 29  1  0  0  0  0
 29 31  1  0  0  0  0
M  CHG  1  17  -1
M  END
>  <CHROM.1>
60.75563358,29.59382888,115.46069214,93.91021023,-95.06066388,-61.86124372
7.95044999,-115.29392730,156.29207326,-166.43072024,-173.99397000,97.70708161
5.58066712,18.63518536,50.90669211,-1.44414289,0.37175255,0.70525075

>  <Name>
ligand

>  <RI>
0

>  <Rbt.Current_Directory>
/home/itssahil/PROJECTS/Mol_Feturizer/New_Systems/rnas/2HOO

>  <Rbt.Executable>
rbdock ($Id: //depot/dev/client3/rdock/2013.1/src/exe/rbdock.cxx#4 $)

>  <Rbt.Library>
libRbt.so (2013.1, Build901 2013/11/27)

>  <Rbt.Parameter_File>
/export/apps/rDock/src/rDock_2013.1_src/data/scripts/dock_solv.prm

>  <Rbt.Receptor>
prm/pocket_docking_3.prm

>  <SCORE>
-18.3952

>  <SCORE.INTER>
-6.38505

>  <SCORE.INTER.CONST>
1

>  <SCORE.INTER.POLAR>
0

>  <SCORE.INTER.ROT>
12

>  <SCORE.INTER.SOLV>
9.79289

>  <SCORE.INTER.VDW>
-19.121

>  <SCORE.INTER.norm>
-0.205969

>  <SCORE.INTRA>
-12.0286

>  <SCORE.INTRA.DIHEDRAL>
0.41956

>  <SCORE.INTRA.DIHEDRAL.0>
14.6094

>  <SCORE.INTRA.POLAR>
0

>  <SCORE.INTRA.POLAR.0>
0

>  <SCORE.INTRA.REPUL>
0

>  <SCORE.INTRA.REPUL.0>
0

>  <SCORE.INTRA.SOLV>
-0.518502

>  <SCORE.INTRA.SOLV.lig_0>
-65.6478

>  <SCORE.INTRA.VDW>
-11.9792

>  <SCORE.INTRA.VDW.0>
9.35535

>  <SCORE.INTRA.norm>
-0.38802

>  <SCORE.RESTR>
0.0184741

>  <SCORE.RESTR.CAVITY>
0.0184741

>  <SCORE.RESTR.norm>
0.00059594

>  <SCORE.SYSTEM>
0

>  <SCORE.SYSTEM.CONST>
0

>  <SCORE.SYSTEM.DIHEDRAL>
0

>  <SCORE.SYSTEM.SOLV>
0

>  <SCORE.SYSTEM.norm>
0

>  <SCORE.heavy>
31

>  <SCORE.norm>
-0.593394

>  <RMSD>
4.499

$$$$
ligand
 OpenBabel11021811443D
libRbt.so/2013.1/901 2013/11/27
 31 32  0  0  0  0  0  0  0  0999 V2000
    3.5796   19.5537   52.3494 C   0  0  0  0  0  0  0  0  0  0  0  0
    2.1544   19.0311   52.1955 C   0  0  0  0  0  0  0  0  0  0  0  0
    1.0690   19.7013   52.8474 C   0  0  0  0  0  0  0  0  0  0  0  0
   -0.2506   19.2096   52.7036 C   0  0  0  0  0  0  0  0  0  0  0  0
   -0.5086   18.0628   51.9135 C   0  0  0  0  0  0  0  0  0  0  0  0
    0.5464   17.3942   51.2598 C   0  0  0  0  0  0  0  0  0  0  0  0
    1.8648   17.8661   51.3918 C   0  0  0  0  0  0  0  0  0  0  0  0
    4.0315   19.7847   53.4704 O   0  0  0  0  0  0  0  0  0  0  0  0
   13.6134   19.3652   55.1358 C   0  0  0  0  0  0  0  0  0  0  0  0
    5.6943   22.2715   52.6073 C   0  0  0  0  0  0  0  0  0  0  0  0
    4.8138   16.2882   49.1311 P   0  0  1  0  0  0  0  0  0  0  0  0
   11.6110   19.0743   53.8551 N   0  0  0  0  0  0  0  0  0  0  0  0
    5.2920   16.0994   47.7481 O   0  0  0  0  0  0  0  0  0  0  0  0
    4.3741   19.7737   51.2376 S   0  0  0  0  0  0  0  0  0  0  0  0
    7.5214   19.6753   53.9478 C   0  0  0  0  0  0  0  0  0  0  0  0
   12.4337   19.9571   54.5177 C   0  0  0  0  0  0  0  0  0  0  0  0
    3.4058   16.7567   49.2407 O   0  5  0  0  0  0  0  0  0  0  0  0
    7.5967   20.7468   53.1201 N   0  0  0  0  0  0  0  0  0  0  0  0
   12.2094   21.2305   54.6077 N   0  0  0  0  0  0  0  0  0  0  0  0
    5.0977   15.0805   49.9404 O   0  0  0  0  0  0  0  0  0  0  0  0
    6.4037   20.9820   52.2940 C   0  0  2  0  0  0  0  0  0  0  0  0
   11.0854   21.7841   54.0251 C   0  0  0  0  0  0  0  0  0  0  0  0
   10.8840   23.0990   54.1416 N   0  0  0  0  0  0  0  0  0  0  0  0
    5.8866   20.1253   51.2311 C   0  0  1  0  0  0  0  0  0  0  0  0
   10.1615   20.9150   53.3132 C   0  0  0  0  0  0  0  0  0  0  0  0
    7.0239   19.9490   55.0179 O   0  0  0  0  0  0  0  0  0  0  0  0
    6.7191   19.5515   50.1400 C   0  0  0  0  0  0  0  0  0  0  0  0
   10.4965   19.5769   53.2683 C   0  0  0  0  0  0  0  0  0  0  0  0
    6.1118   18.6382   49.1639 C   0  0  0  0  0  0  0  0  0  0  0  0
    8.8953   21.4546   52.6940 C   0  0  0  0  0  0  0  0  0  0  0  0
    5.6218   17.4496   49.8087 O   0  0  0  0  0  0  0  0  0  0  0  0
  1  2  1  0  0  0  0
  1  8  2  0  0  0  0
  1 14  1  0  0  0  0
  2  3  2  0  0  0  0
  2  7  1  0  0  0  0
  3  4  1  0  0  0  0
  4  5  2  0  0  0  0
  5  6  1  0  0  0  0
  6  7  2  0  0  0  0
  9 16  1  0  0  0  0
 10 21  1  0  0  0  0
 11 13  1  6  0  0  0
 11 17  1  0  0  0  0
 11 20  2  0  0  0  0
 11 31  1  0  0  0  0
 12 16  2  0  0  0  0
 12 28  1  0  0  0  0
 15 26  1  0  0  0  0
 15 18  1  0  0  0  0
 16 19  1  0  0  0  0
 18 30  1  0  0  0  0
 19 22  2  0  0  0  0
 21 18  1  6  0  0  0
 21 24  1  0  0  0  0
 22 23  1  0  0  0  0
 22 25  1  0  0  0  0
 24 14  1  1  0  0  0
 24 27  1  0  0  0  0
 25 28  2  0  0  0  0
 25 30  1  0  0  0  0
 27 29  1  0  0  0  0
 29 31  1  0  0  0  0
M  CHG  1  17  -1
M  END
>  <CHROM.1>
50.72850782,-171.62437198,-35.71648149,-87.54989582,115.20882524,-2.53239112
-49.64756915,-2.93979631,-125.84942952,-62.23968958,175.00142498,34.89849016
6.23016376,19.22476679,52.00283943,2.65766873,0.03717268,-2.35536392

>  <Name>
ligand

>  <RI>
0

>  <Rbt.Current_Directory>
/home/itssahil/PROJECTS/Mol_Feturizer/New_Systems/rnas/2HOO

>  <Rbt.Executable>
rbdock ($Id: //depot/dev/client3/rdock/2013.1/src/exe/rbdock.cxx#4 $)

>  <Rbt.Library>
libRbt.so (2013.1, Build901 2013/11/27)

>  <Rbt.Parameter_File>
/export/apps/rDock/src/rDock_2013.1_src/data/scripts/dock_solv.prm

>  <Rbt.Receptor>
prm/pocket_docking_3.prm

>  <SCORE>
-30.5075

>  <SCORE.INTER>
-19.2546

>  <SCORE.INTER.CONST>
1

>  <SCORE.INTER.POLAR>
0

>  <SCORE.INTER.ROT>
12

>  <SCORE.INTER.SOLV>
22.3864

>  <SCORE.INTER.VDW>
-31.8985

>  <SCORE.INTER.norm>
-0.621116

>  <SCORE.INTRA>
-11.2535

>  <SCORE.INTRA.DIHEDRAL>
-0.217803

>  <SCORE.INTRA.DIHEDRAL.0>
14.6094

>  <SCORE.INTRA.POLAR>
0

>  <SCORE.INTRA.POLAR.0>
0

>  <SCORE.INTRA.REPUL>
0

>  <SCORE.INTRA.REPUL.0>
0

>  <SCORE.INTRA.SOLV>
1.67026

>  <SCORE.INTRA.SOLV.lig_0>
-65.6478

>  <SCORE.INTRA.VDW>
-11.9798

>  <SCORE.INTRA.VDW.0>
9.35535

>  <SCORE.INTRA.norm>
-0.363017

>  <SCORE.RESTR>
0.000668052

>  <SCORE.RESTR.CAVITY>
0.000668052

>  <SCORE.RESTR.norm>
2.15501e-05

>  <SCORE.SYSTEM>
0

>  <SCORE.SYSTEM.CONST>
0

>  <SCORE.SYSTEM.DIHEDRAL>
0

>  <SCORE.SYSTEM.SOLV>
0

>  <SCORE.SYSTEM.norm>
0

>  <SCORE.heavy>
31

>  <SCORE.norm>
-0.984112

>  <RMSD>
4.520

$$$$
ligand
 OpenBabel11021811443D
libRbt.so/2013.1/901 2013/11/27
 31 32  0  0  0  0  0  0  0  0999 V2000
    3.9008   17.8396   53.8087 C   0  0  0  0  0  0  0  0  0  0  0  0
    2.4730   17.3664   53.5526 C   0  0  0  0  0  0  0  0  0  0  0  0
    1.7551   17.8366   52.4056 C   0  0  0  0  0  0  0  0  0  0  0  0
    0.4295   17.3965   52.1753 C   0  0  0  0  0  0  0  0  0  0  0  0
   -0.1918   16.4881   53.0669 C   0  0  0  0  0  0  0  0  0  0  0  0
    0.5018   16.0103   54.1973 C   0  0  0  0  0  0  0  0  0  0  0  0
    1.8189   16.4370   54.4446 C   0  0  0  0  0  0  0  0  0  0  0  0
    4.3329   17.8936   54.9597 O   0  0  0  0  0  0  0  0  0  0  0  0
   13.9617   18.8564   54.9475 C   0  0  0  0  0  0  0  0  0  0  0  0
    5.9812   20.7049   53.8690 C   0  0  0  0  0  0  0  0  0  0  0  0
    5.6867   17.3158   49.5724 P   0  0  1  0  0  0  0  0  0  0  0  0
   11.6960   18.6231   54.2083 N   0  0  0  0  0  0  0  0  0  0  0  0
    4.3385   17.0093   50.0875 O   0  0  0  0  0  0  0  0  0  0  0  0
    4.7198   18.2122   52.7570 S   0  0  0  0  0  0  0  0  0  0  0  0
    8.1874   20.3331   51.2093 C   0  0  0  0  0  0  0  0  0  0  0  0
   12.6981   19.4873   54.5878 C   0  0  0  0  0  0  0  0  0  0  0  0
    5.9117   16.9234   48.1548 O   0  5  0  0  0  0  0  0  0  0  0  0
    8.0596   20.2926   52.5587 N   0  0  0  0  0  0  0  0  0  0  0  0
   12.5663   20.7759   54.6347 N   0  0  0  0  0  0  0  0  0  0  0  0
    6.0342   18.7277   49.8552 O   0  0  0  0  0  0  0  0  0  0  0  0
    6.7899   19.7368   53.0487 C   0  0  2  0  0  0  0  0  0  0  0  0
   11.3634   21.3672   54.2989 C   0  0  0  0  0  0  0  0  0  0  0  0
   11.2623   22.6971   54.3629 N   0  0  0  0  0  0  0  0  0  0  0  0
    6.2607   18.3993   52.8001 C   0  0  1  0  0  0  0  0  0  0  0  0
   10.2519   20.5204   53.8949 C   0  0  0  0  0  0  0  0  0  0  0  0
    7.8390   21.3948   50.7414 O   0  0  0  0  0  0  0  0  0  0  0  0
    7.1039   17.1909   52.5959 C   0  0  0  0  0  0  0  0  0  0  0  0
   10.4987   19.1627   53.8699 C   0  0  0  0  0  0  0  0  0  0  0  0
    7.7201   16.9457   51.2859 C   0  0  0  0  0  0  0  0  0  0  0  0
    8.9016   21.1049   53.5587 C   0  0  0  0  0  0  0  0  0  0  0  0
    6.7483   16.4573   50.3448 O   0  0  0  0  0  0  0  0  0  0  0  0
  1  2  1  0  0  0  0
  1  8  2  0  0  0  0
  1 14  1  0  0  0  0
  2  3  2  0  0  0  0
  2  7  1  0  0  0  0
  3  4  1  0  0  0  0
  4  5  2  0  0  0  0
  5  6  1  0  0  0  0
  6  7  2  0  0  0  0
  9 16  1  0  0  0  0
 10 21  1  0  0  0  0
 11 13  1  1  0  0  0
 11 17  1  0  0  0  0
 11 20  2  0  0  0  0
 11 31  1  0  0  0  0
 12 16  2  0  0  0  0
 12 28  1  0  0  0  0
 15 26  1  0  0  0  0
 15 18  1  0  0  0  0
 16 19  1  0  0  0  0
 18 30  1  0  0  0  0
 19 22  2  0  0  0  0
 21 18  1  6  0  0  0
 21 24  1  0  0  0  0
 22 23  1  0  0  0  0
 22 25  1  0  0  0  0
 24 14  1  1  0  0  0
 24 27  1  0  0  0  0
 25 28  2  0  0  0  0
 25 30  1  0  0  0  0
 27 29  1  0  0  0  0
 29 31  1  0  0  0  0
M  CHG  1  17  -1
M  END
>  <CHROM.1>
151.71109032,-164.93569552,-93.86883900,93.35760058,-119.09836504,-82.18860354
28.98157697,100.69005322,152.20640016,-76.13313738,78.64509913,-110.19291810
6.71574816,18.63578695,52.56065247,2.87814695,-0.29051979,-1.83830051

>  <Name>
ligand

>  <RI>
0

>  <Rbt.Current_Directory>
/home/itssahil/PROJECTS/Mol_Feturizer/New_Systems/rnas/2HOO

>  <Rbt.Executable>
rbdock ($Id: //depot/dev/client3/rdock/2013.1/src/exe/rbdock.cxx#4 $)

>  <Rbt.Library>
libRbt.so (2013.1, Build901 2013/11/27)

>  <Rbt.Parameter_File>
/export/apps/rDock/src/rDock_2013.1_src/data/scripts/dock_solv.prm

>  <Rbt.Receptor>
prm/blind_docking_100.prm

>  <SCORE>
-27.222

>  <SCORE.INTER>
-19.2947

>  <SCORE.INTER.CONST>
1

>  <SCORE.INTER.POLAR>
0

>  <SCORE.INTER.ROT>
12

>  <SCORE.INTER.SOLV>
22.4738

>  <SCORE.INTER.VDW>
-31.9544

>  <SCORE.INTER.norm>
-0.622408

>  <SCORE.INTRA>
-7.92739

>  <SCORE.INTRA.DIHEDRAL>
3.28732

>  <SCORE.INTRA.DIHEDRAL.0>
14.6094

>  <SCORE.INTRA.POLAR>
0

>  <SCORE.INTRA.POLAR.0>
0

>  <SCORE.INTRA.REPUL>
0

>  <SCORE.INTRA.REPUL.0>
0

>  <SCORE.INTRA.SOLV>
5.0113

>  <SCORE.INTRA.SOLV.lig_0>
-65.6478

>  <SCORE.INTRA.VDW>
-12.0767

>  <SCORE.INTRA.VDW.0>
9.35535

>  <SCORE.INTRA.norm>
-0.255722

>  <SCORE.RESTR>
0

>  <SCORE.RESTR.CAVITY>
0

>  <SCORE.RESTR.norm>
0

>  <SCORE.SYSTEM>
0

>  <SCORE.SYSTEM.CONST>
0

>  <SCORE.SYSTEM.DIHEDRAL>
0

>  <SCORE.SYSTEM.SOLV>
0

>  <SCORE.SYSTEM.norm>
0

>  <SCORE.heavy>
31

>  <SCORE.norm>
-0.878131

>  <RMSD>
4.546

$$$$
ligand
 OpenBabel11021811443D
libRbt.so/2013.1/901 2013/11/27
 31 32  0  0  0  0  0  0  0  0999 V2000
    3.5881   18.4037   53.5856 C   0  0  0  0  0  0  0  0  0  0  0  0
    2.2686   18.0671   52.8974 C   0  0  0  0  0  0  0  0  0  0  0  0
    2.0805   16.7815   52.2940 C   0  0  0  0  0  0  0  0  0  0  0  0
    0.8552   16.4764   51.6540 C   0  0  0  0  0  0  0  0  0  0  0  0
   -0.1909   17.4304   51.6113 C   0  0  0  0  0  0  0  0  0  0  0  0
   -0.0255   18.6982   52.2051 C   0  0  0  0  0  0  0  0  0  0  0  0
    1.1850   19.0212   52.8441 C   0  0  0  0  0  0  0  0  0  0  0  0
    3.8156   17.9804   54.7185 O   0  0  0  0  0  0  0  0  0  0  0  0
   13.8844   19.6057   55.0561 C   0  0  0  0  0  0  0  0  0  0  0  0
    7.9574   17.9170   51.4288 C   0  0  0  0  0  0  0  0  0  0  0  0
    3.4635   15.3638   48.4935 P   0  0  1  0  0  0  0  0  0  0  0  0
   11.8793   18.8362   53.9970 N   0  0  0  0  0  0  0  0  0  0  0  0
    2.9881   15.5927   47.1157 O   0  0  0  0  0  0  0  0  0  0  0  0
    4.5369   19.1846   52.9486 S   0  0  0  0  0  0  0  0  0  0  0  0
    7.5024   18.7552   54.5867 C   0  0  0  0  0  0  0  0  0  0  0  0
   12.5492   19.9027   54.5527 C   0  0  0  0  0  0  0  0  0  0  0  0
    2.3902   15.0466   49.4740 O   0  5  0  0  0  0  0  0  0  0  0  0
    7.6055   19.4010   53.3987 N   0  0  0  0  0  0  0  0  0  0  0  0
   12.0615   21.1004   54.6404 N   0  0  0  0  0  0  0  0  0  0  0  0
    4.5729   14.3822   48.4960 O   0  0  0  0  0  0  0  0  0  0  0  0
    6.9852   18.7117   52.2580 C   0  0  2  0  0  0  0  0  0  0  0  0
   10.7923   21.3735   54.1673 C   0  0  0  0  0  0  0  0  0  0  0  0
   10.3203   22.6176   54.2781 N   0  0  0  0  0  0  0  0  0  0  0  0
    5.5721   18.7123   51.8920 C   0  0  1  0  0  0  0  0  0  0  0  0
   10.0162   20.2964   53.5729 C   0  0  0  0  0  0  0  0  0  0  0  0
    8.4266   17.9977   54.7853 O   0  0  0  0  0  0  0  0  0  0  0  0
    5.0508   18.2759   50.5689 C   0  0  0  0  0  0  0  0  0  0  0  0
   10.6300   19.0614   53.5198 C   0  0  0  0  0  0  0  0  0  0  0  0
    4.6294   16.8828   50.3754 C   0  0  0  0  0  0  0  0  0  0  0  0
    8.6084   20.5237   53.0785 C   0  0  0  0  0  0  0  0  0  0  0  0
    4.0743   16.6920   49.0623 O   0  0  0  0  0  0  0  0  0  0  0  0
  1  2  1  0  0  0  0
  1  8  2  0  0  0  0
  1 14  1  0  0  0  0
  2  3  2  0  0  0  0
  2  7  1  0  0  0  0
  3  4  1  0  0  0  0
  4  5  2  0  0  0  0
  5  6  1  0  0  0  0
  6  7  2  0  0  0  0
  9 16  1  0  0  0  0
 10 21  1  0  0  0  0
 11 13  1  6  0  0  0
 11 17  1  0  0  0  0
 11 20  2  0  0  0  0
 11 31  1  0  0  0  0
 12 16  2  0  0  0  0
 12 28  1  0  0  0  0
 15 26  1  0  0  0  0
 15 18  1  0  0  0  0
 16 19  1  0  0  0  0
 18 30  1  0  0  0  0
 19 22  2  0  0  0  0
 21 18  1  1  0  0  0
 21 24  1  0  0  0  0
 22 23  1  0  0  0  0
 22 25  1  0  0  0  0
 24 14  1  1  0  0  0
 24 27  1  0  0  0  0
 25 28  2  0  0  0  0
 25 30  1  0  0  0  0
 27 29  1  0  0  0  0
 29 31  1  0  0  0  0
M  CHG  1  17  -1
M  END
>  <CHROM.1>
-78.68815144,-81.44428478,-111.96775114,89.53405110,-97.59568026,43.18241476
163.01015923,-86.90305379,-138.68941807,176.01755781,-177.50439257,179.23784163
6.00493843,18.21046977,52.18179473,2.58253005,-0.06293021,-2.20286450

>  <Name>
ligand

>  <RI>
0

>  <Rbt.Current_Directory>
/home/itssahil/PROJECTS/Mol_Feturizer/New_Systems/rnas/2HOO

>  <Rbt.Executable>
rbdock ($Id: //depot/dev/client3/rdock/2013.1/src/exe/rbdock.cxx#4 $)

>  <Rbt.Library>
libRbt.so (2013.1, Build901 2013/11/27)

>  <Rbt.Parameter_File>
/export/apps/rDock/src/rDock_2013.1_src/data/scripts/dock_solv.prm

>  <Rbt.Receptor>
prm/pocket_docking_4.prm

>  <SCORE>
-31.8466

>  <SCORE.INTER>
-20.138

>  <SCORE.INTER.CONST>
1

>  <SCORE.INTER.POLAR>
0

>  <SCORE.INTER.ROT>
12

>  <SCORE.INTER.SOLV>
18.8945

>  <SCORE.INTER.VDW>
-31.3235

>  <SCORE.INTER.norm>
-0.649614

>  <SCORE.INTRA>
-11.7086

>  <SCORE.INTRA.DIHEDRAL>
2.90635

>  <SCORE.INTRA.DIHEDRAL.0>
14.6094

>  <SCORE.INTRA.POLAR>
0

>  <SCORE.INTRA.POLAR.0>
0

>  <SCORE.INTRA.REPUL>
0

>  <SCORE.INTRA.REPUL.0>
0

>  <SCORE.INTRA.SOLV>
0.52006

>  <SCORE.INTRA.SOLV.lig_0>
-65.6478

>  <SCORE.INTRA.VDW>
-13.4218

>  <SCORE.INTRA.VDW.0>
9.35535

>  <SCORE.INTRA.norm>
-0.377695

>  <SCORE.RESTR>
0

>  <SCORE.RESTR.CAVITY>
0

>  <SCORE.RESTR.norm>
0

>  <SCORE.SYSTEM>
0

>  <SCORE.SYSTEM.CONST>
0

>  <SCORE.SYSTEM.DIHEDRAL>
0

>  <SCORE.SYSTEM.SOLV>
0

>  <SCORE.SYSTEM.norm>
0

>  <SCORE.heavy>
31

>  <SCORE.norm>
-1.02731

>  <RMSD>
4.569

$$$$
ligand
 OpenBabel11021811443D
libRbt.so/2013.1/901 2013/11/27
 31 32  0  0  0  0  0  0  0  0999 V2000
    8.6852   19.6481   49.0353 C   0  0  0  0  0  0  0  0  0  0  0  0
    8.9673   18.3718   48.2482 C   0  0  0  0  0  0  0  0  0  0  0  0
    8.0937   17.9761   47.1840 C   0  0  0  0  0  0  0  0  0  0  0  0
    8.3588   16.7892   46.4596 C   0  0  0  0  0  0  0  0  0  0  0  0
    9.4864   15.9918   46.7736 C   0  0  0  0  0  0  0  0  0  0  0  0
   10.3602   16.3690   47.8135 C   0  0  0  0  0  0  0  0  0  0  0  0
   10.1130   17.5438   48.5463 C   0  0  0  0  0  0  0  0  0  0  0  0
    8.7845   20.7441   48.4846 O   0  0  0  0  0  0  0  0  0  0  0  0
    8.5110   24.6682   52.9079 C   0  0  0  0  0  0  0  0  0  0  0  0
    5.5798   19.4969   52.2775 C   0  0  0  0  0  0  0  0  0  0  0  0
    3.7504   16.6983   49.8411 P   0  0  1  0  0  0  0  0  0  0  0  0
    7.3547   22.7096   53.6568 N   0  0  0  0  0  0  0  0  0  0  0  0
    3.5277   16.2661   48.4481 O   0  0  0  0  0  0  0  0  0  0  0  0
    8.3184   19.5881   50.3686 S   0  0  0  0  0  0  0  0  0  0  0  0
    6.8477   17.1220   54.0988 C   0  0  0  0  0  0  0  0  0  0  0  0
    8.5567   23.2569   53.2688 C   0  0  0  0  0  0  0  0  0  0  0  0
    2.9853   17.9095   50.2434 O   0  5  0  0  0  0  0  0  0  0  0  0
    7.2809   18.3368   53.6798 N   0  0  0  0  0  0  0  0  0  0  0  0
    9.6712   22.5972   53.2152 N   0  0  0  0  0  0  0  0  0  0  0  0
    3.5732   15.5551   50.7664 O   0  0  0  0  0  0  0  0  0  0  0  0
    6.8637   18.7135   52.3215 C   0  0  2  0  0  0  0  0  0  0  0  0
    9.7062   21.2576   53.5523 C   0  0  0  0  0  0  0  0  0  0  0  0
   10.8708   20.6084   53.4812 N   0  0  0  0  0  0  0  0  0  0  0  0
    7.5660   18.4274   51.0742 C   0  0  1  0  0  0  0  0  0  0  0  0
    8.4742   20.6036   53.9650 C   0  0  0  0  0  0  0  0  0  0  0  0
    5.7488   17.1705   54.6063 O   0  0  0  0  0  0  0  0  0  0  0  0
    7.5999   17.0913   50.4211 C   0  0  0  0  0  0  0  0  0  0  0  0
    7.3451   21.3967   53.9966 C   0  0  0  0  0  0  0  0  0  0  0  0
    6.3652   16.3051   50.3062 C   0  0  0  0  0  0  0  0  0  0  0  0
    8.4413   19.1331   54.3030 C   0  0  0  0  0  0  0  0  0  0  0  0
    5.2414   17.1539   50.0143 O   0  0  0  0  0  0  0  0  0  0  0  0
  1  2  1  0  0  0  0
  1  8  2  0  0  0  0
  1 14  1  0  0  0  0
  2  3  2  0  0  0  0
  2  7  1  0  0  0  0
  3  4  1  0  0  0  0
  4  5  2  0  0  0  0
  5  6  1  0  0  0  0
  6  7  2  0  0  0  0
  9 16  1  0  0  0  0
 10 21  1  0  0  0  0
 11 13  1  6  0  0  0
 11 17  1  0  0  0  0
 11 20  2  0  0  0  0
 11 31  1  0  0  0  0
 12 16  2  0  0  0  0
 12 28  1  0  0  0  0
 15 26  1  0  0  0  0
 15 18  1  0  0  0  0
 16 19  1  0  0  0  0
 18 30  1  0  0  0  0
 19 22  2  0  0  0  0
 21 18  1  1  0  0  0
 21 24  1  0  0  0  0
 22 23  1  0  0  0  0
 22 25  1  0  0  0  0
 24 14  1  6  0  0  0
 24 27  1  0  0  0  0
 25 28  2  0  0  0  0
 25 30  1  0  0  0  0
 27 29  1  0  0  0  0
 29 31  1  0  0  0  0
M  CHG  1  17  -1
M  END
>  <CHROM.1>
-67.44208336,-28.40264873,-158.92800960,-87.02890891,92.21199576,-162.00396915
73.32311467,-134.86425829,-133.68991050,38.37397128,-178.90193105,-85.40251397
7.27528786,18.80593812,51.04658680,-2.06796607,0.55871216,0.98379309

>  <Name>
ligand

>  <RI>
0

>  <Rbt.Current_Directory>
/home/itssahil/PROJECTS/Mol_Feturizer/New_Systems/rnas/2HOO

>  <Rbt.Executable>
rbdock ($Id: //depot/dev/client3/rdock/2013.1/src/exe/rbdock.cxx#4 $)

>  <Rbt.Library>
libRbt.so (2013.1, Build901 2013/11/27)

>  <Rbt.Parameter_File>
/export/apps/rDock/src/rDock_2013.1_src/data/scripts/dock_solv.prm

>  <Rbt.Receptor>
prm/blind_docking_60.prm

>  <SCORE>
-27.61

>  <SCORE.INTER>
-14.2248

>  <SCORE.INTER.CONST>
1

>  <SCORE.INTER.POLAR>
0

>  <SCORE.INTER.ROT>
12

>  <SCORE.INTER.SOLV>
25.3369

>  <SCORE.INTER.VDW>
-29.5288

>  <SCORE.INTER.norm>
-0.458863

>  <SCORE.INTRA>
-13.4303

>  <SCORE.INTRA.DIHEDRAL>
1.69977

>  <SCORE.INTRA.DIHEDRAL.0>
14.6094

>  <SCORE.INTRA.POLAR>
0

>  <SCORE.INTRA.POLAR.0>
0

>  <SCORE.INTRA.REPUL>
0

>  <SCORE.INTRA.REPUL.0>
0

>  <SCORE.INTRA.SOLV>
0.862153

>  <SCORE.INTRA.SOLV.lig_0>
-65.6478

>  <SCORE.INTRA.VDW>
-14.7113

>  <SCORE.INTRA.VDW.0>
9.35535

>  <SCORE.INTRA.norm>
-0.433237

>  <SCORE.RESTR>
0.045128

>  <SCORE.RESTR.CAVITY>
0.045128

>  <SCORE.RESTR.norm>
0.00145574

>  <SCORE.SYSTEM>
0

>  <SCORE.SYSTEM.CONST>
0

>  <SCORE.SYSTEM.DIHEDRAL>
0

>  <SCORE.SYSTEM.SOLV>
0

>  <SCORE.SYSTEM.norm>
0

>  <SCORE.heavy>
31

>  <SCORE.norm>
-0.890644

>  <RMSD>
4.591

$$$$
ligand
 OpenBabel11021811443D
libRbt.so/2013.1/901 2013/11/27
 31 32  0  0  0  0  0  0  0  0999 V2000
    7.6341   15.6355   50.1097 C   0  0  0  0  0  0  0  0  0  0  0  0
    8.1705   16.2560   48.8230 C   0  0  0  0  0  0  0  0  0  0  0  0
    9.3147   17.1169   48.8632 C   0  0  0  0  0  0  0  0  0  0  0  0
    9.8056   17.6922   47.6666 C   0  0  0  0  0  0  0  0  0  0  0  0
    9.1784   17.4178   46.4266 C   0  0  0  0  0  0  0  0  0  0  0  0
    8.0551   16.5681   46.3675 C   0  0  0  0  0  0  0  0  0  0  0  0
    7.5511   15.9882   47.5456 C   0  0  0  0  0  0  0  0  0  0  0  0
    7.3721   14.4338   50.1494 O   0  0  0  0  0  0  0  0  0  0  0  0
    7.7651   26.3091   52.8079 C   0  0  0  0  0  0  0  0  0  0  0  0
    6.1003   18.1467   53.8391 C   0  0  0  0  0  0  0  0  0  0  0  0
    2.2367   15.8766   51.1698 P   0  0  1  0  0  0  0  0  0  0  0  0
    8.6253   24.1979   52.0749 N   0  0  0  0  0  0  0  0  0  0  0  0
    1.5093   15.9518   49.8884 O   0  0  0  0  0  0  0  0  0  0  0  0
    7.4362   16.4120   51.2382 S   0  0  0  0  0  0  0  0  0  0  0  0
    8.4824   19.8899   53.2993 C   0  0  0  0  0  0  0  0  0  0  0  0
    7.5130   24.9210   52.4422 C   0  0  0  0  0  0  0  0  0  0  0  0
    1.6940   16.7538   52.2422 O   0  5  0  0  0  0  0  0  0  0  0  0
    7.3727   19.8355   52.5218 N   0  0  0  0  0  0  0  0  0  0  0  0
    6.3106   24.4378   52.4732 N   0  0  0  0  0  0  0  0  0  0  0  0
    2.3939   14.4640   51.5872 O   0  0  0  0  0  0  0  0  0  0  0  0
    6.6836   18.5370   52.5081 C   0  0  2  0  0  0  0  0  0  0  0  0
    6.0795   23.1189   52.1317 C   0  0  0  0  0  0  0  0  0  0  0  0
    4.8288   22.6537   52.1793 N   0  0  0  0  0  0  0  0  0  0  0  0
    6.5046   17.6478   51.3644 C   0  0  1  0  0  0  0  0  0  0  0  0
    7.2057   22.2859   51.7400 C   0  0  0  0  0  0  0  0  0  0  0  0
    9.5055   19.8576   52.6515 O   0  0  0  0  0  0  0  0  0  0  0  0
    5.4901   17.8534   50.2961 C   0  0  0  0  0  0  0  0  0  0  0  0
    8.4423   22.8988   51.7316 C   0  0  0  0  0  0  0  0  0  0  0  0
    4.0611   17.7687   50.6225 C   0  0  0  0  0  0  0  0  0  0  0  0
    7.0218   20.8273   51.3984 C   0  0  0  0  0  0  0  0  0  0  0  0
    3.6940   16.4237   50.9757 O   0  0  0  0  0  0  0  0  0  0  0  0
  1  2  1  0  0  0  0
  1  8  2  0  0  0  0
  1 14  1  0  0  0  0
  2  3  2  0  0  0  0
  2  7  1  0  0  0  0
  3  4  1  0  0  0  0
  4  5  2  0  0  0  0
  5  6  1  0  0  0  0
  6  7  2  0  0  0  0
  9 16  1  0  0  0  0
 10 21  1  0  0  0  0
 11 13  1  6  0  0  0
 11 17  1  0  0  0  0
 11 20  2  0  0  0  0
 11 31  1  0  0  0  0
 12 16  2  0  0  0  0
 12 28  1  0  0  0  0
 15 26  1  0  0  0  0
 15 18  1  0  0  0  0
 16 19  1  0  0  0  0
 18 30  1  0  0  0  0
 19 22  2  0  0  0  0
 21 18  1  6  0  0  0
 21 24  1  0  0  0  0
 22 23  1  0  0  0  0
 22 25  1  0  0  0  0
 24 14  1  6  0  0  0
 24 27  1  0  0  0  0
 25 28  2  0  0  0  0
 25 30  1  0  0  0  0
 27 29  1  0  0  0  0
 29 31  1  0  0  0  0
M  CHG  1  17  -1
M  END
>  <CHROM.1>
-132.42148649,59.55235303,-164.33632776,104.16468364,64.99636803,-45.35947391
-79.99553175,115.14938071,-99.36472750,-67.63718428,-169.82801574,64.00080448
6.32674015,18.70241698,51.04621854,-1.95622526,0.40534025,0.42171811

>  <Name>
ligand

>  <RI>
0

>  <Rbt.Current_Directory>
/home/itssahil/PROJECTS/Mol_Feturizer/New_Systems/rnas/2HOO

>  <Rbt.Executable>
rbdock ($Id: //depot/dev/client3/rdock/2013.1/src/exe/rbdock.cxx#4 $)

>  <Rbt.Library>
libRbt.so (2013.1, Build901 2013/11/27)

>  <Rbt.Parameter_File>
/export/apps/rDock/src/rDock_2013.1_src/data/scripts/dock_solv.prm

>  <Rbt.Receptor>
prm/blind_docking_100.prm

>  <SCORE>
-26.0126

>  <SCORE.INTER>
-13.8614

>  <SCORE.INTER.CONST>
1

>  <SCORE.INTER.POLAR>
0

>  <SCORE.INTER.ROT>
12

>  <SCORE.INTER.SOLV>
20.3067

>  <SCORE.INTER.VDW>
-27.6098

>  <SCORE.INTER.norm>
-0.447143

>  <SCORE.INTRA>
-12.9358

>  <SCORE.INTRA.DIHEDRAL>
1.16088

>  <SCORE.INTRA.DIHEDRAL.0>
14.6094

>  <SCORE.INTRA.POLAR>
0

>  <SCORE.INTRA.POLAR.0>
0

>  <SCORE.INTRA.REPUL>
0

>  <SCORE.INTRA.REPUL.0>
0

>  <SCORE.INTRA.SOLV>
-0.549472

>  <SCORE.INTRA.SOLV.lig_0>
-65.6478

>  <SCORE.INTRA.VDW>
-13.2415

>  <SCORE.INTRA.VDW.0>
9.35535

>  <SCORE.INTRA.norm>
-0.417285

>  <SCORE.RESTR>
0.784642

>  <SCORE.RESTR.CAVITY>
0.784642

>  <SCORE.RESTR.norm>
0.025311

>  <SCORE.SYSTEM>
0

>  <SCORE.SYSTEM.CONST>
0

>  <SCORE.SYSTEM.DIHEDRAL>
0

>  <SCORE.SYSTEM.SOLV>
0

>  <SCORE.SYSTEM.norm>
0

>  <SCORE.heavy>
31

>  <SCORE.norm>
-0.839116

>  <RMSD>
4.612

$$$$
ligand
 OpenBabel11021811443D
libRbt.so/2013.1/901 2013/11/27
 31 32  0  0  0  0  0  0  0  0999 V2000
    4.5187   20.5705   51.5381 C   0  0  0  0  0  0  0  0  0  0  0  0
    3.1763   19.8557   51.6605 C   0  0  0  0  0  0  0  0  0  0  0  0
    2.1156   20.4446   52.4225 C   0  0  0  0  0  0  0  0  0  0  0  0
    0.8736   19.7750   52.5351 C   0  0  0  0  0  0  0  0  0  0  0  0
    0.6676   18.5289   51.8939 C   0  0  0  0  0  0  0  0  0  0  0  0
    1.6980   17.9377   51.1350 C   0  0  0  0  0  0  0  0  0  0  0  0
    2.9399   18.5863   51.0126 C   0  0  0  0  0  0  0  0  0  0  0  0
    5.4608   20.0157   50.9732 O   0  0  0  0  0  0  0  0  0  0  0  0
   13.4377   19.9116   54.8837 C   0  0  0  0  0  0  0  0  0  0  0  0
    6.8414   20.7429   54.7284 C   0  0  0  0  0  0  0  0  0  0  0  0
    2.7646   26.0730   56.0670 P   0  0  1  0  0  0  0  0  0  0  0  0
   12.1146   21.7995   54.2361 N   0  0  0  0  0  0  0  0  0  0  0  0
    2.9132   27.0251   54.9498 O   0  0  0  0  0  0  0  0  0  0  0  0
    4.6913   21.8414   52.0585 S   0  0  0  0  0  0  0  0  0  0  0  0
    7.9369   23.7997   54.3905 C   0  0  0  0  0  0  0  0  0  0  0  0
   12.2056   20.4274   54.3007 C   0  0  0  0  0  0  0  0  0  0  0  0
    3.7423   26.2592   57.1731 O   0  5  0  0  0  0  0  0  0  0  0  0
    7.6997   22.7628   53.5495 N   0  0  0  0  0  0  0  0  0  0  0  0
   11.2829   19.6183   53.8835 N   0  0  0  0  0  0  0  0  0  0  0  0
    1.3564   26.0368   56.5251 O   0  0  0  0  0  0  0  0  0  0  0  0
    6.5237   21.9460   53.8823 C   0  0  2  0  0  0  0  0  0  0  0  0
   10.1200   20.1139   53.3255 C   0  0  0  0  0  0  0  0  0  0  0  0
    9.1930   19.2511   52.9024 N   0  0  0  0  0  0  0  0  0  0  0  0
    5.1380   22.2021   53.5012 C   0  0  1  0  0  0  0  0  0  0  0  0
    9.9516   21.5544   53.2140 C   0  0  0  0  0  0  0  0  0  0  0  0
    7.0846   24.6578   54.3219 O   0  0  0  0  0  0  0  0  0  0  0  0
    4.1194   22.8014   54.4045 C   0  0  0  0  0  0  0  0  0  0  0  0
   10.9885   22.3276   53.6956 C   0  0  0  0  0  0  0  0  0  0  0  0
    4.2027   24.2251   54.7534 C   0  0  0  0  0  0  0  0  0  0  0  0
    8.7231   22.1538   52.5743 C   0  0  0  0  0  0  0  0  0  0  0  0
    3.0813   24.6220   55.5619 O   0  0  0  0  0  0  0  0  0  0  0  0
  1  2  1  0  0  0  0
  1  8  2  0  0  0  0
  1 14  1  0  0  0  0
  2  3  2  0  0  0  0
  2  7  1  0  0  0  0
  3  4  1  0  0  0  0
  4  5  2  0  0  0  0
  5  6  1  0  0  0  0
  6  7  2  0  0  0  0
  9 16  1  0  0  0  0
 10 21  1  0  0  0  0
 11 13  1  6  0  0  0
 11 17  1  0  0  0  0
 11 20  2  0  0  0  0
 11 31  1  0  0  0  0
 12 16  2  0  0  0  0
 12 28  1  0  0  0  0
 15 26  1  0  0  0  0
 15 18  1  0  0  0  0
 16 19  1  0  0  0  0
 18 30  1  0  0  0  0
 19 22  2  0  0  0  0
 21 18  1  1  0  0  0
 21 24  1  0  0  0  0
 22 23  1  0  0  0  0
 22 25  1  0  0  0  0
 24 14  1  6  0  0  0
 24 27  1  0  0  0  0
 25 28  2  0  0  0  0
 25 30  1  0  0  0  0
 27 29  1  0  0  0  0
 29 31  1  0  0  0  0
M  CHG  1  17  -1
M  END
>  <CHROM.1>
174.26012451,88.52823092,71.06761747,-67.56113285,-93.79281195,61.56219028
-102.47314628,-107.65807308,104.77243260,176.27041042,-176.24741042,46.36851729
5.87171313,22.17774603,53.73964708,2.79280856,-0.11531924,0.56376922

>  <Name>
ligand

>  <RI>
0

>  <Rbt.Current_Directory>
/home/itssahil/PROJECTS/Mol_Feturizer/New_Systems/rnas/2HOO

>  <Rbt.Executable>
rbdock ($Id: //depot/dev/client3/rdock/2013.1/src/exe/rbdock.cxx#4 $)

>  <Rbt.Library>
libRbt.so (2013.1, Build901 2013/11/27)

>  <Rbt.Parameter_File>
/export/apps/rDock/src/rDock_2013.1_src/data/scripts/dock_solv.prm

>  <Rbt.Receptor>
prm/pocket_docking_7.prm

>  <SCORE>
-28.8577

>  <SCORE.INTER>
-17.7238

>  <SCORE.INTER.CONST>
1

>  <SCORE.INTER.POLAR>
0

>  <SCORE.INTER.ROT>
12

>  <SCORE.INTER.SOLV>
12.681

>  <SCORE.INTER.VDW>
-27.6429

>  <SCORE.INTER.norm>
-0.571735

>  <SCORE.INTRA>
-11.1433

>  <SCORE.INTRA.DIHEDRAL>
2.8194

>  <SCORE.INTRA.DIHEDRAL.0>
14.6094

>  <SCORE.INTRA.POLAR>
0

>  <SCORE.INTRA.POLAR.0>
0

>  <SCORE.INTRA.REPUL>
0.00625922

>  <SCORE.INTRA.REPUL.0>
0

>  <SCORE.INTRA.SOLV>
2.06014

>  <SCORE.INTRA.SOLV.lig_0>
-65.6478

>  <SCORE.INTRA.VDW>
-13.6144

>  <SCORE.INTRA.VDW.0>
9.35535

>  <SCORE.INTRA.norm>
-0.359462

>  <SCORE.RESTR>
0.00939148

>  <SCORE.RESTR.CAVITY>
0.00939148

>  <SCORE.RESTR.norm>
0.000302951

>  <SCORE.SYSTEM>
0

>  <SCORE.SYSTEM.CONST>
0

>  <SCORE.SYSTEM.DIHEDRAL>
0

>  <SCORE.SYSTEM.SOLV>
0

>  <SCORE.SYSTEM.norm>
0

>  <SCORE.heavy>
31

>  <SCORE.norm>
-0.930894

>  <RMSD>
4.619

$$$$
ligand
 OpenBabel11021811443D
libRbt.so/2013.1/901 2013/11/27
 31 32  0  0  0  0  0  0  0  0999 V2000
    2.0976   19.9972   54.7273 C   0  0  0  0  0  0  0  0  0  0  0  0
    1.2279   19.0708   53.8826 C   0  0  0  0  0  0  0  0  0  0  0  0
    1.0127   17.7153   54.2930 C   0  0  0  0  0  0  0  0  0  0  0  0
    0.2076   16.8598   53.5033 C   0  0  0  0  0  0  0  0  0  0  0  0
   -0.3941   17.3353   52.3125 C   0  0  0  0  0  0  0  0  0  0  0  0
   -0.1982   18.6680   51.8966 C   0  0  0  0  0  0  0  0  0  0  0  0
    0.5999   19.5331   52.6665 C   0  0  0  0  0  0  0  0  0  0  0  0
    1.5726   20.8520   55.4401 O   0  0  0  0  0  0  0  0  0  0  0  0
   13.3472   19.6691   54.3145 C   0  0  0  0  0  0  0  0  0  0  0  0
    5.2270   21.3370   52.2920 C   0  0  0  0  0  0  0  0  0  0  0  0
    5.2033   16.7251   49.5280 P   0  0  1  0  0  0  0  0  0  0  0  0
   11.0761   18.9103   54.2843 N   0  0  0  0  0  0  0  0  0  0  0  0
    5.3157   17.9681   48.7411 O   0  0  0  0  0  0  0  0  0  0  0  0
    3.4772   19.8884   54.7006 S   0  0  0  0  0  0  0  0  0  0  0  0
    7.4075   18.8831   52.3287 C   0  0  0  0  0  0  0  0  0  0  0  0
   11.9275   19.9914   54.2447 C   0  0  0  0  0  0  0  0  0  0  0  0
    4.0231   15.8838   49.1912 O   0  5  0  0  0  0  0  0  0  0  0  0
    6.9038   19.7553   53.2368 N   0  0  0  0  0  0  0  0  0  0  0  0
   11.5335   21.2227   54.1523 N   0  0  0  0  0  0  0  0  0  0  0  0
    6.4845   15.9822   49.4976 O   0  0  0  0  0  0  0  0  0  0  0  0
    5.4784   20.0745   53.0711 C   0  0  2  0  0  0  0  0  0  0  0  0
   10.1857   21.5217   54.0934 C   0  0  0  0  0  0  0  0  0  0  0  0
    9.8159   22.8015   54.0030 N   0  0  0  0  0  0  0  0  0  0  0  0
    4.3408   19.2974   53.5533 C   0  0  1  0  0  0  0  0  0  0  0  0
    9.2212   20.4338   54.1384 C   0  0  0  0  0  0  0  0  0  0  0  0
    7.7575   19.4286   51.3053 O   0  0  0  0  0  0  0  0  0  0  0  0
    3.9564   17.9611   53.0245 C   0  0  0  0  0  0  0  0  0  0  0  0
    9.7443   19.1599   54.2284 C   0  0  0  0  0  0  0  0  0  0  0  0
    3.8135   17.7643   51.5766 C   0  0  0  0  0  0  0  0  0  0  0  0
    7.7358   20.7007   54.1216 C   0  0  0  0  0  0  0  0  0  0  0  0
    4.9584   17.0822   51.0358 O   0  0  0  0  0  0  0  0  0  0  0  0
  1  2  1  0  0  0  0
  1  8  2  0  0  0  0
  1 14  1  0  0  0  0
  2  3  2  0  0  0  0
  2  7  1  0  0  0  0
  3  4  1  0  0  0  0
  4  5  2  0  0  0  0
  5  6  1  0  0  0  0
  6  7  2  0  0  0  0
  9 16  1  0  0  0  0
 10 21  1  0  0  0  0
 11 13  1  6  0  0  0
 11 17  1  0  0  0  0
 11 20  2  0  0  0  0
 11 31  1  0  0  0  0
 12 16  2  0  0  0  0
 12 28  1  0  0  0  0
 15 26  1  0  0  0  0
 15 18  1  0  0  0  0
 16 19  1  0  0  0  0
 18 30  1  0  0  0  0
 19 22  2  0  0  0  0
 21 18  1  6  0  0  0
 21 24  1  0  0  0  0
 22 23  1  0  0  0  0
 22 25  1  0  0  0  0
 24 14  1  1  0  0  0
 24 27  1  0  0  0  0
 25 28  2  0  0  0  0
 25 30  1  0  0  0  0
 27 29  1  0  0  0  0
 29 31  1  0  0  0  0
M  CHG  1  17  -1
M  END
>  <CHROM.1>
-103.64959997,24.30635188,130.41661791,84.81158009,-95.82570540,-11.68300170
-70.12310329,130.15244730,138.37875541,102.60296062,-178.08864217,63.72526190
5.62019079,19.02544738,52.74250596,2.88438215,-0.09894340,-2.22966933

>  <Name>
ligand

>  <RI>
0

>  <Rbt.Current_Directory>
/home/itssahil/PROJECTS/Mol_Feturizer/New_Systems/rnas/2HOO

>  <Rbt.Executable>
rbdock ($Id: //depot/dev/client3/rdock/2013.1/src/exe/rbdock.cxx#4 $)

>  <Rbt.Library>
libRbt.so (2013.1, Build901 2013/11/27)

>  <Rbt.Parameter_File>
/export/apps/rDock/src/rDock_2013.1_src/data/scripts/dock_solv.prm

>  <Rbt.Receptor>
prm/pocket_docking_2.prm

>  <SCORE>
-25.1989

>  <SCORE.INTER>
-12.5127

>  <SCORE.INTER.CONST>
1

>  <SCORE.INTER.POLAR>
0

>  <SCORE.INTER.ROT>
12

>  <SCORE.INTER.SOLV>
13.6787

>  <SCORE.INTER.VDW>
-24.5014

>  <SCORE.INTER.norm>
-0.403637

>  <SCORE.INTRA>
-12.9306

>  <SCORE.INTRA.DIHEDRAL>
2.35482

>  <SCORE.INTRA.DIHEDRAL.0>
14.6094

>  <SCORE.INTRA.POLAR>
0

>  <SCORE.INTRA.POLAR.0>
0

>  <SCORE.INTRA.REPUL>
0

>  <SCORE.INTRA.REPUL.0>
0

>  <SCORE.INTRA.SOLV>
-0.0973303

>  <SCORE.INTRA.SOLV.lig_0>
-65.6478

>  <SCORE.INTRA.VDW>
-14.0594

>  <SCORE.INTRA.VDW.0>
9.35535

>  <SCORE.INTRA.norm>
-0.417118

>  <SCORE.RESTR>
0.244453

>  <SCORE.RESTR.CAVITY>
0.244453

>  <SCORE.RESTR.norm>
0.00788559

>  <SCORE.SYSTEM>
0

>  <SCORE.SYSTEM.CONST>
0

>  <SCORE.SYSTEM.DIHEDRAL>
0

>  <SCORE.SYSTEM.SOLV>
0

>  <SCORE.SYSTEM.norm>
0

>  <SCORE.heavy>
31

>  <SCORE.norm>
-0.812869

>  <RMSD>
4.680

$$$$
ligand
 OpenBabel11021811443D
libRbt.so/2013.1/901 2013/11/27
 31 32  0  0  0  0  0  0  0  0999 V2000
    2.3329   20.3058   51.9211 C   0  0  0  0  0  0  0  0  0  0  0  0
    1.8002   18.9203   51.5681 C   0  0  0  0  0  0  0  0  0  0  0  0
    2.5720   18.0437   50.7386 C   0  0  0  0  0  0  0  0  0  0  0  0
    2.0710   16.7607   50.4118 C   0  0  0  0  0  0  0  0  0  0  0  0
    0.8140   16.3327   50.9046 C   0  0  0  0  0  0  0  0  0  0  0  0
    0.0437   17.1797   51.7271 C   0  0  0  0  0  0  0  0  0  0  0  0
    0.5233   18.4588   52.0617 C   0  0  0  0  0  0  0  0  0  0  0  0
    1.6509   21.3036   51.6892 O   0  0  0  0  0  0  0  0  0  0  0  0
   13.2628   19.7433   54.4002 C   0  0  0  0  0  0  0  0  0  0  0  0
    5.3803   22.9634   52.4829 C   0  0  0  0  0  0  0  0  0  0  0  0
    7.1399   16.3429   49.5985 P   0  0  1  0  0  0  0  0  0  0  0  0
   11.7038   21.5373   54.1080 N   0  0  0  0  0  0  0  0  0  0  0  0
    7.6759   15.9690   50.9213 O   0  0  0  0  0  0  0  0  0  0  0  0
    3.5808   20.4552   52.5008 S   0  0  0  0  0  0  0  0  0  0  0  0
    8.0473   21.4658   51.1708 C   0  0  0  0  0  0  0  0  0  0  0  0
   11.8802   20.1795   54.2510 C   0  0  0  0  0  0  0  0  0  0  0  0
    8.1730   16.7186   48.5957 O   0  5  0  0  0  0  0  0  0  0  0  0
    7.3446   21.4388   52.3302 N   0  0  0  0  0  0  0  0  0  0  0  0
   10.9115   19.3184   54.2577 N   0  0  0  0  0  0  0  0  0  0  0  0
    6.1993   15.3056   49.1153 O   0  0  0  0  0  0  0  0  0  0  0  0
    5.8890   21.5798   52.1809 C   0  0  2  0  0  0  0  0  0  0  0  0
    9.6034   19.7381   54.1091 C   0  0  0  0  0  0  0  0  0  0  0  0
    8.6312   18.8229   54.1164 N   0  0  0  0  0  0  0  0  0  0  0  0
    4.9434   20.5496   51.7622 C   0  0  1  0  0  0  0  0  0  0  0  0
    9.3347   21.1581   53.9440 C   0  0  0  0  0  0  0  0  0  0  0  0
    8.5394   20.3923   50.9007 O   0  0  0  0  0  0  0  0  0  0  0  0
    5.2034   19.5679   50.6752 C   0  0  0  0  0  0  0  0  0  0  0  0
   10.4346   21.9916   53.9598 C   0  0  0  0  0  0  0  0  0  0  0  0
    6.0389   18.3904   50.9416 C   0  0  0  0  0  0  0  0  0  0  0  0
    7.9313   21.6722   53.7339 C   0  0  0  0  0  0  0  0  0  0  0  0
    6.2896   17.6544   49.7316 O   0  0  0  0  0  0  0  0  0  0  0  0
  1  2  1  0  0  0  0
  1  8  2  0  0  0  0
  1 14  1  0  0  0  0
  2  3  2  0  0  0  0
  2  7  1  0  0  0  0
  3  4  1  0  0  0  0
  4  5  2  0  0  0  0
  5  6  1  0  0  0  0
  6  7  2  0  0  0  0
  9 16  1  0  0  0  0
 10 21  1  0  0  0  0
 11 13  1  1  0  0  0
 11 17  1  0  0  0  0
 11 20  2  0  0  0  0
 11 31  1  0  0  0  0
 12 16  2  0  0  0  0
 12 28  1  0  0  0  0
 15 26  1  0  0  0  0
 15 18  1  0  0  0  0
 16 19  1  0  0  0  0
 18 30  1  0  0  0  0
 19 22  2  0  0  0  0
 21 18  1  6  0  0  0
 21 24  1  0  0  0  0
 22 23  1  0  0  0  0
 22 25  1  0  0  0  0
 24 14  1  1  0  0  0
 24 27  1  0  0  0  0
 25 28  2  0  0  0  0
 25 30  1  0  0  0  0
 27 29  1  0  0  0  0
 29 31  1  0  0  0  0
M  CHG  1  17  -1
M  END
>  <CHROM.1>
125.48877305,85.54237839,134.72662449,-111.16104517,-100.96273044,-34.72627112
-42.36403456,-100.14326653,-75.15106937,-173.48453879,179.83317308,-0.74406525
6.34216990,19.27506885,51.83766574,2.78183664,0.11541920,-2.58012031

>  <Name>
ligand

>  <RI>
0

>  <Rbt.Current_Directory>
/home/itssahil/PROJECTS/Mol_Feturizer/New_Systems/rnas/2HOO

>  <Rbt.Executable>
rbdock ($Id: //depot/dev/client3/rdock/2013.1/src/exe/rbdock.cxx#4 $)

>  <Rbt.Library>
libRbt.so (2013.1, Build901 2013/11/27)

>  <Rbt.Parameter_File>
/export/apps/rDock/src/rDock_2013.1_src/data/scripts/dock_solv.prm

>  <Rbt.Receptor>
prm/pocket_docking_6.prm

>  <SCORE>
-30.7209

>  <SCORE.INTER>
-21.0911

>  <SCORE.INTER.CONST>
1

>  <SCORE.INTER.POLAR>
0

>  <SCORE.INTER.ROT>
12

>  <SCORE.INTER.SOLV>
15.659

>  <SCORE.INTER.VDW>
-30.8804

>  <SCORE.INTER.norm>
-0.680357

>  <SCORE.INTRA>
-9.62986

>  <SCORE.INTRA.DIHEDRAL>
4.68613

>  <SCORE.INTRA.DIHEDRAL.0>
14.6094

>  <SCORE.INTRA.POLAR>
0

>  <SCORE.INTRA.POLAR.0>
0

>  <SCORE.INTRA.REPUL>
0.00247715

>  <SCORE.INTRA.REPUL.0>
0

>  <SCORE.INTRA.SOLV>
2.3794

>  <SCORE.INTRA.SOLV.lig_0>
-65.6478

>  <SCORE.INTRA.VDW>
-13.175

>  <SCORE.INTRA.VDW.0>
9.35535

>  <SCORE.INTRA.norm>
-0.310641

>  <SCORE.RESTR>
0

>  <SCORE.RESTR.CAVITY>
0

>  <SCORE.RESTR.norm>
0

>  <SCORE.SYSTEM>
0

>  <SCORE.SYSTEM.CONST>
0

>  <SCORE.SYSTEM.DIHEDRAL>
0

>  <SCORE.SYSTEM.SOLV>
0

>  <SCORE.SYSTEM.norm>
0

>  <SCORE.heavy>
31

>  <SCORE.norm>
-0.990998

>  <RMSD>
4.723

$$$$
ligand
 OpenBabel11021811443D
libRbt.so/2013.1/901 2013/11/27
 31 32  0  0  0  0  0  0  0  0999 V2000
    5.7652   17.0670   51.0716 C   0  0  0  0  0  0  0  0  0  0  0  0
    5.0256   16.4034   49.9138 C   0  0  0  0  0  0  0  0  0  0  0  0
    5.4398   16.6450   48.5638 C   0  0  0  0  0  0  0  0  0  0  0  0
    4.7474   16.0291   47.4937 C   0  0  0  0  0  0  0  0  0  0  0  0
    3.6512   15.1687   47.7470 C   0  0  0  0  0  0  0  0  0  0  0  0
    3.2337   14.9147   49.0693 C   0  0  0  0  0  0  0  0  0  0  0  0
    3.9074   15.5186   50.1460 C   0  0  0  0  0  0  0  0  0  0  0  0
    6.8972   16.6907   51.3737 O   0  0  0  0  0  0  0  0  0  0  0  0
    1.6702   21.0655   56.5680 C   0  0  0  0  0  0  0  0  0  0  0  0
    8.1203   18.7783   53.7281 C   0  0  0  0  0  0  0  0  0  0  0  0
    1.3121   16.9970   55.5878 P   0  0  1  0  0  0  0  0  0  0  0  0
    4.0645   21.0289   56.5786 N   0  0  0  0  0  0  0  0  0  0  0  0
    1.3166   15.5973   55.1212 O   0  0  0  0  0  0  0  0  0  0  0  0
    5.1749   18.0916   51.7911 S   0  0  0  0  0  0  0  0  0  0  0  0
    7.0908   21.1061   51.5558 C   0  0  0  0  0  0  0  0  0  0  0  0
    2.9223   21.3083   55.8628 C   0  0  0  0  0  0  0  0  0  0  0  0
    0.4459   17.9111   54.7952 O   0  5  0  0  0  0  0  0  0  0  0  0
    7.0165   20.8463   52.8847 N   0  0  0  0  0  0  0  0  0  0  0  0
    2.9193   21.7566   54.6466 N   0  0  0  0  0  0  0  0  0  0  0  0
    1.0477   17.0503   57.0444 O   0  0  0  0  0  0  0  0  0  0  0  0
    6.8556   19.4277   53.2350 C   0  0  2  0  0  0  0  0  0  0  0  0
    4.1100   21.9782   53.9814 C   0  0  0  0  0  0  0  0  0  0  0  0
    4.0689   22.4362   52.7278 N   0  0  0  0  0  0  0  0  0  0  0  0
    5.6288   18.6392   53.1714 C   0  0  1  0  0  0  0  0  0  0  0  0
    5.3617   21.6988   54.6676 C   0  0  0  0  0  0  0  0  0  0  0  0
    8.0970   20.6591   51.0508 O   0  0  0  0  0  0  0  0  0  0  0  0
    4.7700   18.3324   54.3466 C   0  0  0  0  0  0  0  0  0  0  0  0
    5.2553   21.2332   55.9625 C   0  0  0  0  0  0  0  0  0  0  0  0
    3.3714   17.9348   54.1428 C   0  0  0  0  0  0  0  0  0  0  0  0
    6.6921   21.8797   53.9783 C   0  0  0  0  0  0  0  0  0  0  0  0
    2.7406   17.6160   55.3955 O   0  0  0  0  0  0  0  0  0  0  0  0
  1  2  1  0  0  0  0
  1  8  2  0  0  0  0
  1 14  1  0  0  0  0
  2  3  2  0  0  0  0
  2  7  1  0  0  0  0
  3  4  1  0  0  0  0
  4  5  2  0  0  0  0
  5  6  1  0  0  0  0
  6  7  2  0  0  0  0
  9 16  1  0  0  0  0
 10 21  1  0  0  0  0
 11 13  1  6  0  0  0
 11 17  1  0  0  0  0
 11 20  2  0  0  0  0
 11 31  1  0  0  0  0
 12 16  2  0  0  0  0
 12 28  1  0  0  0  0
 15 26  1  0  0  0  0
 15 18  1  0  0  0  0
 16 19  1  0  0  0  0
 18 30  1  0  0  0  0
 19 22  2  0  0  0  0
 21 18  1  1  0  0  0
 21 24  1  0  0  0  0
 22 23  1  0  0  0  0
 22 25  1  0  0  0  0
 24 14  1  6  0  0  0
 24 27  1  0  0  0  0
 25 28  2  0  0  0  0
 25 30  1  0  0  0  0
 27 29  1  0  0  0  0
 29 31  1  0  0  0  0
M  CHG  1  17  -1
M  END
>  <CHROM.1>
-71.85407643,164.62594756,71.80337131,-66.86567774,103.02970175,111.51309896
-101.49986366,-19.59822535,-71.20862521,176.94413912,-172.56905311,69.63729748
4.35179556,18.68639819,53.20345530,1.06121665,-0.67606551,-2.34748121

>  <Name>
ligand

>  <RI>
0

>  <Rbt.Current_Directory>
/home/itssahil/PROJECTS/Mol_Feturizer/New_Systems/rnas/2HOO

>  <Rbt.Executable>
rbdock ($Id: //depot/dev/client3/rdock/2013.1/src/exe/rbdock.cxx#4 $)

>  <Rbt.Library>
libRbt.so (2013.1, Build901 2013/11/27)

>  <Rbt.Parameter_File>
/export/apps/rDock/src/rDock_2013.1_src/data/scripts/dock_solv.prm

>  <Rbt.Receptor>
prm/pocket_docking_4.prm

>  <SCORE>
-19.2621

>  <SCORE.INTER>
-5.47506

>  <SCORE.INTER.CONST>
1

>  <SCORE.INTER.POLAR>
0

>  <SCORE.INTER.ROT>
12

>  <SCORE.INTER.SOLV>
12.8935

>  <SCORE.INTER.VDW>
-19.5479

>  <SCORE.INTER.norm>
-0.176615

>  <SCORE.INTRA>
-13.7932

>  <SCORE.INTRA.DIHEDRAL>
-0.675117

>  <SCORE.INTRA.DIHEDRAL.0>
14.6094

>  <SCORE.INTRA.POLAR>
0

>  <SCORE.INTRA.POLAR.0>
0

>  <SCORE.INTRA.REPUL>
0

>  <SCORE.INTRA.REPUL.0>
0

>  <SCORE.INTRA.SOLV>
4.05013

>  <SCORE.INTRA.SOLV.lig_0>
-65.6478

>  <SCORE.INTRA.VDW>
-15.4807

>  <SCORE.INTRA.VDW.0>
9.35535

>  <SCORE.INTRA.norm>
-0.444943

>  <SCORE.RESTR>
0.00622755

>  <SCORE.RESTR.CAVITY>
0.00622755

>  <SCORE.RESTR.norm>
0.000200889

>  <SCORE.SYSTEM>
0

>  <SCORE.SYSTEM.CONST>
0

>  <SCORE.SYSTEM.DIHEDRAL>
0

>  <SCORE.SYSTEM.SOLV>
0

>  <SCORE.SYSTEM.norm>
0

>  <SCORE.heavy>
31

>  <SCORE.norm>
-0.621357

>  <RMSD>
4.734

$$$$
ligand
 OpenBabel11021811443D
libRbt.so/2013.1/901 2013/11/27
 31 32  0  0  0  0  0  0  0  0999 V2000
    3.2757   22.1476   51.4834 C   0  0  0  0  0  0  0  0  0  0  0  0
    1.9348   22.7423   51.0635 C   0  0  0  0  0  0  0  0  0  0  0  0
    1.8601   23.6192   49.9331 C   0  0  0  0  0  0  0  0  0  0  0  0
    0.6137   24.1705   49.5505 C   0  0  0  0  0  0  0  0  0  0  0  0
   -0.5636   23.8563   50.2726 C   0  0  0  0  0  0  0  0  0  0  0  0
   -0.5098   22.9904   51.3837 C   0  0  0  0  0  0  0  0  0  0  0  0
    0.7193   22.4339   51.7808 C   0  0  0  0  0  0  0  0  0  0  0  0
    4.1144   22.8555   52.0400 O   0  0  0  0  0  0  0  0  0  0  0  0
   12.7560   20.4506   54.2883 C   0  0  0  0  0  0  0  0  0  0  0  0
    5.6852   17.8323   52.3284 C   0  0  0  0  0  0  0  0  0  0  0  0
    1.4921   16.8883   51.6555 P   0  0  1  0  0  0  0  0  0  0  0  0
   10.7491   21.6815   53.8507 N   0  0  0  0  0  0  0  0  0  0  0  0
    2.9011   16.5556   51.3711 O   0  0  0  0  0  0  0  0  0  0  0  0
    3.5625   20.8150   51.2434 S   0  0  0  0  0  0  0  0  0  0  0  0
    6.9281   20.6416   51.0398 C   0  0  0  0  0  0  0  0  0  0  0  0
   11.3059   20.4568   54.1427 C   0  0  0  0  0  0  0  0  0  0  0  0
    0.5352   16.4958   50.5858 O   0  5  0  0  0  0  0  0  0  0  0  0
    6.5937   20.1509   52.2589 N   0  0  0  0  0  0  0  0  0  0  0  0
   10.6230   19.3645   54.2859 N   0  0  0  0  0  0  0  0  0  0  0  0
    1.1101   16.3934   52.9985 O   0  0  0  0  0  0  0  0  0  0  0  0
    5.3902   19.3071   52.2830 C   0  0  2  0  0  0  0  0  0  0  0  0
    9.2490   19.3761   54.1398 C   0  0  0  0  0  0  0  0  0  0  0  0
    8.5782   18.2314   54.2899 N   0  0  0  0  0  0  0  0  0  0  0  0
    4.0010   19.7555   52.2905 C   0  0  1  0  0  0  0  0  0  0  0  0
    8.5859   20.6312   53.8222 C   0  0  0  0  0  0  0  0  0  0  0  0
    7.2359   19.7701   50.2567 O   0  0  0  0  0  0  0  0  0  0  0  0
    2.9713   19.2717   53.2488 C   0  0  0  0  0  0  0  0  0  0  0  0
    9.4025   21.7371   53.6996 C   0  0  0  0  0  0  0  0  0  0  0  0
    1.5545   19.2851   52.8638 C   0  0  0  0  0  0  0  0  0  0  0  0
    7.0934   20.6982   53.6078 C   0  0  0  0  0  0  0  0  0  0  0  0
    1.3261   18.4470   51.7174 O   0  0  0  0  0  0  0  0  0  0  0  0
  1  2  1  0  0  0  0
  1  8  2  0  0  0  0
  1 14  1  0  0  0  0
  2  3  2  0  0  0  0
  2  7  1  0  0  0  0
  3  4  1  0  0  0  0
  4  5  2  0  0  0  0
  5  6  1  0  0  0  0
  6  7  2  0  0  0  0
  9 16  1  0  0  0  0
 10 21  1  0  0  0  0
 11 13  1  6  0  0  0
 11 17  1  0  0  0  0
 11 20  2  0  0  0  0
 11 31  1  0  0  0  0
 12 16  2  0  0  0  0
 12 28  1  0  0  0  0
 15 26  1  0  0  0  0
 15 18  1  0  0  0  0
 16 19  1  0  0  0  0
 18 30  1  0  0  0  0
 19 22  2  0  0  0  0
 21 18  1  1  0  0  0
 21 24  1  0  0  0  0
 22 23  1  0  0  0  0
 22 25  1  0  0  0  0
 24 14  1  1  0  0  0
 24 27  1  0  0  0  0
 25 28  2  0  0  0  0
 25 30  1  0  0  0  0
 27 29  1  0  0  0  0
 29 31  1  0  0  0  0
M  CHG  1  17  -1
M  END
>  <CHROM.1>
73.72525793,-124.93022647,-107.29838305,-64.72554030,101.31030669,-61.69055912
-131.87418581,27.39301603,-75.66496918,61.17304813,65.41875941,-85.15477642
4.69862277,20.04515589,52.18940112,-3.10230408,0.26758191,2.97536776

>  <Name>
ligand

>  <RI>
0

>  <Rbt.Current_Directory>
/home/itssahil/PROJECTS/Mol_Feturizer/New_Systems/rnas/2HOO

>  <Rbt.Executable>
rbdock ($Id: //depot/dev/client3/rdock/2013.1/src/exe/rbdock.cxx#4 $)

>  <Rbt.Library>
libRbt.so (2013.1, Build901 2013/11/27)

>  <Rbt.Parameter_File>
/export/apps/rDock/src/rDock_2013.1_src/data/scripts/dock_solv.prm

>  <Rbt.Receptor>
prm/pocket_docking_6.prm

>  <SCORE>
-28.9226

>  <SCORE.INTER>
-18.1533

>  <SCORE.INTER.CONST>
1

>  <SCORE.INTER.POLAR>
0

>  <SCORE.INTER.ROT>
12

>  <SCORE.INTER.SOLV>
18.0924

>  <SCORE.INTER.VDW>
-29.733

>  <SCORE.INTER.norm>
-0.585592

>  <SCORE.INTRA>
-10.7715

>  <SCORE.INTRA.DIHEDRAL>
1.92526

>  <SCORE.INTRA.DIHEDRAL.0>
14.6094

>  <SCORE.INTRA.POLAR>
0

>  <SCORE.INTRA.POLAR.0>
0

>  <SCORE.INTRA.REPUL>
0

>  <SCORE.INTRA.REPUL.0>
0

>  <SCORE.INTRA.SOLV>
4.54409

>  <SCORE.INTRA.SOLV.lig_0>
-65.6478

>  <SCORE.INTRA.VDW>
-14.0062

>  <SCORE.INTRA.VDW.0>
9.35535

>  <SCORE.INTRA.norm>
-0.347467

>  <SCORE.RESTR>
0.00221491

>  <SCORE.RESTR.CAVITY>
0.00221491

>  <SCORE.RESTR.norm>
7.14488e-05

>  <SCORE.SYSTEM>
0

>  <SCORE.SYSTEM.CONST>
0

>  <SCORE.SYSTEM.DIHEDRAL>
0

>  <SCORE.SYSTEM.SOLV>
0

>  <SCORE.SYSTEM.norm>
0

>  <SCORE.heavy>
31

>  <SCORE.norm>
-0.932987

>  <RMSD>
4.759

$$$$
ligand
 OpenBabel11021811443D
libRbt.so/2013.1/901 2013/11/27
 31 32  0  0  0  0  0  0  0  0999 V2000
    6.1624   22.2805   54.4927 C   0  0  0  0  0  0  0  0  0  0  0  0
    6.9847   23.1659   53.5610 C   0  0  0  0  0  0  0  0  0  0  0  0
    6.4138   23.6481   52.3388 C   0  0  0  0  0  0  0  0  0  0  0  0
    7.1829   24.4664   51.4770 C   0  0  0  0  0  0  0  0  0  0  0  0
    8.5119   24.8191   51.8166 C   0  0  0  0  0  0  0  0  0  0  0  0
    9.0877   24.3587   53.0182 C   0  0  0  0  0  0  0  0  0  0  0  0
    8.3406   23.5431   53.8870 C   0  0  0  0  0  0  0  0  0  0  0  0
    5.3738   22.7909   55.2878 O   0  0  0  0  0  0  0  0  0  0  0  0
   14.1599   18.8095   55.2023 C   0  0  0  0  0  0  0  0  0  0  0  0
    7.6342   17.8664   53.0731 C   0  0  0  0  0  0  0  0  0  0  0  0
    3.1974   17.5306   51.1323 P   0  0  1  0  0  0  0  0  0  0  0  0
   12.1666   18.5465   53.9017 N   0  0  0  0  0  0  0  0  0  0  0  0
    3.2387   17.4282   52.6035 O   0  0  0  0  0  0  0  0  0  0  0  0
    6.2942   20.9032   54.4555 S   0  0  0  0  0  0  0  0  0  0  0  0
    8.5354   19.7924   50.6879 C   0  0  0  0  0  0  0  0  0  0  0  0
   12.9790   19.4129   54.5977 C   0  0  0  0  0  0  0  0  0  0  0  0
    4.1733   16.6591   50.4235 O   0  5  0  0  0  0  0  0  0  0  0  0
    8.5775   19.9261   52.0367 N   0  0  0  0  0  0  0  0  0  0  0  0
   12.7447   20.6810   54.7286 N   0  0  0  0  0  0  0  0  0  0  0  0
    1.8067   17.3742   50.6469 O   0  0  0  0  0  0  0  0  0  0  0  0
    7.4463   19.3258   52.7587 C   0  0  2  0  0  0  0  0  0  0  0  0
   11.6196   21.2453   54.1585 C   0  0  0  0  0  0  0  0  0  0  0  0
   11.4077   22.5540   54.3174 N   0  0  0  0  0  0  0  0  0  0  0  0
    6.2261   19.9968   53.1966 C   0  0  1  0  0  0  0  0  0  0  0  0
   10.7060   20.3935   53.4132 C   0  0  0  0  0  0  0  0  0  0  0  0
    7.9936   20.7300   50.1449 O   0  0  0  0  0  0  0  0  0  0  0  0
    4.9081   19.8605   52.5205 C   0  0  0  0  0  0  0  0  0  0  0  0
   11.0514   19.0601   53.3258 C   0  0  0  0  0  0  0  0  0  0  0  0
    4.8528   19.6434   51.0694 C   0  0  0  0  0  0  0  0  0  0  0  0
    9.4390   20.9440   52.8052 C   0  0  0  0  0  0  0  0  0  0  0  0
    3.6366   18.9722   50.6968 O   0  0  0  0  0  0  0  0  0  0  0  0
  1  2  1  0  0  0  0
  1  8  2  0  0  0  0
  1 14  1  0  0  0  0
  2  3  2  0  0  0  0
  2  7  1  0  0  0  0
  3  4  1  0  0  0  0
  4  5  2  0  0  0  0
  5  6  1  0  0  0  0
  6  7  2  0  0  0  0
  9 16  1  0  0  0  0
 10 21  1  0  0  0  0
 11 13  1  1  0  0  0
 11 17  1  0  0  0  0
 11 20  2  0  0  0  0
 11 31  1  0  0  0  0
 12 16  2  0  0  0  0
 12 28  1  0  0  0  0
 15 26  1  0  0  0  0
 15 18  1  0  0  0  0
 16 19  1  0  0  0  0
 18 30  1  0  0  0  0
 19 22  2  0  0  0  0
 21 18  1  1  0  0  0
 21 24  1  0  0  0  0
 22 23  1  0  0  0  0
 22 25  1  0  0  0  0
 24 14  1  1  0  0  0
 24 27  1  0  0  0  0
 25 28  2  0  0  0  0
 25 30  1  0  0  0  0
 27 29  1  0  0  0  0
 29 31  1  0  0  0  0
M  CHG  1  17  -1
M  END
>  <CHROM.1>
-82.78933273,-50.56766833,111.71102351,92.01158642,86.20941163,-101.10699191
102.00405353,149.01536455,179.55181566,154.60616185,-63.12844900,53.89538048
7.47399693,20.30746605,52.78493549,2.78104408,0.26955728,-2.97862711

>  <Name>
ligand

>  <RI>
0

>  <Rbt.Current_Directory>
/home/itssahil/PROJECTS/Mol_Feturizer/New_Systems/rnas/2HOO

>  <Rbt.Executable>
rbdock ($Id: //depot/dev/client3/rdock/2013.1/src/exe/rbdock.cxx#4 $)

>  <Rbt.Library>
libRbt.so (2013.1, Build901 2013/11/27)

>  <Rbt.Parameter_File>
/export/apps/rDock/src/rDock_2013.1_src/data/scripts/dock_solv.prm

>  <Rbt.Receptor>
prm/blind_docking_100.prm

>  <SCORE>
-30.8895

>  <SCORE.INTER>
-19.44

>  <SCORE.INTER.CONST>
1

>  <SCORE.INTER.POLAR>
0

>  <SCORE.INTER.ROT>
12

>  <SCORE.INTER.SOLV>
24.2193

>  <SCORE.INTER.VDW>
-32.6331

>  <SCORE.INTER.norm>
-0.627096

>  <SCORE.INTRA>
-13.4529

>  <SCORE.INTRA.DIHEDRAL>
3.32638

>  <SCORE.INTRA.DIHEDRAL.0>
14.6094

>  <SCORE.INTRA.POLAR>
0

>  <SCORE.INTRA.POLAR.0>
0

>  <SCORE.INTRA.REPUL>
0

>  <SCORE.INTRA.REPUL.0>
0

>  <SCORE.INTRA.SOLV>
1.25412

>  <SCORE.INTRA.SOLV.lig_0>
-65.6478

>  <SCORE.INTRA.VDW>
-15.7431

>  <SCORE.INTRA.VDW.0>
9.35535

>  <SCORE.INTRA.norm>
-0.433963

>  <SCORE.RESTR>
2.00332

>  <SCORE.RESTR.CAVITY>
2.00332

>  <SCORE.RESTR.norm>
0.0646233

>  <SCORE.SYSTEM>
0

>  <SCORE.SYSTEM.CONST>
0

>  <SCORE.SYSTEM.DIHEDRAL>
0

>  <SCORE.SYSTEM.SOLV>
0

>  <SCORE.SYSTEM.norm>
0

>  <SCORE.heavy>
31

>  <SCORE.norm>
-0.996436

>  <RMSD>
4.762

$$$$
ligand
 OpenBabel11021811443D
libRbt.so/2013.1/901 2013/11/27
 31 32  0  0  0  0  0  0  0  0999 V2000
    2.7242   20.3396   53.0323 C   0  0  0  0  0  0  0  0  0  0  0  0
    1.7103   19.2006   52.9815 C   0  0  0  0  0  0  0  0  0  0  0  0
    1.4671   18.4026   54.1461 C   0  0  0  0  0  0  0  0  0  0  0  0
    0.5277   17.3451   54.0917 C   0  0  0  0  0  0  0  0  0  0  0  0
   -0.1805   17.0731   52.8956 C   0  0  0  0  0  0  0  0  0  0  0  0
    0.0415   17.8520   51.7418 C   0  0  0  0  0  0  0  0  0  0  0  0
    0.9721   18.9060   51.7751 C   0  0  0  0  0  0  0  0  0  0  0  0
    2.7691   21.0787   54.0153 O   0  0  0  0  0  0  0  0  0  0  0  0
   13.5585   19.6759   55.0329 C   0  0  0  0  0  0  0  0  0  0  0  0
    5.8796   22.1030   53.0935 C   0  0  0  0  0  0  0  0  0  0  0  0
    5.5622   16.4067   48.8906 P   0  0  1  0  0  0  0  0  0  0  0  0
   11.7525   19.0099   53.6085 N   0  0  0  0  0  0  0  0  0  0  0  0
    6.8663   16.7403   49.4947 O   0  0  0  0  0  0  0  0  0  0  0  0
    3.5977   20.5540   51.9804 S   0  0  0  0  0  0  0  0  0  0  0  0
    7.3824   18.9235   53.5851 C   0  0  0  0  0  0  0  0  0  0  0  0
   12.3162   20.0210   54.3535 C   0  0  0  0  0  0  0  0  0  0  0  0
    5.2953   17.0727   47.5870 O   0  5  0  0  0  0  0  0  0  0  0  0
    7.4136   20.1426   52.9920 N   0  0  0  0  0  0  0  0  0  0  0  0
   11.8088   21.2083   54.4673 N   0  0  0  0  0  0  0  0  0  0  0  0
    5.3772   14.9375   48.8506 O   0  0  0  0  0  0  0  0  0  0  0  0
    6.1003   20.6907   52.6234 C   0  0  2  0  0  0  0  0  0  0  0  0
   10.6270   21.5268   53.8259 C   0  0  0  0  0  0  0  0  0  0  0  0
   10.1311   22.7582   53.9690 N   0  0  0  0  0  0  0  0  0  0  0  0
    5.0520   20.0237   51.8572 C   0  0  1  0  0  0  0  0  0  0  0  0
    9.9647   20.5089   53.0253 C   0  0  0  0  0  0  0  0  0  0  0  0
    8.2489   18.7915   54.4214 O   0  0  0  0  0  0  0  0  0  0  0  0
    5.2818   18.8532   50.9684 C   0  0  0  0  0  0  0  0  0  0  0  0
   10.5915   19.2809   52.9621 C   0  0  0  0  0  0  0  0  0  0  0  0
    4.1774   18.3272   50.1563 C   0  0  0  0  0  0  0  0  0  0  0  0
    8.6499   20.7840   52.3371 C   0  0  0  0  0  0  0  0  0  0  0  0
    4.4092   16.9523   49.8036 O   0  0  0  0  0  0  0  0  0  0  0  0
  1  2  1  0  0  0  0
  1  8  2  0  0  0  0
  1 14  1  0  0  0  0
  2  3  2  0  0  0  0
  2  7  1  0  0  0  0
  3  4  1  0  0  0  0
  4  5  2  0  0  0  0
  5  6  1  0  0  0  0
  6  7  2  0  0  0  0
  9 16  1  0  0  0  0
 10 21  1  0  0  0  0
 11 13  1  1  0  0  0
 11 17  1  0  0  0  0
 11 20  2  0  0  0  0
 11 31  1  0  0  0  0
 12 16  2  0  0  0  0
 12 28  1  0  0  0  0
 15 26  1  0  0  0  0
 15 18  1  0  0  0  0
 16 19  1  0  0  0  0
 18 30  1  0  0  0  0
 19 22  2  0  0  0  0
 21 18  1  6  0  0  0
 21 24  1  0  0  0  0
 22 23  1  0  0  0  0
 22 25  1  0  0  0  0
 24 14  1  1  0  0  0
 24 27  1  0  0  0  0
 25 28  2  0  0  0  0
 25 30  1  0  0  0  0
 27 29  1  0  0  0  0
 29 31  1  0  0  0  0
M  CHG  1  17  -1
M  END
>  <CHROM.1>
-41.78140961,-94.96889614,-76.95419388,-145.59466585,130.00827499,-36.42541924
-21.65658413,5.65079631,-105.00668070,-156.99769399,-64.95401759,60.67393667
6.08528329,19.12295186,52.18594485,2.76932920,-0.01861646,-2.29793100

>  <Name>
ligand

>  <RI>
0

>  <Rbt.Current_Directory>
/home/itssahil/PROJECTS/Mol_Feturizer/New_Systems/rnas/2HOO

>  <Rbt.Executable>
rbdock ($Id: //depot/dev/client3/rdock/2013.1/src/exe/rbdock.cxx#4 $)

>  <Rbt.Library>
libRbt.so (2013.1, Build901 2013/11/27)

>  <Rbt.Parameter_File>
/export/apps/rDock/src/rDock_2013.1_src/data/scripts/dock_solv.prm

>  <Rbt.Receptor>
prm/pocket_docking_2.prm

>  <SCORE>
-21.7706

>  <SCORE.INTER>
-14.5691

>  <SCORE.INTER.CONST>
1

>  <SCORE.INTER.POLAR>
0

>  <SCORE.INTER.ROT>
12

>  <SCORE.INTER.SOLV>
15.2946

>  <SCORE.INTER.VDW>
-26.4109

>  <SCORE.INTER.norm>
-0.469971

>  <SCORE.INTRA>
-7.65551

>  <SCORE.INTRA.DIHEDRAL>
3.05693

>  <SCORE.INTRA.DIHEDRAL.0>
14.6094

>  <SCORE.INTRA.POLAR>
0

>  <SCORE.INTRA.POLAR.0>
0

>  <SCORE.INTRA.REPUL>
0

>  <SCORE.INTRA.REPUL.0>
0

>  <SCORE.INTRA.SOLV>
0.719497

>  <SCORE.INTRA.SOLV.lig_0>
-65.6478

>  <SCORE.INTRA.VDW>
-9.54373

>  <SCORE.INTRA.VDW.0>
9.35535

>  <SCORE.INTRA.norm>
-0.246952

>  <SCORE.RESTR>
0.454029

>  <SCORE.RESTR.CAVITY>
0.454029

>  <SCORE.RESTR.norm>
0.0146461

>  <SCORE.SYSTEM>
0

>  <SCORE.SYSTEM.CONST>
0

>  <SCORE.SYSTEM.DIHEDRAL>
0

>  <SCORE.SYSTEM.SOLV>
0

>  <SCORE.SYSTEM.norm>
0

>  <SCORE.heavy>
31

>  <SCORE.norm>
-0.702277

>  <RMSD>
4.765

$$$$
ligand
 OpenBabel11021811443D
libRbt.so/2013.1/901 2013/11/27
 31 32  0  0  0  0  0  0  0  0999 V2000
    2.9304   20.5373   51.2710 C   0  0  0  0  0  0  0  0  0  0  0  0
    1.9152   19.4299   51.5375 C   0  0  0  0  0  0  0  0  0  0  0  0
    2.1085   18.1271   50.9741 C   0  0  0  0  0  0  0  0  0  0  0  0
    1.1613   17.1048   51.2223 C   0  0  0  0  0  0  0  0  0  0  0  0
    0.0257   17.3573   52.0302 C   0  0  0  0  0  0  0  0  0  0  0  0
   -0.1774   18.6316   52.5978 C   0  0  0  0  0  0  0  0  0  0  0  0
    0.7512   19.6611   52.3615 C   0  0  0  0  0  0  0  0  0  0  0  0
    2.5707   21.7142   51.2739 O   0  0  0  0  0  0  0  0  0  0  0  0
    9.6976   23.9604   53.3052 C   0  0  0  0  0  0  0  0  0  0  0  0
    5.4955   17.0205   50.0330 C   0  0  0  0  0  0  0  0  0  0  0  0
    5.6782   21.9493   54.9259 P   0  0  1  0  0  0  0  0  0  0  0  0
    8.4427   22.5062   51.8753 N   0  0  0  0  0  0  0  0  0  0  0  0
    7.1175   22.1224   54.6515 O   0  0  0  0  0  0  0  0  0  0  0  0
    4.2577   20.2328   51.0233 S   0  0  0  0  0  0  0  0  0  0  0  0
    7.4267   19.3187   49.0849 C   0  0  0  0  0  0  0  0  0  0  0  0
    9.3857   22.6038   52.8734 C   0  0  0  0  0  0  0  0  0  0  0  0
    5.3621   21.4851   56.3039 O   0  5  0  0  0  0  0  0  0  0  0  0
    7.3158   18.7022   50.2876 N   0  0  0  0  0  0  0  0  0  0  0  0
    9.9766   21.5857   53.4160 N   0  0  0  0  0  0  0  0  0  0  0  0
    4.9312   23.1649   54.5278 O   0  0  0  0  0  0  0  0  0  0  0  0
    5.9501   18.3090   50.6635 C   0  0  2  0  0  0  0  0  0  0  0  0
    9.6811   20.3024   52.9972 C   0  0  0  0  0  0  0  0  0  0  0  0
   10.3122   19.2776   53.5753 N   0  0  0  0  0  0  0  0  0  0  0  0
    5.0494   19.0142   51.5703 C   0  0  1  0  0  0  0  0  0  0  0  0
    8.7001   20.1160   51.9395 C   0  0  0  0  0  0  0  0  0  0  0  0
    8.5118   19.1483   48.5739 O   0  0  0  0  0  0  0  0  0  0  0  0
    4.8459   18.6493   52.9980 C   0  0  0  0  0  0  0  0  0  0  0  0
    8.1230   21.2638   51.4352 C   0  0  0  0  0  0  0  0  0  0  0  0
    5.5253   19.4161   54.0497 C   0  0  0  0  0  0  0  0  0  0  0  0
    8.3680   18.7422   51.4102 C   0  0  0  0  0  0  0  0  0  0  0  0
    5.1113   20.7934   54.0297 O   0  0  0  0  0  0  0  0  0  0  0  0
  1  2  1  0  0  0  0
  1  8  2  0  0  0  0
  1 14  1  0  0  0  0
  2  3  2  0  0  0  0
  2  7  1  0  0  0  0
  3  4  1  0  0  0  0
  4  5  2  0  0  0  0
  5  6  1  0  0  0  0
  6  7  2  0  0  0  0
  9 16  1  0  0  0  0
 10 21  1  0  0  0  0
 11 13  1  6  0  0  0
 11 17  1  0  0  0  0
 11 20  2  0  0  0  0
 11 31  1  0  0  0  0
 12 16  2  0  0  0  0
 12 28  1  0  0  0  0
 15 26  1  0  0  0  0
 15 18  1  0  0  0  0
 16 19  1  0  0  0  0
 18 30  1  0  0  0  0
 19 22  2  0  0  0  0
 21 18  1  1  0  0  0
 21 24  1  0  0  0  0
 22 23  1  0  0  0  0
 22 25  1  0  0  0  0
 24 14  1  1  0  0  0
 24 27  1  0  0  0  0
 25 28  2  0  0  0  0
 25 30  1  0  0  0  0
 27 29  1  0  0  0  0
 29 31  1  0  0  0  0
M  CHG  1  17  -1
M  END
>  <CHROM.1>
151.65403549,-29.99394093,138.12038136,-152.17986892,81.08543431,59.84462465
-100.41265831,-78.76114637,-179.74188570,61.59121597,-175.52187948,61.38668092
5.72350684,20.21516085,52.31510854,2.78672601,-0.17852477,-2.25928522

>  <Name>
ligand

>  <RI>
0

>  <Rbt.Current_Directory>
/home/itssahil/PROJECTS/Mol_Feturizer/New_Systems/rnas/2HOO

>  <Rbt.Executable>
rbdock ($Id: //depot/dev/client3/rdock/2013.1/src/exe/rbdock.cxx#4 $)

>  <Rbt.Library>
libRbt.so (2013.1, Build901 2013/11/27)

>  <Rbt.Parameter_File>
/export/apps/rDock/src/rDock_2013.1_src/data/scripts/dock_solv.prm

>  <Rbt.Receptor>
prm/pocket_docking_3.prm

>  <SCORE>
-29.1459

>  <SCORE.INTER>
-12.2785

>  <SCORE.INTER.CONST>
1

>  <SCORE.INTER.POLAR>
0

>  <SCORE.INTER.ROT>
12

>  <SCORE.INTER.SOLV>
16.9625

>  <SCORE.INTER.VDW>
-25.4399

>  <SCORE.INTER.norm>
-0.396081

>  <SCORE.INTRA>
-16.9161

>  <SCORE.INTRA.DIHEDRAL>
-0.110802

>  <SCORE.INTRA.DIHEDRAL.0>
14.6094

>  <SCORE.INTRA.POLAR>
0

>  <SCORE.INTRA.POLAR.0>
0

>  <SCORE.INTRA.REPUL>
0

>  <SCORE.INTRA.REPUL.0>
0

>  <SCORE.INTRA.SOLV>
-1.23141

>  <SCORE.INTRA.SOLV.lig_0>
-65.6478

>  <SCORE.INTRA.VDW>
-16.245

>  <SCORE.INTRA.VDW.0>
9.35535

>  <SCORE.INTRA.norm>
-0.54568

>  <SCORE.RESTR>
0.0487051

>  <SCORE.RESTR.CAVITY>
0.0487051

>  <SCORE.RESTR.norm>
0.00157113

>  <SCORE.SYSTEM>
0

>  <SCORE.SYSTEM.CONST>
0

>  <SCORE.SYSTEM.DIHEDRAL>
0

>  <SCORE.SYSTEM.SOLV>
0

>  <SCORE.SYSTEM.norm>
0

>  <SCORE.heavy>
31

>  <SCORE.norm>
-0.94019

>  <RMSD>
4.768

$$$$
ligand
 OpenBabel11021811443D
libRbt.so/2013.1/901 2013/11/27
 31 32  0  0  0  0  0  0  0  0999 V2000
    3.4941   17.5655   50.7383 C   0  0  0  0  0  0  0  0  0  0  0  0
    3.7186   16.3084   49.9032 C   0  0  0  0  0  0  0  0  0  0  0  0
    3.2107   16.2341   48.5658 C   0  0  0  0  0  0  0  0  0  0  0  0
    3.4193   15.0638   47.7972 C   0  0  0  0  0  0  0  0  0  0  0  0
    4.1334   13.9664   48.3375 C   0  0  0  0  0  0  0  0  0  0  0  0
    4.6456   14.0244   49.6496 C   0  0  0  0  0  0  0  0  0  0  0  0
    4.4473   15.1776   50.4299 C   0  0  0  0  0  0  0  0  0  0  0  0
    2.7899   17.5157   51.7463 O   0  0  0  0  0  0  0  0  0  0  0  0
   13.2307   19.9162   54.7331 C   0  0  0  0  0  0  0  0  0  0  0  0
    4.8793   21.0078   52.2756 C   0  0  0  0  0  0  0  0  0  0  0  0
    7.4510   16.1184   46.8516 P   0  0  1  0  0  0  0  0  0  0  0  0
   11.2836   19.2029   53.5354 N   0  0  0  0  0  0  0  0  0  0  0  0
    6.9050   14.8856   47.4507 O   0  0  0  0  0  0  0  0  0  0  0  0
    4.0747   18.7678   50.3735 S   0  0  0  0  0  0  0  0  0  0  0  0
    7.3115   18.7295   53.2170 C   0  0  0  0  0  0  0  0  0  0  0  0
   11.9506   20.2538   54.1236 C   0  0  0  0  0  0  0  0  0  0  0  0
    8.9012   16.0578   46.5239 O   0  5  0  0  0  0  0  0  0  0  0  0
    7.0952   19.9152   52.5954 N   0  0  0  0  0  0  0  0  0  0  0  0
   11.5051   21.4706   54.1538 N   0  0  0  0  0  0  0  0  0  0  0  0
    6.6074   16.5519   45.7138 O   0  0  0  0  0  0  0  0  0  0  0  0
    5.8675   19.9824   51.7897 C   0  0  2  0  0  0  0  0  0  0  0  0
   10.2875   21.7826   53.5797 C   0  0  0  0  0  0  0  0  0  0  0  0
    9.8578   23.0456   53.6335 N   0  0  0  0  0  0  0  0  0  0  0  0
    5.5499   19.1948   50.6023 C   0  0  1  0  0  0  0  0  0  0  0  0
    9.5173   20.7244   52.9450 C   0  0  0  0  0  0  0  0  0  0  0  0
    6.4346   18.4515   54.0051 O   0  0  0  0  0  0  0  0  0  0  0  0
    6.5538   18.7593   49.5946 C   0  0  0  0  0  0  0  0  0  0  0  0
   10.0843   19.4662   52.9596 C   0  0  0  0  0  0  0  0  0  0  0  0
    6.2197   17.6857   48.6505 C   0  0  0  0  0  0  0  0  0  0  0  0
    8.1615   20.9953   52.3399 C   0  0  0  0  0  0  0  0  0  0  0  0
    7.3783   17.2842   47.8988 O   0  0  0  0  0  0  0  0  0  0  0  0
  1  2  1  0  0  0  0
  1  8  2  0  0  0  0
  1 14  1  0  0  0  0
  2  3  2  0  0  0  0
  2  7  1  0  0  0  0
  3  4  1  0  0  0  0
  4  5  2  0  0  0  0
  5  6  1  0  0  0  0
  6  7  2  0  0  0  0
  9 16  1  0  0  0  0
 10 21  1  0  0  0  0
 11 13  1  1  0  0  0
 11 17  1  0  0  0  0
 11 20  2  0  0  0  0
 11 31  1  0  0  0  0
 12 16  2  0  0  0  0
 12 28  1  0  0  0  0
 15 26  1  0  0  0  0
 15 18  1  0  0  0  0
 16 19  1  0  0  0  0
 18 30  1  0  0  0  0
 19 22  2  0  0  0  0
 21 18  1  6  0  0  0
 21 24  1  0  0  0  0
 22 23  1  0  0  0  0
 22 25  1  0  0  0  0
 24 14  1  1  0  0  0
 24 27  1  0  0  0  0
 25 28  2  0  0  0  0
 25 30  1  0  0  0  0
 27 29  1  0  0  0  0
 29 31  1  0  0  0  0
M  CHG  1  17  -1
M  END
>  <CHROM.1>
114.37365672,-78.48152506,-94.98380580,-61.41098239,117.42137127,-5.25596449
-36.14798687,-16.01839642,-138.92721725,-171.57394049,176.40661196,-51.28650713
6.93764270,18.21301509,50.65547796,2.19408138,-0.11316066,-2.20772885

>  <Name>
ligand

>  <RI>
0

>  <Rbt.Current_Directory>
/home/itssahil/PROJECTS/Mol_Feturizer/New_Systems/rnas/2HOO

>  <Rbt.Executable>
rbdock ($Id: //depot/dev/client3/rdock/2013.1/src/exe/rbdock.cxx#4 $)

>  <Rbt.Library>
libRbt.so (2013.1, Build901 2013/11/27)

>  <Rbt.Parameter_File>
/export/apps/rDock/src/rDock_2013.1_src/data/scripts/dock_solv.prm

>  <Rbt.Receptor>
prm/pocket_docking_4.prm

>  <SCORE>
-28.2778

>  <SCORE.INTER>
-17.2624

>  <SCORE.INTER.CONST>
1

>  <SCORE.INTER.POLAR>
0

>  <SCORE.INTER.ROT>
12

>  <SCORE.INTER.SOLV>
12.6056

>  <SCORE.INTER.VDW>
-27.3101

>  <SCORE.INTER.norm>
-0.556851

>  <SCORE.INTRA>
-11.0154

>  <SCORE.INTRA.DIHEDRAL>
2.3325

>  <SCORE.INTRA.DIHEDRAL.0>
14.6094

>  <SCORE.INTRA.POLAR>
0

>  <SCORE.INTRA.POLAR.0>
0

>  <SCORE.INTRA.REPUL>
0

>  <SCORE.INTRA.REPUL.0>
0

>  <SCORE.INTRA.SOLV>
-1.14735

>  <SCORE.INTRA.SOLV.lig_0>
-65.6478

>  <SCORE.INTRA.VDW>
-11.608

>  <SCORE.INTRA.VDW.0>
9.35535

>  <SCORE.INTRA.norm>
-0.355335

>  <SCORE.RESTR>
0

>  <SCORE.RESTR.CAVITY>
0

>  <SCORE.RESTR.norm>
0

>  <SCORE.SYSTEM>
0

>  <SCORE.SYSTEM.CONST>
0

>  <SCORE.SYSTEM.DIHEDRAL>
0

>  <SCORE.SYSTEM.SOLV>
0

>  <SCORE.SYSTEM.norm>
0

>  <SCORE.heavy>
31

>  <SCORE.norm>
-0.912186

>  <RMSD>
4.824

$$$$
ligand
 OpenBabel11021811443D
libRbt.so/2013.1/901 2013/11/27
 31 32  0  0  0  0  0  0  0  0999 V2000
    2.8980   20.4025   53.8070 C   0  0  0  0  0  0  0  0  0  0  0  0
    1.5954   19.8223   53.2643 C   0  0  0  0  0  0  0  0  0  0  0  0
    1.6116   18.6092   52.5024 C   0  0  0  0  0  0  0  0  0  0  0  0
    0.4001   18.0777   51.9987 C   0  0  0  0  0  0  0  0  0  0  0  0
   -0.8310   18.7322   52.2480 C   0  0  0  0  0  0  0  0  0  0  0  0
   -0.8664   19.9235   53.0009 C   0  0  0  0  0  0  0  0  0  0  0  0
    0.3266   20.4685   53.5084 C   0  0  0  0  0  0  0  0  0  0  0  0
    3.0123   21.6182   53.9601 O   0  0  0  0  0  0  0  0  0  0  0  0
   13.5999   19.3678   54.7523 C   0  0  0  0  0  0  0  0  0  0  0  0
    5.4024   21.4002   52.0376 C   0  0  0  0  0  0  0  0  0  0  0  0
    5.6353   16.9944   49.0806 P   0  0  1  0  0  0  0  0  0  0  0  0
   11.2961   18.8340   54.3757 N   0  0  0  0  0  0  0  0  0  0  0  0
    6.6500   15.9281   49.1824 O   0  0  0  0  0  0  0  0  0  0  0  0
    3.9589   19.5741   54.1296 S   0  0  0  0  0  0  0  0  0  0  0  0
    8.0103   19.7126   51.4509 C   0  0  0  0  0  0  0  0  0  0  0  0
   12.2462   19.8261   54.4666 C   0  0  0  0  0  0  0  0  0  0  0  0
    6.0949   18.2209   48.3744 O   0  5  0  0  0  0  0  0  0  0  0  0
    7.4705   20.1390   52.6195 N   0  0  0  0  0  0  0  0  0  0  0  0
   11.9944   21.0885   54.3151 N   0  0  0  0  0  0  0  0  0  0  0  0
    4.3680   16.4458   48.5448 O   0  0  0  0  0  0  0  0  0  0  0  0
    6.0012   20.1654   52.6550 C   0  0  2  0  0  0  0  0  0  0  0  0
   10.7074   21.5167   54.0510 C   0  0  0  0  0  0  0  0  0  0  0  0
   10.4838   22.8250   53.9052 N   0  0  0  0  0  0  0  0  0  0  0  0
    5.1152   19.1362   53.1902 C   0  0  1  0  0  0  0  0  0  0  0  0
    9.6445   20.5290   53.9481 C   0  0  0  0  0  0  0  0  0  0  0  0
    8.0282   20.5787   50.6041 O   0  0  0  0  0  0  0  0  0  0  0  0
    5.2531   17.6828   52.9044 C   0  0  0  0  0  0  0  0  0  0  0  0
   10.0194   19.2115   54.1170 C   0  0  0  0  0  0  0  0  0  0  0  0
    6.0115   17.2407   51.7275 C   0  0  0  0  0  0  0  0  0  0  0  0
    8.2126   20.9392   53.7047 C   0  0  0  0  0  0  0  0  0  0  0  0
    5.2913   17.5263   50.5157 O   0  0  0  0  0  0  0  0  0  0  0  0
  1  2  1  0  0  0  0
  1  8  2  0  0  0  0
  1 14  1  0  0  0  0
  2  3  2  0  0  0  0
  2  7  1  0  0  0  0
  3  4  1  0  0  0  0
  4  5  2  0  0  0  0
  5  6  1  0  0  0  0
  6  7  2  0  0  0  0
  9 16  1  0  0  0  0
 10 21  1  0  0  0  0
 11 13  1  1  0  0  0
 11 17  1  0  0  0  0
 11 20  2  0  0  0  0
 11 31  1  0  0  0  0
 12 16  2  0  0  0  0
 12 28  1  0  0  0  0
 15 26  1  0  0  0  0
 15 18  1  0  0  0  0
 16 19  1  0  0  0  0
 18 30  1  0  0  0  0
 19 22  2  0  0  0  0
 21 18  1  6  0  0  0
 21 24  1  0  0  0  0
 22 23  1  0  0  0  0
 22 25  1  0  0  0  0
 24 14  1  1  0  0  0
 24 27  1  0  0  0  0
 25 28  2  0  0  0  0
 25 30  1  0  0  0  0
 27 29  1  0  0  0  0
 29 31  1  0  0  0  0
M  CHG  1  17  -1
M  END
>  <CHROM.1>
150.31959062,90.68366333,62.41336915,80.08456859,-82.50869971,-38.86718344
-48.31431324,160.38526026,133.58635789,-71.62789475,-168.56839036,11.54304748
6.10327840,19.31335115,52.38306896,2.89750212,0.00050933,-2.24066654

>  <Name>
ligand

>  <RI>
0

>  <Rbt.Current_Directory>
/home/itssahil/PROJECTS/Mol_Feturizer/New_Systems/rnas/2HOO

>  <Rbt.Executable>
rbdock ($Id: //depot/dev/client3/rdock/2013.1/src/exe/rbdock.cxx#4 $)

>  <Rbt.Library>
libRbt.so (2013.1, Build901 2013/11/27)

>  <Rbt.Parameter_File>
/export/apps/rDock/src/rDock_2013.1_src/data/scripts/dock_solv.prm

>  <Rbt.Receptor>
prm/pocket_docking_2.prm

>  <SCORE>
-21.0503

>  <SCORE.INTER>
-12.8225

>  <SCORE.INTER.CONST>
1

>  <SCORE.INTER.POLAR>
0

>  <SCORE.INTER.ROT>
12

>  <SCORE.INTER.SOLV>
19.4947

>  <SCORE.INTER.VDW>
-26.6466

>  <SCORE.INTER.norm>
-0.413629

>  <SCORE.INTRA>
-8.91308

>  <SCORE.INTRA.DIHEDRAL>
6.56711

>  <SCORE.INTRA.DIHEDRAL.0>
14.6094

>  <SCORE.INTRA.POLAR>
0

>  <SCORE.INTRA.POLAR.0>
0

>  <SCORE.INTRA.REPUL>
0

>  <SCORE.INTRA.REPUL.0>
0

>  <SCORE.INTRA.SOLV>
0.195576

>  <SCORE.INTRA.SOLV.lig_0>
-65.6478

>  <SCORE.INTRA.VDW>
-12.2944

>  <SCORE.INTRA.VDW.0>
9.35535

>  <SCORE.INTRA.norm>
-0.287519

>  <SCORE.RESTR>
0.685317

>  <SCORE.RESTR.CAVITY>
0.685317

>  <SCORE.RESTR.norm>
0.022107

>  <SCORE.SYSTEM>
0

>  <SCORE.SYSTEM.CONST>
0

>  <SCORE.SYSTEM.DIHEDRAL>
0

>  <SCORE.SYSTEM.SOLV>
0

>  <SCORE.SYSTEM.norm>
0

>  <SCORE.heavy>
31

>  <SCORE.norm>
-0.679041

>  <RMSD>
4.826

$$$$
ligand
 OpenBabel11021811443D
libRbt.so/2013.1/901 2013/11/27
 31 32  0  0  0  0  0  0  0  0999 V2000
    3.9470   17.1468   49.5430 C   0  0  0  0  0  0  0  0  0  0  0  0
    2.8266   16.5145   50.3633 C   0  0  0  0  0  0  0  0  0  0  0  0
    2.9784   15.1892   50.8856 C   0  0  0  0  0  0  0  0  0  0  0  0
    1.9340   14.6068   51.6431 C   0  0  0  0  0  0  0  0  0  0  0  0
    0.7408   15.3271   51.8957 C   0  0  0  0  0  0  0  0  0  0  0  0
    0.5767   16.6346   51.3948 C   0  0  0  0  0  0  0  0  0  0  0  0
    1.6020   17.2300   50.6384 C   0  0  0  0  0  0  0  0  0  0  0  0
    4.3224   16.6114   48.5005 O   0  0  0  0  0  0  0  0  0  0  0  0
    9.9902   15.6442   46.9728 C   0  0  0  0  0  0  0  0  0  0  0  0
    7.1927   17.3335   52.0549 C   0  0  0  0  0  0  0  0  0  0  0  0
    1.8787   17.5557   55.3422 P   0  0  1  0  0  0  0  0  0  0  0  0
    9.8056   16.8840   49.0132 N   0  0  0  0  0  0  0  0  0  0  0  0
    2.7403   16.5491   55.9912 O   0  0  0  0  0  0  0  0  0  0  0  0
    4.5506   18.3205   49.9599 S   0  0  0  0  0  0  0  0  0  0  0  0
    8.1097   20.1269   52.5475 C   0  0  0  0  0  0  0  0  0  0  0  0
    9.4220   16.7750   47.6956 C   0  0  0  0  0  0  0  0  0  0  0  0
    0.7977   16.9890   54.4911 O   0  5  0  0  0  0  0  0  0  0  0  0
    7.4800   19.7243   51.4160 N   0  0  0  0  0  0  0  0  0  0  0  0
    8.6151   17.5990   47.1039 N   0  0  0  0  0  0  0  0  0  0  0  0
    1.3900   18.5330   56.3424 O   0  0  0  0  0  0  0  0  0  0  0  0
    6.5405   18.6069   51.5888 C   0  0  2  0  0  0  0  0  0  0  0  0
    8.0852   18.6730   47.7932 C   0  0  0  0  0  0  0  0  0  0  0  0
    7.2608   19.5040   47.1507 N   0  0  0  0  0  0  0  0  0  0  0  0
    5.0959   18.6316   51.3801 C   0  0  1  0  0  0  0  0  0  0  0  0
    8.4493   18.8621   49.1887 C   0  0  0  0  0  0  0  0  0  0  0  0
    7.3606   20.6745   53.3262 O   0  0  0  0  0  0  0  0  0  0  0  0
    4.1030   18.9492   52.4413 C   0  0  0  0  0  0  0  0  0  0  0  0
    9.3075   17.9245   49.7263 C   0  0  0  0  0  0  0  0  0  0  0  0
    3.5084   17.8635   53.2309 C   0  0  0  0  0  0  0  0  0  0  0  0
    7.9372   20.0404   49.9807 C   0  0  0  0  0  0  0  0  0  0  0  0
    2.7280   18.3881   54.3191 O   0  0  0  0  0  0  0  0  0  0  0  0
  1  2  1  0  0  0  0
  1  8  2  0  0  0  0
  1 14  1  0  0  0  0
  2  3  2  0  0  0  0
  2  7  1  0  0  0  0
  3  4  1  0  0  0  0
  4  5  2  0  0  0  0
  5  6  1  0  0  0  0
  6  7  2  0  0  0  0
  9 16  1  0  0  0  0
 10 21  1  0  0  0  0
 11 13  1  1  0  0  0
 11 17  1  0  0  0  0
 11 20  2  0  0  0  0
 11 31  1  0  0  0  0
 12 16  2  0  0  0  0
 12 28  1  0  0  0  0
 15 26  1  0  0  0  0
 15 18  1  0  0  0  0
 16 19  1  0  0  0  0
 18 30  1  0  0  0  0
 19 22  2  0  0  0  0
 21 18  1  1  0  0  0
 21 24  1  0  0  0  0
 22 23  1  0  0  0  0
 22 25  1  0  0  0  0
 24 14  1  6  0  0  0
 24 27  1  0  0  0  0
 25 28  2  0  0  0  0
 25 30  1  0  0  0  0
 27 29  1  0  0  0  0
 29 31  1  0  0  0  0
M  CHG  1  17  -1
M  END
>  <CHROM.1>
59.86689562,48.59263149,104.45774854,-69.71731403,-62.76179973,110.95108827
-92.57336870,87.98008503,137.66219145,171.78289632,176.69595884,55.44744421
5.04719217,17.78102492,51.31808490,0.55475454,-0.44349400,-2.03873629

>  <Name>
ligand

>  <RI>
0

>  <Rbt.Current_Directory>
/home/itssahil/PROJECTS/Mol_Feturizer/New_Systems/rnas/2HOO

>  <Rbt.Executable>
rbdock ($Id: //depot/dev/client3/rdock/2013.1/src/exe/rbdock.cxx#4 $)

>  <Rbt.Library>
libRbt.so (2013.1, Build901 2013/11/27)

>  <Rbt.Parameter_File>
/export/apps/rDock/src/rDock_2013.1_src/data/scripts/dock_solv.prm

>  <Rbt.Receptor>
prm/blind_docking_60.prm

>  <SCORE>
-30.8386

>  <SCORE.INTER>
-16.553

>  <SCORE.INTER.CONST>
1

>  <SCORE.INTER.POLAR>
0

>  <SCORE.INTER.ROT>
12

>  <SCORE.INTER.SOLV>
15.5554

>  <SCORE.INTER.VDW>
-27.8205

>  <SCORE.INTER.norm>
-0.533969

>  <SCORE.INTRA>
-14.2856

>  <SCORE.INTRA.DIHEDRAL>
1.71381

>  <SCORE.INTRA.DIHEDRAL.0>
14.6094

>  <SCORE.INTRA.POLAR>
0

>  <SCORE.INTRA.POLAR.0>
0

>  <SCORE.INTRA.REPUL>
0

>  <SCORE.INTRA.REPUL.0>
0

>  <SCORE.INTRA.SOLV>
0.220851

>  <SCORE.INTRA.SOLV.lig_0>
-65.6478

>  <SCORE.INTRA.VDW>
-15.2529

>  <SCORE.INTRA.VDW.0>
9.35535

>  <SCORE.INTRA.norm>
-0.460825

>  <SCORE.RESTR>
0

>  <SCORE.RESTR.CAVITY>
0

>  <SCORE.RESTR.norm>
0

>  <SCORE.SYSTEM>
0

>  <SCORE.SYSTEM.CONST>
0

>  <SCORE.SYSTEM.DIHEDRAL>
0

>  <SCORE.SYSTEM.SOLV>
0

>  <SCORE.SYSTEM.norm>
0

>  <SCORE.heavy>
31

>  <SCORE.norm>
-0.994794

>  <RMSD>
4.834

$$$$
ligand
 OpenBabel11021811443D
libRbt.so/2013.1/901 2013/11/27
 31 32  0  0  0  0  0  0  0  0999 V2000
    2.5741   19.6924   54.0816 C   0  0  0  0  0  0  0  0  0  0  0  0
    1.5181   18.7599   53.4959 C   0  0  0  0  0  0  0  0  0  0  0  0
    0.9089   17.7575   54.3183 C   0  0  0  0  0  0  0  0  0  0  0  0
   -0.0678   16.8931   53.7682 C   0  0  0  0  0  0  0  0  0  0  0  0
   -0.4539   17.0155   52.4109 C   0  0  0  0  0  0  0  0  0  0  0  0
    0.1305   18.0001   51.5886 C   0  0  0  0  0  0  0  0  0  0  0  0
    1.1041   18.8674   52.1159 C   0  0  0  0  0  0  0  0  0  0  0  0
    2.2311   20.7260   54.6548 O   0  0  0  0  0  0  0  0  0  0  0  0
   13.3070   19.6502   54.4642 C   0  0  0  0  0  0  0  0  0  0  0  0
    5.1349   22.0720   52.6135 C   0  0  0  0  0  0  0  0  0  0  0  0
    5.5747   16.9418   48.8607 P   0  0  1  0  0  0  0  0  0  0  0  0
   11.7248   21.4102   54.0988 N   0  0  0  0  0  0  0  0  0  0  0  0
    6.5840   17.9073   48.3855 O   0  0  0  0  0  0  0  0  0  0  0  0
    3.9204   19.3894   53.9745 S   0  0  0  0  0  0  0  0  0  0  0  0
    7.6640   20.1994   51.3439 C   0  0  0  0  0  0  0  0  0  0  0  0
   11.9232   20.0569   54.2548 C   0  0  0  0  0  0  0  0  0  0  0  0
    4.9787   16.0935   47.7933 O   0  5  0  0  0  0  0  0  0  0  0  0
    7.1777   20.6487   52.5274 N   0  0  0  0  0  0  0  0  0  0  0  0
   10.9732   19.1757   54.2240 N   0  0  0  0  0  0  0  0  0  0  0  0
    6.1081   16.1637   50.0028 O   0  0  0  0  0  0  0  0  0  0  0  0
    5.7114   20.6821   52.6269 C   0  0  2  0  0  0  0  0  0  0  0  0
    9.6642   19.5674   54.0183 C   0  0  0  0  0  0  0  0  0  0  0  0
    8.7118   18.6320   53.9881 N   0  0  0  0  0  0  0  0  0  0  0  0
    4.8087   19.5380   52.7096 C   0  0  1  0  0  0  0  0  0  0  0  0
    9.3732   20.9809   53.8361 C   0  0  0  0  0  0  0  0  0  0  0  0
    7.8753   21.0966   50.5579 O   0  0  0  0  0  0  0  0  0  0  0  0
    4.6896   18.4892   51.6613 C   0  0  0  0  0  0  0  0  0  0  0  0
   10.4539   21.8373   53.8950 C   0  0  0  0  0  0  0  0  0  0  0  0
    4.3649   18.8720   50.2816 C   0  0  0  0  0  0  0  0  0  0  0  0
    7.9697   21.4648   53.5645 C   0  0  0  0  0  0  0  0  0  0  0  0
    4.3332   17.7187   49.4228 O   0  0  0  0  0  0  0  0  0  0  0  0
  1  2  1  0  0  0  0
  1  8  2  0  0  0  0
  1 14  1  0  0  0  0
  2  3  2  0  0  0  0
  2  7  1  0  0  0  0
  3  4  1  0  0  0  0
  4  5  2  0  0  0  0
  5  6  1  0  0  0  0
  6  7  2  0  0  0  0
  9 16  1  0  0  0  0
 10 21  1  0  0  0  0
 11 13  1  6  0  0  0
 11 17  1  0  0  0  0
 11 20  2  0  0  0  0
 11 31  1  0  0  0  0
 12 16  2  0  0  0  0
 12 28  1  0  0  0  0
 15 26  1  0  0  0  0
 15 18  1  0  0  0  0
 16 19  1  0  0  0  0
 18 30  1  0  0  0  0
 19 22  2  0  0  0  0
 21 18  1  6  0  0  0
 21 24  1  0  0  0  0
 22 23  1  0  0  0  0
 22 25  1  0  0  0  0
 24 14  1  1  0  0  0
 24 27  1  0  0  0  0
 25 28  2  0  0  0  0
 25 30  1  0  0  0  0
 27 29  1  0  0  0  0
 29 31  1  0  0  0  0
M  CHG  1  17  -1
M  END
>  <CHROM.1>
-86.27667751,76.28605729,102.29054901,92.62607428,-108.63159805,-43.75652342
-62.47599771,124.39846969,-44.35086881,178.42891515,-76.19983590,-44.09184445
5.83199738,19.14504393,52.26134880,2.85073535,-0.14175605,-2.09716296

>  <Name>
ligand

>  <RI>
0

>  <Rbt.Current_Directory>
/home/itssahil/PROJECTS/Mol_Feturizer/New_Systems/rnas/2HOO

>  <Rbt.Executable>
rbdock ($Id: //depot/dev/client3/rdock/2013.1/src/exe/rbdock.cxx#4 $)

>  <Rbt.Library>
libRbt.so (2013.1, Build901 2013/11/27)

>  <Rbt.Parameter_File>
/export/apps/rDock/src/rDock_2013.1_src/data/scripts/dock_solv.prm

>  <Rbt.Receptor>
prm/pocket_docking_2.prm

>  <SCORE>
-25.8869

>  <SCORE.INTER>
-15.5699

>  <SCORE.INTER.CONST>
1

>  <SCORE.INTER.POLAR>
0

>  <SCORE.INTER.ROT>
12

>  <SCORE.INTER.SOLV>
13.2946

>  <SCORE.INTER.VDW>
-26.4115

>  <SCORE.INTER.norm>
-0.502256

>  <SCORE.INTRA>
-10.6496

>  <SCORE.INTRA.DIHEDRAL>
2.12193

>  <SCORE.INTRA.DIHEDRAL.0>
14.6094

>  <SCORE.INTRA.POLAR>
0

>  <SCORE.INTRA.POLAR.0>
0

>  <SCORE.INTRA.REPUL>
0

>  <SCORE.INTRA.REPUL.0>
0

>  <SCORE.INTRA.SOLV>
4.26378

>  <SCORE.INTRA.SOLV.lig_0>
-65.6478

>  <SCORE.INTRA.VDW>
-13.8425

>  <SCORE.INTRA.VDW.0>
9.35535

>  <SCORE.INTRA.norm>
-0.343536

>  <SCORE.RESTR>
0.332626

>  <SCORE.RESTR.CAVITY>
0.332626

>  <SCORE.RESTR.norm>
0.0107299

>  <SCORE.SYSTEM>
0

>  <SCORE.SYSTEM.CONST>
0

>  <SCORE.SYSTEM.DIHEDRAL>
0

>  <SCORE.SYSTEM.SOLV>
0

>  <SCORE.SYSTEM.norm>
0

>  <SCORE.heavy>
31

>  <SCORE.norm>
-0.835062

>  <RMSD>
4.853

$$$$
ligand
 OpenBabel11021811443D
libRbt.so/2013.1/901 2013/11/27
 31 32  0  0  0  0  0  0  0  0999 V2000
    4.0533   17.7608   54.4237 C   0  0  0  0  0  0  0  0  0  0  0  0
    3.2384   17.8046   53.1345 C   0  0  0  0  0  0  0  0  0  0  0  0
    1.9373   18.4042   53.1270 C   0  0  0  0  0  0  0  0  0  0  0  0
    1.1847   18.4388   51.9286 C   0  0  0  0  0  0  0  0  0  0  0  0
    1.7108   17.8911   50.7330 C   0  0  0  0  0  0  0  0  0  0  0  0
    2.9918   17.3027   50.7205 C   0  0  0  0  0  0  0  0  0  0  0  0
    3.7544   17.2569   51.9013 C   0  0  0  0  0  0  0  0  0  0  0  0
    3.4842   17.6211   55.5058 O   0  0  0  0  0  0  0  0  0  0  0  0
   13.3965   19.9133   54.7987 C   0  0  0  0  0  0  0  0  0  0  0  0
    5.3775   20.3483   51.8323 C   0  0  0  0  0  0  0  0  0  0  0  0
    8.0357   18.8651   48.9479 P   0  0  1  0  0  0  0  0  0  0  0  0
   11.2563   19.3540   53.8814 N   0  0  0  0  0  0  0  0  0  0  0  0
    6.7599   19.3043   48.3510 O   0  0  0  0  0  0  0  0  0  0  0  0
    5.4320   17.8783   54.3911 S   0  0  0  0  0  0  0  0  0  0  0  0
    6.9323   20.9779   54.9024 C   0  0  0  0  0  0  0  0  0  0  0  0
   12.1134   20.3588   54.2701 C   0  0  0  0  0  0  0  0  0  0  0  0
    8.5736   17.5936   48.3928 O   0  5  0  0  0  0  0  0  0  0  0  0
    7.0946   20.8689   53.5605 N   0  0  0  0  0  0  0  0  0  0  0  0
   11.8358   21.6222   54.1875 N   0  0  0  0  0  0  0  0  0  0  0  0
    9.0162   19.9754   48.9347 O   0  0  0  0  0  0  0  0  0  0  0  0
    6.2817   19.8272   52.9164 C   0  0  2  0  0  0  0  0  0  0  0  0
   10.6148   22.0375   53.6917 C   0  0  0  0  0  0  0  0  0  0  0  0
   10.3612   23.3468   53.6251 N   0  0  0  0  0  0  0  0  0  0  0  0
    6.2928   18.3968   53.2073 C   0  0  1  0  0  0  0  0  0  0  0  0
    9.6500   21.0351   53.2673 C   0  0  0  0  0  0  0  0  0  0  0  0
    5.8172   21.3398   55.2075 O   0  0  0  0  0  0  0  0  0  0  0  0
    7.0889   17.3952   52.4483 C   0  0  0  0  0  0  0  0  0  0  0  0
   10.0468   19.7187   53.3883 C   0  0  0  0  0  0  0  0  0  0  0  0
    7.0630   17.4052   50.9804 C   0  0  0  0  0  0  0  0  0  0  0  0
    8.2841   21.4262   52.7583 C   0  0  0  0  0  0  0  0  0  0  0  0
    7.8119   18.5181   50.4613 O   0  0  0  0  0  0  0  0  0  0  0  0
  1  2  1  0  0  0  0
  1  8  2  0  0  0  0
  1 14  1  0  0  0  0
  2  3  2  0  0  0  0
  2  7  1  0  0  0  0
  3  4  1  0  0  0  0
  4  5  2  0  0  0  0
  5  6  1  0  0  0  0
  6  7  2  0  0  0  0
  9 16  1  0  0  0  0
 10 21  1  0  0  0  0
 11 13  1  6  0  0  0
 11 17  1  0  0  0  0
 11 20  2  0  0  0  0
 11 31  1  0  0  0  0
 12 16  2  0  0  0  0
 12 28  1  0  0  0  0
 15 26  1  0  0  0  0
 15 18  1  0  0  0  0
 16 19  1  0  0  0  0
 18 30  1  0  0  0  0
 19 22  2  0  0  0  0
 21 18  1  6  0  0  0
 21 24  1  0  0  0  0
 22 23  1  0  0  0  0
 22 25  1  0  0  0  0
 24 14  1  1  0  0  0
 24 27  1  0  0  0  0
 25 28  2  0  0  0  0
 25 30  1  0  0  0  0
 27 29  1  0  0  0  0
 29 31  1  0  0  0  0
M  CHG  1  17  -1
M  END
>  <CHROM.1>
34.43824421,15.95399603,73.18379171,-65.28425961,122.24798652,51.96710625
-97.49249218,133.05853730,-120.07774990,73.13918879,179.23693779,69.04014478
7.07131904,19.29639388,52.46812367,2.93648227,-0.31877570,-1.82637965

>  <Name>
ligand

>  <RI>
0

>  <Rbt.Current_Directory>
/home/itssahil/PROJECTS/Mol_Feturizer/New_Systems/rnas/2HOO

>  <Rbt.Executable>
rbdock ($Id: //depot/dev/client3/rdock/2013.1/src/exe/rbdock.cxx#4 $)

>  <Rbt.Library>
libRbt.so (2013.1, Build901 2013/11/27)

>  <Rbt.Parameter_File>
/export/apps/rDock/src/rDock_2013.1_src/data/scripts/dock_solv.prm

>  <Rbt.Receptor>
prm/pocket_docking_3.prm

>  <SCORE>
-33.3866

>  <SCORE.INTER>
-17.8679

>  <SCORE.INTER.CONST>
1

>  <SCORE.INTER.POLAR>
0

>  <SCORE.INTER.ROT>
12

>  <SCORE.INTER.SOLV>
21.469

>  <SCORE.INTER.VDW>
-30.6683

>  <SCORE.INTER.norm>
-0.576385

>  <SCORE.INTRA>
-15.6885

>  <SCORE.INTRA.DIHEDRAL>
-0.634977

>  <SCORE.INTRA.DIHEDRAL.0>
14.6094

>  <SCORE.INTRA.POLAR>
0

>  <SCORE.INTRA.POLAR.0>
0

>  <SCORE.INTRA.REPUL>
0

>  <SCORE.INTRA.REPUL.0>
0

>  <SCORE.INTRA.SOLV>
0.639811

>  <SCORE.INTRA.SOLV.lig_0>
-65.6478

>  <SCORE.INTRA.VDW>
-15.691

>  <SCORE.INTRA.VDW.0>
9.35535

>  <SCORE.INTRA.norm>
-0.506082

>  <SCORE.RESTR>
0.169871

>  <SCORE.RESTR.CAVITY>
0.169871

>  <SCORE.RESTR.norm>
0.00547971

>  <SCORE.SYSTEM>
0

>  <SCORE.SYSTEM.CONST>
0

>  <SCORE.SYSTEM.DIHEDRAL>
0

>  <SCORE.SYSTEM.SOLV>
0

>  <SCORE.SYSTEM.norm>
0

>  <SCORE.heavy>
31

>  <SCORE.norm>
-1.07699

>  <RMSD>
4.867

$$$$
ligand
 OpenBabel11021811443D
libRbt.so/2013.1/901 2013/11/27
 31 32  0  0  0  0  0  0  0  0999 V2000
    4.0960   18.4478   51.3843 C   0  0  0  0  0  0  0  0  0  0  0  0
    2.9949   17.4699   50.9851 C   0  0  0  0  0  0  0  0  0  0  0  0
    1.6286   17.7562   51.3065 C   0  0  0  0  0  0  0  0  0  0  0  0
    0.6118   16.8435   50.9364 C   0  0  0  0  0  0  0  0  0  0  0  0
    0.9335   15.6508   50.2434 C   0  0  0  0  0  0  0  0  0  0  0  0
    2.2720   15.3559   49.9135 C   0  0  0  0  0  0  0  0  0  0  0  0
    3.2967   16.2491   50.2740 C   0  0  0  0  0  0  0  0  0  0  0  0
    4.5839   19.2008   50.5421 O   0  0  0  0  0  0  0  0  0  0  0  0
   12.4249   20.4877   54.5860 C   0  0  0  0  0  0  0  0  0  0  0  0
    6.8892   20.5215   54.8055 C   0  0  0  0  0  0  0  0  0  0  0  0
    8.9631   17.5077   49.9558 P   0  0  1  0  0  0  0  0  0  0  0  0
   10.5365   19.7952   53.2864 N   0  0  0  0  0  0  0  0  0  0  0  0
    8.5790   16.1649   49.4802 O   0  0  0  0  0  0  0  0  0  0  0  0
    4.5564   18.4976   52.6886 S   0  0  0  0  0  0  0  0  0  0  0  0
    5.2687   22.1305   52.6861 C   0  0  0  0  0  0  0  0  0  0  0  0
   11.2145   20.8480   53.8583 C   0  0  0  0  0  0  0  0  0  0  0  0
   10.3674   17.6162   50.4358 O   0  5  0  0  0  0  0  0  0  0  0  0
    6.3292   21.3045   52.5077 N   0  0  0  0  0  0  0  0  0  0  0  0
   10.8358   22.0850   53.7778 N   0  0  0  0  0  0  0  0  0  0  0  0
    8.6049   18.5305   48.9458 O   0  0  0  0  0  0  0  0  0  0  0  0
    6.3927   20.1624   53.4311 C   0  0  2  0  0  0  0  0  0  0  0  0
    9.6835   22.4188   53.0920 C   0  0  0  0  0  0  0  0  0  0  0  0
    9.3212   23.7026   53.0332 N   0  0  0  0  0  0  0  0  0  0  0  0
    6.0115   18.7816   53.1504 C   0  0  1  0  0  0  0  0  0  0  0  0
    8.9058   21.3609   52.4662 C   0  0  0  0  0  0  0  0  0  0  0  0
    5.5791   23.1791   53.2072 O   0  0  0  0  0  0  0  0  0  0  0  0
    6.9262   17.6168   53.2896 C   0  0  0  0  0  0  0  0  0  0  0  0
    9.3999   20.0795   52.6034 C   0  0  0  0  0  0  0  0  0  0  0  0
    7.4338   16.9417   52.0886 C   0  0  0  0  0  0  0  0  0  0  0  0
    7.6160   21.6587   51.7412 C   0  0  0  0  0  0  0  0  0  0  0  0
    8.1285   17.8671   51.2344 O   0  0  0  0  0  0  0  0  0  0  0  0
  1  2  1  0  0  0  0
  1  8  2  0  0  0  0
  1 14  1  0  0  0  0
  2  3  2  0  0  0  0
  2  7  1  0  0  0  0
  3  4  1  0  0  0  0
  4  5  2  0  0  0  0
  5  6  1  0  0  0  0
  6  7  2  0  0  0  0
  9 16  1  0  0  0  0
 10 21  1  0  0  0  0
 11 13  1  6  0  0  0
 11 17  1  0  0  0  0
 11 20  2  0  0  0  0
 11 31  1  0  0  0  0
 12 16  2  0  0  0  0
 12 28  1  0  0  0  0
 15 26  1  0  0  0  0
 15 18  1  0  0  0  0
 16 19  1  0  0  0  0
 18 30  1  0  0  0  0
 19 22  2  0  0  0  0
 21 18  1  1  0  0  0
 21 24  1  0  0  0  0
 22 23  1  0  0  0  0
 22 25  1  0  0  0  0
 24 14  1  1  0  0  0
 24 27  1  0  0  0  0
 25 28  2  0  0  0  0
 25 30  1  0  0  0  0
 27 29  1  0  0  0  0
 29 31  1  0  0  0  0
M  CHG  1  17  -1
M  END
>  <CHROM.1>
-102.25178833,145.23699640,91.45684664,105.85585657,-77.58137990,130.33759414
120.75691620,72.48018237,-103.23813596,57.19157072,171.86133411,19.01163494
6.90218073,19.17254380,51.94228880,2.56832529,-0.03779015,-2.57820316

>  <Name>
ligand

>  <RI>
0

>  <Rbt.Current_Directory>
/home/itssahil/PROJECTS/Mol_Feturizer/New_Systems/rnas/2HOO

>  <Rbt.Executable>
rbdock ($Id: //depot/dev/client3/rdock/2013.1/src/exe/rbdock.cxx#4 $)

>  <Rbt.Library>
libRbt.so (2013.1, Build901 2013/11/27)

>  <Rbt.Parameter_File>
/export/apps/rDock/src/rDock_2013.1_src/data/scripts/dock_solv.prm

>  <Rbt.Receptor>
prm/pocket_docking_8.prm

>  <SCORE>
-30.6742

>  <SCORE.INTER>
-18.3886

>  <SCORE.INTER.CONST>
1

>  <SCORE.INTER.POLAR>
0

>  <SCORE.INTER.ROT>
12

>  <SCORE.INTER.SOLV>
20.6515

>  <SCORE.INTER.VDW>
-30.7429

>  <SCORE.INTER.norm>
-0.593181

>  <SCORE.INTRA>
-12.2856

>  <SCORE.INTRA.DIHEDRAL>
4.1776

>  <SCORE.INTRA.DIHEDRAL.0>
14.6094

>  <SCORE.INTRA.POLAR>
0

>  <SCORE.INTRA.POLAR.0>
0

>  <SCORE.INTRA.REPUL>
0

>  <SCORE.INTRA.REPUL.0>
0

>  <SCORE.INTRA.SOLV>
2.26125

>  <SCORE.INTRA.SOLV.lig_0>
-65.6478

>  <SCORE.INTRA.VDW>
-15.505

>  <SCORE.INTRA.VDW.0>
9.35535

>  <SCORE.INTRA.norm>
-0.39631

>  <SCORE.RESTR>
0

>  <SCORE.RESTR.CAVITY>
0

>  <SCORE.RESTR.norm>
0

>  <SCORE.SYSTEM>
0

>  <SCORE.SYSTEM.CONST>
0

>  <SCORE.SYSTEM.DIHEDRAL>
0

>  <SCORE.SYSTEM.SOLV>
0

>  <SCORE.SYSTEM.norm>
0

>  <SCORE.heavy>
31

>  <SCORE.norm>
-0.98949

>  <RMSD>
4.890

$$$$
ligand
 OpenBabel11021811443D
libRbt.so/2013.1/901 2013/11/27
 31 32  0  0  0  0  0  0  0  0999 V2000
    3.2346   18.7853   53.1158 C   0  0  0  0  0  0  0  0  0  0  0  0
    1.7423   19.0968   53.0519 C   0  0  0  0  0  0  0  0  0  0  0  0
    0.8710   18.2796   52.2611 C   0  0  0  0  0  0  0  0  0  0  0  0
   -0.5120   18.5756   52.2031 C   0  0  0  0  0  0  0  0  0  0  0  0
   -1.0441   19.6705   52.9273 C   0  0  0  0  0  0  0  0  0  0  0  0
   -0.2025   20.4815   53.7155 C   0  0  0  0  0  0  0  0  0  0  0  0
    1.1747   20.2050   53.7846 C   0  0  0  0  0  0  0  0  0  0  0  0
    3.6257   17.6247   52.9955 O   0  0  0  0  0  0  0  0  0  0  0  0
   13.5337   19.9356   55.2015 C   0  0  0  0  0  0  0  0  0  0  0  0
    7.3734   19.0082   53.6580 C   0  0  0  0  0  0  0  0  0  0  0  0
    5.0859   16.6621   49.3287 P   0  0  1  0  0  0  0  0  0  0  0  0
   11.8936   21.6100   54.7107 N   0  0  0  0  0  0  0  0  0  0  0  0
    4.9509   17.0287   47.9059 O   0  0  0  0  0  0  0  0  0  0  0  0
    4.1587   19.7973   53.3098 S   0  0  0  0  0  0  0  0  0  0  0  0
    7.0959   22.1737   54.4308 C   0  0  0  0  0  0  0  0  0  0  0  0
   12.3041   20.3106   54.5149 C   0  0  0  0  0  0  0  0  0  0  0  0
    3.9975   15.7914   49.8496 O   0  5  0  0  0  0  0  0  0  0  0  0
    7.4535   21.4757   53.3245 N   0  0  0  0  0  0  0  0  0  0  0  0
   11.6697   19.4519   53.7798 N   0  0  0  0  0  0  0  0  0  0  0  0
    6.4431   16.1313   49.5942 O   0  0  0  0  0  0  0  0  0  0  0  0
    6.7006   20.2332   53.1004 C   0  0  2  0  0  0  0  0  0  0  0  0
   10.5080   19.8161   53.1262 C   0  0  0  0  0  0  0  0  0  0  0  0
    9.8833   18.9069   52.3739 N   0  0  0  0  0  0  0  0  0  0  0  0
    5.4078   20.0952   52.4367 C   0  0  1  0  0  0  0  0  0  0  0  0
   10.0130   21.1756   53.2761 C   0  0  0  0  0  0  0  0  0  0  0  0
    5.9024   22.3727   54.4889 O   0  0  0  0  0  0  0  0  0  0  0  0
    5.2057   20.2092   50.9674 C   0  0  0  0  0  0  0  0  0  0  0  0
   10.7571   22.0083   54.0871 C   0  0  0  0  0  0  0  0  0  0  0  0
    5.7207   19.1609   50.0777 C   0  0  0  0  0  0  0  0  0  0  0  0
    8.7743   21.6442   52.5525 C   0  0  0  0  0  0  0  0  0  0  0  0
    4.9561   17.9504   50.2142 O   0  0  0  0  0  0  0  0  0  0  0  0
  1  2  1  0  0  0  0
  1  8  2  0  0  0  0
  1 14  1  0  0  0  0
  2  3  2  0  0  0  0
  2  7  1  0  0  0  0
  3  4  1  0  0  0  0
  4  5  2  0  0  0  0
  5  6  1  0  0  0  0
  6  7  2  0  0  0  0
  9 16  1  0  0  0  0
 10 21  1  0  0  0  0
 11 13  1  6  0  0  0
 11 17  1  0  0  0  0
 11 20  2  0  0  0  0
 11 31  1  0  0  0  0
 12 16  2  0  0  0  0
 12 28  1  0  0  0  0
 15 26  1  0  0  0  0
 15 18  1  0  0  0  0
 16 19  1  0  0  0  0
 18 30  1  0  0  0  0
 19 22  2  0  0  0  0
 21 18  1  1  0  0  0
 21 24  1  0  0  0  0
 22 23  1  0  0  0  0
 22 25  1  0  0  0  0
 24 14  1  6  0  0  0
 24 27  1  0  0  0  0
 25 28  2  0  0  0  0
 25 30  1  0  0  0  0
 27 29  1  0  0  0  0
 29 31  1  0  0  0  0
M  CHG  1  17  -1
M  END
>  <CHROM.1>
-30.02588188,-127.43669876,-128.61310339,-51.44521837,-94.41476190,68.99198090
72.08553593,-109.50551683,91.33093197,71.06822082,172.66801860,-53.67302860
6.04334119,19.37895499,52.42904105,2.80039900,-0.00974992,-2.31857767

>  <Name>
ligand

>  <RI>
0

>  <Rbt.Current_Directory>
/home/itssahil/PROJECTS/Mol_Feturizer/New_Systems/rnas/2HOO

>  <Rbt.Executable>
rbdock ($Id: //depot/dev/client3/rdock/2013.1/src/exe/rbdock.cxx#4 $)

>  <Rbt.Library>
libRbt.so (2013.1, Build901 2013/11/27)

>  <Rbt.Parameter_File>
/export/apps/rDock/src/rDock_2013.1_src/data/scripts/dock_solv.prm

>  <Rbt.Receptor>
prm/pocket_docking_2.prm

>  <SCORE>
-22.812

>  <SCORE.INTER>
-11.9714

>  <SCORE.INTER.CONST>
1

>  <SCORE.INTER.POLAR>
0

>  <SCORE.INTER.ROT>
12

>  <SCORE.INTER.SOLV>
13.553

>  <SCORE.INTER.VDW>
-24.0986

>  <SCORE.INTER.norm>
-0.386175

>  <SCORE.INTRA>
-10.9246

>  <SCORE.INTRA.DIHEDRAL>
0.27692

>  <SCORE.INTRA.DIHEDRAL.0>
14.6094

>  <SCORE.INTRA.POLAR>
0

>  <SCORE.INTRA.POLAR.0>
0

>  <SCORE.INTRA.REPUL>
0

>  <SCORE.INTRA.REPUL.0>
0

>  <SCORE.INTRA.SOLV>
3.98348

>  <SCORE.INTRA.SOLV.lig_0>
-65.6478

>  <SCORE.INTRA.VDW>
-13.0548

>  <SCORE.INTRA.VDW.0>
9.35535

>  <SCORE.INTRA.norm>
-0.352408

>  <SCORE.RESTR>
0.0840949

>  <SCORE.RESTR.CAVITY>
0.0840949

>  <SCORE.RESTR.norm>
0.00271274

>  <SCORE.SYSTEM>
0

>  <SCORE.SYSTEM.CONST>
0

>  <SCORE.SYSTEM.DIHEDRAL>
0

>  <SCORE.SYSTEM.SOLV>
0

>  <SCORE.SYSTEM.norm>
0

>  <SCORE.heavy>
31

>  <SCORE.norm>
-0.73587

>  <RMSD>
4.949

$$$$
ligand
 OpenBabel11021811443D
libRbt.so/2013.1/901 2013/11/27
 31 32  0  0  0  0  0  0  0  0999 V2000
    1.3405   17.1604   51.9804 C   0  0  0  0  0  0  0  0  0  0  0  0
    1.0404   16.7252   53.4117 C   0  0  0  0  0  0  0  0  0  0  0  0
    2.0933   16.6696   54.3815 C   0  0  0  0  0  0  0  0  0  0  0  0
    1.8092   16.2619   55.7069 C   0  0  0  0  0  0  0  0  0  0  0  0
    0.4892   15.9146   56.0851 C   0  0  0  0  0  0  0  0  0  0  0  0
   -0.5604   15.9693   55.1456 C   0  0  0  0  0  0  0  0  0  0  0  0
   -0.2981   16.3702   53.8233 C   0  0  0  0  0  0  0  0  0  0  0  0
    0.6373   16.7558   51.0551 O   0  0  0  0  0  0  0  0  0  0  0  0
   11.5757   19.0509   53.5724 C   0  0  0  0  0  0  0  0  0  0  0  0
    3.0565   19.7868   54.8901 C   0  0  0  0  0  0  0  0  0  0  0  0
    2.4612   23.7627   52.5556 P   0  0  1  0  0  0  0  0  0  0  0  0
    9.4632   19.6919   54.5001 N   0  0  0  0  0  0  0  0  0  0  0  0
    1.3505   24.4680   51.8880 O   0  0  0  0  0  0  0  0  0  0  0  0
    2.4003   18.0081   51.7083 S   0  0  0  0  0  0  0  0  0  0  0  0
    5.3216   17.7409   53.7039 C   0  0  0  0  0  0  0  0  0  0  0  0
   10.1524   19.2954   53.3763 C   0  0  0  0  0  0  0  0  0  0  0  0
    3.4891   23.2116   51.6315 O   0  5  0  0  0  0  0  0  0  0  0  0
    5.0308   19.0573   53.5574 N   0  0  0  0  0  0  0  0  0  0  0  0
    9.6099   19.1393   52.2095 N   0  0  0  0  0  0  0  0  0  0  0  0
    3.0289   24.6055   53.6334 O   0  0  0  0  0  0  0  0  0  0  0  0
    3.5971   19.3819   53.5455 C   0  0  2  0  0  0  0  0  0  0  0  0
    8.2612   19.3794   52.0291 C   0  0  0  0  0  0  0  0  0  0  0  0
    7.7370   19.2127   50.8123 N   0  0  0  0  0  0  0  0  0  0  0  0
    2.7014   19.3689   52.3929 C   0  0  1  0  0  0  0  0  0  0  0  0
    7.4649   19.8103   53.1675 C   0  0  0  0  0  0  0  0  0  0  0  0
    6.1461   17.5408   54.5685 O   0  0  0  0  0  0  0  0  0  0  0  0
    2.0618   20.5823   51.8172 C   0  0  0  0  0  0  0  0  0  0  0  0
    8.1362   19.9376   54.3666 C   0  0  0  0  0  0  0  0  0  0  0  0
    1.1786   21.4060   52.6522 C   0  0  0  0  0  0  0  0  0  0  0  0
    5.9969   20.1296   53.0227 C   0  0  0  0  0  0  0  0  0  0  0  0
    1.9102   22.4793   53.2699 O   0  0  0  0  0  0  0  0  0  0  0  0
  1  2  1  0  0  0  0
  1  8  2  0  0  0  0
  1 14  1  0  0  0  0
  2  3  2  0  0  0  0
  2  7  1  0  0  0  0
  3  4  1  0  0  0  0
  4  5  2  0  0  0  0
  5  6  1  0  0  0  0
  6  7  2  0  0  0  0
  9 16  1  0  0  0  0
 10 21  1  0  0  0  0
 11 13  1  6  0  0  0
 11 17  1  0  0  0  0
 11 20  2  0  0  0  0
 11 31  1  0  0  0  0
 12 16  2  0  0  0  0
 12 28  1  0  0  0  0
 15 26  1  0  0  0  0
 15 18  1  0  0  0  0
 16 19  1  0  0  0  0
 18 30  1  0  0  0  0
 19 22  2  0  0  0  0
 21 18  1  6  0  0  0
 21 24  1  0  0  0  0
 22 23  1  0  0  0  0
 22 25  1  0  0  0  0
 24 14  1  6  0  0  0
 24 27  1  0  0  0  0
 25 28  2  0  0  0  0
 25 30  1  0  0  0  0
 27 29  1  0  0  0  0
 29 31  1  0  0  0  0
M  CHG  1  17  -1
M  END
>  <CHROM.1>
152.65697733,-51.34445087,92.91186243,-130.51633143,94.90360355,-23.83875214
-115.31695170,121.02092789,103.92684379,93.30080451,72.73473241,56.57657332
4.02693870,19.57112583,53.11191826,-3.04932591,-0.01176269,-0.20944973

>  <Name>
ligand

>  <RI>
0

>  <Rbt.Current_Directory>
/home/itssahil/PROJECTS/Mol_Feturizer/New_Systems/rnas/2HOO

>  <Rbt.Executable>
rbdock ($Id: //depot/dev/client3/rdock/2013.1/src/exe/rbdock.cxx#4 $)

>  <Rbt.Library>
libRbt.so (2013.1, Build901 2013/11/27)

>  <Rbt.Parameter_File>
/export/apps/rDock/src/rDock_2013.1_src/data/scripts/dock_solv.prm

>  <Rbt.Receptor>
prm/pocket_docking_6.prm

>  <SCORE>
-23.1232

>  <SCORE.INTER>
-11.3302

>  <SCORE.INTER.CONST>
1

>  <SCORE.INTER.POLAR>
0

>  <SCORE.INTER.ROT>
12

>  <SCORE.INTER.SOLV>
13.4183

>  <SCORE.INTER.VDW>
-23.6263

>  <SCORE.INTER.norm>
-0.365492

>  <SCORE.INTRA>
-11.793

>  <SCORE.INTRA.DIHEDRAL>
3.82073

>  <SCORE.INTRA.DIHEDRAL.0>
14.6094

>  <SCORE.INTRA.POLAR>
0

>  <SCORE.INTRA.POLAR.0>
0

>  <SCORE.INTRA.REPUL>
0

>  <SCORE.INTRA.REPUL.0>
0

>  <SCORE.INTRA.SOLV>
2.03229

>  <SCORE.INTRA.SOLV.lig_0>
-65.6478

>  <SCORE.INTRA.VDW>
-14.7195

>  <SCORE.INTRA.VDW.0>
9.35535

>  <SCORE.INTRA.norm>
-0.380419

>  <SCORE.RESTR>
0

>  <SCORE.RESTR.CAVITY>
0

>  <SCORE.RESTR.norm>
0

>  <SCORE.SYSTEM>
0

>  <SCORE.SYSTEM.CONST>
0

>  <SCORE.SYSTEM.DIHEDRAL>
0

>  <SCORE.SYSTEM.SOLV>
0

>  <SCORE.SYSTEM.norm>
0

>  <SCORE.heavy>
31

>  <SCORE.norm>
-0.745911

>  <RMSD>
4.965

$$$$
ligand
 OpenBabel11021811443D
libRbt.so/2013.1/901 2013/11/27
 31 32  0  0  0  0  0  0  0  0999 V2000
    3.3769   16.3192   49.8921 C   0  0  0  0  0  0  0  0  0  0  0  0
    2.3756   15.3988   49.2004 C   0  0  0  0  0  0  0  0  0  0  0  0
    1.1407   15.0660   49.8459 C   0  0  0  0  0  0  0  0  0  0  0  0
    0.2173   14.2090   49.2005 C   0  0  0  0  0  0  0  0  0  0  0  0
    0.5010   13.6824   47.9165 C   0  0  0  0  0  0  0  0  0  0  0  0
    1.7084   14.0042   47.2639 C   0  0  0  0  0  0  0  0  0  0  0  0
    2.6396   14.8525   47.8893 C   0  0  0  0  0  0  0  0  0  0  0  0
    4.5562   15.9814   49.9895 O   0  0  0  0  0  0  0  0  0  0  0  0
    7.9618   26.1300   52.3912 C   0  0  0  0  0  0  0  0  0  0  0  0
    5.6392   19.3927   50.4431 C   0  0  0  0  0  0  0  0  0  0  0  0
    1.1041   17.7162   56.1149 P   0  0  1  0  0  0  0  0  0  0  0  0
    7.4092   23.8929   51.7397 N   0  0  0  0  0  0  0  0  0  0  0  0
    1.0081   19.1406   56.4870 O   0  0  0  0  0  0  0  0  0  0  0  0
    2.9727   17.5351   50.4155 S   0  0  0  0  0  0  0  0  0  0  0  0
    2.9912   21.4325   51.2392 C   0  0  0  0  0  0  0  0  0  0  0  0
    7.1306   24.9477   52.5793 C   0  0  0  0  0  0  0  0  0  0  0  0
    1.5773   16.8218   57.2059 O   0  5  0  0  0  0  0  0  0  0  0  0
    4.1203   20.8774   51.7450 N   0  0  0  0  0  0  0  0  0  0  0  0
    6.2035   24.9293   53.4850 N   0  0  0  0  0  0  0  0  0  0  0  0
   -0.1600   17.2641   55.4889 O   0  0  0  0  0  0  0  0  0  0  0  0
    4.4004   19.5081   51.2894 C   0  0  2  0  0  0  0  0  0  0  0  0
    5.4235   23.8026   53.6626 C   0  0  0  0  0  0  0  0  0  0  0  0
    4.4807   23.8175   54.6080 N   0  0  0  0  0  0  0  0  0  0  0  0
    3.6309   18.3052   51.5923 C   0  0  1  0  0  0  0  0  0  0  0  0
    5.6620   22.6418   52.8191 C   0  0  0  0  0  0  0  0  0  0  0  0
    1.9901   21.0381   51.7958 O   0  0  0  0  0  0  0  0  0  0  0  0
    3.4223   17.7693   52.9642 C   0  0  0  0  0  0  0  0  0  0  0  0
    6.6660   22.7673   51.8805 C   0  0  0  0  0  0  0  0  0  0  0  0
    2.3085   18.2691   53.7799 C   0  0  0  0  0  0  0  0  0  0  0  0
    4.8720   21.3679   52.9953 C   0  0  0  0  0  0  0  0  0  0  0  0
    2.2074   17.5374   55.0141 O   0  0  0  0  0  0  0  0  0  0  0  0
  1  2  1  0  0  0  0
  1  8  2  0  0  0  0
  1 14  1  0  0  0  0
  2  3  2  0  0  0  0
  2  7  1  0  0  0  0
  3  4  1  0  0  0  0
  4  5  2  0  0  0  0
  5  6  1  0  0  0  0
  6  7  2  0  0  0  0
  9 16  1  0  0  0  0
 10 21  1  0  0  0  0
 11 13  1  1  0  0  0
 11 17  1  0  0  0  0
 11 20  2  0  0  0  0
 11 31  1  0  0  0  0
 12 16  2  0  0  0  0
 12 28  1  0  0  0  0
 15 26  1  0  0  0  0
 15 18  1  0  0  0  0
 16 19  1  0  0  0  0
 18 30  1  0  0  0  0
 19 22  2  0  0  0  0
 21 18  1  1  0  0  0
 21 24  1  0  0  0  0
 22 23  1  0  0  0  0
 22 25  1  0  0  0  0
 24 14  1  1  0  0  0
 24 27  1  0  0  0  0
 25 28  2  0  0  0  0
 25 30  1  0  0  0  0
 27 29  1  0  0  0  0
 29 31  1  0  0  0  0
M  CHG  1  17  -1
M  END
>  <CHROM.1>
129.44557161,153.31624294,107.09933787,78.53776457,113.93653837,-74.06381835
-63.16831833,-92.95492598,123.15397392,174.55549190,-176.42407648,-51.95541020
3.39957166,19.16071684,52.26501027,-2.40655176,0.91503326,0.99908505

>  <Name>
ligand

>  <RI>
0

>  <Rbt.Current_Directory>
/home/itssahil/PROJECTS/Mol_Feturizer/New_Systems/rnas/2HOO

>  <Rbt.Executable>
rbdock ($Id: //depot/dev/client3/rdock/2013.1/src/exe/rbdock.cxx#4 $)

>  <Rbt.Library>
libRbt.so (2013.1, Build901 2013/11/27)

>  <Rbt.Parameter_File>
/export/apps/rDock/src/rDock_2013.1_src/data/scripts/dock_solv.prm

>  <Rbt.Receptor>
prm/pocket_docking_7.prm

>  <SCORE>
-31.8112

>  <SCORE.INTER>
-17.4355

>  <SCORE.INTER.CONST>
1

>  <SCORE.INTER.POLAR>
0

>  <SCORE.INTER.ROT>
12

>  <SCORE.INTER.SOLV>
16.4278

>  <SCORE.INTER.VDW>
-28.6996

>  <SCORE.INTER.norm>
-0.562436

>  <SCORE.INTRA>
-14.3757

>  <SCORE.INTRA.DIHEDRAL>
-0.830407

>  <SCORE.INTRA.DIHEDRAL.0>
14.6094

>  <SCORE.INTRA.POLAR>
0

>  <SCORE.INTRA.POLAR.0>
0

>  <SCORE.INTRA.REPUL>
0

>  <SCORE.INTRA.REPUL.0>
0

>  <SCORE.INTRA.SOLV>
0.0489535

>  <SCORE.INTRA.SOLV.lig_0>
-65.6478

>  <SCORE.INTRA.VDW>
-13.985

>  <SCORE.INTRA.VDW.0>
9.35535

>  <SCORE.INTRA.norm>
-0.463732

>  <SCORE.RESTR>
0

>  <SCORE.RESTR.CAVITY>
0

>  <SCORE.RESTR.norm>
0

>  <SCORE.SYSTEM>
0

>  <SCORE.SYSTEM.CONST>
0

>  <SCORE.SYSTEM.DIHEDRAL>
0

>  <SCORE.SYSTEM.SOLV>
0

>  <SCORE.SYSTEM.norm>
0

>  <SCORE.heavy>
31

>  <SCORE.norm>
-1.02617

>  <RMSD>
4.970

$$$$
ligand
 OpenBabel11021811443D
libRbt.so/2013.1/901 2013/11/27
 31 32  0  0  0  0  0  0  0  0999 V2000
    3.3047   20.5495   53.5551 C   0  0  0  0  0  0  0  0  0  0  0  0
    2.2215   19.5002   53.3236 C   0  0  0  0  0  0  0  0  0  0  0  0
    1.4970   19.4759   52.0880 C   0  0  0  0  0  0  0  0  0  0  0  0
    0.4908   18.5021   51.8805 C   0  0  0  0  0  0  0  0  0  0  0  0
    0.1985   17.5452   52.8830 C   0  0  0  0  0  0  0  0  0  0  0  0
    0.9056   17.5503   54.1025 C   0  0  0  0  0  0  0  0  0  0  0  0
    1.9076   18.5109   54.3286 C   0  0  0  0  0  0  0  0  0  0  0  0
    2.9950   21.6796   53.9310 O   0  0  0  0  0  0  0  0  0  0  0  0
   13.6329   19.8335   54.8261 C   0  0  0  0  0  0  0  0  0  0  0  0
    6.9772   17.7904   52.4074 C   0  0  0  0  0  0  0  0  0  0  0  0
    6.0441   16.9269   48.4703 P   0  0  1  0  0  0  0  0  0  0  0  0
   12.0051   21.3067   53.8698 N   0  0  0  0  0  0  0  0  0  0  0  0
    7.1571   17.3179   47.5842 O   0  0  0  0  0  0  0  0  0  0  0  0
    4.6384   20.2447   53.3451 S   0  0  0  0  0  0  0  0  0  0  0  0
    8.1941   20.2439   50.5734 C   0  0  0  0  0  0  0  0  0  0  0  0
   12.2565   20.0639   54.4060 C   0  0  0  0  0  0  0  0  0  0  0  0
    4.7777   16.5939   47.7635 O   0  5  0  0  0  0  0  0  0  0  0  0
    7.8495   20.0618   51.8722 N   0  0  0  0  0  0  0  0  0  0  0  0
   11.3600   19.1380   54.5441 N   0  0  0  0  0  0  0  0  0  0  0  0
    6.4865   15.8743   49.4140 O   0  0  0  0  0  0  0  0  0  0  0  0
    6.6595   19.2267   52.0907 C   0  0  2  0  0  0  0  0  0  0  0  0
   10.0583   19.3607   54.1374 C   0  0  0  0  0  0  0  0  0  0  0  0
    9.1621   18.3828   54.2908 N   0  0  0  0  0  0  0  0  0  0  0  0
    5.2647   19.6553   52.0523 C   0  0  1  0  0  0  0  0  0  0  0  0
    9.7143   20.6473   53.5525 C   0  0  0  0  0  0  0  0  0  0  0  0
    7.5386   21.1092   50.0358 O   0  0  0  0  0  0  0  0  0  0  0  0
    4.3914   19.5536   50.8523 C   0  0  0  0  0  0  0  0  0  0  0  0
   10.7393   21.5667   53.4583 C   0  0  0  0  0  0  0  0  0  0  0  0
    4.3858   18.3187   50.0580 C   0  0  0  0  0  0  0  0  0  0  0  0
    8.3202   20.9335   53.0500 C   0  0  0  0  0  0  0  0  0  0  0  0
    5.6340   18.1492   49.3639 O   0  0  0  0  0  0  0  0  0  0  0  0
  1  2  1  0  0  0  0
  1  8  2  0  0  0  0
  1 14  1  0  0  0  0
  2  3  2  0  0  0  0
  2  7  1  0  0  0  0
  3  4  1  0  0  0  0
  4  5  2  0  0  0  0
  5  6  1  0  0  0  0
  6  7  2  0  0  0  0
  9 16  1  0  0  0  0
 10 21  1  0  0  0  0
 11 13  1  6  0  0  0
 11 17  1  0  0  0  0
 11 20  2  0  0  0  0
 11 31  1  0  0  0  0
 12 16  2  0  0  0  0
 12 28  1  0  0  0  0
 15 26  1  0  0  0  0
 15 18  1  0  0  0  0
 16 19  1  0  0  0  0
 18 30  1  0  0  0  0
 19 22  2  0  0  0  0
 21 18  1  1  0  0  0
 21 24  1  0  0  0  0
 22 23  1  0  0  0  0
 22 25  1  0  0  0  0
 24 14  1  1  0  0  0
 24 27  1  0  0  0  0
 25 28  2  0  0  0  0
 25 30  1  0  0  0  0
 27 29  1  0  0  0  0
 29 31  1  0  0  0  0
M  CHG  1  17  -1
M  END
>  <CHROM.1>
82.43771188,53.89721649,-171.45577949,81.12805060,97.29822146,-79.08630404
93.03927313,-134.44232134,-63.47093526,-69.11269932,176.89564017,160.59305519
6.34500276,19.13860713,51.98696711,2.84152405,-0.06206199,-2.06261507

>  <Name>
ligand

>  <RI>
0

>  <Rbt.Current_Directory>
/home/itssahil/PROJECTS/Mol_Feturizer/New_Systems/rnas/2HOO

>  <Rbt.Executable>
rbdock ($Id: //depot/dev/client3/rdock/2013.1/src/exe/rbdock.cxx#4 $)

>  <Rbt.Library>
libRbt.so (2013.1, Build901 2013/11/27)

>  <Rbt.Parameter_File>
/export/apps/rDock/src/rDock_2013.1_src/data/scripts/dock_solv.prm

>  <Rbt.Receptor>
prm/pocket_docking_2.prm

>  <SCORE>
-23.5692

>  <SCORE.INTER>
-12.9741

>  <SCORE.INTER.CONST>
1

>  <SCORE.INTER.POLAR>
0

>  <SCORE.INTER.ROT>
12

>  <SCORE.INTER.SOLV>
16.238

>  <SCORE.INTER.VDW>
-25.6621

>  <SCORE.INTER.norm>
-0.41852

>  <SCORE.INTRA>
-11.5548

>  <SCORE.INTRA.DIHEDRAL>
1.73531

>  <SCORE.INTRA.DIHEDRAL.0>
14.6094

>  <SCORE.INTRA.POLAR>
0

>  <SCORE.INTRA.POLAR.0>
0

>  <SCORE.INTRA.REPUL>
0

>  <SCORE.INTRA.REPUL.0>
0

>  <SCORE.INTRA.SOLV>
5.63941

>  <SCORE.INTRA.SOLV.lig_0>
-65.6478

>  <SCORE.INTRA.VDW>
-15.2422

>  <SCORE.INTRA.VDW.0>
9.35535

>  <SCORE.INTRA.norm>
-0.372735

>  <SCORE.RESTR>
0.959683

>  <SCORE.RESTR.CAVITY>
0.959683

>  <SCORE.RESTR.norm>
0.0309575

>  <SCORE.SYSTEM>
0

>  <SCORE.SYSTEM.CONST>
0

>  <SCORE.SYSTEM.DIHEDRAL>
0

>  <SCORE.SYSTEM.SOLV>
0

>  <SCORE.SYSTEM.norm>
0

>  <SCORE.heavy>
31

>  <SCORE.norm>
-0.760297

>  <RMSD>
4.980

$$$$
ligand
 OpenBabel11021811443D
libRbt.so/2013.1/901 2013/11/27
 31 32  0  0  0  0  0  0  0  0999 V2000
    2.6523   21.2204   52.1892 C   0  0  0  0  0  0  0  0  0  0  0  0
    1.8984   20.0668   52.8440 C   0  0  0  0  0  0  0  0  0  0  0  0
    1.2612   19.0726   52.0330 C   0  0  0  0  0  0  0  0  0  0  0  0
    0.5604   18.0065   52.6463 C   0  0  0  0  0  0  0  0  0  0  0  0
    0.4897   17.9101   54.0577 C   0  0  0  0  0  0  0  0  0  0  0  0
    1.1160   18.8760   54.8714 C   0  0  0  0  0  0  0  0  0  0  0  0
    1.8155   19.9438   54.2811 C   0  0  0  0  0  0  0  0  0  0  0  0
    2.1908   22.3603   52.2349 O   0  0  0  0  0  0  0  0  0  0  0  0
   13.2498   19.8984   54.6947 C   0  0  0  0  0  0  0  0  0  0  0  0
    5.8163   19.4572   53.9268 C   0  0  0  0  0  0  0  0  0  0  0  0
    5.3952   15.5827   48.5321 P   0  0  1  0  0  0  0  0  0  0  0  0
   11.1075   19.2573   53.8379 N   0  0  0  0  0  0  0  0  0  0  0  0
    6.6940   15.2034   49.1201 O   0  0  0  0  0  0  0  0  0  0  0  0
    3.8544   20.9993   51.5398 S   0  0  0  0  0  0  0  0  0  0  0  0
    7.6431   19.6582   50.7972 C   0  0  0  0  0  0  0  0  0  0  0  0
   11.9348   20.2941   54.2063 C   0  0  0  0  0  0  0  0  0  0  0  0
    5.4908   16.3160   47.2408 O   0  5  0  0  0  0  0  0  0  0  0  0
    7.2993   20.1019   52.0317 N   0  0  0  0  0  0  0  0  0  0  0  0
   11.6047   21.5457   54.1383 N   0  0  0  0  0  0  0  0  0  0  0  0
    4.4951   14.4075   48.4770 O   0  0  0  0  0  0  0  0  0  0  0  0
    5.9338   19.7634   52.4583 C   0  0  2  0  0  0  0  0  0  0  0  0
   10.3539   21.9136   53.6806 C   0  0  0  0  0  0  0  0  0  0  0  0
   10.0463   23.2119   53.6282 N   0  0  0  0  0  0  0  0  0  0  0  0
    4.7359   19.7238   51.6250 C   0  0  1  0  0  0  0  0  0  0  0  0
    9.4178   20.8749   53.2798 C   0  0  0  0  0  0  0  0  0  0  0  0
    7.4362   20.4819   49.9333 O   0  0  0  0  0  0  0  0  0  0  0  0
    4.2917   18.5309   50.8552 C   0  0  0  0  0  0  0  0  0  0  0  0
    9.8703   19.5751   53.3824 C   0  0  0  0  0  0  0  0  0  0  0  0
    5.2317   17.8555   49.9520 C   0  0  0  0  0  0  0  0  0  0  0  0
    8.0228   21.2130   52.8131 C   0  0  0  0  0  0  0  0  0  0  0  0
    4.6803   16.6180   49.4691 O   0  0  0  0  0  0  0  0  0  0  0  0
  1  2  1  0  0  0  0
  1  8  2  0  0  0  0
  1 14  1  0  0  0  0
  2  3  2  0  0  0  0
  2  7  1  0  0  0  0
  3  4  1  0  0  0  0
  4  5  2  0  0  0  0
  5  6  1  0  0  0  0
  6  7  2  0  0  0  0
  9 16  1  0  0  0  0
 10 21  1  0  0  0  0
 11 13  1  1  0  0  0
 11 17  1  0  0  0  0
 11 20  2  0  0  0  0
 11 31  1  0  0  0  0
 12 16  2  0  0  0  0
 12 28  1  0  0  0  0
 15 26  1  0  0  0  0
 15 18  1  0  0  0  0
 16 19  1  0  0  0  0
 18 30  1  0  0  0  0
 19 22  2  0  0  0  0
 21 18  1  1  0  0  0
 21 24  1  0  0  0  0
 22 23  1  0  0  0  0
 22 25  1  0  0  0  0
 24 14  1  1  0  0  0
 24 27  1  0  0  0  0
 25 28  2  0  0  0  0
 25 30  1  0  0  0  0
 27 29  1  0  0  0  0
 29 31  1  0  0  0  0
M  CHG  1  17  -1
M  END
>  <CHROM.1>
109.21257437,-13.84164404,-102.81557481,92.89176351,144.03096252,-68.05234421
85.88326331,128.43013027,162.24103111,171.00759078,-177.41467064,53.85130040
5.97188238,19.21041877,51.81394923,2.67717123,-0.00775608,-2.38805505

>  <Name>
ligand

>  <RI>
0

>  <Rbt.Current_Directory>
/home/itssahil/PROJECTS/Mol_Feturizer/New_Systems/rnas/2HOO

>  <Rbt.Executable>
rbdock ($Id: //depot/dev/client3/rdock/2013.1/src/exe/rbdock.cxx#4 $)

>  <Rbt.Library>
libRbt.so (2013.1, Build901 2013/11/27)

>  <Rbt.Parameter_File>
/export/apps/rDock/src/rDock_2013.1_src/data/scripts/dock_solv.prm

>  <Rbt.Receptor>
prm/pocket_docking_2.prm

>  <SCORE>
-28.3074

>  <SCORE.INTER>
-14.9681

>  <SCORE.INTER.CONST>
1

>  <SCORE.INTER.POLAR>
0

>  <SCORE.INTER.ROT>
12

>  <SCORE.INTER.SOLV>
14.7415

>  <SCORE.INTER.VDW>
-26.4925

>  <SCORE.INTER.norm>
-0.48284

>  <SCORE.INTRA>
-14.5313

>  <SCORE.INTRA.DIHEDRAL>
-2.01223

>  <SCORE.INTRA.DIHEDRAL.0>
14.6094

>  <SCORE.INTRA.POLAR>
0

>  <SCORE.INTRA.POLAR.0>
0

>  <SCORE.INTRA.REPUL>
0

>  <SCORE.INTRA.REPUL.0>
0

>  <SCORE.INTRA.SOLV>
-1.11898

>  <SCORE.INTRA.SOLV.lig_0>
-65.6478

>  <SCORE.INTRA.VDW>
-12.9657

>  <SCORE.INTRA.VDW.0>
9.35535

>  <SCORE.INTRA.norm>
-0.468753

>  <SCORE.RESTR>
1.19198

>  <SCORE.RESTR.CAVITY>
1.19198

>  <SCORE.RESTR.norm>
0.0384511

>  <SCORE.SYSTEM>
0

>  <SCORE.SYSTEM.CONST>
0

>  <SCORE.SYSTEM.DIHEDRAL>
0

>  <SCORE.SYSTEM.SOLV>
0

>  <SCORE.SYSTEM.norm>
0

>  <SCORE.heavy>
31

>  <SCORE.norm>
-0.913142

>  <RMSD>
5.002

$$$$
ligand
 OpenBabel11021811443D
libRbt.so/2013.1/901 2013/11/27
 31 32  0  0  0  0  0  0  0  0999 V2000
    4.5602   18.0517   52.1335 C   0  0  0  0  0  0  0  0  0  0  0  0
    3.4392   17.6393   53.0828 C   0  0  0  0  0  0  0  0  0  0  0  0
    3.5871   17.8297   54.4949 C   0  0  0  0  0  0  0  0  0  0  0  0
    2.5449   17.4420   55.3709 C   0  0  0  0  0  0  0  0  0  0  0  0
    1.3520   16.8730   54.8617 C   0  0  0  0  0  0  0  0  0  0  0  0
    1.1867   16.6839   53.4746 C   0  0  0  0  0  0  0  0  0  0  0  0
    2.2113   17.0609   52.5880 C   0  0  0  0  0  0  0  0  0  0  0  0
    4.3076   18.7462   51.1495 O   0  0  0  0  0  0  0  0  0  0  0  0
   13.8859   18.8771   54.9700 C   0  0  0  0  0  0  0  0  0  0  0  0
    7.2624   20.6784   50.8706 C   0  0  0  0  0  0  0  0  0  0  0  0
    5.6015   15.1933   48.9436 P   0  0  1  0  0  0  0  0  0  0  0  0
   11.6774   18.7164   54.0583 N   0  0  0  0  0  0  0  0  0  0  0  0
    4.8946   14.4321   49.9913 O   0  0  0  0  0  0  0  0  0  0  0  0
    5.8645   17.6510   52.3657 S   0  0  0  0  0  0  0  0  0  0  0  0
    7.2508   19.7770   54.3973 C   0  0  0  0  0  0  0  0  0  0  0  0
   12.6685   19.5471   54.5306 C   0  0  0  0  0  0  0  0  0  0  0  0
    6.6078   14.4073   48.1796 O   0  5  0  0  0  0  0  0  0  0  0  0
    7.7786   20.3451   53.2849 N   0  0  0  0  0  0  0  0  0  0  0  0
   12.5644   20.8374   54.5956 N   0  0  0  0  0  0  0  0  0  0  0  0
    4.6281   15.9016   48.0803 O   0  0  0  0  0  0  0  0  0  0  0  0
    7.3900   19.7116   52.0165 C   0  0  2  0  0  0  0  0  0  0  0  0
   11.4047   21.4657   54.1836 C   0  0  0  0  0  0  0  0  0  0  0  0
   11.3308   22.7962   54.2689 N   0  0  0  0  0  0  0  0  0  0  0  0
    7.1519   18.2911   51.7791 C   0  0  1  0  0  0  0  0  0  0  0  0
   10.3068   20.6557   53.6792 C   0  0  0  0  0  0  0  0  0  0  0  0
    6.0683   20.0090   54.5210 O   0  0  0  0  0  0  0  0  0  0  0  0
    8.0723   17.4048   51.0174 C   0  0  0  0  0  0  0  0  0  0  0  0
   10.5223   19.2930   53.6432 C   0  0  0  0  0  0  0  0  0  0  0  0
    7.5839   16.1211   50.4983 C   0  0  0  0  0  0  0  0  0  0  0  0
    9.0001   21.2811   53.2557 C   0  0  0  0  0  0  0  0  0  0  0  0
    6.4695   16.3170   49.6105 O   0  0  0  0  0  0  0  0  0  0  0  0
  1  2  1  0  0  0  0
  1  8  2  0  0  0  0
  1 14  1  0  0  0  0
  2  3  2  0  0  0  0
  2  7  1  0  0  0  0
  3  4  1  0  0  0  0
  4  5  2  0  0  0  0
  5  6  1  0  0  0  0
  6  7  2  0  0  0  0
  9 16  1  0  0  0  0
 10 21  1  0  0  0  0
 11 13  1  1  0  0  0
 11 17  1  0  0  0  0
 11 20  2  0  0  0  0
 11 31  1  0  0  0  0
 12 16  2  0  0  0  0
 12 28  1  0  0  0  0
 15 26  1  0  0  0  0
 15 18  1  0  0  0  0
 16 19  1  0  0  0  0
 18 30  1  0  0  0  0
 19 22  2  0  0  0  0
 21 18  1  6  0  0  0
 21 24  1  0  0  0  0
 22 23  1  0  0  0  0
 22 25  1  0  0  0  0
 24 14  1  1  0  0  0
 24 27  1  0  0  0  0
 25 28  2  0  0  0  0
 25 30  1  0  0  0  0
 27 29  1  0  0  0  0
 29 31  1  0  0  0  0
M  CHG  1  17  -1
M  END
>  <CHROM.1>
-130.21341688,-160.71136039,56.90539610,-72.58900291,146.36224833,64.59800041
-109.04822097,18.39245273,-156.55262162,58.68458684,-174.87597045,63.80756825
7.00328711,18.19813181,52.31928871,2.54310494,-0.20037136,-2.22131009

>  <Name>
ligand

>  <RI>
0

>  <Rbt.Current_Directory>
/home/itssahil/PROJECTS/Mol_Feturizer/New_Systems/rnas/2HOO

>  <Rbt.Executable>
rbdock ($Id: //depot/dev/client3/rdock/2013.1/src/exe/rbdock.cxx#4 $)

>  <Rbt.Library>
libRbt.so (2013.1, Build901 2013/11/27)

>  <Rbt.Parameter_File>
/export/apps/rDock/src/rDock_2013.1_src/data/scripts/dock_solv.prm

>  <Rbt.Receptor>
prm/pocket_docking_3.prm

>  <SCORE>
-31.4345

>  <SCORE.INTER>
-18.9741

>  <SCORE.INTER.CONST>
1

>  <SCORE.INTER.POLAR>
0

>  <SCORE.INTER.ROT>
12

>  <SCORE.INTER.SOLV>
20.6467

>  <SCORE.INTER.VDW>
-31.1316

>  <SCORE.INTER.norm>
-0.612068

>  <SCORE.INTRA>
-12.4627

>  <SCORE.INTRA.DIHEDRAL>
-0.638498

>  <SCORE.INTRA.DIHEDRAL.0>
14.6094

>  <SCORE.INTRA.POLAR>
0

>  <SCORE.INTRA.POLAR.0>
0

>  <SCORE.INTRA.REPUL>
0

>  <SCORE.INTRA.REPUL.0>
0

>  <SCORE.INTRA.SOLV>
0.679172

>  <SCORE.INTRA.SOLV.lig_0>
-65.6478

>  <SCORE.INTRA.VDW>
-12.4831

>  <SCORE.INTRA.VDW.0>
9.35535

>  <SCORE.INTRA.norm>
-0.402024

>  <SCORE.RESTR>
0.00230583

>  <SCORE.RESTR.CAVITY>
0.00230583

>  <SCORE.RESTR.norm>
7.43817e-05

>  <SCORE.SYSTEM>
0

>  <SCORE.SYSTEM.CONST>
0

>  <SCORE.SYSTEM.DIHEDRAL>
0

>  <SCORE.SYSTEM.SOLV>
0

>  <SCORE.SYSTEM.norm>
0

>  <SCORE.heavy>
31

>  <SCORE.norm>
-1.01402

>  <RMSD>
5.011

$$$$
ligand
 OpenBabel11021811443D
libRbt.so/2013.1/901 2013/11/27
 31 32  0  0  0  0  0  0  0  0999 V2000
    3.4145   21.9453   52.5268 C   0  0  0  0  0  0  0  0  0  0  0  0
    3.6269   21.6978   54.0173 C   0  0  0  0  0  0  0  0  0  0  0  0
    2.7498   20.8189   54.7319 C   0  0  0  0  0  0  0  0  0  0  0  0
    2.9499   20.5959   56.1153 C   0  0  0  0  0  0  0  0  0  0  0  0
    4.0163   21.2297   56.7990 C   0  0  0  0  0  0  0  0  0  0  0  0
    4.8928   22.0928   56.1106 C   0  0  0  0  0  0  0  0  0  0  0  0
    4.7095   22.3288   54.7363 C   0  0  0  0  0  0  0  0  0  0  0  0
    2.9120   23.0018   52.1451 O   0  0  0  0  0  0  0  0  0  0  0  0
   12.8000   19.8573   54.0645 C   0  0  0  0  0  0  0  0  0  0  0  0
    6.6619   19.6237   50.9432 C   0  0  0  0  0  0  0  0  0  0  0  0
    2.3592   14.8183   50.8852 P   0  0  1  0  0  0  0  0  0  0  0  0
   10.6973   18.7303   54.2722 N   0  0  0  0  0  0  0  0  0  0  0  0
    1.7367   13.8985   51.8564 O   0  0  0  0  0  0  0  0  0  0  0  0
    3.7806   20.9907   51.5939 S   0  0  0  0  0  0  0  0  0  0  0  0
    6.6084   17.5234   53.3370 C   0  0  0  0  0  0  0  0  0  0  0  0
   11.3442   19.9279   54.0661 C   0  0  0  0  0  0  0  0  0  0  0  0
    3.7582   14.4728   50.5141 O   0  5  0  0  0  0  0  0  0  0  0  0
    6.3853   18.8605   53.2985 N   0  0  0  0  0  0  0  0  0  0  0  0
   10.7376   21.0585   53.8828 N   0  0  0  0  0  0  0  0  0  0  0  0
    1.4692   15.0079   49.7163 O   0  0  0  0  0  0  0  0  0  0  0  0
    5.7183   19.3469   52.0822 C   0  0  2  0  0  0  0  0  0  0  0  0
    9.3572   21.1195   53.8922 C   0  0  0  0  0  0  0  0  0  0  0  0
    8.7659   22.3019   53.7044 N   0  0  0  0  0  0  0  0  0  0  0  0
    4.2864   19.5519   51.8859 C   0  0  1  0  0  0  0  0  0  0  0  0
    8.6005   19.8969   54.1125 C   0  0  0  0  0  0  0  0  0  0  0  0
    7.5555   17.1908   52.6589 O   0  0  0  0  0  0  0  0  0  0  0  0
    3.2688   18.4693   51.9593 C   0  0  0  0  0  0  0  0  0  0  0  0
    9.3414   18.7458   54.2884 C   0  0  0  0  0  0  0  0  0  0  0  0
    3.4091   17.2790   51.1111 C   0  0  0  0  0  0  0  0  0  0  0  0
    7.0926   19.9079   54.1769 C   0  0  0  0  0  0  0  0  0  0  0  0
    2.5111   16.2383   51.5344 O   0  0  0  0  0  0  0  0  0  0  0  0
  1  2  1  0  0  0  0
  1  8  2  0  0  0  0
  1 14  1  0  0  0  0
  2  3  2  0  0  0  0
  2  7  1  0  0  0  0
  3  4  1  0  0  0  0
  4  5  2  0  0  0  0
  5  6  1  0  0  0  0
  6  7  2  0  0  0  0
  9 16  1  0  0  0  0
 10 21  1  0  0  0  0
 11 13  1  1  0  0  0
 11 17  1  0  0  0  0
 11 20  2  0  0  0  0
 11 31  1  0  0  0  0
 12 16  2  0  0  0  0
 12 28  1  0  0  0  0
 15 26  1  0  0  0  0
 15 18  1  0  0  0  0
 16 19  1  0  0  0  0
 18 30  1  0  0  0  0
 19 22  2  0  0  0  0
 21 18  1  6  0  0  0
 21 24  1  0  0  0  0
 22 23  1  0  0  0  0
 22 25  1  0  0  0  0
 24 14  1  1  0  0  0
 24 27  1  0  0  0  0
 25 28  2  0  0  0  0
 25 30  1  0  0  0  0
 27 29  1  0  0  0  0
 29 31  1  0  0  0  0
M  CHG  1  17  -1
M  END
>  <CHROM.1>
103.97548451,6.77243203,-88.49351079,77.55334184,-85.07656150,55.27751814
-63.73239575,125.27817534,130.52452464,167.27108762,179.95192182,159.47871128
5.47518406,19.06105268,52.86979102,2.47957657,0.13850778,-2.73470098

>  <Name>
ligand

>  <RI>
0

>  <Rbt.Current_Directory>
/home/itssahil/PROJECTS/Mol_Feturizer/New_Systems/rnas/2HOO

>  <Rbt.Executable>
rbdock ($Id: //depot/dev/client3/rdock/2013.1/src/exe/rbdock.cxx#4 $)

>  <Rbt.Library>
libRbt.so (2013.1, Build901 2013/11/27)

>  <Rbt.Parameter_File>
/export/apps/rDock/src/rDock_2013.1_src/data/scripts/dock_solv.prm

>  <Rbt.Receptor>
prm/pocket_docking_5.prm

>  <SCORE>
-31.8602

>  <SCORE.INTER>
-17.0063

>  <SCORE.INTER.CONST>
1

>  <SCORE.INTER.POLAR>
0

>  <SCORE.INTER.ROT>
12

>  <SCORE.INTER.SOLV>
16.9114

>  <SCORE.INTER.VDW>
-28.5747

>  <SCORE.INTER.norm>
-0.548589

>  <SCORE.INTRA>
-14.8554

>  <SCORE.INTRA.DIHEDRAL>
-1.24538

>  <SCORE.INTRA.DIHEDRAL.0>
14.6094

>  <SCORE.INTRA.POLAR>
0

>  <SCORE.INTRA.POLAR.0>
0

>  <SCORE.INTRA.REPUL>
0

>  <SCORE.INTRA.REPUL.0>
0

>  <SCORE.INTRA.SOLV>
0.127099

>  <SCORE.INTRA.SOLV.lig_0>
-65.6478

>  <SCORE.INTRA.VDW>
-14.2963

>  <SCORE.INTRA.VDW.0>
9.35535

>  <SCORE.INTRA.norm>
-0.479207

>  <SCORE.RESTR>
0.00147053

>  <SCORE.RESTR.CAVITY>
0.00147053

>  <SCORE.RESTR.norm>
4.74364e-05

>  <SCORE.SYSTEM>
0

>  <SCORE.SYSTEM.CONST>
0

>  <SCORE.SYSTEM.DIHEDRAL>
0

>  <SCORE.SYSTEM.SOLV>
0

>  <SCORE.SYSTEM.norm>
0

>  <SCORE.heavy>
31

>  <SCORE.norm>
-1.02775

>  <RMSD>
5.059

$$$$
ligand
 OpenBabel11021811443D
libRbt.so/2013.1/901 2013/11/27
 31 32  0  0  0  0  0  0  0  0999 V2000
    2.5275   18.8101   51.5164 C   0  0  0  0  0  0  0  0  0  0  0  0
    2.3277   18.7681   53.0284 C   0  0  0  0  0  0  0  0  0  0  0  0
    1.2440   19.4862   53.6302 C   0  0  0  0  0  0  0  0  0  0  0  0
    1.0658   19.4461   55.0339 C   0  0  0  0  0  0  0  0  0  0  0  0
    1.9471   18.6949   55.8495 C   0  0  0  0  0  0  0  0  0  0  0  0
    3.0153   17.9772   55.2739 C   0  0  0  0  0  0  0  0  0  0  0  0
    3.2102   18.0060   53.8813 C   0  0  0  0  0  0  0  0  0  0  0  0
    1.7401   18.2215   50.7761 O   0  0  0  0  0  0  0  0  0  0  0  0
   13.2138   19.7312   54.3678 C   0  0  0  0  0  0  0  0  0  0  0  0
    4.9227   21.6872   52.4505 C   0  0  0  0  0  0  0  0  0  0  0  0
    5.7183   14.6754   49.1935 P   0  0  1  0  0  0  0  0  0  0  0  0
   10.9472   19.1306   53.8820 N   0  0  0  0  0  0  0  0  0  0  0  0
    4.3918   14.1183   49.5199 O   0  0  0  0  0  0  0  0  0  0  0  0
    3.5898   19.5045   50.9642 S   0  0  0  0  0  0  0  0  0  0  0  0
    7.8278   21.0067   50.8279 C   0  0  0  0  0  0  0  0  0  0  0  0
   11.8425   20.1514   54.1091 C   0  0  0  0  0  0  0  0  0  0  0  0
    6.8621   13.7789   49.5131 O   0  5  0  0  0  0  0  0  0  0  0  0
    7.2032   20.7858   52.0111 N   0  0  0  0  0  0  0  0  0  0  0  0
   11.5271   21.4086   54.1017 N   0  0  0  0  0  0  0  0  0  0  0  0
    5.7343   15.1768   47.7997 O   0  0  0  0  0  0  0  0  0  0  0  0
    5.7549   20.5522   51.9180 C   0  0  2  0  0  0  0  0  0  0  0  0
   10.2236   21.7999   53.8624 C   0  0  0  0  0  0  0  0  0  0  0  0
    9.9340   23.1033   53.8666 N   0  0  0  0  0  0  0  0  0  0  0  0
    5.0865   19.3811   51.3589 C   0  0  1  0  0  0  0  0  0  0  0  0
    9.2157   20.7791   53.6216 C   0  0  0  0  0  0  0  0  0  0  0  0
    8.4927   20.0596   50.4697 O   0  0  0  0  0  0  0  0  0  0  0  0
    5.7438   18.0629   51.1511 C   0  0  0  0  0  0  0  0  0  0  0  0
    9.6566   19.4715   53.6424 C   0  0  0  0  0  0  0  0  0  0  0  0
    5.2062   17.1302   50.1527 C   0  0  0  0  0  0  0  0  0  0  0  0
    7.7682   21.1428   53.3976 C   0  0  0  0  0  0  0  0  0  0  0  0
    5.9946   15.9286   50.0957 O   0  0  0  0  0  0  0  0  0  0  0  0
  1  2  1  0  0  0  0
  1  8  2  0  0  0  0
  1 14  1  0  0  0  0
  2  3  2  0  0  0  0
  2  7  1  0  0  0  0
  3  4  1  0  0  0  0
  4  5  2  0  0  0  0
  5  6  1  0  0  0  0
  6  7  2  0  0  0  0
  9 16  1  0  0  0  0
 10 21  1  0  0  0  0
 11 13  1  1  0  0  0
 11 17  1  0  0  0  0
 11 20  2  0  0  0  0
 11 31  1  0  0  0  0
 12 16  2  0  0  0  0
 12 28  1  0  0  0  0
 15 26  1  0  0  0  0
 15 18  1  0  0  0  0
 16 19  1  0  0  0  0
 18 30  1  0  0  0  0
 19 22  2  0  0  0  0
 21 18  1  6  0  0  0
 21 24  1  0  0  0  0
 22 23  1  0  0  0  0
 22 25  1  0  0  0  0
 24 14  1  1  0  0  0
 24 27  1  0  0  0  0
 25 28  2  0  0  0  0
 25 30  1  0  0  0  0
 27 29  1  0  0  0  0
 29 31  1  0  0  0  0
M  CHG  1  17  -1
M  END
>  <CHROM.1>
-71.16750402,51.08619284,-116.70810418,-106.33326598,-108.99007227,-44.84142641
17.06110430,24.00567762,116.38726149,179.15509903,177.80835249,-59.62490207
6.18333042,18.74086763,51.99276841,2.53471185,-0.07426492,-2.45212293

>  <Name>
ligand

>  <RI>
0

>  <Rbt.Current_Directory>
/home/itssahil/PROJECTS/Mol_Feturizer/New_Systems/rnas/2HOO

>  <Rbt.Executable>
rbdock ($Id: //depot/dev/client3/rdock/2013.1/src/exe/rbdock.cxx#4 $)

>  <Rbt.Library>
libRbt.so (2013.1, Build901 2013/11/27)

>  <Rbt.Parameter_File>
/export/apps/rDock/src/rDock_2013.1_src/data/scripts/dock_solv.prm

>  <Rbt.Receptor>
prm/pocket_docking_3.prm

>  <SCORE>
-28.4989

>  <SCORE.INTER>
-18.292

>  <SCORE.INTER.CONST>
1

>  <SCORE.INTER.POLAR>
0

>  <SCORE.INTER.ROT>
12

>  <SCORE.INTER.SOLV>
18.541

>  <SCORE.INTER.VDW>
-29.975

>  <SCORE.INTER.norm>
-0.590065

>  <SCORE.INTRA>
-10.3308

>  <SCORE.INTRA.DIHEDRAL>
0.871189

>  <SCORE.INTRA.DIHEDRAL.0>
14.6094

>  <SCORE.INTRA.POLAR>
0

>  <SCORE.INTRA.POLAR.0>
0

>  <SCORE.INTRA.REPUL>
0

>  <SCORE.INTRA.REPUL.0>
0

>  <SCORE.INTRA.SOLV>
-0.0871965

>  <SCORE.INTRA.SOLV.lig_0>
-65.6478

>  <SCORE.INTRA.VDW>
-10.7228

>  <SCORE.INTRA.VDW.0>
9.35535

>  <SCORE.INTRA.norm>
-0.333252

>  <SCORE.RESTR>
0.123923

>  <SCORE.RESTR.CAVITY>
0.123923

>  <SCORE.RESTR.norm>
0.00399752

>  <SCORE.SYSTEM>
0

>  <SCORE.SYSTEM.CONST>
0

>  <SCORE.SYSTEM.DIHEDRAL>
0

>  <SCORE.SYSTEM.SOLV>
0

>  <SCORE.SYSTEM.norm>
0

>  <SCORE.heavy>
31

>  <SCORE.norm>
-0.919319

>  <RMSD>
5.061

$$$$
ligand
 OpenBabel11021811443D
libRbt.so/2013.1/901 2013/11/27
 31 32  0  0  0  0  0  0  0  0999 V2000
    3.4067   20.7332   52.9879 C   0  0  0  0  0  0  0  0  0  0  0  0
    1.9561   20.2671   52.9075 C   0  0  0  0  0  0  0  0  0  0  0  0
    0.9107   21.0724   53.4650 C   0  0  0  0  0  0  0  0  0  0  0  0
   -0.4328   20.6329   53.3903 C   0  0  0  0  0  0  0  0  0  0  0  0
   -0.7539   19.4049   52.7616 C   0  0  0  0  0  0  0  0  0  0  0  0
    0.2613   18.6026   52.2022 C   0  0  0  0  0  0  0  0  0  0  0  0
    1.6025   19.0209   52.2679 C   0  0  0  0  0  0  0  0  0  0  0  0
    3.8793   21.0873   54.0676 O   0  0  0  0  0  0  0  0  0  0  0  0
   13.5256   19.6313   54.9048 C   0  0  0  0  0  0  0  0  0  0  0  0
    6.4284   18.6549   53.4052 C   0  0  0  0  0  0  0  0  0  0  0  0
    5.9581   16.0023   49.0404 P   0  0  1  0  0  0  0  0  0  0  0  0
   11.3699   19.0299   54.0529 N   0  0  0  0  0  0  0  0  0  0  0  0
    7.0554   15.0162   49.0579 O   0  0  0  0  0  0  0  0  0  0  0  0
    4.2015   20.7643   51.8552 S   0  0  0  0  0  0  0  0  0  0  0  0
    8.1341   20.1046   50.5921 C   0  0  0  0  0  0  0  0  0  0  0  0
   12.2230   20.0517   54.4041 C   0  0  0  0  0  0  0  0  0  0  0  0
    5.2702   16.1399   47.7281 O   0  5  0  0  0  0  0  0  0  0  0  0
    7.7524   20.1270   51.8931 N   0  0  0  0  0  0  0  0  0  0  0  0
   11.9260   21.3099   54.3106 N   0  0  0  0  0  0  0  0  0  0  0  0
    5.0306   15.7564   50.1690 O   0  0  0  0  0  0  0  0  0  0  0  0
    6.4451   19.5144   52.1702 C   0  0  2  0  0  0  0  0  0  0  0  0
   10.6867   21.7015   53.8413 C   0  0  0  0  0  0  0  0  0  0  0  0
   10.4134   23.0061   53.7625 N   0  0  0  0  0  0  0  0  0  0  0  0
    5.2153   19.6792   51.4012 C   0  0  1  0  0  0  0  0  0  0  0  0
    9.7249   20.6800   53.4573 C   0  0  0  0  0  0  0  0  0  0  0  0
    7.7580   21.0805   49.9808 O   0  0  0  0  0  0  0  0  0  0  0  0
    4.8585   18.8635   50.2096 C   0  0  0  0  0  0  0  0  0  0  0  0
   10.1429   19.3710   53.5868 C   0  0  0  0  0  0  0  0  0  0  0  0
    5.8379   18.6829   49.1306 C   0  0  0  0  0  0  0  0  0  0  0  0
    8.3408   21.0452   52.9791 C   0  0  0  0  0  0  0  0  0  0  0  0
    6.5427   17.4381   49.2801 O   0  0  0  0  0  0  0  0  0  0  0  0
  1  2  1  0  0  0  0
  1  8  2  0  0  0  0
  1 14  1  0  0  0  0
  2  3  2  0  0  0  0
  2  7  1  0  0  0  0
  3  4  1  0  0  0  0
  4  5  2  0  0  0  0
  5  6  1  0  0  0  0
  6  7  2  0  0  0  0
  9 16  1  0  0  0  0
 10 21  1  0  0  0  0
 11 13  1  6  0  0  0
 11 17  1  0  0  0  0
 11 20  2  0  0  0  0
 11 31  1  0  0  0  0
 12 16  2  0  0  0  0
 12 28  1  0  0  0  0
 15 26  1  0  0  0  0
 15 18  1  0  0  0  0
 16 19  1  0  0  0  0
 18 30  1  0  0  0  0
 19 22  2  0  0  0  0
 21 18  1  1  0  0  0
 21 24  1  0  0  0  0
 22 23  1  0  0  0  0
 22 25  1  0  0  0  0
 24 14  1  1  0  0  0
 24 27  1  0  0  0  0
 25 28  2  0  0  0  0
 25 30  1  0  0  0  0
 27 29  1  0  0  0  0
 29 31  1  0  0  0  0
M  CHG  1  17  -1
M  END
>  <CHROM.1>
50.84445401,-97.23343492,-70.60437449,89.44666949,137.41599374,-73.65337799
84.05460172,131.20461350,145.35872379,96.85243486,71.73124263,169.69092946
6.31000142,19.34162735,51.88634255,2.86478118,0.04952216,-2.36503167

>  <Name>
ligand

>  <RI>
0

>  <Rbt.Current_Directory>
/home/itssahil/PROJECTS/Mol_Feturizer/New_Systems/rnas/2HOO

>  <Rbt.Executable>
rbdock ($Id: //depot/dev/client3/rdock/2013.1/src/exe/rbdock.cxx#4 $)

>  <Rbt.Library>
libRbt.so (2013.1, Build901 2013/11/27)

>  <Rbt.Parameter_File>
/export/apps/rDock/src/rDock_2013.1_src/data/scripts/dock_solv.prm

>  <Rbt.Receptor>
prm/pocket_docking_2.prm

>  <SCORE>
-25.3903

>  <SCORE.INTER>
-16.5589

>  <SCORE.INTER.CONST>
1

>  <SCORE.INTER.POLAR>
0

>  <SCORE.INTER.ROT>
12

>  <SCORE.INTER.SOLV>
17.9619

>  <SCORE.INTER.VDW>
-28.6266

>  <SCORE.INTER.norm>
-0.534158

>  <SCORE.INTRA>
-9.12304

>  <SCORE.INTRA.DIHEDRAL>
6.62377

>  <SCORE.INTRA.DIHEDRAL.0>
14.6094

>  <SCORE.INTRA.POLAR>
0

>  <SCORE.INTRA.POLAR.0>
0

>  <SCORE.INTRA.REPUL>
0

>  <SCORE.INTRA.REPUL.0>
0

>  <SCORE.INTRA.SOLV>
1.7163

>  <SCORE.INTRA.SOLV.lig_0>
-65.6478

>  <SCORE.INTRA.VDW>
-13.2931

>  <SCORE.INTRA.VDW.0>
9.35535

>  <SCORE.INTRA.norm>
-0.294292

>  <SCORE.RESTR>
0.291591

>  <SCORE.RESTR.CAVITY>
0.291591

>  <SCORE.RESTR.norm>
0.00940616

>  <SCORE.SYSTEM>
0

>  <SCORE.SYSTEM.CONST>
0

>  <SCORE.SYSTEM.DIHEDRAL>
0

>  <SCORE.SYSTEM.SOLV>
0

>  <SCORE.SYSTEM.norm>
0

>  <SCORE.heavy>
31

>  <SCORE.norm>
-0.819043

>  <RMSD>
5.072

$$$$
ligand
 OpenBabel11021811443D
libRbt.so/2013.1/901 2013/11/27
 31 32  0  0  0  0  0  0  0  0999 V2000
    3.7590   18.9204   50.6274 C   0  0  0  0  0  0  0  0  0  0  0  0
    2.3523   18.7861   51.2029 C   0  0  0  0  0  0  0  0  0  0  0  0
    1.5861   17.6006   50.9583 C   0  0  0  0  0  0  0  0  0  0  0  0
    0.2803   17.4834   51.4921 C   0  0  0  0  0  0  0  0  0  0  0  0
   -0.2736   18.5269   52.2735 C   0  0  0  0  0  0  0  0  0  0  0  0
    0.4684   19.6979   52.5295 C   0  0  0  0  0  0  0  0  0  0  0  0
    1.7668   19.8343   52.0064 C   0  0  0  0  0  0  0  0  0  0  0  0
    4.0679   18.3019   49.6093 O   0  0  0  0  0  0  0  0  0  0  0  0
   13.3594   19.7184   54.3242 C   0  0  0  0  0  0  0  0  0  0  0  0
    8.0468   20.3470   50.0637 C   0  0  0  0  0  0  0  0  0  0  0  0
    6.8097   15.9052   48.7472 P   0  0  1  0  0  0  0  0  0  0  0  0
   11.6755   21.3726   53.9212 N   0  0  0  0  0  0  0  0  0  0  0  0
    5.8504   16.0876   47.6412 O   0  0  0  0  0  0  0  0  0  0  0  0
    4.6974   19.7325   51.2403 S   0  0  0  0  0  0  0  0  0  0  0  0
    7.1008   22.7597   51.7280 C   0  0  0  0  0  0  0  0  0  0  0  0
   11.9475   20.0470   54.1741 C   0  0  0  0  0  0  0  0  0  0  0  0
    6.8077   14.5449   49.3504 O   0  5  0  0  0  0  0  0  0  0  0  0
    7.5120   21.5488   52.1793 N   0  0  0  0  0  0  0  0  0  0  0  0
   11.0404   19.1270   54.2786 N   0  0  0  0  0  0  0  0  0  0  0  0
    8.1567   16.3663   48.3380 O   0  0  0  0  0  0  0  0  0  0  0  0
    7.1927   20.4143   51.3007 C   0  0  2  0  0  0  0  0  0  0  0  0
    9.7040   19.4443   54.1284 C   0  0  0  0  0  0  0  0  0  0  0  0
    8.7972   18.4703   54.2381 N   0  0  0  0  0  0  0  0  0  0  0  0
    6.1834   19.3840   51.5256 C   0  0  1  0  0  0  0  0  0  0  0  0
    9.3353   20.8236   53.8506 C   0  0  0  0  0  0  0  0  0  0  0  0
    6.0519   23.1084   52.2236 O   0  0  0  0  0  0  0  0  0  0  0  0
    6.4827   18.0152   52.0255 C   0  0  0  0  0  0  0  0  0  0  0  0
   10.3755   21.7268   53.7675 C   0  0  0  0  0  0  0  0  0  0  0  0
    7.1608   17.0518   51.1493 C   0  0  0  0  0  0  0  0  0  0  0  0
    7.8961   21.2229   53.6337 C   0  0  0  0  0  0  0  0  0  0  0  0
    6.3980   16.8217   49.9518 O   0  0  0  0  0  0  0  0  0  0  0  0
  1  2  1  0  0  0  0
  1  8  2  0  0  0  0
  1 14  1  0  0  0  0
  2  3  2  0  0  0  0
  2  7  1  0  0  0  0
  3  4  1  0  0  0  0
  4  5  2  0  0  0  0
  5  6  1  0  0  0  0
  6  7  2  0  0  0  0
  9 16  1  0  0  0  0
 10 21  1  0  0  0  0
 11 13  1  6  0  0  0
 11 17  1  0  0  0  0
 11 20  2  0  0  0  0
 11 31  1  0  0  0  0
 12 16  2  0  0  0  0
 12 28  1  0  0  0  0
 15 26  1  0  0  0  0
 15 18  1  0  0  0  0
 16 19  1  0  0  0  0
 18 30  1  0  0  0  0
 19 22  2  0  0  0  0
 21 18  1  1  0  0  0
 21 24  1  0  0  0  0
 22 23  1  0  0  0  0
 22 25  1  0  0  0  0
 24 14  1  1  0  0  0
 24 27  1  0  0  0  0
 25 28  2  0  0  0  0
 25 30  1  0  0  0  0
 27 29  1  0  0  0  0
 29 31  1  0  0  0  0
M  CHG  1  17  -1
M  END
>  <CHROM.1>
26.08033924,135.09420159,138.79685091,97.96403654,73.72201414,-116.13874809
-102.83244248,109.00684469,-106.65328415,-59.11893832,177.50444775,-172.06551401
6.57245135,18.98822824,51.53780647,2.68169138,0.11155467,-2.48330510

>  <Name>
ligand

>  <RI>
0

>  <Rbt.Current_Directory>
/home/itssahil/PROJECTS/Mol_Feturizer/New_Systems/rnas/2HOO

>  <Rbt.Executable>
rbdock ($Id: //depot/dev/client3/rdock/2013.1/src/exe/rbdock.cxx#4 $)

>  <Rbt.Library>
libRbt.so (2013.1, Build901 2013/11/27)

>  <Rbt.Parameter_File>
/export/apps/rDock/src/rDock_2013.1_src/data/scripts/dock_solv.prm

>  <Rbt.Receptor>
prm/pocket_docking_3.prm

>  <SCORE>
-32.7765

>  <SCORE.INTER>
-20.6913

>  <SCORE.INTER.CONST>
1

>  <SCORE.INTER.POLAR>
0

>  <SCORE.INTER.ROT>
12

>  <SCORE.INTER.SOLV>
19.1248

>  <SCORE.INTER.VDW>
-31.7691

>  <SCORE.INTER.norm>
-0.66746

>  <SCORE.INTRA>
-12.0937

>  <SCORE.INTRA.DIHEDRAL>
-0.056793

>  <SCORE.INTRA.DIHEDRAL.0>
14.6094

>  <SCORE.INTRA.POLAR>
0

>  <SCORE.INTRA.POLAR.0>
0

>  <SCORE.INTRA.REPUL>
0

>  <SCORE.INTRA.REPUL.0>
0

>  <SCORE.INTRA.SOLV>
4.98249

>  <SCORE.INTRA.SOLV.lig_0>
-65.6478

>  <SCORE.INTRA.VDW>
-14.5565

>  <SCORE.INTRA.VDW.0>
9.35535

>  <SCORE.INTRA.norm>
-0.390118

>  <SCORE.RESTR>
0.00844341

>  <SCORE.RESTR.CAVITY>
0.00844341

>  <SCORE.RESTR.norm>
0.000272368

>  <SCORE.SYSTEM>
0

>  <SCORE.SYSTEM.CONST>
0

>  <SCORE.SYSTEM.DIHEDRAL>
0

>  <SCORE.SYSTEM.SOLV>
0

>  <SCORE.SYSTEM.norm>
0

>  <SCORE.heavy>
31

>  <SCORE.norm>
-1.05731

>  <RMSD>
5.139

$$$$
ligand
 OpenBabel11021811443D
libRbt.so/2013.1/901 2013/11/27
 31 32  0  0  0  0  0  0  0  0999 V2000
    4.9724   20.9510   53.4389 C   0  0  0  0  0  0  0  0  0  0  0  0
    4.1748   19.8465   54.1259 C   0  0  0  0  0  0  0  0  0  0  0  0
    2.8863   20.1313   54.6835 C   0  0  0  0  0  0  0  0  0  0  0  0
    2.1526   19.1031   55.3226 C   0  0  0  0  0  0  0  0  0  0  0  0
    2.6793   17.7912   55.4095 C   0  0  0  0  0  0  0  0  0  0  0  0
    3.9429   17.4915   54.8611 C   0  0  0  0  0  0  0  0  0  0  0  0
    4.6881   18.4996   54.2237 C   0  0  0  0  0  0  0  0  0  0  0  0
    5.3523   21.9271   54.0849 O   0  0  0  0  0  0  0  0  0  0  0  0
    8.9176   24.3063   53.1465 C   0  0  0  0  0  0  0  0  0  0  0  0
    6.1135   18.7540   49.0622 C   0  0  0  0  0  0  0  0  0  0  0  0
    2.9951   15.6982   49.7042 P   0  0  1  0  0  0  0  0  0  0  0  0
    8.1482   22.7140   51.5319 N   0  0  0  0  0  0  0  0  0  0  0  0
    3.5154   15.2429   48.4008 O   0  0  0  0  0  0  0  0  0  0  0  0
    5.2744   20.8688   52.0907 S   0  0  0  0  0  0  0  0  0  0  0  0
    6.9271   17.0027   51.6420 C   0  0  0  0  0  0  0  0  0  0  0  0
    8.8393   22.9197   52.7046 C   0  0  0  0  0  0  0  0  0  0  0  0
    1.5112   15.6934   49.8143 O   0  5  0  0  0  0  0  0  0  0  0  0
    7.1572   18.2880   51.2758 N   0  0  0  0  0  0  0  0  0  0  0  0
    9.3948   21.9739   53.3953 N   0  0  0  0  0  0  0  0  0  0  0  0
    3.6702   14.9742   50.8061 O   0  0  0  0  0  0  0  0  0  0  0  0
    6.0535   18.9381   50.5544 C   0  0  2  0  0  0  0  0  0  0  0  0
    9.3225   20.6622   52.9670 C   0  0  0  0  0  0  0  0  0  0  0  0
    9.9100   19.7143   53.7014 N   0  0  0  0  0  0  0  0  0  0  0  0
    4.9452   19.6903   51.1347 C   0  0  1  0  0  0  0  0  0  0  0  0
    8.6160   20.3635   51.7311 C   0  0  0  0  0  0  0  0  0  0  0  0
    7.2913   16.2084   50.8030 O   0  0  0  0  0  0  0  0  0  0  0  0
    3.5098   19.3945   50.8801 C   0  0  0  0  0  0  0  0  0  0  0  0
    8.0532   21.4402   51.0763 C   0  0  0  0  0  0  0  0  0  0  0  0
    3.0081   18.0244   51.0446 C   0  0  0  0  0  0  0  0  0  0  0  0
    8.5409   18.9565   51.1903 C   0  0  0  0  0  0  0  0  0  0  0  0
    3.3554   17.2110   49.9104 O   0  0  0  0  0  0  0  0  0  0  0  0
  1  2  1  0  0  0  0
  1  8  2  0  0  0  0
  1 14  1  0  0  0  0
  2  3  2  0  0  0  0
  2  7  1  0  0  0  0
  3  4  1  0  0  0  0
  4  5  2  0  0  0  0
  5  6  1  0  0  0  0
  6  7  2  0  0  0  0
  9 16  1  0  0  0  0
 10 21  1  0  0  0  0
 11 13  1  6  0  0  0
 11 17  1  0  0  0  0
 11 20  2  0  0  0  0
 11 31  1  0  0  0  0
 12 16  2  0  0  0  0
 12 28  1  0  0  0  0
 15 26  1  0  0  0  0
 15 18  1  0  0  0  0
 16 19  1  0  0  0  0
 18 30  1  0  0  0  0
 19 22  2  0  0  0  0
 21 18  1  1  0  0  0
 21 24  1  0  0  0  0
 22 23  1  0  0  0  0
 22 25  1  0  0  0  0
 24 14  1  1  0  0  0
 24 27  1  0  0  0  0
 25 28  2  0  0  0  0
 25 30  1  0  0  0  0
 27 29  1  0  0  0  0
 29 31  1  0  0  0  0
M  CHG  1  17  -1
M  END
>  <CHROM.1>
63.48332146,-3.36590820,-115.11405461,90.89666815,-89.15572682,-137.91890871
-127.09410537,-128.82130621,109.31537220,-78.42811838,-179.63115715,179.02529925
5.53757811,19.03801496,51.88639039,0.77921901,0.44931997,0.81722667

>  <Name>
ligand

>  <RI>
0

>  <Rbt.Current_Directory>
/home/itssahil/PROJECTS/Mol_Feturizer/New_Systems/rnas/2HOO

>  <Rbt.Executable>
rbdock ($Id: //depot/dev/client3/rdock/2013.1/src/exe/rbdock.cxx#4 $)

>  <Rbt.Library>
libRbt.so (2013.1, Build901 2013/11/27)

>  <Rbt.Parameter_File>
/export/apps/rDock/src/rDock_2013.1_src/data/scripts/dock_solv.prm

>  <Rbt.Receptor>
prm/pocket_docking_4.prm

>  <SCORE>
-28.8923

>  <SCORE.INTER>
-12.0368

>  <SCORE.INTER.CONST>
1

>  <SCORE.INTER.POLAR>
0

>  <SCORE.INTER.ROT>
12

>  <SCORE.INTER.SOLV>
18.9593

>  <SCORE.INTER.VDW>
-25.9443

>  <SCORE.INTER.norm>
-0.388284

>  <SCORE.INTRA>
-16.8555

>  <SCORE.INTRA.DIHEDRAL>
-1.65303

>  <SCORE.INTRA.DIHEDRAL.0>
14.6094

>  <SCORE.INTRA.POLAR>
0

>  <SCORE.INTRA.POLAR.0>
0

>  <SCORE.INTRA.REPUL>
0

>  <SCORE.INTRA.REPUL.0>
0

>  <SCORE.INTRA.SOLV>
1.37205

>  <SCORE.INTRA.SOLV.lig_0>
-65.6478

>  <SCORE.INTRA.VDW>
-16.715

>  <SCORE.INTRA.VDW.0>
9.35535

>  <SCORE.INTRA.norm>
-0.543725

>  <SCORE.RESTR>
0

>  <SCORE.RESTR.CAVITY>
0

>  <SCORE.RESTR.norm>
0

>  <SCORE.SYSTEM>
0

>  <SCORE.SYSTEM.CONST>
0

>  <SCORE.SYSTEM.DIHEDRAL>
0

>  <SCORE.SYSTEM.SOLV>
0

>  <SCORE.SYSTEM.norm>
0

>  <SCORE.heavy>
31

>  <SCORE.norm>
-0.932009

>  <RMSD>
5.149

$$$$
ligand
 OpenBabel11021811443D
libRbt.so/2013.1/901 2013/11/27
 31 32  0  0  0  0  0  0  0  0999 V2000
    2.8490   18.3920   51.3360 C   0  0  0  0  0  0  0  0  0  0  0  0
    2.3986   17.1209   50.6223 C   0  0  0  0  0  0  0  0  0  0  0  0
    1.1137   16.5545   50.9059 C   0  0  0  0  0  0  0  0  0  0  0  0
    0.7028   15.3732   50.2430 C   0  0  0  0  0  0  0  0  0  0  0  0
    1.5498   14.7491   49.2946 C   0  0  0  0  0  0  0  0  0  0  0  0
    2.8149   15.2959   48.9986 C   0  0  0  0  0  0  0  0  0  0  0  0
    3.2421   16.4681   49.6479 C   0  0  0  0  0  0  0  0  0  0  0  0
    2.4432   18.6354   52.4720 O   0  0  0  0  0  0  0  0  0  0  0  0
    9.1185   16.5598   45.6836 C   0  0  0  0  0  0  0  0  0  0  0  0
    6.4222   21.0833   52.8875 C   0  0  0  0  0  0  0  0  0  0  0  0
    4.4329   24.1685   53.6131 P   0  0  1  0  0  0  0  0  0  0  0  0
    7.8128   18.3910   46.5060 N   0  0  0  0  0  0  0  0  0  0  0  0
    3.2460   25.0348   53.4808 O   0  0  0  0  0  0  0  0  0  0  0  0
    3.7118   19.2803   50.7177 S   0  0  0  0  0  0  0  0  0  0  0  0
    6.7389   18.1577   51.2276 C   0  0  0  0  0  0  0  0  0  0  0  0
    8.7897   17.4608   46.7810 C   0  0  0  0  0  0  0  0  0  0  0  0
    5.2936   24.1081   52.4008 O   0  5  0  0  0  0  0  0  0  0  0  0
    6.8519   19.4929   51.0187 N   0  0  0  0  0  0  0  0  0  0  0  0
    9.3971   17.3616   47.9217 N   0  0  0  0  0  0  0  0  0  0  0  0
    5.1777   24.5056   54.8484 O   0  0  0  0  0  0  0  0  0  0  0  0
    5.8590   20.3201   51.7193 C   0  0  2  0  0  0  0  0  0  0  0  0
    9.0757   18.2148   48.9601 C   0  0  0  0  0  0  0  0  0  0  0  0
    9.7186   18.0810   50.1227 N   0  0  0  0  0  0  0  0  0  0  0  0
    4.4475   20.4759   51.3813 C   0  0  1  0  0  0  0  0  0  0  0  0
    8.0463   19.2210   48.7509 C   0  0  0  0  0  0  0  0  0  0  0  0
    6.7521   17.8688   52.4039 O   0  0  0  0  0  0  0  0  0  0  0  0
    3.6624   21.7166   51.6202 C   0  0  0  0  0  0  0  0  0  0  0  0
    7.4676   19.2485   47.4983 C   0  0  0  0  0  0  0  0  0  0  0  0
    3.0656   21.9582   52.9397 C   0  0  0  0  0  0  0  0  0  0  0  0
    7.6218   20.1520   49.8604 C   0  0  0  0  0  0  0  0  0  0  0  0
    3.9746   22.6787   53.7902 O   0  0  0  0  0  0  0  0  0  0  0  0
  1  2  1  0  0  0  0
  1  8  2  0  0  0  0
  1 14  1  0  0  0  0
  2  3  2  0  0  0  0
  2  7  1  0  0  0  0
  3  4  1  0  0  0  0
  4  5  2  0  0  0  0
  5  6  1  0  0  0  0
  6  7  2  0  0  0  0
  9 16  1  0  0  0  0
 10 21  1  0  0  0  0
 11 13  1  6  0  0  0
 11 17  1  0  0  0  0
 11 20  2  0  0  0  0
 11 31  1  0  0  0  0
 12 16  2  0  0  0  0
 12 28  1  0  0  0  0
 15 26  1  0  0  0  0
 15 18  1  0  0  0  0
 16 19  1  0  0  0  0
 18 30  1  0  0  0  0
 19 22  2  0  0  0  0
 21 18  1  6  0  0  0
 21 24  1  0  0  0  0
 22 23  1  0  0  0  0
 22 25  1  0  0  0  0
 24 14  1  6  0  0  0
 24 27  1  0  0  0  0
 25 28  2  0  0  0  0
 25 30  1  0  0  0  0
 27 29  1  0  0  0  0
 29 31  1  0  0  0  0
M  CHG  1  17  -1
M  END
>  <CHROM.1>
29.76662254,-168.83418681,102.00464797,-54.64162721,106.84164199,12.13525687
-150.40521835,96.68112116,-69.18824395,90.14891591,68.48047733,52.22037691
5.22518571,19.64620098,50.86567342,1.92835434,0.37809759,0.56266219

>  <Name>
ligand

>  <RI>
0

>  <Rbt.Current_Directory>
/home/itssahil/PROJECTS/Mol_Feturizer/New_Systems/rnas/2HOO

>  <Rbt.Executable>
rbdock ($Id: //depot/dev/client3/rdock/2013.1/src/exe/rbdock.cxx#4 $)

>  <Rbt.Library>
libRbt.so (2013.1, Build901 2013/11/27)

>  <Rbt.Parameter_File>
/export/apps/rDock/src/rDock_2013.1_src/data/scripts/dock_solv.prm

>  <Rbt.Receptor>
prm/pocket_docking_5.prm

>  <SCORE>
-20.6963

>  <SCORE.INTER>
-12.0491

>  <SCORE.INTER.CONST>
1

>  <SCORE.INTER.POLAR>
0

>  <SCORE.INTER.ROT>
12

>  <SCORE.INTER.SOLV>
14.988

>  <SCORE.INTER.VDW>
-24.6287

>  <SCORE.INTER.norm>
-0.388681

>  <SCORE.INTRA>
-8.64715

>  <SCORE.INTRA.DIHEDRAL>
1.86095

>  <SCORE.INTRA.DIHEDRAL.0>
14.6094

>  <SCORE.INTRA.POLAR>
0

>  <SCORE.INTRA.POLAR.0>
0

>  <SCORE.INTRA.REPUL>
0

>  <SCORE.INTRA.REPUL.0>
0

>  <SCORE.INTRA.SOLV>
6.20048

>  <SCORE.INTRA.SOLV.lig_0>
-65.6478

>  <SCORE.INTRA.VDW>
-12.6779

>  <SCORE.INTRA.VDW.0>
9.35535

>  <SCORE.INTRA.norm>
-0.27894

>  <SCORE.RESTR>
0

>  <SCORE.RESTR.CAVITY>
0

>  <SCORE.RESTR.norm>
0

>  <SCORE.SYSTEM>
0

>  <SCORE.SYSTEM.CONST>
0

>  <SCORE.SYSTEM.DIHEDRAL>
0

>  <SCORE.SYSTEM.SOLV>
0

>  <SCORE.SYSTEM.norm>
0

>  <SCORE.heavy>
31

>  <SCORE.norm>
-0.667621

>  <RMSD>
5.170

$$$$
ligand
 OpenBabel11021811443D
libRbt.so/2013.1/901 2013/11/27
 31 32  0  0  0  0  0  0  0  0999 V2000
    3.1995   19.3744   51.9934 C   0  0  0  0  0  0  0  0  0  0  0  0
    2.0585   20.3847   52.0666 C   0  0  0  0  0  0  0  0  0  0  0  0
    0.8557   20.0601   52.7739 C   0  0  0  0  0  0  0  0  0  0  0  0
   -0.2007   21.0003   52.8355 C   0  0  0  0  0  0  0  0  0  0  0  0
   -0.0758   22.2644   52.2087 C   0  0  0  0  0  0  0  0  0  0  0  0
    1.1029   22.6031   51.5136 C   0  0  0  0  0  0  0  0  0  0  0  0
    2.1631   21.6820   51.4395 C   0  0  0  0  0  0  0  0  0  0  0  0
    3.1310   18.3231   52.6294 O   0  0  0  0  0  0  0  0  0  0  0  0
   13.2607   20.1391   54.7122 C   0  0  0  0  0  0  0  0  0  0  0  0
    6.9496   17.4544   52.3874 C   0  0  0  0  0  0  0  0  0  0  0  0
    4.4870   14.6505   48.5125 P   0  0  1  0  0  0  0  0  0  0  0  0
   11.4428   19.1682   53.4928 N   0  0  0  0  0  0  0  0  0  0  0  0
    4.4440   13.9042   49.7845 O   0  0  0  0  0  0  0  0  0  0  0  0
    4.3173   19.6277   51.2174 S   0  0  0  0  0  0  0  0  0  0  0  0
    8.1989   19.6856   49.9668 C   0  0  0  0  0  0  0  0  0  0  0  0
   11.9325   20.2857   54.1303 C   0  0  0  0  0  0  0  0  0  0  0  0
    5.8319   15.1704   48.1449 O   0  5  0  0  0  0  0  0  0  0  0  0
    7.7702   19.5083   51.2411 N   0  0  0  0  0  0  0  0  0  0  0  0
   11.2890   21.4067   54.2273 N   0  0  0  0  0  0  0  0  0  0  0  0
    3.8448   13.8629   47.4347 O   0  0  0  0  0  0  0  0  0  0  0  0
    6.6640   18.5532   51.4000 C   0  0  2  0  0  0  0  0  0  0  0  0
   10.0272   21.5368   53.6792 C   0  0  0  0  0  0  0  0  0  0  0  0
    9.3917   22.7047   53.8020 N   0  0  0  0  0  0  0  0  0  0  0  0
    5.3664   18.5907   50.7324 C   0  0  1  0  0  0  0  0  0  0  0  0
    9.4362   20.3969   52.9956 C   0  0  0  0  0  0  0  0  0  0  0  0
    7.7230   20.6723   49.4497 O   0  0  0  0  0  0  0  0  0  0  0  0
    4.9729   17.6872   49.6181 C   0  0  0  0  0  0  0  0  0  0  0  0
   10.2072   19.2536   52.9403 C   0  0  0  0  0  0  0  0  0  0  0  0
    3.7172   16.9309   49.7023 C   0  0  0  0  0  0  0  0  0  0  0  0
    8.0447   20.4649   52.4152 C   0  0  0  0  0  0  0  0  0  0  0  0
    3.6317   15.9588   48.6457 O   0  0  0  0  0  0  0  0  0  0  0  0
  1  2  1  0  0  0  0
  1  8  2  0  0  0  0
  1 14  1  0  0  0  0
  2  3  2  0  0  0  0
  2  7  1  0  0  0  0
  3  4  1  0  0  0  0
  4  5  2  0  0  0  0
  5  6  1  0  0  0  0
  6  7  2  0  0  0  0
  9 16  1  0  0  0  0
 10 21  1  0  0  0  0
 11 13  1  1  0  0  0
 11 17  1  0  0  0  0
 11 20  2  0  0  0  0
 11 31  1  0  0  0  0
 12 16  2  0  0  0  0
 12 28  1  0  0  0  0
 15 26  1  0  0  0  0
 15 18  1  0  0  0  0
 16 19  1  0  0  0  0
 18 30  1  0  0  0  0
 19 22  2  0  0  0  0
 21 18  1  1  0  0  0
 21 24  1  0  0  0  0
 22 23  1  0  0  0  0
 22 25  1  0  0  0  0
 24 14  1  1  0  0  0
 24 27  1  0  0  0  0
 25 28  2  0  0  0  0
 25 30  1  0  0  0  0
 27 29  1  0  0  0  0
 29 31  1  0  0  0  0
M  CHG  1  17  -1
M  END
>  <CHROM.1>
-5.75018801,-162.51306766,-104.17138072,98.04173913,125.49660992,-76.39176519
103.50519298,-51.44351249,154.22408613,-170.28858261,70.30005742,50.05485807
5.90586820,18.84009245,51.32949380,2.61136870,0.15224955,-2.57365632

>  <Name>
ligand

>  <RI>
0

>  <Rbt.Current_Directory>
/home/itssahil/PROJECTS/Mol_Feturizer/New_Systems/rnas/2HOO

>  <Rbt.Executable>
rbdock ($Id: //depot/dev/client3/rdock/2013.1/src/exe/rbdock.cxx#4 $)

>  <Rbt.Library>
libRbt.so (2013.1, Build901 2013/11/27)

>  <Rbt.Parameter_File>
/export/apps/rDock/src/rDock_2013.1_src/data/scripts/dock_solv.prm

>  <Rbt.Receptor>
prm/pocket_docking_4.prm

>  <SCORE>
-32.1468

>  <SCORE.INTER>
-20.066

>  <SCORE.INTER.CONST>
1

>  <SCORE.INTER.POLAR>
0

>  <SCORE.INTER.ROT>
12

>  <SCORE.INTER.SOLV>
13.8248

>  <SCORE.INTER.VDW>
-29.5856

>  <SCORE.INTER.norm>
-0.647291

>  <SCORE.INTRA>
-12.081

>  <SCORE.INTRA.DIHEDRAL>
1.22097

>  <SCORE.INTRA.DIHEDRAL.0>
14.6094

>  <SCORE.INTRA.POLAR>
0

>  <SCORE.INTRA.POLAR.0>
0

>  <SCORE.INTRA.REPUL>
0

>  <SCORE.INTRA.REPUL.0>
0

>  <SCORE.INTRA.SOLV>
0.446929

>  <SCORE.INTRA.SOLV.lig_0>
-65.6478

>  <SCORE.INTRA.VDW>
-12.915

>  <SCORE.INTRA.VDW.0>
9.35535

>  <SCORE.INTRA.norm>
-0.389711

>  <SCORE.RESTR>
0.000292904

>  <SCORE.RESTR.CAVITY>
0.000292904

>  <SCORE.RESTR.norm>
9.4485e-06

>  <SCORE.SYSTEM>
0

>  <SCORE.SYSTEM.CONST>
0

>  <SCORE.SYSTEM.DIHEDRAL>
0

>  <SCORE.SYSTEM.SOLV>
0

>  <SCORE.SYSTEM.norm>
0

>  <SCORE.heavy>
31

>  <SCORE.norm>
-1.03699

>  <RMSD>
5.186

$$$$
ligand
 OpenBabel11021811443D
libRbt.so/2013.1/901 2013/11/27
 31 32  0  0  0  0  0  0  0  0999 V2000
    3.4601   18.4711   54.1781 C   0  0  0  0  0  0  0  0  0  0  0  0
    2.8952   19.2737   55.3463 C   0  0  0  0  0  0  0  0  0  0  0  0
    1.6493   18.8943   55.9429 C   0  0  0  0  0  0  0  0  0  0  0  0
    1.1287   19.6450   57.0242 C   0  0  0  0  0  0  0  0  0  0  0  0
    1.8339   20.7658   57.5270 C   0  0  0  0  0  0  0  0  0  0  0  0
    3.0643   21.1498   56.9562 C   0  0  0  0  0  0  0  0  0  0  0  0
    3.5973   20.4180   55.8799 C   0  0  0  0  0  0  0  0  0  0  0  0
    2.8915   17.4452   53.8056 O   0  0  0  0  0  0  0  0  0  0  0  0
   13.9803   19.7210   55.1762 C   0  0  0  0  0  0  0  0  0  0  0  0
    7.4129   17.0262   54.1992 C   0  0  0  0  0  0  0  0  0  0  0  0
    2.7922   15.5768   49.9019 P   0  0  1  0  0  0  0  0  0  0  0  0
   11.9289   18.6528   54.5557 N   0  0  0  0  0  0  0  0  0  0  0  0
    3.6246   14.6772   50.7233 O   0  0  0  0  0  0  0  0  0  0  0  0
    4.6111   18.8839   53.5295 S   0  0  0  0  0  0  0  0  0  0  0  0
    8.3188   18.5762   51.2156 C   0  0  0  0  0  0  0  0  0  0  0  0
   12.6093   19.8412   54.6966 C   0  0  0  0  0  0  0  0  0  0  0  0
    2.5617   15.1069   48.5090 O   0  5  0  0  0  0  0  0  0  0  0  0
    8.0858   18.7576   52.5392 N   0  0  0  0  0  0  0  0  0  0  0  0
   12.1017   21.0041   54.4320 N   0  0  0  0  0  0  0  0  0  0  0  0
    1.5441   15.9195   50.6223 O   0  0  0  0  0  0  0  0  0  0  0  0
    6.9866   17.9551   53.0949 C   0  0  2  0  0  0  0  0  0  0  0  0
   10.7989   21.1115   53.9840 C   0  0  0  0  0  0  0  0  0  0  0  0
   10.3075   22.3258   53.7254 N   0  0  0  0  0  0  0  0  0  0  0  0
    5.5811   17.9969   52.7029 C   0  0  1  0  0  0  0  0  0  0  0  0
   10.0103   19.9006   53.8171 C   0  0  0  0  0  0  0  0  0  0  0  0
    9.4389   18.1728   50.9921 O   0  0  0  0  0  0  0  0  0  0  0  0
    5.0076   17.2316   51.5635 C   0  0  0  0  0  0  0  0  0  0  0  0
   10.6468   18.7135   54.1178 C   0  0  0  0  0  0  0  0  0  0  0  0
    3.9725   17.8446   50.7218 C   0  0  0  0  0  0  0  0  0  0  0  0
    8.5690   19.9576   53.3731 C   0  0  0  0  0  0  0  0  0  0  0  0
    3.5448   16.9369   49.6913 O   0  0  0  0  0  0  0  0  0  0  0  0
  1  2  1  0  0  0  0
  1  8  2  0  0  0  0
  1 14  1  0  0  0  0
  2  3  2  0  0  0  0
  2  7  1  0  0  0  0
  3  4  1  0  0  0  0
  4  5  2  0  0  0  0
  5  6  1  0  0  0  0
  6  7  2  0  0  0  0
  9 16  1  0  0  0  0
 10 21  1  0  0  0  0
 11 13  1  1  0  0  0
 11 17  1  0  0  0  0
 11 20  2  0  0  0  0
 11 31  1  0  0  0  0
 12 16  2  0  0  0  0
 12 28  1  0  0  0  0
 15 26  1  0  0  0  0
 15 18  1  0  0  0  0
 16 19  1  0  0  0  0
 18 30  1  0  0  0  0
 19 22  2  0  0  0  0
 21 18  1  1  0  0  0
 21 24  1  0  0  0  0
 22 23  1  0  0  0  0
 22 25  1  0  0  0  0
 24 14  1  1  0  0  0
 24 27  1  0  0  0  0
 25 28  2  0  0  0  0
 25 30  1  0  0  0  0
 27 29  1  0  0  0  0
 29 31  1  0  0  0  0
M  CHG  1  17  -1
M  END
>  <CHROM.1>
-4.85878933,156.97480304,-122.81623579,-119.88106395,119.98393983,-79.75850718
83.07846556,38.58220185,148.53895185,-179.37056161,65.42547107,-60.00047332
6.08483007,18.42549718,53.09188942,2.75370675,-0.14171281,-2.16747045

>  <Name>
ligand

>  <RI>
0

>  <Rbt.Current_Directory>
/home/itssahil/PROJECTS/Mol_Feturizer/New_Systems/rnas/2HOO

>  <Rbt.Executable>
rbdock ($Id: //depot/dev/client3/rdock/2013.1/src/exe/rbdock.cxx#4 $)

>  <Rbt.Library>
libRbt.so (2013.1, Build901 2013/11/27)

>  <Rbt.Parameter_File>
/export/apps/rDock/src/rDock_2013.1_src/data/scripts/dock_solv.prm

>  <Rbt.Receptor>
prm/pocket_docking_6.prm

>  <SCORE>
-33.9183

>  <SCORE.INTER>
-21.548

>  <SCORE.INTER.CONST>
1

>  <SCORE.INTER.POLAR>
0

>  <SCORE.INTER.ROT>
12

>  <SCORE.INTER.SOLV>
20.7246

>  <SCORE.INTER.VDW>
-32.8736

>  <SCORE.INTER.norm>
-0.695097

>  <SCORE.INTRA>
-12.3702

>  <SCORE.INTRA.DIHEDRAL>
0.457228

>  <SCORE.INTRA.DIHEDRAL.0>
14.6094

>  <SCORE.INTRA.POLAR>
0

>  <SCORE.INTRA.POLAR.0>
0

>  <SCORE.INTRA.REPUL>
0

>  <SCORE.INTRA.REPUL.0>
0

>  <SCORE.INTRA.SOLV>
0.181234

>  <SCORE.INTRA.SOLV.lig_0>
-65.6478

>  <SCORE.INTRA.VDW>
-12.6895

>  <SCORE.INTRA.VDW.0>
9.35535

>  <SCORE.INTRA.norm>
-0.39904

>  <SCORE.RESTR>
0

>  <SCORE.RESTR.CAVITY>
0

>  <SCORE.RESTR.norm>
0

>  <SCORE.SYSTEM>
0

>  <SCORE.SYSTEM.CONST>
0

>  <SCORE.SYSTEM.DIHEDRAL>
0

>  <SCORE.SYSTEM.SOLV>
0

>  <SCORE.SYSTEM.norm>
0

>  <SCORE.heavy>
31

>  <SCORE.norm>
-1.09414

>  <RMSD>
5.193

$$$$
ligand
 OpenBabel11021811443D
libRbt.so/2013.1/901 2013/11/27
 31 32  0  0  0  0  0  0  0  0999 V2000
    3.7978   19.7885   54.1946 C   0  0  0  0  0  0  0  0  0  0  0  0
    2.2860   19.9326   54.0462 C   0  0  0  0  0  0  0  0  0  0  0  0
    1.4936   20.3704   55.1564 C   0  0  0  0  0  0  0  0  0  0  0  0
    0.0912   20.4989   55.0135 C   0  0  0  0  0  0  0  0  0  0  0  0
   -0.5357   20.2047   53.7779 C   0  0  0  0  0  0  0  0  0  0  0  0
    0.2291   19.7785   52.6731 C   0  0  0  0  0  0  0  0  0  0  0  0
    1.6236   19.6428   52.7954 C   0  0  0  0  0  0  0  0  0  0  0  0
    4.4121   20.5240   54.9666 O   0  0  0  0  0  0  0  0  0  0  0  0
   13.6039   19.1371   54.8189 C   0  0  0  0  0  0  0  0  0  0  0  0
    5.6091   21.6372   52.1914 C   0  0  0  0  0  0  0  0  0  0  0  0
    5.7220   16.7050   48.2397 P   0  0  1  0  0  0  0  0  0  0  0  0
   11.3355   18.7352   54.1652 N   0  0  0  0  0  0  0  0  0  0  0  0
    6.4533   17.8732   47.7130 O   0  0  0  0  0  0  0  0  0  0  0  0
    4.4905   18.8366   53.4667 S   0  0  0  0  0  0  0  0  0  0  0  0
    8.3057   20.0400   51.0434 C   0  0  0  0  0  0  0  0  0  0  0  0
   12.2997   19.6748   54.4526 C   0  0  0  0  0  0  0  0  0  0  0  0
    5.0896   15.8499   47.1990 O   0  5  0  0  0  0  0  0  0  0  0  0
    7.7185   20.3125   52.2350 N   0  0  0  0  0  0  0  0  0  0  0  0
   12.1009   20.9550   54.4114 N   0  0  0  0  0  0  0  0  0  0  0  0
    6.5767   15.9489   49.1841 O   0  0  0  0  0  0  0  0  0  0  0  0
    6.2489   20.2758   52.2291 C   0  0  2  0  0  0  0  0  0  0  0  0
   10.8601   21.4580   54.0698 C   0  0  0  0  0  0  0  0  0  0  0  0
   10.6901   22.7821   54.0419 N   0  0  0  0  0  0  0  0  0  0  0  0
    5.3982   19.0896   52.2325 C   0  0  1  0  0  0  0  0  0  0  0  0
    9.7851   20.5283   53.7601 C   0  0  0  0  0  0  0  0  0  0  0  0
    9.0006   19.0487   51.0839 O   0  0  0  0  0  0  0  0  0  0  0  0
    5.3504   18.0917   51.1304 C   0  0  0  0  0  0  0  0  0  0  0  0
   10.1030   19.1868   53.8247 C   0  0  0  0  0  0  0  0  0  0  0  0
    4.4669   18.3189   49.9799 C   0  0  0  0  0  0  0  0  0  0  0  0
    8.3975   21.0170   53.4230 C   0  0  0  0  0  0  0  0  0  0  0  0
    4.4931   17.1951   49.0826 O   0  0  0  0  0  0  0  0  0  0  0  0
  1  2  1  0  0  0  0
  1  8  2  0  0  0  0
  1 14  1  0  0  0  0
  2  3  2  0  0  0  0
  2  7  1  0  0  0  0
  3  4  1  0  0  0  0
  4  5  2  0  0  0  0
  5  6  1  0  0  0  0
  6  7  2  0  0  0  0
  9 16  1  0  0  0  0
 10 21  1  0  0  0  0
 11 13  1  6  0  0  0
 11 17  1  0  0  0  0
 11 20  2  0  0  0  0
 11 31  1  0  0  0  0
 12 16  2  0  0  0  0
 12 28  1  0  0  0  0
 15 26  1  0  0  0  0
 15 18  1  0  0  0  0
 16 19  1  0  0  0  0
 18 30  1  0  0  0  0
 19 22  2  0  0  0  0
 21 18  1  6  0  0  0
 21 24  1  0  0  0  0
 22 23  1  0  0  0  0
 22 25  1  0  0  0  0
 24 14  1  1  0  0  0
 24 27  1  0  0  0  0
 25 28  2  0  0  0  0
 25 30  1  0  0  0  0
 27 29  1  0  0  0  0
 29 31  1  0  0  0  0
M  CHG  1  17  -1
M  END
>  <CHROM.1>
-30.92649696,105.26189211,38.69944287,-117.83742327,-102.04922408,-45.50877709
-65.98029809,95.03526166,136.50251050,-175.61253763,-65.60113140,-39.63439041
6.35875148,19.26714406,52.21964338,2.88838678,-0.01442042,-2.12899871

>  <Name>
ligand

>  <RI>
0

>  <Rbt.Current_Directory>
/home/itssahil/PROJECTS/Mol_Feturizer/New_Systems/rnas/2HOO

>  <Rbt.Executable>
rbdock ($Id: //depot/dev/client3/rdock/2013.1/src/exe/rbdock.cxx#4 $)

>  <Rbt.Library>
libRbt.so (2013.1, Build901 2013/11/27)

>  <Rbt.Parameter_File>
/export/apps/rDock/src/rDock_2013.1_src/data/scripts/dock_solv.prm

>  <Rbt.Receptor>
prm/pocket_docking_2.prm

>  <SCORE>
-25.4653

>  <SCORE.INTER>
-14.1642

>  <SCORE.INTER.CONST>
1

>  <SCORE.INTER.POLAR>
0

>  <SCORE.INTER.ROT>
12

>  <SCORE.INTER.SOLV>
17.3665

>  <SCORE.INTER.VDW>
-26.8316

>  <SCORE.INTER.norm>
-0.456911

>  <SCORE.INTRA>
-11.4165

>  <SCORE.INTRA.DIHEDRAL>
3.29521

>  <SCORE.INTRA.DIHEDRAL.0>
14.6094

>  <SCORE.INTRA.POLAR>
0

>  <SCORE.INTRA.POLAR.0>
0

>  <SCORE.INTRA.REPUL>
0

>  <SCORE.INTRA.REPUL.0>
0

>  <SCORE.INTRA.SOLV>
0.320252

>  <SCORE.INTRA.SOLV.lig_0>
-65.6478

>  <SCORE.INTRA.VDW>
-13.2242

>  <SCORE.INTRA.VDW.0>
9.35535

>  <SCORE.INTRA.norm>
-0.368274

>  <SCORE.RESTR>
0.115431

>  <SCORE.RESTR.CAVITY>
0.115431

>  <SCORE.RESTR.norm>
0.00372357

>  <SCORE.SYSTEM>
0

>  <SCORE.SYSTEM.CONST>
0

>  <SCORE.SYSTEM.DIHEDRAL>
0

>  <SCORE.SYSTEM.SOLV>
0

>  <SCORE.SYSTEM.norm>
0

>  <SCORE.heavy>
31

>  <SCORE.norm>
-0.821462

>  <RMSD>
5.211

$$$$
ligand
 OpenBabel11021811443D
libRbt.so/2013.1/901 2013/11/27
 31 32  0  0  0  0  0  0  0  0999 V2000
    3.4540   20.1200   53.4285 C   0  0  0  0  0  0  0  0  0  0  0  0
    3.6395   20.6132   54.8604 C   0  0  0  0  0  0  0  0  0  0  0  0
    4.8872   21.1883   55.2663 C   0  0  0  0  0  0  0  0  0  0  0  0
    5.0543   21.6409   56.5971 C   0  0  0  0  0  0  0  0  0  0  0  0
    3.9942   21.5365   57.5307 C   0  0  0  0  0  0  0  0  0  0  0  0
    2.7576   20.9789   57.1470 C   0  0  0  0  0  0  0  0  0  0  0  0
    2.5724   20.5218   55.8300 C   0  0  0  0  0  0  0  0  0  0  0  0
    2.8972   20.8382   52.5987 O   0  0  0  0  0  0  0  0  0  0  0  0
   12.9770   20.3190   54.3759 C   0  0  0  0  0  0  0  0  0  0  0  0
    6.8628   17.1804   52.1072 C   0  0  0  0  0  0  0  0  0  0  0  0
    2.5373   15.2749   50.7457 P   0  0  1  0  0  0  0  0  0  0  0  0
   11.0668   21.3963   53.4141 N   0  0  0  0  0  0  0  0  0  0  0  0
    2.6539   13.9788   51.4409 O   0  0  0  0  0  0  0  0  0  0  0  0
    3.9055   18.8677   53.0496 S   0  0  0  0  0  0  0  0  0  0  0  0
    7.2485   20.1140   50.4781 C   0  0  0  0  0  0  0  0  0  0  0  0
   11.5515   20.2895   54.0738 C   0  0  0  0  0  0  0  0  0  0  0  0
    1.9076   15.2010   49.3996 O   0  5  0  0  0  0  0  0  0  0  0  0
    7.0842   19.6338   51.7356 N   0  0  0  0  0  0  0  0  0  0  0  0
   10.8241   19.2736   54.4187 N   0  0  0  0  0  0  0  0  0  0  0  0
    1.9093   16.2788   51.6358 O   0  0  0  0  0  0  0  0  0  0  0  0
    6.1677   18.4903   51.8518 C   0  0  2  0  0  0  0  0  0  0  0  0
    9.4745   19.2491   54.1232 C   0  0  0  0  0  0  0  0  0  0  0  0
    8.7568   18.1845   54.4897 N   0  0  0  0  0  0  0  0  0  0  0  0
    4.7106   18.5183   51.7686 C   0  0  1  0  0  0  0  0  0  0  0  0
    8.8878   20.3788   53.4194 C   0  0  0  0  0  0  0  0  0  0  0  0
    8.4153   20.2162   50.1687 O   0  0  0  0  0  0  0  0  0  0  0  0
    3.9376   18.2206   50.5330 C   0  0  0  0  0  0  0  0  0  0  0  0
    9.7464   21.4128   53.1054 C   0  0  0  0  0  0  0  0  0  0  0  0
    4.2806   17.0435   49.7252 C   0  0  0  0  0  0  0  0  0  0  0  0
    7.4295   20.3900   53.0308 C   0  0  0  0  0  0  0  0  0  0  0  0
    3.9707   15.8289   50.4304 O   0  0  0  0  0  0  0  0  0  0  0  0
  1  2  1  0  0  0  0
  1  8  2  0  0  0  0
  1 14  1  0  0  0  0
  2  3  2  0  0  0  0
  2  7  1  0  0  0  0
  3  4  1  0  0  0  0
  4  5  2  0  0  0  0
  5  6  1  0  0  0  0
  6  7  2  0  0  0  0
  9 16  1  0  0  0  0
 10 21  1  0  0  0  0
 11 13  1  1  0  0  0
 11 17  1  0  0  0  0
 11 20  2  0  0  0  0
 11 31  1  0  0  0  0
 12 16  2  0  0  0  0
 12 28  1  0  0  0  0
 15 26  1  0  0  0  0
 15 18  1  0  0  0  0
 16 19  1  0  0  0  0
 18 30  1  0  0  0  0
 19 22  2  0  0  0  0
 21 18  1  1  0  0  0
 21 24  1  0  0  0  0
 22 23  1  0  0  0  0
 22 25  1  0  0  0  0
 24 14  1  1  0  0  0
 24 27  1  0  0  0  0
 25 28  2  0  0  0  0
 25 30  1  0  0  0  0
 27 29  1  0  0  0  0
 29 31  1  0  0  0  0
M  CHG  1  17  -1
M  END
>  <CHROM.1>
-97.70532255,-134.00327737,93.50824533,-128.75849459,106.74269137,-80.24422342
94.76796321,-133.12575594,-81.98948668,68.03754661,70.34768909,177.88061827
5.73448488,18.85280074,52.76710099,2.54777368,-0.16734284,-2.29889966

>  <Name>
ligand

>  <RI>
0

>  <Rbt.Current_Directory>
/home/itssahil/PROJECTS/Mol_Feturizer/New_Systems/rnas/2HOO

>  <Rbt.Executable>
rbdock ($Id: //depot/dev/client3/rdock/2013.1/src/exe/rbdock.cxx#4 $)

>  <Rbt.Library>
libRbt.so (2013.1, Build901 2013/11/27)

>  <Rbt.Parameter_File>
/export/apps/rDock/src/rDock_2013.1_src/data/scripts/dock_solv.prm

>  <Rbt.Receptor>
prm/pocket_docking_4.prm

>  <SCORE>
-28.2274

>  <SCORE.INTER>
-16.07

>  <SCORE.INTER.CONST>
1

>  <SCORE.INTER.POLAR>
0

>  <SCORE.INTER.ROT>
12

>  <SCORE.INTER.SOLV>
16.789

>  <SCORE.INTER.VDW>
-27.9097

>  <SCORE.INTER.norm>
-0.518389

>  <SCORE.INTRA>
-12.1574

>  <SCORE.INTRA.DIHEDRAL>
1.07644

>  <SCORE.INTRA.DIHEDRAL.0>
14.6094

>  <SCORE.INTRA.POLAR>
0

>  <SCORE.INTRA.POLAR.0>
0

>  <SCORE.INTRA.REPUL>
0

>  <SCORE.INTRA.REPUL.0>
0

>  <SCORE.INTRA.SOLV>
5.56047

>  <SCORE.INTRA.SOLV.lig_0>
-65.6478

>  <SCORE.INTRA.VDW>
-15.4758

>  <SCORE.INTRA.VDW.0>
9.35535

>  <SCORE.INTRA.norm>
-0.392174

>  <SCORE.RESTR>
0

>  <SCORE.RESTR.CAVITY>
0

>  <SCORE.RESTR.norm>
0

>  <SCORE.SYSTEM>
0

>  <SCORE.SYSTEM.CONST>
0

>  <SCORE.SYSTEM.DIHEDRAL>
0

>  <SCORE.SYSTEM.SOLV>
0

>  <SCORE.SYSTEM.norm>
0

>  <SCORE.heavy>
31

>  <SCORE.norm>
-0.910562

>  <RMSD>
5.244

$$$$
ligand
 OpenBabel11021811443D
libRbt.so/2013.1/901 2013/11/27
 31 32  0  0  0  0  0  0  0  0999 V2000
    3.1158   17.6948   52.5255 C   0  0  0  0  0  0  0  0  0  0  0  0
    1.9124   18.5126   52.9850 C   0  0  0  0  0  0  0  0  0  0  0  0
    2.0146   19.3552   54.1390 C   0  0  0  0  0  0  0  0  0  0  0  0
    0.8937   20.1089   54.5623 C   0  0  0  0  0  0  0  0  0  0  0  0
   -0.3283   20.0426   53.8492 C   0  0  0  0  0  0  0  0  0  0  0  0
   -0.4452   19.2235   52.7078 C   0  0  0  0  0  0  0  0  0  0  0  0
    0.6566   18.4656   52.2723 C   0  0  0  0  0  0  0  0  0  0  0  0
    2.9452   16.6138   51.9627 O   0  0  0  0  0  0  0  0  0  0  0  0
   13.0173   20.1020   54.6685 C   0  0  0  0  0  0  0  0  0  0  0  0
    4.6046   21.5983   52.1251 C   0  0  0  0  0  0  0  0  0  0  0  0
    6.2637   16.2747   48.3777 P   0  0  1  0  0  0  0  0  0  0  0  0
   11.0284   19.4204   53.5221 N   0  0  0  0  0  0  0  0  0  0  0  0
    5.9726   15.2651   49.4134 O   0  0  0  0  0  0  0  0  0  0  0  0
    4.4038   18.1556   52.7362 S   0  0  0  0  0  0  0  0  0  0  0  0
    6.8019   20.3698   54.3842 C   0  0  0  0  0  0  0  0  0  0  0  0
   11.7451   20.4665   54.0579 C   0  0  0  0  0  0  0  0  0  0  0  0
    7.5473   17.0032   48.5668 O   0  5  0  0  0  0  0  0  0  0  0  0
    6.7572   20.8141   53.1038 N   0  0  0  0  0  0  0  0  0  0  0  0
   11.3506   21.7011   54.0403 N   0  0  0  0  0  0  0  0  0  0  0  0
    6.1161   15.6815   47.0284 O   0  0  0  0  0  0  0  0  0  0  0  0
    5.5448   20.4468   52.3579 C   0  0  2  0  0  0  0  0  0  0  0  0
   10.1402   22.0388   53.4657 C   0  0  0  0  0  0  0  0  0  0  0  0
    9.7635   23.3199   53.4695 N   0  0  0  0  0  0  0  0  0  0  0  0
    5.2023   19.1302   51.8287 C   0  0  1  0  0  0  0  0  0  0  0  0
    9.3195   20.9877   52.8848 C   0  0  0  0  0  0  0  0  0  0  0  0
    6.2057   21.0959   55.1490 O   0  0  0  0  0  0  0  0  0  0  0  0
    5.5799   18.6500   50.4724 C   0  0  0  0  0  0  0  0  0  0  0  0
    9.8343   19.7087   52.9477 C   0  0  0  0  0  0  0  0  0  0  0  0
    4.5900   17.9470   49.6468 C   0  0  0  0  0  0  0  0  0  0  0  0
    7.9689   21.2890   52.2822 C   0  0  0  0  0  0  0  0  0  0  0  0
    5.1969   17.4223   48.4530 O   0  0  0  0  0  0  0  0  0  0  0  0
  1  2  1  0  0  0  0
  1  8  2  0  0  0  0
  1 14  1  0  0  0  0
  2  3  2  0  0  0  0
  2  7  1  0  0  0  0
  3  4  1  0  0  0  0
  4  5  2  0  0  0  0
  5  6  1  0  0  0  0
  6  7  2  0  0  0  0
  9 16  1  0  0  0  0
 10 21  1  0  0  0  0
 11 13  1  1  0  0  0
 11 17  1  0  0  0  0
 11 20  2  0  0  0  0
 11 31  1  0  0  0  0
 12 16  2  0  0  0  0
 12 28  1  0  0  0  0
 15 26  1  0  0  0  0
 15 18  1  0  0  0  0
 16 19  1  0  0  0  0
 18 30  1  0  0  0  0
 19 22  2  0  0  0  0
 21 18  1  6  0  0  0
 21 24  1  0  0  0  0
 22 23  1  0  0  0  0
 22 25  1  0  0  0  0
 24 14  1  1  0  0  0
 24 27  1  0  0  0  0
 25 28  2  0  0  0  0
 25 30  1  0  0  0  0
 27 29  1  0  0  0  0
 29 31  1  0  0  0  0
M  CHG  1  17  -1
M  END
>  <CHROM.1>
149.30453481,-85.01599458,114.24942883,-83.23664023,107.30891559,11.68168694
-91.33620760,44.75006412,-107.38597467,-172.74567393,67.04842333,36.01970909
6.01950540,19.09276599,52.03230826,2.71580536,-0.11703133,-2.26056442

>  <Name>
ligand

>  <RI>
0

>  <Rbt.Current_Directory>
/home/itssahil/PROJECTS/Mol_Feturizer/New_Systems/rnas/2HOO

>  <Rbt.Executable>
rbdock ($Id: //depot/dev/client3/rdock/2013.1/src/exe/rbdock.cxx#4 $)

>  <Rbt.Library>
libRbt.so (2013.1, Build901 2013/11/27)

>  <Rbt.Parameter_File>
/export/apps/rDock/src/rDock_2013.1_src/data/scripts/dock_solv.prm

>  <Rbt.Receptor>
prm/pocket_docking_2.prm

>  <SCORE>
-23.2853

>  <SCORE.INTER>
-13.039

>  <SCORE.INTER.CONST>
1

>  <SCORE.INTER.POLAR>
0

>  <SCORE.INTER.ROT>
12

>  <SCORE.INTER.SOLV>
11.9933

>  <SCORE.INTER.VDW>
-24.2905

>  <SCORE.INTER.norm>
-0.420614

>  <SCORE.INTRA>
-10.3084

>  <SCORE.INTRA.DIHEDRAL>
5.66965

>  <SCORE.INTRA.DIHEDRAL.0>
14.6094

>  <SCORE.INTRA.POLAR>
0

>  <SCORE.INTRA.POLAR.0>
0

>  <SCORE.INTRA.REPUL>
0

>  <SCORE.INTRA.REPUL.0>
0

>  <SCORE.INTRA.SOLV>
0.912116

>  <SCORE.INTRA.SOLV.lig_0>
-65.6478

>  <SCORE.INTRA.VDW>
-13.5992

>  <SCORE.INTRA.VDW.0>
9.35535

>  <SCORE.INTRA.norm>
-0.332527

>  <SCORE.RESTR>
0.0620508

>  <SCORE.RESTR.CAVITY>
0.0620508

>  <SCORE.RESTR.norm>
0.00200164

>  <SCORE.SYSTEM>
0

>  <SCORE.SYSTEM.CONST>
0

>  <SCORE.SYSTEM.DIHEDRAL>
0

>  <SCORE.SYSTEM.SOLV>
0

>  <SCORE.SYSTEM.norm>
0

>  <SCORE.heavy>
31

>  <SCORE.norm>
-0.75114

>  <RMSD>
5.247

$$$$
ligand
 OpenBabel11021811443D
libRbt.so/2013.1/901 2013/11/27
 31 32  0  0  0  0  0  0  0  0999 V2000
    4.9259   19.3773   50.5201 C   0  0  0  0  0  0  0  0  0  0  0  0
    6.2307   19.5673   49.7522 C   0  0  0  0  0  0  0  0  0  0  0  0
    7.2753   20.3799   50.3006 C   0  0  0  0  0  0  0  0  0  0  0  0
    8.4821   20.5551   49.5818 C   0  0  0  0  0  0  0  0  0  0  0  0
    8.6690   19.9270   48.3262 C   0  0  0  0  0  0  0  0  0  0  0  0
    7.6542   19.1189   47.7742 C   0  0  0  0  0  0  0  0  0  0  0  0
    6.4472   18.9340   48.4720 C   0  0  0  0  0  0  0  0  0  0  0  0
    3.9972   18.7530   50.0082 O   0  0  0  0  0  0  0  0  0  0  0  0
    8.2843   24.4148   52.2495 C   0  0  0  0  0  0  0  0  0  0  0  0
    1.5494   21.0260   52.1377 C   0  0  0  0  0  0  0  0  0  0  0  0
    2.6947   15.4945   50.6804 P   0  0  1  0  0  0  0  0  0  0  0  0
    6.0774   23.6081   51.7881 N   0  0  0  0  0  0  0  0  0  0  0  0
    2.4534   14.3169   51.5360 O   0  0  0  0  0  0  0  0  0  0  0  0
    4.7727   19.9024   51.7915 S   0  0  0  0  0  0  0  0  0  0  0  0
    2.9645   21.0497   55.4263 C   0  0  0  0  0  0  0  0  0  0  0  0
    6.9391   24.1247   52.7293 C   0  0  0  0  0  0  0  0  0  0  0  0
    3.7611   15.3096   49.6593 O   0  5  0  0  0  0  0  0  0  0  0  0
    2.7549   21.6476   54.2273 N   0  0  0  0  0  0  0  0  0  0  0  0
    6.6149   24.3512   53.9636 N   0  0  0  0  0  0  0  0  0  0  0  0
    1.4171   15.9875   50.1156 O   0  0  0  0  0  0  0  0  0  0  0  0
    2.6873   20.7338   53.0779 C   0  0  2  0  0  0  0  0  0  0  0  0
    5.3396   24.0675   54.4136 C   0  0  0  0  0  0  0  0  0  0  0  0
    5.0419   24.3095   55.6926 N   0  0  0  0  0  0  0  0  0  0  0  0
    3.5988   19.6353   52.7722 C   0  0  1  0  0  0  0  0  0  0  0  0
    4.3721   23.5108   53.4810 C   0  0  0  0  0  0  0  0  0  0  0  0
    2.2873   21.5290   56.3090 O   0  0  0  0  0  0  0  0  0  0  0  0
    3.4714   18.2627   53.3312 C   0  0  0  0  0  0  0  0  0  0  0  0
    4.8150   23.3160   52.1884 C   0  0  0  0  0  0  0  0  0  0  0  0
    2.5905   17.2880   52.6755 C   0  0  0  0  0  0  0  0  0  0  0  0
    2.9779   23.1401   53.9244 C   0  0  0  0  0  0  0  0  0  0  0  0
    3.2505   16.6711   51.5564 O   0  0  0  0  0  0  0  0  0  0  0  0
  1  2  1  0  0  0  0
  1  8  2  0  0  0  0
  1 14  1  0  0  0  0
  2  3  2  0  0  0  0
  2  7  1  0  0  0  0
  3  4  1  0  0  0  0
  4  5  2  0  0  0  0
  5  6  1  0  0  0  0
  6  7  2  0  0  0  0
  9 16  1  0  0  0  0
 10 21  1  0  0  0  0
 11 13  1  1  0  0  0
 11 17  1  0  0  0  0
 11 20  2  0  0  0  0
 11 31  1  0  0  0  0
 12 16  2  0  0  0  0
 12 28  1  0  0  0  0
 15 26  1  0  0  0  0
 15 18  1  0  0  0  0
 16 19  1  0  0  0  0
 18 30  1  0  0  0  0
 19 22  2  0  0  0  0
 21 18  1  6  0  0  0
 21 24  1  0  0  0  0
 22 23  1  0  0  0  0
 22 25  1  0  0  0  0
 24 14  1  6  0  0  0
 24 27  1  0  0  0  0
 25 28  2  0  0  0  0
 25 30  1  0  0  0  0
 27 29  1  0  0  0  0
 29 31  1  0  0  0  0
M  CHG  1  17  -1
M  END
>  <CHROM.1>
175.16427021,-170.96110696,-111.88153745,-138.59912646,134.80503348,88.15784876
83.43999877,-94.25296586,-98.78004568,81.99339166,174.28568196,-59.82510256
4.46407285,20.02388406,51.94400652,-1.92080994,0.66553929,0.61529562

>  <Name>
ligand

>  <RI>
0

>  <Rbt.Current_Directory>
/home/itssahil/PROJECTS/Mol_Feturizer/New_Systems/rnas/2HOO

>  <Rbt.Executable>
rbdock ($Id: //depot/dev/client3/rdock/2013.1/src/exe/rbdock.cxx#4 $)

>  <Rbt.Library>
libRbt.so (2013.1, Build901 2013/11/27)

>  <Rbt.Parameter_File>
/export/apps/rDock/src/rDock_2013.1_src/data/scripts/dock_solv.prm

>  <Rbt.Receptor>
prm/pocket_docking_4.prm

>  <SCORE>
-24.5722

>  <SCORE.INTER>
-11.029

>  <SCORE.INTER.CONST>
1

>  <SCORE.INTER.POLAR>
0

>  <SCORE.INTER.ROT>
12

>  <SCORE.INTER.SOLV>
11.5707

>  <SCORE.INTER.VDW>
-22.8096

>  <SCORE.INTER.norm>
-0.355774

>  <SCORE.INTRA>
-13.5624

>  <SCORE.INTRA.DIHEDRAL>
-0.380531

>  <SCORE.INTRA.DIHEDRAL.0>
14.6094

>  <SCORE.INTRA.POLAR>
0

>  <SCORE.INTRA.POLAR.0>
0

>  <SCORE.INTRA.REPUL>
0

>  <SCORE.INTRA.REPUL.0>
0

>  <SCORE.INTRA.SOLV>
2.58038

>  <SCORE.INTRA.SOLV.lig_0>
-65.6478

>  <SCORE.INTRA.VDW>
-14.6623

>  <SCORE.INTRA.VDW.0>
9.35535

>  <SCORE.INTRA.norm>
-0.437498

>  <SCORE.RESTR>
0.0191968

>  <SCORE.RESTR.CAVITY>
0.0191968

>  <SCORE.RESTR.norm>
0.000619252

>  <SCORE.SYSTEM>
0

>  <SCORE.SYSTEM.CONST>
0

>  <SCORE.SYSTEM.DIHEDRAL>
0

>  <SCORE.SYSTEM.SOLV>
0

>  <SCORE.SYSTEM.norm>
0

>  <SCORE.heavy>
31

>  <SCORE.norm>
-0.792653

>  <RMSD>
5.255

$$$$
ligand
 OpenBabel11021811443D
libRbt.so/2013.1/901 2013/11/27
 31 32  0  0  0  0  0  0  0  0999 V2000
    2.8441   19.5400   52.2693 C   0  0  0  0  0  0  0  0  0  0  0  0
    1.6797   18.6724   52.7377 C   0  0  0  0  0  0  0  0  0  0  0  0
    1.1659   18.8162   54.0672 C   0  0  0  0  0  0  0  0  0  0  0  0
    0.0876   18.0061   54.4970 C   0  0  0  0  0  0  0  0  0  0  0  0
   -0.4934   17.0576   53.6201 C   0  0  0  0  0  0  0  0  0  0  0  0
   -0.0046   16.9068   52.3065 C   0  0  0  0  0  0  0  0  0  0  0  0
    1.0672   17.7010   51.8611 C   0  0  0  0  0  0  0  0  0  0  0  0
    2.6351   20.6848   51.8693 O   0  0  0  0  0  0  0  0  0  0  0  0
   12.7581   20.8583   54.1018 C   0  0  0  0  0  0  0  0  0  0  0  0
    7.5545   20.5400   50.9270 C   0  0  0  0  0  0  0  0  0  0  0  0
    5.2475   15.7881   48.4736 P   0  0  1  0  0  0  0  0  0  0  0  0
   10.5765   21.8433   54.0319 N   0  0  0  0  0  0  0  0  0  0  0  0
    6.0247   14.8675   49.3251 O   0  0  0  0  0  0  0  0  0  0  0  0
    4.1393   19.0522   52.2875 S   0  0  0  0  0  0  0  0  0  0  0  0
    5.4586   22.0909   53.1284 C   0  0  0  0  0  0  0  0  0  0  0  0
   11.3120   20.6867   54.1606 C   0  0  0  0  0  0  0  0  0  0  0  0
    5.1433   15.3739   47.0482 O   0  5  0  0  0  0  0  0  0  0  0  0
    6.3544   21.0763   53.0432 N   0  0  0  0  0  0  0  0  0  0  0  0
   10.7925   19.5105   54.3238 N   0  0  0  0  0  0  0  0  0  0  0  0
    3.9373   16.0814   49.0993 O   0  0  0  0  0  0  0  0  0  0  0  0
    6.3315   20.3286   51.7778 C   0  0  2  0  0  0  0  0  0  0  0  0
    9.4205   19.3540   54.3719 C   0  0  0  0  0  0  0  0  0  0  0  0
    8.9201   18.1271   54.5368 N   0  0  0  0  0  0  0  0  0  0  0  0
    5.2862   19.4239   51.3089 C   0  0  1  0  0  0  0  0  0  0  0  0
    8.5732   20.5284   54.2348 C   0  0  0  0  0  0  0  0  0  0  0  0
    5.7698   23.0436   52.4481 O   0  0  0  0  0  0  0  0  0  0  0  0
    5.2512   18.8192   49.9503 C   0  0  0  0  0  0  0  0  0  0  0  0
    9.2255   21.7341   54.0741 C   0  0  0  0  0  0  0  0  0  0  0  0
    6.3794   18.0014   49.4876 C   0  0  0  0  0  0  0  0  0  0  0  0
    7.0683   20.4150   54.2356 C   0  0  0  0  0  0  0  0  0  0  0  0
    5.9897   17.1672   48.3827 O   0  0  0  0  0  0  0  0  0  0  0  0
  1  2  1  0  0  0  0
  1  8  2  0  0  0  0
  1 14  1  0  0  0  0
  2  3  2  0  0  0  0
  2  7  1  0  0  0  0
  3  4  1  0  0  0  0
  4  5  2  0  0  0  0
  5  6  1  0  0  0  0
  6  7  2  0  0  0  0
  9 16  1  0  0  0  0
 10 21  1  0  0  0  0
 11 13  1  1  0  0  0
 11 17  1  0  0  0  0
 11 20  2  0  0  0  0
 11 31  1  0  0  0  0
 12 16  2  0  0  0  0
 12 28  1  0  0  0  0
 15 26  1  0  0  0  0
 15 18  1  0  0  0  0
 16 19  1  0  0  0  0
 18 30  1  0  0  0  0
 19 22  2  0  0  0  0
 21 18  1  1  0  0  0
 21 24  1  0  0  0  0
 22 23  1  0  0  0  0
 22 25  1  0  0  0  0
 24 14  1  1  0  0  0
 24 27  1  0  0  0  0
 25 28  2  0  0  0  0
 25 30  1  0  0  0  0
 27 29  1  0  0  0  0
 29 31  1  0  0  0  0
M  CHG  1  17  -1
M  END
>  <CHROM.1>
-82.09743122,148.58955130,104.09198209,-73.17471133,110.95564162,-118.70874552
170.91737186,-121.63776747,-127.22579806,160.96936805,-82.04339025,-56.24135110
5.69231702,18.95238975,51.93744893,2.57623693,-0.11236097,-2.27663856

>  <Name>
ligand

>  <RI>
0

>  <Rbt.Current_Directory>
/home/itssahil/PROJECTS/Mol_Feturizer/New_Systems/rnas/2HOO

>  <Rbt.Executable>
rbdock ($Id: //depot/dev/client3/rdock/2013.1/src/exe/rbdock.cxx#4 $)

>  <Rbt.Library>
libRbt.so (2013.1, Build901 2013/11/27)

>  <Rbt.Parameter_File>
/export/apps/rDock/src/rDock_2013.1_src/data/scripts/dock_solv.prm

>  <Rbt.Receptor>
prm/pocket_docking_2.prm

>  <SCORE>
-18.155

>  <SCORE.INTER>
-8.57437

>  <SCORE.INTER.CONST>
1

>  <SCORE.INTER.POLAR>
0

>  <SCORE.INTER.ROT>
12

>  <SCORE.INTER.SOLV>
16.0879

>  <SCORE.INTER.VDW>
-22.6789

>  <SCORE.INTER.norm>
-0.276593

>  <SCORE.INTRA>
-10.9832

>  <SCORE.INTRA.DIHEDRAL>
2.44805

>  <SCORE.INTRA.DIHEDRAL.0>
14.6094

>  <SCORE.INTRA.POLAR>
0

>  <SCORE.INTRA.POLAR.0>
0

>  <SCORE.INTRA.REPUL>
0

>  <SCORE.INTRA.REPUL.0>
0

>  <SCORE.INTRA.SOLV>
1.33104

>  <SCORE.INTRA.SOLV.lig_0>
-65.6478

>  <SCORE.INTRA.VDW>
-12.8727

>  <SCORE.INTRA.VDW.0>
9.35535

>  <SCORE.INTRA.norm>
-0.354296

>  <SCORE.RESTR>
1.40252

>  <SCORE.RESTR.CAVITY>
1.40252

>  <SCORE.RESTR.norm>
0.0452425

>  <SCORE.SYSTEM>
0

>  <SCORE.SYSTEM.CONST>
0

>  <SCORE.SYSTEM.DIHEDRAL>
0

>  <SCORE.SYSTEM.SOLV>
0

>  <SCORE.SYSTEM.norm>
0

>  <SCORE.heavy>
31

>  <SCORE.norm>
-0.585646

>  <RMSD>
5.266

$$$$
ligand
 OpenBabel11021811443D
libRbt.so/2013.1/901 2013/11/27
 31 32  0  0  0  0  0  0  0  0999 V2000
    2.0495   20.3608   52.0241 C   0  0  0  0  0  0  0  0  0  0  0  0
    1.9882   19.1614   52.9653 C   0  0  0  0  0  0  0  0  0  0  0  0
    2.2206   19.3362   54.3680 C   0  0  0  0  0  0  0  0  0  0  0  0
    2.1657   18.2190   55.2356 C   0  0  0  0  0  0  0  0  0  0  0  0
    1.8752   16.9286   54.7289 C   0  0  0  0  0  0  0  0  0  0  0  0
    1.6378   16.7391   53.3523 C   0  0  0  0  0  0  0  0  0  0  0  0
    1.6897   17.8361   52.4737 C   0  0  0  0  0  0  0  0  0  0  0  0
    1.0214   20.9784   51.7483 O   0  0  0  0  0  0  0  0  0  0  0  0
    9.2801   17.5229   48.8206 C   0  0  0  0  0  0  0  0  0  0  0  0
    5.1005   21.2911   54.2648 C   0  0  0  0  0  0  0  0  0  0  0  0
    4.8977   16.1837   48.7825 P   0  0  1  0  0  0  0  0  0  0  0  0
    8.2702   19.6354   49.3221 N   0  0  0  0  0  0  0  0  0  0  0  0
    5.5844   14.8931   48.9814 O   0  0  0  0  0  0  0  0  0  0  0  0
    3.2533   20.7640   51.4727 S   0  0  0  0  0  0  0  0  0  0  0  0
    6.1129   23.4745   52.3051 C   0  0  0  0  0  0  0  0  0  0  0  0
    8.9812   18.5585   49.8015 C   0  0  0  0  0  0  0  0  0  0  0  0
    5.3604   16.9548   47.5970 O   0  5  0  0  0  0  0  0  0  0  0  0
    6.4887   22.1746   52.3943 N   0  0  0  0  0  0  0  0  0  0  0  0
    9.3749   18.4375   51.0305 N   0  0  0  0  0  0  0  0  0  0  0  0
    3.4292   15.9946   48.8260 O   0  0  0  0  0  0  0  0  0  0  0  0
    5.4244   21.2436   52.7961 C   0  0  2  0  0  0  0  0  0  0  0  0
    9.0823   19.4201   51.9570 C   0  0  0  0  0  0  0  0  0  0  0  0
    9.4999   19.2602   53.2152 N   0  0  0  0  0  0  0  0  0  0  0  0
    4.6744   20.3380   51.9310 C   0  0  1  0  0  0  0  0  0  0  0  0
    8.3262   20.5870   51.5300 C   0  0  0  0  0  0  0  0  0  0  0  0
    6.7785   24.0967   51.5068 O   0  0  0  0  0  0  0  0  0  0  0  0
    5.1783   19.0184   51.4645 C   0  0  0  0  0  0  0  0  0  0  0  0
    7.9624   20.6230   50.1991 C   0  0  0  0  0  0  0  0  0  0  0  0
    4.6583   18.4387   50.2198 C   0  0  0  0  0  0  0  0  0  0  0  0
    7.9391   21.6716   52.5055 C   0  0  0  0  0  0  0  0  0  0  0  0
    5.2349   17.1438   49.9764 O   0  0  0  0  0  0  0  0  0  0  0  0
  1  2  1  0  0  0  0
  1  8  2  0  0  0  0
  1 14  1  0  0  0  0
  2  3  2  0  0  0  0
  2  7  1  0  0  0  0
  3  4  1  0  0  0  0
  4  5  2  0  0  0  0
  5  6  1  0  0  0  0
  6  7  2  0  0  0  0
  9 16  1  0  0  0  0
 10 21  1  0  0  0  0
 11 13  1  1  0  0  0
 11 17  1  0  0  0  0
 11 20  2  0  0  0  0
 11 31  1  0  0  0  0
 12 16  2  0  0  0  0
 12 28  1  0  0  0  0
 15 26  1  0  0  0  0
 15 18  1  0  0  0  0
 16 19  1  0  0  0  0
 18 30  1  0  0  0  0
 19 22  2  0  0  0  0
 21 18  1  6  0  0  0
 21 24  1  0  0  0  0
 22 23  1  0  0  0  0
 22 25  1  0  0  0  0
 24 14  1  1  0  0  0
 24 27  1  0  0  0  0
 25 28  2  0  0  0  0
 25 30  1  0  0  0  0
 27 29  1  0  0  0  0
 29 31  1  0  0  0  0
M  CHG  1  17  -1
M  END
>  <CHROM.1>
-93.32017759,-14.93701648,-98.74629106,-152.31119443,-76.28089246,-129.52968653
78.81148251,25.65024361,-135.46533600,-177.81989557,177.61965314,-173.40188596
5.27797610,19.20058559,51.33689767,-2.93726917,-0.34658569,-2.54482957

>  <Name>
ligand

>  <RI>
0

>  <Rbt.Current_Directory>
/home/itssahil/PROJECTS/Mol_Feturizer/New_Systems/rnas/2HOO

>  <Rbt.Executable>
rbdock ($Id: //depot/dev/client3/rdock/2013.1/src/exe/rbdock.cxx#4 $)

>  <Rbt.Library>
libRbt.so (2013.1, Build901 2013/11/27)

>  <Rbt.Parameter_File>
/export/apps/rDock/src/rDock_2013.1_src/data/scripts/dock_solv.prm

>  <Rbt.Receptor>
prm/pocket_docking_4.prm

>  <SCORE>
-23.6171

>  <SCORE.INTER>
-8.04444

>  <SCORE.INTER.CONST>
1

>  <SCORE.INTER.POLAR>
0

>  <SCORE.INTER.ROT>
12

>  <SCORE.INTER.SOLV>
17.2834

>  <SCORE.INTER.VDW>
-22.7241

>  <SCORE.INTER.norm>
-0.259498

>  <SCORE.INTRA>
-15.5727

>  <SCORE.INTRA.DIHEDRAL>
-1.25671

>  <SCORE.INTRA.DIHEDRAL.0>
14.6094

>  <SCORE.INTRA.POLAR>
0

>  <SCORE.INTRA.POLAR.0>
0

>  <SCORE.INTRA.REPUL>
0

>  <SCORE.INTRA.REPUL.0>
0

>  <SCORE.INTRA.SOLV>
-0.268845

>  <SCORE.INTRA.SOLV.lig_0>
-65.6478

>  <SCORE.INTRA.VDW>
-14.8099

>  <SCORE.INTRA.VDW.0>
9.35535

>  <SCORE.INTRA.norm>
-0.502344

>  <SCORE.RESTR>
0

>  <SCORE.RESTR.CAVITY>
0

>  <SCORE.RESTR.norm>
0

>  <SCORE.SYSTEM>
0

>  <SCORE.SYSTEM.CONST>
0

>  <SCORE.SYSTEM.DIHEDRAL>
0

>  <SCORE.SYSTEM.SOLV>
0

>  <SCORE.SYSTEM.norm>
0

>  <SCORE.heavy>
31

>  <SCORE.norm>
-0.761842

>  <RMSD>
5.301

$$$$
ligand
 OpenBabel11021811443D
libRbt.so/2013.1/901 2013/11/27
 31 32  0  0  0  0  0  0  0  0999 V2000
    3.2671   19.5041   51.6632 C   0  0  0  0  0  0  0  0  0  0  0  0
    2.5203   20.8341   51.6262 C   0  0  0  0  0  0  0  0  0  0  0  0
    3.1857   22.0194   51.1738 C   0  0  0  0  0  0  0  0  0  0  0  0
    2.4886   23.2510   51.1450 C   0  0  0  0  0  0  0  0  0  0  0  0
    1.1341   23.3204   51.5535 C   0  0  0  0  0  0  0  0  0  0  0  0
    0.4617   22.1630   51.9957 C   0  0  0  0  0  0  0  0  0  0  0  0
    1.1375   20.9302   52.0334 C   0  0  0  0  0  0  0  0  0  0  0  0
    2.8180   18.5655   52.3204 O   0  0  0  0  0  0  0  0  0  0  0  0
   12.8849   20.3404   54.3168 C   0  0  0  0  0  0  0  0  0  0  0  0
    7.9936   18.2889   51.2642 C   0  0  0  0  0  0  0  0  0  0  0  0
    4.4056   14.7498   48.1267 P   0  0  1  0  0  0  0  0  0  0  0  0
   10.8836   19.0272   54.2476 N   0  0  0  0  0  0  0  0  0  0  0  0
    4.7617   15.8213   47.1771 O   0  0  0  0  0  0  0  0  0  0  0  0
    4.4503   19.3397   50.9642 S   0  0  0  0  0  0  0  0  0  0  0  0
    6.5955   17.4107   54.1132 C   0  0  0  0  0  0  0  0  0  0  0  0
   11.4350   20.2868   54.1789 C   0  0  0  0  0  0  0  0  0  0  0  0
    3.4683   13.7289   47.5851 O   0  5  0  0  0  0  0  0  0  0  0  0
    6.6843   18.5406   53.3687 N   0  0  0  0  0  0  0  0  0  0  0  0
   10.7474   21.3717   54.0049 N   0  0  0  0  0  0  0  0  0  0  0  0
    5.6296   14.1678   48.7246 O   0  0  0  0  0  0  0  0  0  0  0  0
    6.6371   18.3345   51.9140 C   0  0  2  0  0  0  0  0  0  0  0  0
    9.3723   21.3143   53.8816 C   0  0  0  0  0  0  0  0  0  0  0  0
    8.6958   22.4523   53.7078 N   0  0  0  0  0  0  0  0  0  0  0  0
    5.4464   18.1551   51.0888 C   0  0  1  0  0  0  0  0  0  0  0  0
    8.7131   20.0196   53.9521 C   0  0  0  0  0  0  0  0  0  0  0  0
    7.6640   16.8550   54.2433 O   0  0  0  0  0  0  0  0  0  0  0  0
    5.1133   16.9001   50.3629 C   0  0  0  0  0  0  0  0  0  0  0  0
    9.5363   18.9263   54.1306 C   0  0  0  0  0  0  0  0  0  0  0  0
    3.7482   16.6861   49.8665 C   0  0  0  0  0  0  0  0  0  0  0  0
    7.2111   19.8980   53.8678 C   0  0  0  0  0  0  0  0  0  0  0  0
    3.6003   15.3615   49.3259 O   0  0  0  0  0  0  0  0  0  0  0  0
  1  2  1  0  0  0  0
  1  8  2  0  0  0  0
  1 14  1  0  0  0  0
  2  3  2  0  0  0  0
  2  7  1  0  0  0  0
  3  4  1  0  0  0  0
  4  5  2  0  0  0  0
  5  6  1  0  0  0  0
  6  7  2  0  0  0  0
  9 16  1  0  0  0  0
 10 21  1  0  0  0  0
 11 13  1  6  0  0  0
 11 17  1  0  0  0  0
 11 20  2  0  0  0  0
 11 31  1  0  0  0  0
 12 16  2  0  0  0  0
 12 28  1  0  0  0  0
 15 26  1  0  0  0  0
 15 18  1  0  0  0  0
 16 19  1  0  0  0  0
 18 30  1  0  0  0  0
 19 22  2  0  0  0  0
 21 18  1  1  0  0  0
 21 24  1  0  0  0  0
 22 23  1  0  0  0  0
 22 25  1  0  0  0  0
 24 14  1  1  0  0  0
 24 27  1  0  0  0  0
 25 28  2  0  0  0  0
 25 30  1  0  0  0  0
 27 29  1  0  0  0  0
 29 31  1  0  0  0  0
M  CHG  1  17  -1
M  END
>  <CHROM.1>
163.49843968,168.70112494,-99.22106027,83.64946890,-96.92918986,78.45726094
-115.86935411,-15.91319340,155.33417329,-173.80286996,-60.17483514,-31.17362253
5.81939128,18.66052697,51.61973484,2.45827091,0.35343154,-2.61748104

>  <Name>
ligand

>  <RI>
0

>  <Rbt.Current_Directory>
/home/itssahil/PROJECTS/Mol_Feturizer/New_Systems/rnas/2HOO

>  <Rbt.Executable>
rbdock ($Id: //depot/dev/client3/rdock/2013.1/src/exe/rbdock.cxx#4 $)

>  <Rbt.Library>
libRbt.so (2013.1, Build901 2013/11/27)

>  <Rbt.Parameter_File>
/export/apps/rDock/src/rDock_2013.1_src/data/scripts/dock_solv.prm

>  <Rbt.Receptor>
prm/pocket_docking_5.prm

>  <SCORE>
-31.8252

>  <SCORE.INTER>
-19.9632

>  <SCORE.INTER.CONST>
1

>  <SCORE.INTER.POLAR>
0

>  <SCORE.INTER.ROT>
12

>  <SCORE.INTER.SOLV>
13.3187

>  <SCORE.INTER.VDW>
-29.3484

>  <SCORE.INTER.norm>
-0.643974

>  <SCORE.INTRA>
-11.862

>  <SCORE.INTRA.DIHEDRAL>
-1.53222

>  <SCORE.INTRA.DIHEDRAL.0>
14.6094

>  <SCORE.INTRA.POLAR>
0

>  <SCORE.INTRA.POLAR.0>
0

>  <SCORE.INTRA.REPUL>
0

>  <SCORE.INTRA.REPUL.0>
0

>  <SCORE.INTRA.SOLV>
0.411835

>  <SCORE.INTRA.SOLV.lig_0>
-65.6478

>  <SCORE.INTRA.VDW>
-11.3018

>  <SCORE.INTRA.VDW.0>
9.35535

>  <SCORE.INTRA.norm>
-0.382646

>  <SCORE.RESTR>
0

>  <SCORE.RESTR.CAVITY>
0

>  <SCORE.RESTR.norm>
0

>  <SCORE.SYSTEM>
0

>  <SCORE.SYSTEM.CONST>
0

>  <SCORE.SYSTEM.DIHEDRAL>
0

>  <SCORE.SYSTEM.SOLV>
0

>  <SCORE.SYSTEM.norm>
0

>  <SCORE.heavy>
31

>  <SCORE.norm>
-1.02662

>  <RMSD>
5.317

$$$$
ligand
 OpenBabel11021811443D
libRbt.so/2013.1/901 2013/11/27
 31 32  0  0  0  0  0  0  0  0999 V2000
    6.1397   16.3232   49.5294 C   0  0  0  0  0  0  0  0  0  0  0  0
    7.5388   16.9158   49.3904 C   0  0  0  0  0  0  0  0  0  0  0  0
    8.4978   16.7482   50.4414 C   0  0  0  0  0  0  0  0  0  0  0  0
    9.7931   17.3032   50.3080 C   0  0  0  0  0  0  0  0  0  0  0  0
   10.1523   18.0181   49.1391 C   0  0  0  0  0  0  0  0  0  0  0  0
    9.2235   18.1875   48.0923 C   0  0  0  0  0  0  0  0  0  0  0  0
    7.9308   17.6452   48.2066 C   0  0  0  0  0  0  0  0  0  0  0  0
    5.9931   15.1031   49.5952 O   0  0  0  0  0  0  0  0  0  0  0  0
    0.8253   17.7786   56.4676 C   0  0  0  0  0  0  0  0  0  0  0  0
    6.8640   19.7000   50.7941 C   0  0  0  0  0  0  0  0  0  0  0  0
   -0.1679   18.3480   52.3272 P   0  0  1  0  0  0  0  0  0  0  0  0
    2.9008   17.2638   55.3898 N   0  0  0  0  0  0  0  0  0  0  0  0
   -0.9223   17.6513   51.2678 O   0  0  0  0  0  0  0  0  0  0  0  0
    5.0273   17.1452   49.5813 S   0  0  0  0  0  0  0  0  0  0  0  0
    7.1411   17.5004   52.9908 C   0  0  0  0  0  0  0  0  0  0  0  0
    2.0506   18.2507   55.8353 C   0  0  0  0  0  0  0  0  0  0  0  0
   -0.7966   19.6077   52.8087 O   0  5  0  0  0  0  0  0  0  0  0  0
    6.1653   18.4260   52.8177 N   0  0  0  0  0  0  0  0  0  0  0  0
    2.2875   19.5198   55.7194 N   0  0  0  0  0  0  0  0  0  0  0  0
    0.1728   17.4051   53.4177 O   0  0  0  0  0  0  0  0  0  0  0  0
    5.8660   18.7627   51.4184 C   0  0  2  0  0  0  0  0  0  0  0  0
    3.4481   19.9606   55.1128 C   0  0  0  0  0  0  0  0  0  0  0  0
    3.6571   21.2751   55.0067 N   0  0  0  0  0  0  0  0  0  0  0  0
    4.7514   18.2714   50.6141 C   0  0  1  0  0  0  0  0  0  0  0  0
    4.3946   18.9784   54.6074 C   0  0  0  0  0  0  0  0  0  0  0  0
    6.8890   16.7210   53.8833 O   0  0  0  0  0  0  0  0  0  0  0  0
    3.3599   18.7888   50.7087 C   0  0  0  0  0  0  0  0  0  0  0  0
    4.0521   17.6538   54.7885 C   0  0  0  0  0  0  0  0  0  0  0  0
    2.3453   18.0208   51.4412 C   0  0  0  0  0  0  0  0  0  0  0  0
    5.6580   19.3990   53.8970 C   0  0  0  0  0  0  0  0  0  0  0  0
    1.2056   18.8413   51.7517 O   0  0  0  0  0  0  0  0  0  0  0  0
  1  2  1  0  0  0  0
  1  8  2  0  0  0  0
  1 14  1  0  0  0  0
  2  3  2  0  0  0  0
  2  7  1  0  0  0  0
  3  4  1  0  0  0  0
  4  5  2  0  0  0  0
  5  6  1  0  0  0  0
  6  7  2  0  0  0  0
  9 16  1  0  0  0  0
 10 21  1  0  0  0  0
 11 13  1  6  0  0  0
 11 17  1  0  0  0  0
 11 20  2  0  0  0  0
 11 31  1  0  0  0  0
 12 16  2  0  0  0  0
 12 28  1  0  0  0  0
 15 26  1  0  0  0  0
 15 18  1  0  0  0  0
 16 19  1  0  0  0  0
 18 30  1  0  0  0  0
 19 22  2  0  0  0  0
 21 18  1  6  0  0  0
 21 24  1  0  0  0  0
 22 23  1  0  0  0  0
 22 25  1  0  0  0  0
 24 14  1  6  0  0  0
 24 27  1  0  0  0  0
 25 28  2  0  0  0  0
 25 30  1  0  0  0  0
 27 29  1  0  0  0  0
 29 31  1  0  0  0  0
M  CHG  1  17  -1
M  END
>  <CHROM.1>
-64.23892838,-58.20233248,16.10554883,-140.31668285,-78.16477303,-98.05430772
76.93782431,78.52307139,-149.05564324,163.17156081,170.13497122,-73.40889008
4.26591531,18.08472167,52.12331449,0.54185107,0.01368247,-1.82386961

>  <Name>
ligand

>  <RI>
0

>  <Rbt.Current_Directory>
/home/itssahil/PROJECTS/Mol_Feturizer/New_Systems/rnas/2HOO

>  <Rbt.Executable>
rbdock ($Id: //depot/dev/client3/rdock/2013.1/src/exe/rbdock.cxx#4 $)

>  <Rbt.Library>
libRbt.so (2013.1, Build901 2013/11/27)

>  <Rbt.Parameter_File>
/export/apps/rDock/src/rDock_2013.1_src/data/scripts/dock_solv.prm

>  <Rbt.Receptor>
prm/pocket_docking_6.prm

>  <SCORE>
-30.1879

>  <SCORE.INTER>
-16.9404

>  <SCORE.INTER.CONST>
1

>  <SCORE.INTER.POLAR>
0

>  <SCORE.INTER.ROT>
12

>  <SCORE.INTER.SOLV>
17.8623

>  <SCORE.INTER.VDW>
-28.8477

>  <SCORE.INTER.norm>
-0.546463

>  <SCORE.INTRA>
-13.2574

>  <SCORE.INTRA.DIHEDRAL>
4.78022

>  <SCORE.INTRA.DIHEDRAL.0>
14.6094

>  <SCORE.INTRA.POLAR>
0

>  <SCORE.INTRA.POLAR.0>
0

>  <SCORE.INTRA.REPUL>
0

>  <SCORE.INTRA.REPUL.0>
0

>  <SCORE.INTRA.SOLV>
1.10111

>  <SCORE.INTRA.SOLV.lig_0>
-65.6478

>  <SCORE.INTRA.VDW>
-16.1981

>  <SCORE.INTRA.VDW.0>
9.35535

>  <SCORE.INTRA.norm>
-0.427659

>  <SCORE.RESTR>
0.00992999

>  <SCORE.RESTR.CAVITY>
0.00992999

>  <SCORE.RESTR.norm>
0.000320322

>  <SCORE.SYSTEM>
0

>  <SCORE.SYSTEM.CONST>
0

>  <SCORE.SYSTEM.DIHEDRAL>
0

>  <SCORE.SYSTEM.SOLV>
0

>  <SCORE.SYSTEM.norm>
0

>  <SCORE.heavy>
31

>  <SCORE.norm>
-0.973802

>  <RMSD>
5.330

$$$$
ligand
 OpenBabel11021811443D
libRbt.so/2013.1/901 2013/11/27
 31 32  0  0  0  0  0  0  0  0999 V2000
    7.2285   18.2115   49.1903 C   0  0  0  0  0  0  0  0  0  0  0  0
    8.1098   17.4150   48.2326 C   0  0  0  0  0  0  0  0  0  0  0  0
    7.6987   17.2165   46.8748 C   0  0  0  0  0  0  0  0  0  0  0  0
    8.5190   16.4738   45.9920 C   0  0  0  0  0  0  0  0  0  0  0  0
    9.7484   15.9303   46.4385 C   0  0  0  0  0  0  0  0  0  0  0  0
   10.1716   16.1210   47.7696 C   0  0  0  0  0  0  0  0  0  0  0  0
    9.3699   16.8543   48.6626 C   0  0  0  0  0  0  0  0  0  0  0  0
    7.2761   19.4412   49.1902 O   0  0  0  0  0  0  0  0  0  0  0  0
    2.0110   24.1425   52.2204 C   0  0  0  0  0  0  0  0  0  0  0  0
    4.6059   18.2154   53.3701 C   0  0  0  0  0  0  0  0  0  0  0  0
    1.9424   15.1051   51.2081 P   0  0  1  0  0  0  0  0  0  0  0  0
    3.1261   22.0955   51.6720 N   0  0  0  0  0  0  0  0  0  0  0  0
    2.6484   13.8226   51.3921 O   0  0  0  0  0  0  0  0  0  0  0  0
    6.3728   17.5645   50.0649 S   0  0  0  0  0  0  0  0  0  0  0  0
    7.6168   18.8954   53.3501 C   0  0  0  0  0  0  0  0  0  0  0  0
    3.2382   23.3564   52.2129 C   0  0  0  0  0  0  0  0  0  0  0  0
    0.9683   15.1196   50.0834 O   0  5  0  0  0  0  0  0  0  0  0  0
    6.6139   19.5217   52.6861 N   0  0  0  0  0  0  0  0  0  0  0  0
    4.3390   23.8457   52.6916 N   0  0  0  0  0  0  0  0  0  0  0  0
    1.3649   15.5608   52.4938 O   0  0  0  0  0  0  0  0  0  0  0  0
    5.5135   18.6494   52.2511 C   0  0  2  0  0  0  0  0  0  0  0  0
    5.5005   23.0975   52.6752 C   0  0  0  0  0  0  0  0  0  0  0  0
    6.6169   23.6351   53.1728 N   0  0  0  0  0  0  0  0  0  0  0  0
    5.2256   18.2086   50.8897 C   0  0  1  0  0  0  0  0  0  0  0  0
    5.4660   21.7569   52.1118 C   0  0  0  0  0  0  0  0  0  0  0  0
    8.5424   18.6033   52.6253 O   0  0  0  0  0  0  0  0  0  0  0  0
    3.9001   18.3467   50.2287 C   0  0  0  0  0  0  0  0  0  0  0  0
    4.2433   21.3275   51.6371 C   0  0  0  0  0  0  0  0  0  0  0  0
    2.7379   17.6317   50.7706 C   0  0  0  0  0  0  0  0  0  0  0  0
    6.7116   20.9089   52.0266 C   0  0  0  0  0  0  0  0  0  0  0  0
    2.9722   16.2128   50.7921 O   0  0  0  0  0  0  0  0  0  0  0  0
  1  2  1  0  0  0  0
  1  8  2  0  0  0  0
  1 14  1  0  0  0  0
  2  3  2  0  0  0  0
  2  7  1  0  0  0  0
  3  4  1  0  0  0  0
  4  5  2  0  0  0  0
  5  6  1  0  0  0  0
  6  7  2  0  0  0  0
  9 16  1  0  0  0  0
 10 21  1  0  0  0  0
 11 13  1  1  0  0  0
 11 17  1  0  0  0  0
 11 20  2  0  0  0  0
 11 31  1  0  0  0  0
 12 16  2  0  0  0  0
 12 28  1  0  0  0  0
 15 26  1  0  0  0  0
 15 18  1  0  0  0  0
 16 19  1  0  0  0  0
 18 30  1  0  0  0  0
 19 22  2  0  0  0  0
 21 18  1  6  0  0  0
 21 24  1  0  0  0  0
 22 23  1  0  0  0  0
 22 25  1  0  0  0  0
 24 14  1  6  0  0  0
 24 27  1  0  0  0  0
 25 28  2  0  0  0  0
 25 30  1  0  0  0  0
 27 29  1  0  0  0  0
 29 31  1  0  0  0  0
M  CHG  1  17  -1
M  END
>  <CHROM.1>
-82.26128326,-166.98499347,-93.41570786,96.11932846,74.45479481,-143.70665187
-129.56790681,117.03745494,125.03046418,-58.77119748,-175.65544707,-167.11818987
5.26886356,18.57702528,50.87892445,-1.27115460,0.41653604,0.39357532

>  <Name>
ligand

>  <RI>
0

>  <Rbt.Current_Directory>
/home/itssahil/PROJECTS/Mol_Feturizer/New_Systems/rnas/2HOO

>  <Rbt.Executable>
rbdock ($Id: //depot/dev/client3/rdock/2013.1/src/exe/rbdock.cxx#4 $)

>  <Rbt.Library>
libRbt.so (2013.1, Build901 2013/11/27)

>  <Rbt.Parameter_File>
/export/apps/rDock/src/rDock_2013.1_src/data/scripts/dock_solv.prm

>  <Rbt.Receptor>
prm/pocket_docking_6.prm

>  <SCORE>
-27.8142

>  <SCORE.INTER>
-12.8825

>  <SCORE.INTER.CONST>
1

>  <SCORE.INTER.POLAR>
0

>  <SCORE.INTER.ROT>
12

>  <SCORE.INTER.SOLV>
11.6675

>  <SCORE.INTER.VDW>
-24.0775

>  <SCORE.INTER.norm>
-0.415565

>  <SCORE.INTRA>
-14.9433

>  <SCORE.INTRA.DIHEDRAL>
-2.43931

>  <SCORE.INTRA.DIHEDRAL.0>
14.6094

>  <SCORE.INTRA.POLAR>
0

>  <SCORE.INTRA.POLAR.0>
0

>  <SCORE.INTRA.REPUL>
0

>  <SCORE.INTRA.REPUL.0>
0

>  <SCORE.INTRA.SOLV>
1.14683

>  <SCORE.INTRA.SOLV.lig_0>
-65.6478

>  <SCORE.INTRA.VDW>
-14.2971

>  <SCORE.INTRA.VDW.0>
9.35535

>  <SCORE.INTRA.norm>
-0.482043

>  <SCORE.RESTR>
0.0116705

>  <SCORE.RESTR.CAVITY>
0.0116705

>  <SCORE.RESTR.norm>
0.000376467

>  <SCORE.SYSTEM>
0

>  <SCORE.SYSTEM.CONST>
0

>  <SCORE.SYSTEM.DIHEDRAL>
0

>  <SCORE.SYSTEM.SOLV>
0

>  <SCORE.SYSTEM.norm>
0

>  <SCORE.heavy>
31

>  <SCORE.norm>
-0.897232

>  <RMSD>
5.356

$$$$
ligand
 OpenBabel11021811443D
libRbt.so/2013.1/901 2013/11/27
 31 32  0  0  0  0  0  0  0  0999 V2000
    2.9304   18.3591   54.7550 C   0  0  0  0  0  0  0  0  0  0  0  0
    2.2560   19.4896   53.9835 C   0  0  0  0  0  0  0  0  0  0  0  0
    1.7213   19.2484   52.6765 C   0  0  0  0  0  0  0  0  0  0  0  0
    1.0998   20.3022   51.9644 C   0  0  0  0  0  0  0  0  0  0  0  0
    0.9954   21.5935   52.5368 C   0  0  0  0  0  0  0  0  0  0  0  0
    1.5105   21.8474   53.8243 C   0  0  0  0  0  0  0  0  0  0  0  0
    2.1332   20.8141   54.5472 C   0  0  0  0  0  0  0  0  0  0  0  0
    2.4436   17.9617   55.8131 O   0  0  0  0  0  0  0  0  0  0  0  0
   11.5502   22.1645   54.2736 C   0  0  0  0  0  0  0  0  0  0  0  0
    5.9051   20.2271   54.5011 C   0  0  0  0  0  0  0  0  0  0  0  0
    5.1225   15.6667   49.0333 P   0  0  1  0  0  0  0  0  0  0  0  0
    9.5556   22.7173   53.0693 N   0  0  0  0  0  0  0  0  0  0  0  0
    3.7961   15.4987   49.6573 O   0  0  0  0  0  0  0  0  0  0  0  0
    4.0897   17.7728   54.2776 S   0  0  0  0  0  0  0  0  0  0  0  0
    4.6550   21.5932   52.0429 C   0  0  0  0  0  0  0  0  0  0  0  0
   10.3765   21.7153   53.5357 C   0  0  0  0  0  0  0  0  0  0  0  0
    6.0370   14.5048   49.2007 O   0  5  0  0  0  0  0  0  0  0  0  0
    5.5893   20.6106   52.0599 N   0  0  0  0  0  0  0  0  0  0  0  0
   10.1554   20.4514   53.3522 N   0  0  0  0  0  0  0  0  0  0  0  0
    4.9745   16.1020   47.6252 O   0  0  0  0  0  0  0  0  0  0  0  0
    5.4748   19.6600   53.1755 C   0  0  2  0  0  0  0  0  0  0  0  0
    9.0441   20.0326   52.6457 C   0  0  0  0  0  0  0  0  0  0  0  0
    8.8503   18.7229   52.4722 N   0  0  0  0  0  0  0  0  0  0  0  0
    4.9809   18.2877   53.1150 C   0  0  1  0  0  0  0  0  0  0  0  0
    8.1316   21.0321   52.1126 C   0  0  0  0  0  0  0  0  0  0  0  0
    4.9992   22.5724   52.6676 O   0  0  0  0  0  0  0  0  0  0  0  0
    5.2860   17.3370   52.0123 C   0  0  0  0  0  0  0  0  0  0  0  0
    8.4530   22.3492   52.3709 C   0  0  0  0  0  0  0  0  0  0  0  0
    5.3268   17.8185   50.6258 C   0  0  0  0  0  0  0  0  0  0  0  0
    6.9252   20.6374   51.2960 C   0  0  0  0  0  0  0  0  0  0  0  0
    5.8955   16.8258   49.7542 O   0  0  0  0  0  0  0  0  0  0  0  0
  1  2  1  0  0  0  0
  1  8  2  0  0  0  0
  1 14  1  0  0  0  0
  2  3  2  0  0  0  0
  2  7  1  0  0  0  0
  3  4  1  0  0  0  0
  4  5  2  0  0  0  0
  5  6  1  0  0  0  0
  6  7  2  0  0  0  0
  9 16  1  0  0  0  0
 10 21  1  0  0  0  0
 11 13  1  1  0  0  0
 11 17  1  0  0  0  0
 11 20  2  0  0  0  0
 11 31  1  0  0  0  0
 12 16  2  0  0  0  0
 12 28  1  0  0  0  0
 15 26  1  0  0  0  0
 15 18  1  0  0  0  0
 16 19  1  0  0  0  0
 18 30  1  0  0  0  0
 19 22  2  0  0  0  0
 21 18  1  1  0  0  0
 21 24  1  0  0  0  0
 22 23  1  0  0  0  0
 22 25  1  0  0  0  0
 24 14  1  1  0  0  0
 24 27  1  0  0  0  0
 25 28  2  0  0  0  0
 25 30  1  0  0  0  0
 27 29  1  0  0  0  0
 29 31  1  0  0  0  0
M  CHG  1  17  -1
M  END
>  <CHROM.1>
-116.29557779,11.38594748,54.10071100,89.36771240,-73.47440468,99.31316419
38.41357149,141.50642708,99.48445504,168.34733543,87.40971117,-15.64362279
5.46950455,19.17048486,52.29341741,2.38381565,-0.20944561,-2.44729330

>  <Name>
ligand

>  <RI>
0

>  <Rbt.Current_Directory>
/home/itssahil/PROJECTS/Mol_Feturizer/New_Systems/rnas/2HOO

>  <Rbt.Executable>
rbdock ($Id: //depot/dev/client3/rdock/2013.1/src/exe/rbdock.cxx#4 $)

>  <Rbt.Library>
libRbt.so (2013.1, Build901 2013/11/27)

>  <Rbt.Parameter_File>
/export/apps/rDock/src/rDock_2013.1_src/data/scripts/dock_solv.prm

>  <Rbt.Receptor>
prm/pocket_docking_2.prm

>  <SCORE>
-12.5998

>  <SCORE.INTER>
-5.99917

>  <SCORE.INTER.CONST>
1

>  <SCORE.INTER.POLAR>
0

>  <SCORE.INTER.ROT>
12

>  <SCORE.INTER.SOLV>
13.2107

>  <SCORE.INTER.VDW>
-20.003

>  <SCORE.INTER.norm>
-0.193521

>  <SCORE.INTRA>
-10.5976

>  <SCORE.INTRA.DIHEDRAL>
4.13308

>  <SCORE.INTRA.DIHEDRAL.0>
14.6094

>  <SCORE.INTRA.POLAR>
0

>  <SCORE.INTRA.POLAR.0>
0

>  <SCORE.INTRA.REPUL>
0.000800751

>  <SCORE.INTRA.REPUL.0>
0

>  <SCORE.INTRA.SOLV>
3.81923

>  <SCORE.INTRA.SOLV.lig_0>
-65.6478

>  <SCORE.INTRA.VDW>
-14.5778

>  <SCORE.INTRA.VDW.0>
9.35535

>  <SCORE.INTRA.norm>
-0.341858

>  <SCORE.RESTR>
3.99697

>  <SCORE.RESTR.CAVITY>
3.99697

>  <SCORE.RESTR.norm>
0.128934

>  <SCORE.SYSTEM>
0

>  <SCORE.SYSTEM.CONST>
0

>  <SCORE.SYSTEM.DIHEDRAL>
0

>  <SCORE.SYSTEM.SOLV>
0

>  <SCORE.SYSTEM.norm>
0

>  <SCORE.heavy>
31

>  <SCORE.norm>
-0.406445

>  <RMSD>
5.358

$$$$
ligand
 OpenBabel11021811443D
libRbt.so/2013.1/901 2013/11/27
 31 32  0  0  0  0  0  0  0  0999 V2000
    2.1719   17.8426   51.5120 C   0  0  0  0  0  0  0  0  0  0  0  0
    2.8109   16.5301   51.0681 C   0  0  0  0  0  0  0  0  0  0  0  0
    2.2140   15.2804   51.4344 C   0  0  0  0  0  0  0  0  0  0  0  0
    2.8134   14.0660   51.0223 C   0  0  0  0  0  0  0  0  0  0  0  0
    3.9964   14.0759   50.2436 C   0  0  0  0  0  0  0  0  0  0  0  0
    4.5941   15.2964   49.8688 C   0  0  0  0  0  0  0  0  0  0  0  0
    4.0149   16.5137   50.2698 C   0  0  0  0  0  0  0  0  0  0  0  0
    1.0268   18.1197   51.1562 O   0  0  0  0  0  0  0  0  0  0  0  0
    1.3921   24.2874   51.4618 C   0  0  0  0  0  0  0  0  0  0  0  0
    6.4580   17.4374   52.7320 C   0  0  0  0  0  0  0  0  0  0  0  0
    0.5936   16.0465   54.5258 P   0  0  1  0  0  0  0  0  0  0  0  0
    2.5742   22.2266   51.1615 N   0  0  0  0  0  0  0  0  0  0  0  0
   -0.3821   17.0406   54.0394 O   0  0  0  0  0  0  0  0  0  0  0  0
    2.8683   18.7309   52.3130 S   0  0  0  0  0  0  0  0  0  0  0  0
    5.8914   19.3218   50.2993 C   0  0  0  0  0  0  0  0  0  0  0  0
    2.5879   23.4909   51.7060 C   0  0  0  0  0  0  0  0  0  0  0  0
    0.5065   15.7547   55.9823 O   0  5  0  0  0  0  0  0  0  0  0  0
    5.9158   19.6027   51.6257 N   0  0  0  0  0  0  0  0  0  0  0  0
    3.5748   23.9747   52.3931 N   0  0  0  0  0  0  0  0  0  0  0  0
    0.5535   14.8324   53.6781 O   0  0  0  0  0  0  0  0  0  0  0  0
    5.4404   18.5216   52.5011 C   0  0  2  0  0  0  0  0  0  0  0  0
    4.7085   23.2165   52.6152 C   0  0  0  0  0  0  0  0  0  0  0  0
    5.7075   23.7486   53.3236 N   0  0  0  0  0  0  0  0  0  0  0  0
    4.1380   18.4258   53.1533 C   0  0  1  0  0  0  0  0  0  0  0  0
    4.7745   21.8717   52.0647 C   0  0  0  0  0  0  0  0  0  0  0  0
    4.7723   19.3593   49.8370 O   0  0  0  0  0  0  0  0  0  0  0  0
    3.9433   18.0646   54.5832 C   0  0  0  0  0  0  0  0  0  0  0  0
    3.6679   21.4489   51.3566 C   0  0  0  0  0  0  0  0  0  0  0  0
    2.5979   17.7456   55.0772 C   0  0  0  0  0  0  0  0  0  0  0  0
    6.0033   21.0125   52.2369 C   0  0  0  0  0  0  0  0  0  0  0  0
    2.0452   16.6210   54.3713 O   0  0  0  0  0  0  0  0  0  0  0  0
  1  2  1  0  0  0  0
  1  8  2  0  0  0  0
  1 14  1  0  0  0  0
  2  3  2  0  0  0  0
  2  7  1  0  0  0  0
  3  4  1  0  0  0  0
  4  5  2  0  0  0  0
  5  6  1  0  0  0  0
  6  7  2  0  0  0  0
  9 16  1  0  0  0  0
 10 21  1  0  0  0  0
 11 13  1  6  0  0  0
 11 17  1  0  0  0  0
 11 20  2  0  0  0  0
 11 31  1  0  0  0  0
 12 16  2  0  0  0  0
 12 28  1  0  0  0  0
 15 26  1  0  0  0  0
 15 18  1  0  0  0  0
 16 19  1  0  0  0  0
 18 30  1  0  0  0  0
 19 22  2  0  0  0  0
 21 18  1  1  0  0  0
 21 24  1  0  0  0  0
 22 23  1  0  0  0  0
 22 25  1  0  0  0  0
 24 14  1  1  0  0  0
 24 27  1  0  0  0  0
 25 28  2  0  0  0  0
 25 30  1  0  0  0  0
 27 29  1  0  0  0  0
 29 31  1  0  0  0  0
M  CHG  1  17  -1
M  END
>  <CHROM.1>
-60.62117962,-17.01339464,85.79702538,75.35623278,79.02098571,69.54391652
-135.28549116,12.24275979,178.76953732,59.74243164,-174.82879868,66.02027721
3.17292656,18.61946600,52.40382419,-2.01286029,0.65816405,0.09810675

>  <Name>
ligand

>  <RI>
0

>  <Rbt.Current_Directory>
/home/itssahil/PROJECTS/Mol_Feturizer/New_Systems/rnas/2HOO

>  <Rbt.Executable>
rbdock ($Id: //depot/dev/client3/rdock/2013.1/src/exe/rbdock.cxx#4 $)

>  <Rbt.Library>
libRbt.so (2013.1, Build901 2013/11/27)

>  <Rbt.Parameter_File>
/export/apps/rDock/src/rDock_2013.1_src/data/scripts/dock_solv.prm

>  <Rbt.Receptor>
prm/pocket_docking_7.prm

>  <SCORE>
-28.9658

>  <SCORE.INTER>
-13.1204

>  <SCORE.INTER.CONST>
1

>  <SCORE.INTER.POLAR>
0

>  <SCORE.INTER.ROT>
12

>  <SCORE.INTER.SOLV>
17.2218

>  <SCORE.INTER.VDW>
-26.0875

>  <SCORE.INTER.norm>
-0.423238

>  <SCORE.INTRA>
-15.8455

>  <SCORE.INTRA.DIHEDRAL>
-2.3314

>  <SCORE.INTRA.DIHEDRAL.0>
14.6094

>  <SCORE.INTRA.POLAR>
0

>  <SCORE.INTRA.POLAR.0>
0

>  <SCORE.INTRA.REPUL>
0

>  <SCORE.INTRA.REPUL.0>
0

>  <SCORE.INTRA.SOLV>
2.33436

>  <SCORE.INTRA.SOLV.lig_0>
-65.6478

>  <SCORE.INTRA.VDW>
-15.8469

>  <SCORE.INTRA.VDW.0>
9.35535

>  <SCORE.INTRA.norm>
-0.511144

>  <SCORE.RESTR>
0

>  <SCORE.RESTR.CAVITY>
0

>  <SCORE.RESTR.norm>
0

>  <SCORE.SYSTEM>
0

>  <SCORE.SYSTEM.CONST>
0

>  <SCORE.SYSTEM.DIHEDRAL>
0

>  <SCORE.SYSTEM.SOLV>
0

>  <SCORE.SYSTEM.norm>
0

>  <SCORE.heavy>
31

>  <SCORE.norm>
-0.934382

>  <RMSD>
5.367

$$$$
ligand
 OpenBabel11021811443D
libRbt.so/2013.1/901 2013/11/27
 31 32  0  0  0  0  0  0  0  0999 V2000
    7.6147   20.4815   50.5864 C   0  0  0  0  0  0  0  0  0  0  0  0
    8.4719   19.3644   49.9989 C   0  0  0  0  0  0  0  0  0  0  0  0
    8.6466   19.2630   48.5807 C   0  0  0  0  0  0  0  0  0  0  0  0
    9.4403   18.2223   48.0414 C   0  0  0  0  0  0  0  0  0  0  0  0
   10.0703   17.2829   48.8939 C   0  0  0  0  0  0  0  0  0  0  0  0
    9.9144   17.3711   50.2922 C   0  0  0  0  0  0  0  0  0  0  0  0
    9.1283   18.3967   50.8473 C   0  0  0  0  0  0  0  0  0  0  0  0
    8.0709   21.6205   50.6816 O   0  0  0  0  0  0  0  0  0  0  0  0
    7.4443   24.7306   51.8519 C   0  0  0  0  0  0  0  0  0  0  0  0
    6.8662   17.9217   53.6773 C   0  0  0  0  0  0  0  0  0  0  0  0
    3.9770   15.0623   49.5708 P   0  0  1  0  0  0  0  0  0  0  0  0
    7.6006   22.6914   53.0975 N   0  0  0  0  0  0  0  0  0  0  0  0
    3.3047   14.4592   50.7375 O   0  0  0  0  0  0  0  0  0  0  0  0
    6.3240   20.2281   51.0172 S   0  0  0  0  0  0  0  0  0  0  0  0
    3.7853   18.2407   54.2908 C   0  0  0  0  0  0  0  0  0  0  0  0
    6.7712   23.6531   52.5661 C   0  0  0  0  0  0  0  0  0  0  0  0
    5.4625   15.0826   49.6544 O   0  5  0  0  0  0  0  0  0  0  0  0
    4.7243   19.1619   53.9612 N   0  0  0  0  0  0  0  0  0  0  0  0
    5.4795   23.6368   52.6720 N   0  0  0  0  0  0  0  0  0  0  0  0
    3.4655   14.4607   48.3175 O   0  0  0  0  0  0  0  0  0  0  0  0
    5.7539   18.6946   53.0218 C   0  0  2  0  0  0  0  0  0  0  0  0
    4.8482   22.6158   53.3563 C   0  0  0  0  0  0  0  0  0  0  0  0
    3.5163   22.6334   53.4492 N   0  0  0  0  0  0  0  0  0  0  0  0
    5.7770   18.8861   51.5749 C   0  0  1  0  0  0  0  0  0  0  0  0
    5.6565   21.5649   53.9547 C   0  0  0  0  0  0  0  0  0  0  0  0
    2.6583   18.6279   54.0731 O   0  0  0  0  0  0  0  0  0  0  0  0
    5.2968   17.8796   50.5904 C   0  0  0  0  0  0  0  0  0  0  0  0
    7.0211   21.6708   53.7770 C   0  0  0  0  0  0  0  0  0  0  0  0
    3.8625   17.5803   50.4954 C   0  0  0  0  0  0  0  0  0  0  0  0
    5.0273   20.4478   54.7509 C   0  0  0  0  0  0  0  0  0  0  0  0
    3.6114   16.5855   49.4874 O   0  0  0  0  0  0  0  0  0  0  0  0
  1  2  1  0  0  0  0
  1  8  2  0  0  0  0
  1 14  1  0  0  0  0
  2  3  2  0  0  0  0
  2  7  1  0  0  0  0
  3  4  1  0  0  0  0
  4  5  2  0  0  0  0
  5  6  1  0  0  0  0
  6  7  2  0  0  0  0
  9 16  1  0  0  0  0
 10 21  1  0  0  0  0
 11 13  1  1  0  0  0
 11 17  1  0  0  0  0
 11 20  2  0  0  0  0
 11 31  1  0  0  0  0
 12 16  2  0  0  0  0
 12 28  1  0  0  0  0
 15 26  1  0  0  0  0
 15 18  1  0  0  0  0
 16 19  1  0  0  0  0
 18 30  1  0  0  0  0
 19 22  2  0  0  0  0
 21 18  1  6  0  0  0
 21 24  1  0  0  0  0
 22 23  1  0  0  0  0
 22 25  1  0  0  0  0
 24 14  1  1  0  0  0
 24 27  1  0  0  0  0
 25 28  2  0  0  0  0
 25 30  1  0  0  0  0
 27 29  1  0  0  0  0
 29 31  1  0  0  0  0
M  CHG  1  17  -1
M  END
>  <CHROM.1>
-78.18491219,29.19814170,95.12993142,-124.66712231,-82.10636063,-155.68611265
-98.11738905,-110.38978646,94.43207767,179.97940221,70.97856213,59.12366638
5.91877998,19.09985581,51.45200551,-1.31617857,-0.53410693,-2.58380497

>  <Name>
ligand

>  <RI>
0

>  <Rbt.Current_Directory>
/home/itssahil/PROJECTS/Mol_Feturizer/New_Systems/rnas/2HOO

>  <Rbt.Executable>
rbdock ($Id: //depot/dev/client3/rdock/2013.1/src/exe/rbdock.cxx#4 $)

>  <Rbt.Library>
libRbt.so (2013.1, Build901 2013/11/27)

>  <Rbt.Parameter_File>
/export/apps/rDock/src/rDock_2013.1_src/data/scripts/dock_solv.prm

>  <Rbt.Receptor>
prm/pocket_docking_5.prm

>  <SCORE>
-31.0886

>  <SCORE.INTER>
-15.148

>  <SCORE.INTER.CONST>
1

>  <SCORE.INTER.POLAR>
0

>  <SCORE.INTER.ROT>
12

>  <SCORE.INTER.SOLV>
12.676

>  <SCORE.INTER.VDW>
-25.924

>  <SCORE.INTER.norm>
-0.488646

>  <SCORE.INTRA>
-15.9405

>  <SCORE.INTRA.DIHEDRAL>
-0.666007

>  <SCORE.INTRA.DIHEDRAL.0>
14.6094

>  <SCORE.INTRA.POLAR>
0

>  <SCORE.INTRA.POLAR.0>
0

>  <SCORE.INTRA.REPUL>
0

>  <SCORE.INTRA.REPUL.0>
0

>  <SCORE.INTRA.SOLV>
1.99622

>  <SCORE.INTRA.SOLV.lig_0>
-65.6478

>  <SCORE.INTRA.VDW>
-16.6056

>  <SCORE.INTRA.VDW.0>
9.35535

>  <SCORE.INTRA.norm>
-0.51421

>  <SCORE.RESTR>
0

>  <SCORE.RESTR.CAVITY>
0

>  <SCORE.RESTR.norm>
0

>  <SCORE.SYSTEM>
0

>  <SCORE.SYSTEM.CONST>
0

>  <SCORE.SYSTEM.DIHEDRAL>
0

>  <SCORE.SYSTEM.SOLV>
0

>  <SCORE.SYSTEM.norm>
0

>  <SCORE.heavy>
31

>  <SCORE.norm>
-1.00286

>  <RMSD>
5.410

$$$$
ligand
 OpenBabel11021811443D
libRbt.so/2013.1/901 2013/11/27
 31 32  0  0  0  0  0  0  0  0999 V2000
    2.4784   19.6414   51.4159 C   0  0  0  0  0  0  0  0  0  0  0  0
    1.5154   20.7021   51.9410 C   0  0  0  0  0  0  0  0  0  0  0  0
    1.6245   22.0576   51.4908 C   0  0  0  0  0  0  0  0  0  0  0  0
    0.7303   23.0378   51.9842 C   0  0  0  0  0  0  0  0  0  0  0  0
   -0.2778   22.6878   52.9155 C   0  0  0  0  0  0  0  0  0  0  0  0
   -0.4038   21.3576   53.3649 C   0  0  0  0  0  0  0  0  0  0  0  0
    0.4762   20.3696   52.8879 C   0  0  0  0  0  0  0  0  0  0  0  0
    2.0748   18.4996   51.1971 O   0  0  0  0  0  0  0  0  0  0  0  0
   13.1071   20.3391   54.5950 C   0  0  0  0  0  0  0  0  0  0  0  0
    6.0348   18.0118   52.9897 C   0  0  0  0  0  0  0  0  0  0  0  0
    3.9786   14.5192   48.2872 P   0  0  1  0  0  0  0  0  0  0  0  0
   11.3008   21.5230   53.5607 N   0  0  0  0  0  0  0  0  0  0  0  0
    4.4506   13.6675   49.3956 O   0  0  0  0  0  0  0  0  0  0  0  0
    3.8076   19.9488   51.1827 S   0  0  0  0  0  0  0  0  0  0  0  0
    7.8903   19.6902   50.4160 C   0  0  0  0  0  0  0  0  0  0  0  0
   11.7116   20.3617   54.1752 C   0  0  0  0  0  0  0  0  0  0  0  0
    4.6041   14.2237   46.9698 O   0  5  0  0  0  0  0  0  0  0  0  0
    7.3508   19.6567   51.6597 N   0  0  0  0  0  0  0  0  0  0  0  0
   10.9425   19.3394   54.3836 N   0  0  0  0  0  0  0  0  0  0  0  0
    2.4979   14.5328   48.2466 O   0  0  0  0  0  0  0  0  0  0  0  0
    6.0968   18.8984   51.7755 C   0  0  2  0  0  0  0  0  0  0  0  0
    9.6222   19.3649   53.9769 C   0  0  0  0  0  0  0  0  0  0  0  0
    8.8601   18.2922   54.2041 N   0  0  0  0  0  0  0  0  0  0  0  0
    4.9523   18.9470   50.8707 C   0  0  1  0  0  0  0  0  0  0  0  0
    9.1137   20.5544   53.3118 C   0  0  0  0  0  0  0  0  0  0  0  0
    7.7377   20.7619   49.8722 O   0  0  0  0  0  0  0  0  0  0  0  0
    4.8008   18.0865   49.6668 C   0  0  0  0  0  0  0  0  0  0  0  0
   10.0112   21.5898   53.1463 C   0  0  0  0  0  0  0  0  0  0  0  0
    4.4083   16.6801   49.8214 C   0  0  0  0  0  0  0  0  0  0  0  0
    7.6934   20.6245   52.8063 C   0  0  0  0  0  0  0  0  0  0  0  0
    4.4070   16.0049   48.5515 O   0  0  0  0  0  0  0  0  0  0  0  0
  1  2  1  0  0  0  0
  1  8  2  0  0  0  0
  1 14  1  0  0  0  0
  2  3  2  0  0  0  0
  2  7  1  0  0  0  0
  3  4  1  0  0  0  0
  4  5  2  0  0  0  0
  5  6  1  0  0  0  0
  6  7  2  0  0  0  0
  9 16  1  0  0  0  0
 10 21  1  0  0  0  0
 11 13  1  1  0  0  0
 11 17  1  0  0  0  0
 11 20  2  0  0  0  0
 11 31  1  0  0  0  0
 12 16  2  0  0  0  0
 12 28  1  0  0  0  0
 15 26  1  0  0  0  0
 15 18  1  0  0  0  0
 16 19  1  0  0  0  0
 18 30  1  0  0  0  0
 19 22  2  0  0  0  0
 21 18  1  1  0  0  0
 21 24  1  0  0  0  0
 22 23  1  0  0  0  0
 22 25  1  0  0  0  0
 24 14  1  1  0  0  0
 24 27  1  0  0  0  0
 25 28  2  0  0  0  0
 25 30  1  0  0  0  0
 27 29  1  0  0  0  0
 29 31  1  0  0  0  0
M  CHG  1  17  -1
M  END
>  <CHROM.1>
-142.74436151,169.55231012,-120.41532312,105.36174537,136.38850661,-64.66128141
86.72611338,-102.82840482,-65.54110392,-176.08267752,-176.80975070,-38.94996641
5.51902734,18.85498373,51.39348925,2.63258493,0.18393658,-2.55502751

>  <Name>
ligand

>  <RI>
0

>  <Rbt.Current_Directory>
/home/itssahil/PROJECTS/Mol_Feturizer/New_Systems/rnas/2HOO

>  <Rbt.Executable>
rbdock ($Id: //depot/dev/client3/rdock/2013.1/src/exe/rbdock.cxx#4 $)

>  <Rbt.Library>
libRbt.so (2013.1, Build901 2013/11/27)

>  <Rbt.Parameter_File>
/export/apps/rDock/src/rDock_2013.1_src/data/scripts/dock_solv.prm

>  <Rbt.Receptor>
prm/pocket_docking_4.prm

>  <SCORE>
-29.9613

>  <SCORE.INTER>
-18.099

>  <SCORE.INTER.CONST>
1

>  <SCORE.INTER.POLAR>
0

>  <SCORE.INTER.ROT>
12

>  <SCORE.INTER.SOLV>
17.361

>  <SCORE.INTER.VDW>
-29.453

>  <SCORE.INTER.norm>
-0.583839

>  <SCORE.INTRA>
-11.8622

>  <SCORE.INTRA.DIHEDRAL>
-1.46464

>  <SCORE.INTRA.DIHEDRAL.0>
14.6094

>  <SCORE.INTRA.POLAR>
0

>  <SCORE.INTRA.POLAR.0>
0

>  <SCORE.INTRA.REPUL>
0

>  <SCORE.INTRA.REPUL.0>
0

>  <SCORE.INTRA.SOLV>
3.44344

>  <SCORE.INTRA.SOLV.lig_0>
-65.6478

>  <SCORE.INTRA.VDW>
-12.8517

>  <SCORE.INTRA.VDW.0>
9.35535

>  <SCORE.INTRA.norm>
-0.382653

>  <SCORE.RESTR>
0

>  <SCORE.RESTR.CAVITY>
0

>  <SCORE.RESTR.norm>
0

>  <SCORE.SYSTEM>
0

>  <SCORE.SYSTEM.CONST>
0

>  <SCORE.SYSTEM.DIHEDRAL>
0

>  <SCORE.SYSTEM.SOLV>
0

>  <SCORE.SYSTEM.norm>
0

>  <SCORE.heavy>
31

>  <SCORE.norm>
-0.966492

>  <RMSD>
5.469

$$$$
ligand
 OpenBabel11021811443D
libRbt.so/2013.1/901 2013/11/27
 31 32  0  0  0  0  0  0  0  0999 V2000
    4.4527   18.4451   51.5793 C   0  0  0  0  0  0  0  0  0  0  0  0
    3.5757   17.8758   52.6905 C   0  0  0  0  0  0  0  0  0  0  0  0
    3.9839   17.9918   54.0588 C   0  0  0  0  0  0  0  0  0  0  0  0
    3.1676   17.4586   55.0850 C   0  0  0  0  0  0  0  0  0  0  0  0
    1.9448   16.8166   54.7706 C   0  0  0  0  0  0  0  0  0  0  0  0
    1.5244   16.6989   53.4302 C   0  0  0  0  0  0  0  0  0  0  0  0
    2.3223   17.2204   52.3962 C   0  0  0  0  0  0  0  0  0  0  0  0
    3.9745   19.2289   50.7600 O   0  0  0  0  0  0  0  0  0  0  0  0
   13.9449   19.4933   55.1021 C   0  0  0  0  0  0  0  0  0  0  0  0
    9.3467   18.3438   50.8998 C   0  0  0  0  0  0  0  0  0  0  0  0
    6.7087   17.9556   45.9661 P   0  0  1  0  0  0  0  0  0  0  0  0
   11.8233   18.6127   54.4257 N   0  0  0  0  0  0  0  0  0  0  0  0
    5.7795   17.0848   46.7112 O   0  0  0  0  0  0  0  0  0  0  0  0
    5.7862   18.0879   51.4802 S   0  0  0  0  0  0  0  0  0  0  0  0
    7.9495   21.5447   51.2622 C   0  0  0  0  0  0  0  0  0  0  0  0
   12.5816   19.7396   54.6496 C   0  0  0  0  0  0  0  0  0  0  0  0
    8.0812   17.4035   45.8067 O   0  5  0  0  0  0  0  0  0  0  0  0
    8.3192   20.3929   51.8752 N   0  0  0  0  0  0  0  0  0  0  0  0
   12.1500   20.9502   54.4816 N   0  0  0  0  0  0  0  0  0  0  0  0
    6.0944   18.3854   44.6885 O   0  0  0  0  0  0  0  0  0  0  0  0
    8.1035   19.1702   51.0881 C   0  0  2  0  0  0  0  0  0  0  0  0
   10.8541   21.1768   54.0589 C   0  0  0  0  0  0  0  0  0  0  0  0
   10.4420   22.4370   53.9006 N   0  0  0  0  0  0  0  0  0  0  0  0
    6.8434   18.6995   50.5212 C   0  0  1  0  0  0  0  0  0  0  0  0
    9.9862   20.0367   53.8086 C   0  0  0  0  0  0  0  0  0  0  0  0
    6.8453   21.9147   51.5958 O   0  0  0  0  0  0  0  0  0  0  0  0
    6.5051   18.7551   49.0737 C   0  0  0  0  0  0  0  0  0  0  0  0
   10.5450   18.7908   54.0091 C   0  0  0  0  0  0  0  0  0  0  0  0
    7.4482   19.3650   48.1281 C   0  0  0  0  0  0  0  0  0  0  0  0
    8.5488   20.2219   53.3875 C   0  0  0  0  0  0  0  0  0  0  0  0
    6.9551   19.2737   46.7802 O   0  0  0  0  0  0  0  0  0  0  0  0
  1  2  1  0  0  0  0
  1  8  2  0  0  0  0
  1 14  1  0  0  0  0
  2  3  2  0  0  0  0
  2  7  1  0  0  0  0
  3  4  1  0  0  0  0
  4  5  2  0  0  0  0
  5  6  1  0  0  0  0
  6  7  2  0  0  0  0
  9 16  1  0  0  0  0
 10 21  1  0  0  0  0
 11 13  1  1  0  0  0
 11 17  1  0  0  0  0
 11 20  2  0  0  0  0
 11 31  1  0  0  0  0
 12 16  2  0  0  0  0
 12 28  1  0  0  0  0
 15 26  1  0  0  0  0
 15 18  1  0  0  0  0
 16 19  1  0  0  0  0
 18 30  1  0  0  0  0
 19 22  2  0  0  0  0
 21 18  1  1  0  0  0
 21 24  1  0  0  0  0
 22 23  1  0  0  0  0
 22 25  1  0  0  0  0
 24 14  1  6  0  0  0
 24 27  1  0  0  0  0
 25 28  2  0  0  0  0
 25 30  1  0  0  0  0
 27 29  1  0  0  0  0
 29 31  1  0  0  0  0
M  CHG  1  17  -1
M  END
>  <CHROM.1>
-126.39119841,-172.26950533,128.24429421,97.21549938,124.06605529,-109.11676255
104.46538466,177.91035882,86.09206541,177.90187769,-64.16059618,56.63040561
7.28661055,18.96934374,51.16173272,2.35458673,-0.29366004,-1.64736774

>  <Name>
ligand

>  <RI>
0

>  <Rbt.Current_Directory>
/home/itssahil/PROJECTS/Mol_Feturizer/New_Systems/rnas/2HOO

>  <Rbt.Executable>
rbdock ($Id: //depot/dev/client3/rdock/2013.1/src/exe/rbdock.cxx#4 $)

>  <Rbt.Library>
libRbt.so (2013.1, Build901 2013/11/27)

>  <Rbt.Parameter_File>
/export/apps/rDock/src/rDock_2013.1_src/data/scripts/dock_solv.prm

>  <Rbt.Receptor>
prm/pocket_docking_4.prm

>  <SCORE>
-30.8305

>  <SCORE.INTER>
-18.7705

>  <SCORE.INTER.CONST>
1

>  <SCORE.INTER.POLAR>
0

>  <SCORE.INTER.ROT>
12

>  <SCORE.INTER.SOLV>
17.2952

>  <SCORE.INTER.VDW>
-29.8787

>  <SCORE.INTER.norm>
-0.605499

>  <SCORE.INTRA>
-12.06

>  <SCORE.INTRA.DIHEDRAL>
0.415768

>  <SCORE.INTRA.DIHEDRAL.0>
14.6094

>  <SCORE.INTRA.POLAR>
0

>  <SCORE.INTRA.POLAR.0>
0

>  <SCORE.INTRA.REPUL>
0

>  <SCORE.INTRA.REPUL.0>
0

>  <SCORE.INTRA.SOLV>
1.71142

>  <SCORE.INTRA.SOLV.lig_0>
-65.6478

>  <SCORE.INTRA.VDW>
-13.1236

>  <SCORE.INTRA.VDW.0>
9.35535

>  <SCORE.INTRA.norm>
-0.389032

>  <SCORE.RESTR>
0

>  <SCORE.RESTR.CAVITY>
0

>  <SCORE.RESTR.norm>
0

>  <SCORE.SYSTEM>
0

>  <SCORE.SYSTEM.CONST>
0

>  <SCORE.SYSTEM.DIHEDRAL>
0

>  <SCORE.SYSTEM.SOLV>
0

>  <SCORE.SYSTEM.norm>
0

>  <SCORE.heavy>
31

>  <SCORE.norm>
-0.994531

>  <RMSD>
5.472

$$$$
ligand
 OpenBabel11021811443D
libRbt.so/2013.1/901 2013/11/27
 31 32  0  0  0  0  0  0  0  0999 V2000
    6.2961   15.3570   49.0668 C   0  0  0  0  0  0  0  0  0  0  0  0
    6.3810   13.8361   49.1538 C   0  0  0  0  0  0  0  0  0  0  0  0
    7.2712   13.2186   50.0910 C   0  0  0  0  0  0  0  0  0  0  0  0
    7.3480   11.8071   50.1647 C   0  0  0  0  0  0  0  0  0  0  0  0
    6.5455   10.9984   49.3232 C   0  0  0  0  0  0  0  0  0  0  0  0
    5.6594   11.5888   48.3993 C   0  0  0  0  0  0  0  0  0  0  0  0
    5.5699   12.9895   48.3096 C   0  0  0  0  0  0  0  0  0  0  0  0
    6.2658   15.9087   47.9671 O   0  0  0  0  0  0  0  0  0  0  0  0
    2.1707   23.2908   50.8742 C   0  0  0  0  0  0  0  0  0  0  0  0
    7.8535   19.1989   50.1915 C   0  0  0  0  0  0  0  0  0  0  0  0
    1.7358   16.0339   51.5679 P   0  0  1  0  0  0  0  0  0  0  0  0
    3.3893   21.2505   51.1684 N   0  0  0  0  0  0  0  0  0  0  0  0
    0.5381   16.3734   50.7759 O   0  0  0  0  0  0  0  0  0  0  0  0
    6.2538   16.1281   50.2154 S   0  0  0  0  0  0  0  0  0  0  0  0
    7.1029   17.9318   53.2652 C   0  0  0  0  0  0  0  0  0  0  0  0
    3.3530   22.6093   51.3860 C   0  0  0  0  0  0  0  0  0  0  0  0
    1.8163   16.7118   52.8900 O   0  5  0  0  0  0  0  0  0  0  0  0
    6.7502   18.9215   52.4079 N   0  0  0  0  0  0  0  0  0  0  0  0
    4.2840   23.2716   51.9982 N   0  0  0  0  0  0  0  0  0  0  0  0
    1.8963   14.5635   51.6488 O   0  0  0  0  0  0  0  0  0  0  0  0
    6.7549   18.5466   50.9864 C   0  0  2  0  0  0  0  0  0  0  0  0
    5.4055   22.6203   52.4750 C   0  0  0  0  0  0  0  0  0  0  0  0
    6.3466   23.3350   53.0968 N   0  0  0  0  0  0  0  0  0  0  0  0
    5.8446   17.6225   50.3170 C   0  0  1  0  0  0  0  0  0  0  0  0
    5.5225   21.1841   52.2767 C   0  0  0  0  0  0  0  0  0  0  0  0
    6.2029   17.1453   53.4622 O   0  0  0  0  0  0  0  0  0  0  0  0
    4.5462   18.0205   49.7097 C   0  0  0  0  0  0  0  0  0  0  0  0
    4.4731   20.5726   51.6212 C   0  0  0  0  0  0  0  0  0  0  0  0
    3.3128   17.9266   50.5007 C   0  0  0  0  0  0  0  0  0  0  0  0
    6.7434   20.4251   52.7364 C   0  0  0  0  0  0  0  0  0  0  0  0
    3.0163   16.5579   50.8285 O   0  0  0  0  0  0  0  0  0  0  0  0
  1  2  1  0  0  0  0
  1  8  2  0  0  0  0
  1 14  1  0  0  0  0
  2  3  2  0  0  0  0
  2  7  1  0  0  0  0
  3  4  1  0  0  0  0
  4  5  2  0  0  0  0
  5  6  1  0  0  0  0
  6  7  2  0  0  0  0
  9 16  1  0  0  0  0
 10 21  1  0  0  0  0
 11 13  1  6  0  0  0
 11 17  1  0  0  0  0
 11 20  2  0  0  0  0
 11 31  1  0  0  0  0
 12 16  2  0  0  0  0
 12 28  1  0  0  0  0
 15 26  1  0  0  0  0
 15 18  1  0  0  0  0
 16 19  1  0  0  0  0
 18 30  1  0  0  0  0
 19 22  2  0  0  0  0
 21 18  1  1  0  0  0
 21 24  1  0  0  0  0
 22 23  1  0  0  0  0
 22 25  1  0  0  0  0
 24 14  1  6  0  0  0
 24 27  1  0  0  0  0
 25 28  2  0  0  0  0
 25 30  1  0  0  0  0
 27 29  1  0  0  0  0
 29 31  1  0  0  0  0
M  CHG  1  17  -1
M  END
>  <CHROM.1>
136.38474408,-164.83379561,-127.58048193,-78.36865826,-110.45108712,-135.05933261
86.91739316,87.50577094,-177.63241225,-64.84680077,-175.20127576,60.69354675
4.89067841,17.54616082,50.96963099,-1.45504374,0.10001489,0.26111572

>  <Name>
ligand

>  <RI>
0

>  <Rbt.Current_Directory>
/home/itssahil/PROJECTS/Mol_Feturizer/New_Systems/rnas/2HOO

>  <Rbt.Executable>
rbdock ($Id: //depot/dev/client3/rdock/2013.1/src/exe/rbdock.cxx#4 $)

>  <Rbt.Library>
libRbt.so (2013.1, Build901 2013/11/27)

>  <Rbt.Parameter_File>
/export/apps/rDock/src/rDock_2013.1_src/data/scripts/dock_solv.prm

>  <Rbt.Receptor>
prm/pocket_docking_8.prm

>  <SCORE>
-28.1935

>  <SCORE.INTER>
-13.9205

>  <SCORE.INTER.CONST>
1

>  <SCORE.INTER.POLAR>
0

>  <SCORE.INTER.ROT>
12

>  <SCORE.INTER.SOLV>
12.0264

>  <SCORE.INTER.VDW>
-24.8892

>  <SCORE.INTER.norm>
-0.44905

>  <SCORE.INTRA>
-14.273

>  <SCORE.INTRA.DIHEDRAL>
-0.452014

>  <SCORE.INTRA.DIHEDRAL.0>
14.6094

>  <SCORE.INTRA.POLAR>
0

>  <SCORE.INTRA.POLAR.0>
0

>  <SCORE.INTRA.REPUL>
0

>  <SCORE.INTRA.REPUL.0>
0

>  <SCORE.INTRA.SOLV>
-0.615507

>  <SCORE.INTRA.SOLV.lig_0>
-65.6478

>  <SCORE.INTRA.VDW>
-13.7392

>  <SCORE.INTRA.VDW.0>
9.35535

>  <SCORE.INTRA.norm>
-0.460419

>  <SCORE.RESTR>
0

>  <SCORE.RESTR.CAVITY>
0

>  <SCORE.RESTR.norm>
0

>  <SCORE.SYSTEM>
0

>  <SCORE.SYSTEM.CONST>
0

>  <SCORE.SYSTEM.DIHEDRAL>
0

>  <SCORE.SYSTEM.SOLV>
0

>  <SCORE.SYSTEM.norm>
0

>  <SCORE.heavy>
31

>  <SCORE.norm>
-0.909469

>  <RMSD>
5.477

$$$$
ligand
 OpenBabel11021811443D
libRbt.so/2013.1/901 2013/11/27
 31 32  0  0  0  0  0  0  0  0999 V2000
    3.3424   18.1071   51.4089 C   0  0  0  0  0  0  0  0  0  0  0  0
    2.8891   17.0026   50.4588 C   0  0  0  0  0  0  0  0  0  0  0  0
    1.6522   16.3182   50.6907 C   0  0  0  0  0  0  0  0  0  0  0  0
    1.2388   15.2920   49.8076 C   0  0  0  0  0  0  0  0  0  0  0  0
    2.0355   14.9403   48.6906 C   0  0  0  0  0  0  0  0  0  0  0  0
    3.2526   15.6073   48.4436 C   0  0  0  0  0  0  0  0  0  0  0  0
    3.6817   16.6284   49.3103 C   0  0  0  0  0  0  0  0  0  0  0  0
    3.6419   17.8335   52.5707 O   0  0  0  0  0  0  0  0  0  0  0  0
    9.4371   24.2549   53.1932 C   0  0  0  0  0  0  0  0  0  0  0  0
    1.9483   21.3648   53.0710 C   0  0  0  0  0  0  0  0  0  0  0  0
    8.0920   19.1888   53.4291 P   0  0  1  0  0  0  0  0  0  0  0  0
    7.4208   23.8888   51.9544 N   0  0  0  0  0  0  0  0  0  0  0  0
    7.4070   18.2188   54.3048 O   0  0  0  0  0  0  0  0  0  0  0  0
    3.4198   19.4203   50.9783 S   0  0  0  0  0  0  0  0  0  0  0  0
    2.4532   23.4583   50.7159 C   0  0  0  0  0  0  0  0  0  0  0  0
    7.9801   24.2463   53.1604 C   0  0  0  0  0  0  0  0  0  0  0  0
    9.4841   19.5176   53.8393 O   0  5  0  0  0  0  0  0  0  0  0  0
    3.1900   23.1111   51.8001 N   0  0  0  0  0  0  0  0  0  0  0  0
    7.2938   24.5597   54.2144 N   0  0  0  0  0  0  0  0  0  0  0  0
    7.9784   18.7695   52.0130 O   0  0  0  0  0  0  0  0  0  0  0  0
    3.1141   21.6924   52.1777 C   0  0  2  0  0  0  0  0  0  0  0  0
    5.9126   24.5430   54.1783 C   0  0  0  0  0  0  0  0  0  0  0  0
    5.2380   24.8674   55.2841 N   0  0  0  0  0  0  0  0  0  0  0  0
    4.0148   20.6217   51.7617 C   0  0  1  0  0  0  0  0  0  0  0  0
    5.2456   24.1673   52.9415 C   0  0  0  0  0  0  0  0  0  0  0  0
    1.3582   23.8815   51.0147 O   0  0  0  0  0  0  0  0  0  0  0  0
    5.4739   20.5969   52.0502 C   0  0  0  0  0  0  0  0  0  0  0  0
    6.0672   23.8602   51.8759 C   0  0  0  0  0  0  0  0  0  0  0  0
    5.9484   20.8054   53.4239 C   0  0  0  0  0  0  0  0  0  0  0  0
    3.7410   24.0886   52.8537 C   0  0  0  0  0  0  0  0  0  0  0  0
    7.3652   20.5761   53.5179 O   0  0  0  0  0  0  0  0  0  0  0  0
  1  2  1  0  0  0  0
  1  8  2  0  0  0  0
  1 14  1  0  0  0  0
  2  3  2  0  0  0  0
  2  7  1  0  0  0  0
  3  4  1  0  0  0  0
  4  5  2  0  0  0  0
  5  6  1  0  0  0  0
  6  7  2  0  0  0  0
  9 16  1  0  0  0  0
 10 21  1  0  0  0  0
 11 13  1  1  0  0  0
 11 17  1  0  0  0  0
 11 20  2  0  0  0  0
 11 31  1  0  0  0  0
 12 16  2  0  0  0  0
 12 28  1  0  0  0  0
 15 26  1  0  0  0  0
 15 18  1  0  0  0  0
 16 19  1  0  0  0  0
 18 30  1  0  0  0  0
 19 22  2  0  0  0  0
 21 18  1  6  0  0  0
 21 24  1  0  0  0  0
 22 23  1  0  0  0  0
 22 25  1  0  0  0  0
 24 14  1  1  0  0  0
 24 27  1  0  0  0  0
 25 28  2  0  0  0  0
 25 30  1  0  0  0  0
 27 29  1  0  0  0  0
 29 31  1  0  0  0  0
M  CHG  1  17  -1
M  END
>  <CHROM.1>
66.47598481,-172.28957945,-114.15555888,94.42010797,-85.74731521,-116.28354695
58.86180860,-128.25695648,-152.92719543,172.68496712,-71.32925863,-47.64422918
5.03122317,20.64373301,52.18420955,2.11131576,0.38123544,-2.91688353

>  <Name>
ligand

>  <RI>
0

>  <Rbt.Current_Directory>
/home/itssahil/PROJECTS/Mol_Feturizer/New_Systems/rnas/2HOO

>  <Rbt.Executable>
rbdock ($Id: //depot/dev/client3/rdock/2013.1/src/exe/rbdock.cxx#4 $)

>  <Rbt.Library>
libRbt.so (2013.1, Build901 2013/11/27)

>  <Rbt.Parameter_File>
/export/apps/rDock/src/rDock_2013.1_src/data/scripts/dock_solv.prm

>  <Rbt.Receptor>
prm/pocket_docking_5.prm

>  <SCORE>
-29.9987

>  <SCORE.INTER>
-14.8112

>  <SCORE.INTER.CONST>
1

>  <SCORE.INTER.POLAR>
0

>  <SCORE.INTER.ROT>
12

>  <SCORE.INTER.SOLV>
11.1156

>  <SCORE.INTER.VDW>
-25.1794

>  <SCORE.INTER.norm>
-0.477782

>  <SCORE.INTRA>
-15.1874

>  <SCORE.INTRA.DIHEDRAL>
-1.13056

>  <SCORE.INTRA.DIHEDRAL.0>
14.6094

>  <SCORE.INTRA.POLAR>
0

>  <SCORE.INTRA.POLAR.0>
0

>  <SCORE.INTRA.REPUL>
0

>  <SCORE.INTRA.REPUL.0>
0

>  <SCORE.INTRA.SOLV>
0.389139

>  <SCORE.INTRA.SOLV.lig_0>
-65.6478

>  <SCORE.INTRA.VDW>
-14.8167

>  <SCORE.INTRA.VDW.0>
9.35535

>  <SCORE.INTRA.norm>
-0.489917

>  <SCORE.RESTR>
0

>  <SCORE.RESTR.CAVITY>
0

>  <SCORE.RESTR.norm>
0

>  <SCORE.SYSTEM>
0

>  <SCORE.SYSTEM.CONST>
0

>  <SCORE.SYSTEM.DIHEDRAL>
0

>  <SCORE.SYSTEM.SOLV>
0

>  <SCORE.SYSTEM.norm>
0

>  <SCORE.heavy>
31

>  <SCORE.norm>
-0.967699

>  <RMSD>
5.492

$$$$
ligand
 OpenBabel11021811443D
libRbt.so/2013.1/901 2013/11/27
 31 32  0  0  0  0  0  0  0  0999 V2000
    1.0495   18.9781   53.5608 C   0  0  0  0  0  0  0  0  0  0  0  0
    1.3050   17.6902   54.3380 C   0  0  0  0  0  0  0  0  0  0  0  0
    1.7509   17.7482   55.6981 C   0  0  0  0  0  0  0  0  0  0  0  0
    1.9894   16.5498   56.4128 C   0  0  0  0  0  0  0  0  0  0  0  0
    1.7837   15.2915   55.7959 C   0  0  0  0  0  0  0  0  0  0  0  0
    1.3393   15.2155   54.4603 C   0  0  0  0  0  0  0  0  0  0  0  0
    1.0985   16.3948   53.7327 C   0  0  0  0  0  0  0  0  0  0  0  0
   -0.0023   19.5958   53.7240 O   0  0  0  0  0  0  0  0  0  0  0  0
   10.3229   23.5151   53.6092 C   0  0  0  0  0  0  0  0  0  0  0  0
    5.1627   18.1631   53.3173 C   0  0  0  0  0  0  0  0  0  0  0  0
    2.3059   14.9035   49.2152 P   0  0  1  0  0  0  0  0  0  0  0  0
    8.5070   23.3393   52.0581 N   0  0  0  0  0  0  0  0  0  0  0  0
    1.6361   14.3207   48.0368 O   0  0  0  0  0  0  0  0  0  0  0  0
    1.9906   19.4622   52.6688 S   0  0  0  0  0  0  0  0  0  0  0  0
    5.8322   19.5080   50.3366 C   0  0  0  0  0  0  0  0  0  0  0  0
    9.0254   22.9442   53.2707 C   0  0  0  0  0  0  0  0  0  0  0  0
    1.4365   15.0455   50.4143 O   0  5  0  0  0  0  0  0  0  0  0  0
    5.3413   19.8985   51.5389 N   0  0  0  0  0  0  0  0  0  0  0  0
    8.4324   22.1249   54.0814 N   0  0  0  0  0  0  0  0  0  0  0  0
    3.5746   14.1893   49.4884 O   0  0  0  0  0  0  0  0  0  0  0  0
    4.4775   18.9158   52.2091 C   0  0  2  0  0  0  0  0  0  0  0  0
    7.2053   21.5821   53.7511 C   0  0  0  0  0  0  0  0  0  0  0  0
    6.6256   20.7382   54.6082 N   0  0  0  0  0  0  0  0  0  0  0  0
    3.0736   18.6375   51.9218 C   0  0  1  0  0  0  0  0  0  0  0  0
    6.5946   21.9440   52.4815 C   0  0  0  0  0  0  0  0  0  0  0  0
    6.9913   19.1615   50.3985 O   0  0  0  0  0  0  0  0  0  0  0  0
    2.6058   17.6006   50.9633 C   0  0  0  0  0  0  0  0  0  0  0  0
    7.3036   22.8298   51.6957 C   0  0  0  0  0  0  0  0  0  0  0  0
    3.4181   17.2803   49.7829 C   0  0  0  0  0  0  0  0  0  0  0  0
    5.2771   21.3501   52.0466 C   0  0  0  0  0  0  0  0  0  0  0  0
    2.7149   16.3855   48.9033 O   0  0  0  0  0  0  0  0  0  0  0  0
  1  2  1  0  0  0  0
  1  8  2  0  0  0  0
  1 14  1  0  0  0  0
  2  3  2  0  0  0  0
  2  7  1  0  0  0  0
  3  4  1  0  0  0  0
  4  5  2  0  0  0  0
  5  6  1  0  0  0  0
  6  7  2  0  0  0  0
  9 16  1  0  0  0  0
 10 21  1  0  0  0  0
 11 13  1  6  0  0  0
 11 17  1  0  0  0  0
 11 20  2  0  0  0  0
 11 31  1  0  0  0  0
 12 16  2  0  0  0  0
 12 28  1  0  0  0  0
 15 26  1  0  0  0  0
 15 18  1  0  0  0  0
 16 19  1  0  0  0  0
 18 30  1  0  0  0  0
 19 22  2  0  0  0  0
 21 18  1  1  0  0  0
 21 24  1  0  0  0  0
 22 23  1  0  0  0  0
 22 25  1  0  0  0  0
 24 14  1  1  0  0  0
 24 27  1  0  0  0  0
 25 28  2  0  0  0  0
 25 30  1  0  0  0  0
 27 29  1  0  0  0  0
 29 31  1  0  0  0  0
M  CHG  1  17  -1
M  END
>  <CHROM.1>
-79.96975413,24.90792060,-116.03980824,-102.78105556,102.06323343,-74.54469282
89.81092682,148.90962386,-75.90623135,-172.63760938,-65.66222124,-178.32069753
4.04658501,18.58296300,52.16256175,2.59670006,-0.66392574,-2.08337447

>  <Name>
ligand

>  <RI>
0

>  <Rbt.Current_Directory>
/home/itssahil/PROJECTS/Mol_Feturizer/New_Systems/rnas/2HOO

>  <Rbt.Executable>
rbdock ($Id: //depot/dev/client3/rdock/2013.1/src/exe/rbdock.cxx#4 $)

>  <Rbt.Library>
libRbt.so (2013.1, Build901 2013/11/27)

>  <Rbt.Parameter_File>
/export/apps/rDock/src/rDock_2013.1_src/data/scripts/dock_solv.prm

>  <Rbt.Receptor>
prm/blind_docking_60.prm

>  <SCORE>
-23.5295

>  <SCORE.INTER>
-11.9696

>  <SCORE.INTER.CONST>
1

>  <SCORE.INTER.POLAR>
0

>  <SCORE.INTER.ROT>
12

>  <SCORE.INTER.SOLV>
14.0152

>  <SCORE.INTER.VDW>
-24.2515

>  <SCORE.INTER.norm>
-0.386117

>  <SCORE.INTRA>
-12.2139

>  <SCORE.INTRA.DIHEDRAL>
0.246933

>  <SCORE.INTRA.DIHEDRAL.0>
14.6094

>  <SCORE.INTRA.POLAR>
0

>  <SCORE.INTRA.POLAR.0>
0

>  <SCORE.INTRA.REPUL>
0

>  <SCORE.INTRA.REPUL.0>
0

>  <SCORE.INTRA.SOLV>
4.6667

>  <SCORE.INTRA.SOLV.lig_0>
-65.6478

>  <SCORE.INTRA.VDW>
-14.6707

>  <SCORE.INTRA.VDW.0>
9.35535

>  <SCORE.INTRA.norm>
-0.393997

>  <SCORE.RESTR>
0.654073

>  <SCORE.RESTR.CAVITY>
0.654073

>  <SCORE.RESTR.norm>
0.0210991

>  <SCORE.SYSTEM>
0

>  <SCORE.SYSTEM.CONST>
0

>  <SCORE.SYSTEM.DIHEDRAL>
0

>  <SCORE.SYSTEM.SOLV>
0

>  <SCORE.SYSTEM.norm>
0

>  <SCORE.heavy>
31

>  <SCORE.norm>
-0.759015

>  <RMSD>
5.533

$$$$
ligand
 OpenBabel11021811443D
libRbt.so/2013.1/901 2013/11/27
 31 32  0  0  0  0  0  0  0  0999 V2000
    1.5050   15.0407   50.0536 C   0  0  0  0  0  0  0  0  0  0  0  0
    2.0826   14.7677   48.6680 C   0  0  0  0  0  0  0  0  0  0  0  0
    1.2930   14.0945   47.6803 C   0  0  0  0  0  0  0  0  0  0  0  0
    1.8357   13.8411   46.3977 C   0  0  0  0  0  0  0  0  0  0  0  0
    3.1526   14.2545   46.0795 C   0  0  0  0  0  0  0  0  0  0  0  0
    3.9416   14.9236   47.0371 C   0  0  0  0  0  0  0  0  0  0  0  0
    3.4212   15.1830   48.3176 C   0  0  0  0  0  0  0  0  0  0  0  0
    1.1996   14.1015   50.7878 O   0  0  0  0  0  0  0  0  0  0  0  0
    7.1926   24.0719   52.2208 C   0  0  0  0  0  0  0  0  0  0  0  0
    4.1079   17.6284   51.0278 C   0  0  0  0  0  0  0  0  0  0  0  0
    0.3856   16.3869   56.2032 P   0  0  1  0  0  0  0  0  0  0  0  0
    6.3080   21.8776   51.8508 N   0  0  0  0  0  0  0  0  0  0  0  0
   -0.8154   15.5410   56.0663 O   0  0  0  0  0  0  0  0  0  0  0  0
    1.3179   16.3385   50.4967 S   0  0  0  0  0  0  0  0  0  0  0  0
    3.4316   19.1146   53.8218 C   0  0  0  0  0  0  0  0  0  0  0  0
    6.0289   23.2044   52.0891 C   0  0  0  0  0  0  0  0  0  0  0  0
    0.4577   17.1588   57.4733 O   0  5  0  0  0  0  0  0  0  0  0  0
    2.9234   19.1888   52.5667 N   0  0  0  0  0  0  0  0  0  0  0  0
    4.8304   23.6863   52.1953 N   0  0  0  0  0  0  0  0  0  0  0  0
    1.6053   15.5933   55.9260 O   0  0  0  0  0  0  0  0  0  0  0  0
    2.8723   17.9132   51.8379 C   0  0  2  0  0  0  0  0  0  0  0  0
    3.7315   22.8571   52.0761 C   0  0  0  0  0  0  0  0  0  0  0  0
    2.5118   23.3872   52.1955 N   0  0  0  0  0  0  0  0  0  0  0  0
    1.7887   16.9352   51.8508 C   0  0  1  0  0  0  0  0  0  0  0  0
    3.9436   21.4389   51.8319 C   0  0  0  0  0  0  0  0  0  0  0  0
    2.8089   19.7853   54.6155 O   0  0  0  0  0  0  0  0  0  0  0  0
    1.0907   16.4766   53.0817 C   0  0  0  0  0  0  0  0  0  0  0  0
    5.2573   21.0292   51.7267 C   0  0  0  0  0  0  0  0  0  0  0  0
    0.0820   17.3381   53.7110 C   0  0  0  0  0  0  0  0  0  0  0  0
    2.7846   20.4770   51.7360 C   0  0  0  0  0  0  0  0  0  0  0  0
    0.3581   17.5132   55.1116 O   0  0  0  0  0  0  0  0  0  0  0  0
  1  2  1  0  0  0  0
  1  8  2  0  0  0  0
  1 14  1  0  0  0  0
  2  3  2  0  0  0  0
  2  7  1  0  0  0  0
  3  4  1  0  0  0  0
  4  5  2  0  0  0  0
  5  6  1  0  0  0  0
  6  7  2  0  0  0  0
  9 16  1  0  0  0  0
 10 21  1  0  0  0  0
 11 13  1  6  0  0  0
 11 17  1  0  0  0  0
 11 20  2  0  0  0  0
 11 31  1  0  0  0  0
 12 16  2  0  0  0  0
 12 28  1  0  0  0  0
 15 26  1  0  0  0  0
 15 18  1  0  0  0  0
 16 19  1  0  0  0  0
 18 30  1  0  0  0  0
 19 22  2  0  0  0  0
 21 18  1  1  0  0  0
 21 24  1  0  0  0  0
 22 23  1  0  0  0  0
 22 25  1  0  0  0  0
 24 14  1  6  0  0  0
 24 27  1  0  0  0  0
 25 28  2  0  0  0  0
 25 30  1  0  0  0  0
 27 29  1  0  0  0  0
 29 31  1  0  0  0  0
M  CHG  1  17  -1
M  END
>  <CHROM.1>
63.50899651,-129.75427665,109.97212483,-138.32577524,-90.65099418,40.38305664
-46.92634357,-102.15808463,-131.89867387,-128.16313010,-62.50963942,-47.36897165
2.49263081,17.98236983,52.14332124,-2.30658775,0.97306760,0.94743240

>  <Name>
ligand

>  <RI>
0

>  <Rbt.Current_Directory>
/home/itssahil/PROJECTS/Mol_Feturizer/New_Systems/rnas/2HOO

>  <Rbt.Executable>
rbdock ($Id: //depot/dev/client3/rdock/2013.1/src/exe/rbdock.cxx#4 $)

>  <Rbt.Library>
libRbt.so (2013.1, Build901 2013/11/27)

>  <Rbt.Parameter_File>
/export/apps/rDock/src/rDock_2013.1_src/data/scripts/dock_solv.prm

>  <Rbt.Receptor>
prm/pocket_docking_8.prm

>  <SCORE>
-24.7666

>  <SCORE.INTER>
-14.8412

>  <SCORE.INTER.CONST>
1

>  <SCORE.INTER.POLAR>
0

>  <SCORE.INTER.ROT>
12

>  <SCORE.INTER.SOLV>
15.6291

>  <SCORE.INTER.VDW>
-26.7038

>  <SCORE.INTER.norm>
-0.478749

>  <SCORE.INTRA>
-9.92543

>  <SCORE.INTRA.DIHEDRAL>
6.14502

>  <SCORE.INTRA.DIHEDRAL.0>
14.6094

>  <SCORE.INTRA.POLAR>
0

>  <SCORE.INTRA.POLAR.0>
0

>  <SCORE.INTRA.REPUL>
0

>  <SCORE.INTRA.REPUL.0>
0

>  <SCORE.INTRA.SOLV>
0.704217

>  <SCORE.INTRA.SOLV.lig_0>
-65.6478

>  <SCORE.INTRA.VDW>
-13.3501

>  <SCORE.INTRA.VDW.0>
9.35535

>  <SCORE.INTRA.norm>
-0.320175

>  <SCORE.RESTR>
0

>  <SCORE.RESTR.CAVITY>
0

>  <SCORE.RESTR.norm>
0

>  <SCORE.SYSTEM>
0

>  <SCORE.SYSTEM.CONST>
0

>  <SCORE.SYSTEM.DIHEDRAL>
0

>  <SCORE.SYSTEM.SOLV>
0

>  <SCORE.SYSTEM.norm>
0

>  <SCORE.heavy>
31

>  <SCORE.norm>
-0.798924

>  <RMSD>
5.539

$$$$
ligand
 OpenBabel11021811443D
libRbt.so/2013.1/901 2013/11/27
 31 32  0  0  0  0  0  0  0  0999 V2000
    3.8149   15.8682   50.7180 C   0  0  0  0  0  0  0  0  0  0  0  0
    4.0179   14.8271   49.6213 C   0  0  0  0  0  0  0  0  0  0  0  0
    3.4018   15.0037   48.3400 C   0  0  0  0  0  0  0  0  0  0  0  0
    3.5911   14.0325   47.3277 C   0  0  0  0  0  0  0  0  0  0  0  0
    4.3917   12.8892   47.5686 C   0  0  0  0  0  0  0  0  0  0  0  0
    5.0105   12.7022   48.8214 C   0  0  0  0  0  0  0  0  0  0  0  0
    4.8331   13.6548   49.8408 C   0  0  0  0  0  0  0  0  0  0  0  0
    4.7750   16.5137   51.1376 O   0  0  0  0  0  0  0  0  0  0  0  0
    3.0438   21.5829   59.3839 C   0  0  0  0  0  0  0  0  0  0  0  0
    3.4501   19.2223   50.9641 C   0  0  0  0  0  0  0  0  0  0  0  0
    1.1710   16.5303   55.6705 P   0  0  1  0  0  0  0  0  0  0  0  0
    2.1637   20.6105   57.3803 N   0  0  0  0  0  0  0  0  0  0  0  0
    2.5067   15.9139   55.5570 O   0  0  0  0  0  0  0  0  0  0  0  0
    2.5578   16.0959   51.2506 S   0  0  0  0  0  0  0  0  0  0  0  0
    4.6541   18.1510   53.9148 C   0  0  0  0  0  0  0  0  0  0  0  0
    3.2045   21.2971   57.9638 C   0  0  0  0  0  0  0  0  0  0  0  0
    0.0802   15.7719   55.0005 O   0  5  0  0  0  0  0  0  0  0  0  0
    3.6629   18.9393   53.4301 N   0  0  0  0  0  0  0  0  0  0  0  0
    4.2682   21.6793   57.3293 N   0  0  0  0  0  0  0  0  0  0  0  0
    0.8774   16.8593   57.0847 O   0  0  0  0  0  0  0  0  0  0  0  0
    3.0329   18.4589   52.1918 C   0  0  2  0  0  0  0  0  0  0  0  0
    4.4111   21.4110   55.9814 C   0  0  0  0  0  0  0  0  0  0  0  0
    5.5180   21.8235   55.3590 N   0  0  0  0  0  0  0  0  0  0  0  0
    2.1010   17.3438   52.0539 C   0  0  1  0  0  0  0  0  0  0  0  0
    3.3496   20.6960   55.2900 C   0  0  0  0  0  0  0  0  0  0  0  0
    5.7312   18.4026   53.4208 O   0  0  0  0  0  0  0  0  0  0  0  0
    0.7275   17.3264   52.6249 C   0  0  0  0  0  0  0  0  0  0  0  0
    2.2642   20.3263   56.0581 C   0  0  0  0  0  0  0  0  0  0  0  0
    0.3899   18.2224   53.7380 C   0  0  0  0  0  0  0  0  0  0  0  0
    3.4292   20.4124   53.8098 C   0  0  0  0  0  0  0  0  0  0  0  0
    1.1623   17.9012   54.9080 O   0  0  0  0  0  0  0  0  0  0  0  0
  1  2  1  0  0  0  0
  1  8  2  0  0  0  0
  1 14  1  0  0  0  0
  2  3  2  0  0  0  0
  2  7  1  0  0  0  0
  3  4  1  0  0  0  0
  4  5  2  0  0  0  0
  5  6  1  0  0  0  0
  6  7  2  0  0  0  0
  9 16  1  0  0  0  0
 10 21  1  0  0  0  0
 11 13  1  6  0  0  0
 11 17  1  0  0  0  0
 11 20  2  0  0  0  0
 11 31  1  0  0  0  0
 12 16  2  0  0  0  0
 12 28  1  0  0  0  0
 15 26  1  0  0  0  0
 15 18  1  0  0  0  0
 16 19  1  0  0  0  0
 18 30  1  0  0  0  0
 19 22  2  0  0  0  0
 21 18  1  6  0  0  0
 21 24  1  0  0  0  0
 22 23  1  0  0  0  0
 22 25  1  0  0  0  0
 24 14  1  6  0  0  0
 24 27  1  0  0  0  0
 25 28  2  0  0  0  0
 25 30  1  0  0  0  0
 27 29  1  0  0  0  0
 29 31  1  0  0  0  0
M  CHG  1  17  -1
M  END
>  <CHROM.1>
-115.72714296,-161.67718430,5.28391134,86.07175195,-104.89710841,-52.13698693
64.77843371,159.47013600,109.17959968,-63.80235363,-59.81867820,114.88605620
3.00516414,17.69021428,53.47768905,-1.45070686,0.72330906,0.83519671

>  <Name>
ligand

>  <RI>
0

>  <Rbt.Current_Directory>
/home/itssahil/PROJECTS/Mol_Feturizer/New_Systems/rnas/2HOO

>  <Rbt.Executable>
rbdock ($Id: //depot/dev/client3/rdock/2013.1/src/exe/rbdock.cxx#4 $)

>  <Rbt.Library>
libRbt.so (2013.1, Build901 2013/11/27)

>  <Rbt.Parameter_File>
/export/apps/rDock/src/rDock_2013.1_src/data/scripts/dock_solv.prm

>  <Rbt.Receptor>
prm/pocket_docking_8.prm

>  <SCORE>
-23.1284

>  <SCORE.INTER>
-13.1512

>  <SCORE.INTER.CONST>
1

>  <SCORE.INTER.POLAR>
0

>  <SCORE.INTER.ROT>
12

>  <SCORE.INTER.SOLV>
14.0548

>  <SCORE.INTER.VDW>
-25.0524

>  <SCORE.INTER.norm>
-0.424233

>  <SCORE.INTRA>
-9.9772

>  <SCORE.INTRA.DIHEDRAL>
1.27275

>  <SCORE.INTRA.DIHEDRAL.0>
14.6094

>  <SCORE.INTRA.POLAR>
0

>  <SCORE.INTRA.POLAR.0>
0

>  <SCORE.INTRA.REPUL>
0.11913

>  <SCORE.INTRA.REPUL.0>
0

>  <SCORE.INTRA.SOLV>
4.64262

>  <SCORE.INTRA.SOLV.lig_0>
-65.6478

>  <SCORE.INTRA.VDW>
-13.5305

>  <SCORE.INTRA.VDW.0>
9.35535

>  <SCORE.INTRA.norm>
-0.321845

>  <SCORE.RESTR>
0

>  <SCORE.RESTR.CAVITY>
0

>  <SCORE.RESTR.norm>
0

>  <SCORE.SYSTEM>
0

>  <SCORE.SYSTEM.CONST>
0

>  <SCORE.SYSTEM.DIHEDRAL>
0

>  <SCORE.SYSTEM.SOLV>
0

>  <SCORE.SYSTEM.norm>
0

>  <SCORE.heavy>
31

>  <SCORE.norm>
-0.746079

>  <RMSD>
5.568

$$$$
ligand
 OpenBabel11021811443D
libRbt.so/2013.1/901 2013/11/27
 31 32  0  0  0  0  0  0  0  0999 V2000
    6.6874   17.3982   50.3508 C   0  0  0  0  0  0  0  0  0  0  0  0
    7.9504   17.1522   49.5309 C   0  0  0  0  0  0  0  0  0  0  0  0
    9.1558   17.8631   49.8373 C   0  0  0  0  0  0  0  0  0  0  0  0
   10.3234   17.6330   49.0709 C   0  0  0  0  0  0  0  0  0  0  0  0
   10.3123   16.6990   48.0062 C   0  0  0  0  0  0  0  0  0  0  0  0
    9.1368   15.9859   47.6945 C   0  0  0  0  0  0  0  0  0  0  0  0
    7.9659   16.2017   48.4430 C   0  0  0  0  0  0  0  0  0  0  0  0
    5.9857   16.4487   50.6980 O   0  0  0  0  0  0  0  0  0  0  0  0
    3.5630   21.6576   60.0614 C   0  0  0  0  0  0  0  0  0  0  0  0
    5.6729   17.9128   53.7980 C   0  0  0  0  0  0  0  0  0  0  0  0
    1.7577   16.0779   51.1261 P   0  0  1  0  0  0  0  0  0  0  0  0
    4.7260   21.6796   57.9682 N   0  0  0  0  0  0  0  0  0  0  0  0
    0.4935   16.4711   50.4749 O   0  0  0  0  0  0  0  0  0  0  0  0
    6.3183   18.6830   50.7096 S   0  0  0  0  0  0  0  0  0  0  0  0
    6.1946   21.2332   53.8297 C   0  0  0  0  0  0  0  0  0  0  0  0
    3.5502   21.3992   58.6271 C   0  0  0  0  0  0  0  0  0  0  0  0
    1.6739   15.9345   52.6048 O   0  5  0  0  0  0  0  0  0  0  0  0
    5.1676   20.3502   53.8978 N   0  0  0  0  0  0  0  0  0  0  0  0
    2.4862   20.9374   58.0486 N   0  0  0  0  0  0  0  0  0  0  0  0
    2.3344   14.8922   50.4508 O   0  0  0  0  0  0  0  0  0  0  0  0
    5.3086   19.1624   53.0432 C   0  0  2  0  0  0  0  0  0  0  0  0
    2.4831   20.6883   56.6895 C   0  0  0  0  0  0  0  0  0  0  0  0
    1.3707   20.2085   56.1278 N   0  0  0  0  0  0  0  0  0  0  0  0
    5.1118   19.0893   51.5986 C   0  0  1  0  0  0  0  0  0  0  0  0
    3.6912   20.9511   55.9233 C   0  0  0  0  0  0  0  0  0  0  0  0
    6.0568   22.0378   52.9347 O   0  0  0  0  0  0  0  0  0  0  0  0
    3.8266   19.3920   50.9134 C   0  0  0  0  0  0  0  0  0  0  0  0
    4.7653   21.4496   56.6323 C   0  0  0  0  0  0  0  0  0  0  0  0
    2.6246   18.6161   51.2436 C   0  0  0  0  0  0  0  0  0  0  0  0
    3.7622   20.6578   54.4445 C   0  0  0  0  0  0  0  0  0  0  0  0
    2.8157   17.2220   50.9459 O   0  0  0  0  0  0  0  0  0  0  0  0
  1  2  1  0  0  0  0
  1  8  2  0  0  0  0
  1 14  1  0  0  0  0
  2  3  2  0  0  0  0
  2  7  1  0  0  0  0
  3  4  1  0  0  0  0
  4  5  2  0  0  0  0
  5  6  1  0  0  0  0
  6  7  2  0  0  0  0
  9 16  1  0  0  0  0
 10 21  1  0  0  0  0
 11 13  1  6  0  0  0
 11 17  1  0  0  0  0
 11 20  2  0  0  0  0
 11 31  1  0  0  0  0
 12 16  2  0  0  0  0
 12 28  1  0  0  0  0
 15 26  1  0  0  0  0
 15 18  1  0  0  0  0
 16 19  1  0  0  0  0
 18 30  1  0  0  0  0
 19 22  2  0  0  0  0
 21 18  1  1  0  0  0
 21 24  1  0  0  0  0
 22 23  1  0  0  0  0
 22 25  1  0  0  0  0
 24 14  1  6  0  0  0
 24 27  1  0  0  0  0
 25 28  2  0  0  0  0
 25 30  1  0  0  0  0
 27 29  1  0  0  0  0
 29 31  1  0  0  0  0
M  CHG  1  17  -1
M  END
>  <CHROM.1>
-137.41415387,-176.54454675,88.60529372,86.93823568,104.79993808,-66.73665232
-62.92184390,121.09685819,-152.80057295,-60.96308128,-178.48871657,50.92874905
4.73912931,18.64848517,52.64949397,-1.16502094,0.31242232,0.94260185

>  <Name>
ligand

>  <RI>
0

>  <Rbt.Current_Directory>
/home/itssahil/PROJECTS/Mol_Feturizer/New_Systems/rnas/2HOO

>  <Rbt.Executable>
rbdock ($Id: //depot/dev/client3/rdock/2013.1/src/exe/rbdock.cxx#4 $)

>  <Rbt.Library>
libRbt.so (2013.1, Build901 2013/11/27)

>  <Rbt.Parameter_File>
/export/apps/rDock/src/rDock_2013.1_src/data/scripts/dock_solv.prm

>  <Rbt.Receptor>
prm/pocket_docking_7.prm

>  <SCORE>
-28.6258

>  <SCORE.INTER>
-12.966

>  <SCORE.INTER.CONST>
1

>  <SCORE.INTER.POLAR>
0

>  <SCORE.INTER.ROT>
12

>  <SCORE.INTER.SOLV>
11.9257

>  <SCORE.INTER.VDW>
-24.2193

>  <SCORE.INTER.norm>
-0.418259

>  <SCORE.INTRA>
-15.6598

>  <SCORE.INTRA.DIHEDRAL>
-2.58206

>  <SCORE.INTRA.DIHEDRAL.0>
14.6094

>  <SCORE.INTRA.POLAR>
0

>  <SCORE.INTRA.POLAR.0>
0

>  <SCORE.INTRA.REPUL>
0

>  <SCORE.INTRA.REPUL.0>
0

>  <SCORE.INTRA.SOLV>
-0.190048

>  <SCORE.INTRA.SOLV.lig_0>
-65.6478

>  <SCORE.INTRA.VDW>
-14.2738

>  <SCORE.INTRA.VDW.0>
9.35535

>  <SCORE.INTRA.norm>
-0.505155

>  <SCORE.RESTR>
0

>  <SCORE.RESTR.CAVITY>
0

>  <SCORE.RESTR.norm>
0

>  <SCORE.SYSTEM>
0

>  <SCORE.SYSTEM.CONST>
0

>  <SCORE.SYSTEM.DIHEDRAL>
0

>  <SCORE.SYSTEM.SOLV>
0

>  <SCORE.SYSTEM.norm>
0

>  <SCORE.heavy>
31

>  <SCORE.norm>
-0.923414

>  <RMSD>
5.601

$$$$
ligand
 OpenBabel11021811443D
libRbt.so/2013.1/901 2013/11/27
 31 32  0  0  0  0  0  0  0  0999 V2000
    2.7653   19.4062   52.8165 C   0  0  0  0  0  0  0  0  0  0  0  0
    1.5626   20.0264   53.5214 C   0  0  0  0  0  0  0  0  0  0  0  0
    0.3517   20.2705   52.7958 C   0  0  0  0  0  0  0  0  0  0  0  0
   -0.7596   20.8492   53.4545 C   0  0  0  0  0  0  0  0  0  0  0  0
   -0.6870   21.1830   54.8291 C   0  0  0  0  0  0  0  0  0  0  0  0
    0.4944   20.9442   55.5602 C   0  0  0  0  0  0  0  0  0  0  0  0
    1.6100   20.3717   54.9234 C   0  0  0  0  0  0  0  0  0  0  0  0
    2.9287   18.1867   52.8385 O   0  0  0  0  0  0  0  0  0  0  0  0
   13.1419   20.2426   54.7567 C   0  0  0  0  0  0  0  0  0  0  0  0
    6.6598   18.8730   53.5292 C   0  0  0  0  0  0  0  0  0  0  0  0
    5.4448   15.8916   48.3015 P   0  0  1  0  0  0  0  0  0  0  0  0
   11.4833   21.8141   54.0400 N   0  0  0  0  0  0  0  0  0  0  0  0
    5.0022   15.8593   46.8944 O   0  0  0  0  0  0  0  0  0  0  0  0
    3.6805   20.2026   52.1503 S   0  0  0  0  0  0  0  0  0  0  0  0
    6.6082   21.9290   54.0264 C   0  0  0  0  0  0  0  0  0  0  0  0
   11.8765   20.4954   54.0793 C   0  0  0  0  0  0  0  0  0  0  0  0
    4.5874   15.1159   49.2381 O   0  5  0  0  0  0  0  0  0  0  0  0
    6.9483   21.2647   52.8942 N   0  0  0  0  0  0  0  0  0  0  0  0
   11.1975   19.5197   53.5624 N   0  0  0  0  0  0  0  0  0  0  0  0
    6.8821   15.5455   48.3944 O   0  0  0  0  0  0  0  0  0  0  0  0
    6.2106   20.0152   52.6587 C   0  0  2  0  0  0  0  0  0  0  0  0
   10.0018   19.7672   52.9157 C   0  0  0  0  0  0  0  0  0  0  0  0
    9.3311   18.7386   52.3913 N   0  0  0  0  0  0  0  0  0  0  0  0
    5.1167   19.8036   51.7155 C   0  0  1  0  0  0  0  0  0  0  0  0
    9.5218   21.1373   52.8244 C   0  0  0  0  0  0  0  0  0  0  0  0
    7.5186   22.5980   54.4637 O   0  0  0  0  0  0  0  0  0  0  0  0
    5.2839   19.2155   50.3594 C   0  0  0  0  0  0  0  0  0  0  0  0
   10.3145   22.1006   53.4146 C   0  0  0  0  0  0  0  0  0  0  0  0
    5.5204   17.7736   50.2148 C   0  0  0  0  0  0  0  0  0  0  0  0
    8.2455   21.4748   52.0929 C   0  0  0  0  0  0  0  0  0  0  0  0
    5.3271   17.3558   48.8522 O   0  0  0  0  0  0  0  0  0  0  0  0
  1  2  1  0  0  0  0
  1  8  2  0  0  0  0
  1 14  1  0  0  0  0
  2  3  2  0  0  0  0
  2  7  1  0  0  0  0
  3  4  1  0  0  0  0
  4  5  2  0  0  0  0
  5  6  1  0  0  0  0
  6  7  2  0  0  0  0
  9 16  1  0  0  0  0
 10 21  1  0  0  0  0
 11 13  1  6  0  0  0
 11 17  1  0  0  0  0
 11 20  2  0  0  0  0
 11 31  1  0  0  0  0
 12 16  2  0  0  0  0
 12 28  1  0  0  0  0
 15 26  1  0  0  0  0
 15 18  1  0  0  0  0
 16 19  1  0  0  0  0
 18 30  1  0  0  0  0
 19 22  2  0  0  0  0
 21 18  1  1  0  0  0
 21 24  1  0  0  0  0
 22 23  1  0  0  0  0
 22 25  1  0  0  0  0
 24 14  1  1  0  0  0
 24 27  1  0  0  0  0
 25 28  2  0  0  0  0
 25 30  1  0  0  0  0
 27 29  1  0  0  0  0
 29 31  1  0  0  0  0
M  CHG  1  17  -1
M  END
>  <CHROM.1>
-93.04244331,162.64873040,-88.66941381,152.47854060,-75.52732540,63.19049761
95.80037022,-105.06709485,82.04987751,165.81834644,-178.14109323,172.66967144
5.91757471,19.39289561,52.12719792,2.87520886,-0.02628285,-2.30501499

>  <Name>
ligand

>  <RI>
0

>  <Rbt.Current_Directory>
/home/itssahil/PROJECTS/Mol_Feturizer/New_Systems/rnas/2HOO

>  <Rbt.Executable>
rbdock ($Id: //depot/dev/client3/rdock/2013.1/src/exe/rbdock.cxx#4 $)

>  <Rbt.Library>
libRbt.so (2013.1, Build901 2013/11/27)

>  <Rbt.Parameter_File>
/export/apps/rDock/src/rDock_2013.1_src/data/scripts/dock_solv.prm

>  <Rbt.Receptor>
prm/pocket_docking_2.prm

>  <SCORE>
-20.5402

>  <SCORE.INTER>
-10.0629

>  <SCORE.INTER.CONST>
1

>  <SCORE.INTER.POLAR>
0

>  <SCORE.INTER.ROT>
12

>  <SCORE.INTER.SOLV>
10.7174

>  <SCORE.INTER.VDW>
-21.881

>  <SCORE.INTER.norm>
-0.324609

>  <SCORE.INTRA>
-10.5435

>  <SCORE.INTRA.DIHEDRAL>
-0.14258

>  <SCORE.INTRA.DIHEDRAL.0>
14.6094

>  <SCORE.INTRA.POLAR>
0

>  <SCORE.INTRA.POLAR.0>
0

>  <SCORE.INTRA.REPUL>
0

>  <SCORE.INTRA.REPUL.0>
0

>  <SCORE.INTRA.SOLV>
4.48813

>  <SCORE.INTRA.SOLV.lig_0>
-65.6478

>  <SCORE.INTRA.VDW>
-12.7163

>  <SCORE.INTRA.VDW.0>
9.35535

>  <SCORE.INTRA.norm>
-0.340113

>  <SCORE.RESTR>
0.0661941

>  <SCORE.RESTR.CAVITY>
0.0661941

>  <SCORE.RESTR.norm>
0.00213529

>  <SCORE.SYSTEM>
0

>  <SCORE.SYSTEM.CONST>
0

>  <SCORE.SYSTEM.DIHEDRAL>
0

>  <SCORE.SYSTEM.SOLV>
0

>  <SCORE.SYSTEM.norm>
0

>  <SCORE.heavy>
31

>  <SCORE.norm>
-0.662586

>  <RMSD>
5.632

$$$$
ligand
 OpenBabel11021811443D
libRbt.so/2013.1/901 2013/11/27
 31 32  0  0  0  0  0  0  0  0999 V2000
    1.2222   17.8184   53.3904 C   0  0  0  0  0  0  0  0  0  0  0  0
    0.5653   17.2692   54.6533 C   0  0  0  0  0  0  0  0  0  0  0  0
    0.9003   17.8171   55.9338 C   0  0  0  0  0  0  0  0  0  0  0  0
    0.2900   17.3010   57.1022 C   0  0  0  0  0  0  0  0  0  0  0  0
   -0.6561   16.2505   57.0152 C   0  0  0  0  0  0  0  0  0  0  0  0
   -1.0023   15.7035   55.7629 C   0  0  0  0  0  0  0  0  0  0  0  0
   -0.4056   16.2012   54.5907 C   0  0  0  0  0  0  0  0  0  0  0  0
    0.5292   18.1234   52.4203 O   0  0  0  0  0  0  0  0  0  0  0  0
   10.5741   19.8895   53.8311 C   0  0  0  0  0  0  0  0  0  0  0  0
    2.9951   17.0035   50.3566 C   0  0  0  0  0  0  0  0  0  0  0  0
    2.7056   23.2233   52.8727 P   0  0  1  0  0  0  0  0  0  0  0  0
    8.4793   18.7344   53.9411 N   0  0  0  0  0  0  0  0  0  0  0  0
    3.3152   22.7035   54.1117 O   0  0  0  0  0  0  0  0  0  0  0  0
    2.5955   17.9773   53.3215 S   0  0  0  0  0  0  0  0  0  0  0  0
    5.6175   18.9494   49.7669 C   0  0  0  0  0  0  0  0  0  0  0  0
    9.5223   19.1503   53.1446 C   0  0  0  0  0  0  0  0  0  0  0  0
    1.2448   22.9691   52.7476 O   0  5  0  0  0  0  0  0  0  0  0  0
    5.2976   17.9244   50.5951 N   0  0  0  0  0  0  0  0  0  0  0  0
    9.5998   18.9204   51.8713 N   0  0  0  0  0  0  0  0  0  0  0  0
    3.0753   24.6444   52.6772 O   0  0  0  0  0  0  0  0  0  0  0  0
    3.9158   17.9356   51.0967 C   0  0  2  0  0  0  0  0  0  0  0  0
    8.5957   18.2246   51.2253 C   0  0  0  0  0  0  0  0  0  0  0  0
    8.7065   18.0099   49.9121 N   0  0  0  0  0  0  0  0  0  0  0  0
    3.3909   18.7174   52.2120 C   0  0  1  0  0  0  0  0  0  0  0  0
    7.4542   17.7583   51.9969 C   0  0  0  0  0  0  0  0  0  0  0  0
    5.9949   18.5684   48.6806 O   0  0  0  0  0  0  0  0  0  0  0  0
    3.5568   20.1889   52.3532 C   0  0  0  0  0  0  0  0  0  0  0  0
    7.4726   18.0474   53.3463 C   0  0  0  0  0  0  0  0  0  0  0  0
    3.0689   21.0818   51.2947 C   0  0  0  0  0  0  0  0  0  0  0  0
    6.3065   17.0316   51.3394 C   0  0  0  0  0  0  0  0  0  0  0  0
    3.2997   22.4593   51.6382 O   0  0  0  0  0  0  0  0  0  0  0  0
  1  2  1  0  0  0  0
  1  8  2  0  0  0  0
  1 14  1  0  0  0  0
  2  3  2  0  0  0  0
  2  7  1  0  0  0  0
  3  4  1  0  0  0  0
  4  5  2  0  0  0  0
  5  6  1  0  0  0  0
  6  7  2  0  0  0  0
  9 16  1  0  0  0  0
 10 21  1  0  0  0  0
 11 13  1  1  0  0  0
 11 17  1  0  0  0  0
 11 20  2  0  0  0  0
 11 31  1  0  0  0  0
 12 16  2  0  0  0  0
 12 28  1  0  0  0  0
 15 26  1  0  0  0  0
 15 18  1  0  0  0  0
 16 19  1  0  0  0  0
 18 30  1  0  0  0  0
 19 22  2  0  0  0  0
 21 18  1  1  0  0  0
 21 24  1  0  0  0  0
 22 23  1  0  0  0  0
 22 25  1  0  0  0  0
 24 14  1  6  0  0  0
 24 27  1  0  0  0  0
 25 28  2  0  0  0  0
 25 30  1  0  0  0  0
 27 29  1  0  0  0  0
 29 31  1  0  0  0  0
M  CHG  1  17  -1
M  END
>  <CHROM.1>
-130.93579759,-169.82120304,-93.99437851,-121.62144438,99.81647559,44.36313615
50.49860179,-121.79910960,-78.66395518,178.73937582,-61.63369464,69.31230444
4.05521580,19.18595156,52.68086717,-3.01257008,0.35119303,-0.17281615

>  <Name>
ligand

>  <RI>
0

>  <Rbt.Current_Directory>
/home/itssahil/PROJECTS/Mol_Feturizer/New_Systems/rnas/2HOO

>  <Rbt.Executable>
rbdock ($Id: //depot/dev/client3/rdock/2013.1/src/exe/rbdock.cxx#4 $)

>  <Rbt.Library>
libRbt.so (2013.1, Build901 2013/11/27)

>  <Rbt.Parameter_File>
/export/apps/rDock/src/rDock_2013.1_src/data/scripts/dock_solv.prm

>  <Rbt.Receptor>
prm/pocket_docking_8.prm

>  <SCORE>
-24.8604

>  <SCORE.INTER>
-12.3783

>  <SCORE.INTER.CONST>
1

>  <SCORE.INTER.POLAR>
0

>  <SCORE.INTER.ROT>
12

>  <SCORE.INTER.SOLV>
10.5862

>  <SCORE.INTER.VDW>
-23.3809

>  <SCORE.INTER.norm>
-0.3993

>  <SCORE.INTRA>
-12.4821

>  <SCORE.INTRA.DIHEDRAL>
-1.77476

>  <SCORE.INTRA.DIHEDRAL.0>
14.6094

>  <SCORE.INTRA.POLAR>
0

>  <SCORE.INTRA.POLAR.0>
0

>  <SCORE.INTRA.REPUL>
0

>  <SCORE.INTRA.REPUL.0>
0

>  <SCORE.INTRA.SOLV>
3.75372

>  <SCORE.INTRA.SOLV.lig_0>
-65.6478

>  <SCORE.INTRA.VDW>
-13.4716

>  <SCORE.INTRA.VDW.0>
9.35535

>  <SCORE.INTRA.norm>
-0.402649

>  <SCORE.RESTR>
0

>  <SCORE.RESTR.CAVITY>
0

>  <SCORE.RESTR.norm>
0

>  <SCORE.SYSTEM>
0

>  <SCORE.SYSTEM.CONST>
0

>  <SCORE.SYSTEM.DIHEDRAL>
0

>  <SCORE.SYSTEM.SOLV>
0

>  <SCORE.SYSTEM.norm>
0

>  <SCORE.heavy>
31

>  <SCORE.norm>
-0.801949

>  <RMSD>
5.669

$$$$
ligand
 OpenBabel11021811443D
libRbt.so/2013.1/901 2013/11/27
 31 32  0  0  0  0  0  0  0  0999 V2000
    2.4809   20.8416   51.5610 C   0  0  0  0  0  0  0  0  0  0  0  0
    2.2139   22.3426   51.5006 C   0  0  0  0  0  0  0  0  0  0  0  0
    2.5747   23.1815   52.6044 C   0  0  0  0  0  0  0  0  0  0  0  0
    2.3213   24.5729   52.5438 C   0  0  0  0  0  0  0  0  0  0  0  0
    1.7196   25.1450   51.3963 C   0  0  0  0  0  0  0  0  0  0  0  0
    1.3637   24.3356   50.2984 C   0  0  0  0  0  0  0  0  0  0  0  0
    1.6055   22.9507   50.3400 C   0  0  0  0  0  0  0  0  0  0  0  0
    1.5783   20.0695   51.8828 O   0  0  0  0  0  0  0  0  0  0  0  0
    7.1794   24.6437   51.7736 C   0  0  0  0  0  0  0  0  0  0  0  0
    3.7574   18.3123   53.9486 C   0  0  0  0  0  0  0  0  0  0  0  0
    1.6006   15.1708   51.4421 P   0  0  1  0  0  0  0  0  0  0  0  0
    5.8663   22.9079   52.7723 N   0  0  0  0  0  0  0  0  0  0  0  0
    1.9305   14.2232   52.5238 O   0  0  0  0  0  0  0  0  0  0  0  0
    3.7329   20.3350   51.2579 S   0  0  0  0  0  0  0  0  0  0  0  0
    6.8808   17.5558   52.4773 C   0  0  0  0  0  0  0  0  0  0  0  0
    7.1224   23.3270   52.3960 C   0  0  0  0  0  0  0  0  0  0  0  0
    1.4816   14.5537   50.0934 O   0  5  0  0  0  0  0  0  0  0  0  0
    6.1426   18.4041   53.2352 N   0  0  0  0  0  0  0  0  0  0  0  0
    8.2016   22.6296   52.5661 N   0  0  0  0  0  0  0  0  0  0  0  0
    0.4267   15.9913   51.8204 O   0  0  0  0  0  0  0  0  0  0  0  0
    4.7364   18.5407   52.8290 C   0  0  2  0  0  0  0  0  0  0  0  0
    8.1396   21.3791   53.1507 C   0  0  0  0  0  0  0  0  0  0  0  0
    9.2708   20.6868   53.3061 N   0  0  0  0  0  0  0  0  0  0  0  0
    4.2331   18.8856   51.5029 C   0  0  1  0  0  0  0  0  0  0  0  0
    6.8462   20.8612   53.5686 C   0  0  0  0  0  0  0  0  0  0  0  0
    7.3525   16.6463   53.1237 O   0  0  0  0  0  0  0  0  0  0  0  0
    4.1548   17.9317   50.3640 C   0  0  0  0  0  0  0  0  0  0  0  0
    5.7611   21.6858   53.3507 C   0  0  0  0  0  0  0  0  0  0  0  0
    2.9465   17.1189   50.1765 C   0  0  0  0  0  0  0  0  0  0  0  0
    6.7097   19.4849   54.1728 C   0  0  0  0  0  0  0  0  0  0  0  0
    2.7828   16.1855   51.2585 O   0  0  0  0  0  0  0  0  0  0  0  0
  1  2  1  0  0  0  0
  1  8  2  0  0  0  0
  1 14  1  0  0  0  0
  2  3  2  0  0  0  0
  2  7  1  0  0  0  0
  3  4  1  0  0  0  0
  4  5  2  0  0  0  0
  5  6  1  0  0  0  0
  6  7  2  0  0  0  0
  9 16  1  0  0  0  0
 10 21  1  0  0  0  0
 11 13  1  1  0  0  0
 11 17  1  0  0  0  0
 11 20  2  0  0  0  0
 11 31  1  0  0  0  0
 12 16  2  0  0  0  0
 12 28  1  0  0  0  0
 15 26  1  0  0  0  0
 15 18  1  0  0  0  0
 16 19  1  0  0  0  0
 18 30  1  0  0  0  0
 19 22  2  0  0  0  0
 21 18  1  1  0  0  0
 21 24  1  0  0  0  0
 22 23  1  0  0  0  0
 22 25  1  0  0  0  0
 24 14  1  1  0  0  0
 24 27  1  0  0  0  0
 25 28  2  0  0  0  0
 25 30  1  0  0  0  0
 27 29  1  0  0  0  0
 29 31  1  0  0  0  0
M  CHG  1  17  -1
M  END
>  <CHROM.1>
97.68339571,168.69218055,-83.09148460,-120.70603395,127.46515309,93.78191377
76.29551993,-90.21636618,-103.42920609,-65.92724095,178.34747171,169.15689012
4.15485743,19.64414702,52.04334221,1.11437109,-0.31107038,-0.03086228

>  <Name>
ligand

>  <RI>
0

>  <Rbt.Current_Directory>
/home/itssahil/PROJECTS/Mol_Feturizer/New_Systems/rnas/2HOO

>  <Rbt.Executable>
rbdock ($Id: //depot/dev/client3/rdock/2013.1/src/exe/rbdock.cxx#4 $)

>  <Rbt.Library>
libRbt.so (2013.1, Build901 2013/11/27)

>  <Rbt.Parameter_File>
/export/apps/rDock/src/rDock_2013.1_src/data/scripts/dock_solv.prm

>  <Rbt.Receptor>
prm/pocket_docking_8.prm

>  <SCORE>
-30.5603

>  <SCORE.INTER>
-15.1453

>  <SCORE.INTER.CONST>
1

>  <SCORE.INTER.POLAR>
0

>  <SCORE.INTER.ROT>
12

>  <SCORE.INTER.SOLV>
18.9243

>  <SCORE.INTER.VDW>
-28.005

>  <SCORE.INTER.norm>
-0.488558

>  <SCORE.INTRA>
-15.415

>  <SCORE.INTRA.DIHEDRAL>
-0.4784

>  <SCORE.INTRA.DIHEDRAL.0>
14.6094

>  <SCORE.INTRA.POLAR>
0

>  <SCORE.INTRA.POLAR.0>
0

>  <SCORE.INTRA.REPUL>
0

>  <SCORE.INTRA.REPUL.0>
0

>  <SCORE.INTRA.SOLV>
1.44011

>  <SCORE.INTRA.SOLV.lig_0>
-65.6478

>  <SCORE.INTRA.VDW>
-15.8958

>  <SCORE.INTRA.VDW.0>
9.35535

>  <SCORE.INTRA.norm>
-0.497257

>  <SCORE.RESTR>
0

>  <SCORE.RESTR.CAVITY>
0

>  <SCORE.RESTR.norm>
0

>  <SCORE.SYSTEM>
0

>  <SCORE.SYSTEM.CONST>
0

>  <SCORE.SYSTEM.DIHEDRAL>
0

>  <SCORE.SYSTEM.SOLV>
0

>  <SCORE.SYSTEM.norm>
0

>  <SCORE.heavy>
31

>  <SCORE.norm>
-0.985815

>  <RMSD>
5.672

$$$$
ligand
 OpenBabel11021811443D
libRbt.so/2013.1/901 2013/11/27
 31 32  0  0  0  0  0  0  0  0999 V2000
    7.3024   17.9208   53.6993 C   0  0  0  0  0  0  0  0  0  0  0  0
    7.9134   19.2592   53.2953 C   0  0  0  0  0  0  0  0  0  0  0  0
    7.6672   19.7968   51.9905 C   0  0  0  0  0  0  0  0  0  0  0  0
    8.2396   21.0374   51.6203 C   0  0  0  0  0  0  0  0  0  0  0  0
    9.0493   21.7567   52.5332 C   0  0  0  0  0  0  0  0  0  0  0  0
    9.2972   21.2458   53.8235 C   0  0  0  0  0  0  0  0  0  0  0  0
    8.7391   20.0139   54.2095 C   0  0  0  0  0  0  0  0  0  0  0  0
    7.9351   17.1490   54.4193 O   0  0  0  0  0  0  0  0  0  0  0  0
   10.0884   16.4668   47.9117 C   0  0  0  0  0  0  0  0  0  0  0  0
    3.2282   19.9447   51.8421 C   0  0  0  0  0  0  0  0  0  0  0  0
    1.6619   16.1362   55.4366 P   0  0  1  0  0  0  0  0  0  0  0  0
    8.8336   18.2903   48.8253 N   0  0  0  0  0  0  0  0  0  0  0  0
    0.8092   16.0976   54.2332 O   0  0  0  0  0  0  0  0  0  0  0  0
    6.0392   17.5614   53.2625 S   0  0  0  0  0  0  0  0  0  0  0  0
    3.5642   16.9925   50.4884 C   0  0  0  0  0  0  0  0  0  0  0  0
    8.8016   17.0043   48.3351 C   0  0  0  0  0  0  0  0  0  0  0  0
    1.0389   16.7960   56.6158 O   0  5  0  0  0  0  0  0  0  0  0  0
    4.3732   18.0646   50.6757 N   0  0  0  0  0  0  0  0  0  0  0  0
    7.7242   16.2899   48.2410 N   0  0  0  0  0  0  0  0  0  0  0  0
    2.1946   14.7855   55.7302 O   0  0  0  0  0  0  0  0  0  0  0  0
    4.1763   18.7807   51.9443 C   0  0  2  0  0  0  0  0  0  0  0  0
    6.5063   16.8080   48.6381 C   0  0  0  0  0  0  0  0  0  0  0  0
    5.4164   16.0453   48.5228 N   0  0  0  0  0  0  0  0  0  0  0  0
    4.7737   18.4609   53.2372 C   0  0  1  0  0  0  0  0  0  0  0  0
    6.4555   18.1649   49.1599 C   0  0  0  0  0  0  0  0  0  0  0  0
    3.8178   16.0815   51.2454 O   0  0  0  0  0  0  0  0  0  0  0  0
    4.2413   18.9319   54.5439 C   0  0  0  0  0  0  0  0  0  0  0  0
    7.6592   18.8368   49.2267 C   0  0  0  0  0  0  0  0  0  0  0  0
    2.9290   18.4639   55.0072 C   0  0  0  0  0  0  0  0  0  0  0  0
    5.1489   18.8003   49.5684 C   0  0  0  0  0  0  0  0  0  0  0  0
    2.9180   17.0335   55.1578 O   0  0  0  0  0  0  0  0  0  0  0  0
  1  2  1  0  0  0  0
  1  8  2  0  0  0  0
  1 14  1  0  0  0  0
  2  3  2  0  0  0  0
  2  7  1  0  0  0  0
  3  4  1  0  0  0  0
  4  5  2  0  0  0  0
  5  6  1  0  0  0  0
  6  7  2  0  0  0  0
  9 16  1  0  0  0  0
 10 21  1  0  0  0  0
 11 13  1  6  0  0  0
 11 17  1  0  0  0  0
 11 20  2  0  0  0  0
 11 31  1  0  0  0  0
 12 16  2  0  0  0  0
 12 28  1  0  0  0  0
 15 26  1  0  0  0  0
 15 18  1  0  0  0  0
 16 19  1  0  0  0  0
 18 30  1  0  0  0  0
 19 22  2  0  0  0  0
 21 18  1  1  0  0  0
 21 24  1  0  0  0  0
 22 23  1  0  0  0  0
 22 25  1  0  0  0  0
 24 14  1  1  0  0  0
 24 27  1  0  0  0  0
 25 28  2  0  0  0  0
 25 30  1  0  0  0  0
 27 29  1  0  0  0  0
 29 31  1  0  0  0  0
M  CHG  1  17  -1
M  END
>  <CHROM.1>
143.97312277,-44.54481969,116.26147063,-68.41560327,-93.83807088,-81.97767152
-162.10173461,-113.71691773,59.30439190,60.67481385,-170.88226237,70.56332167
5.45412473,17.83946045,52.29905469,-0.53816615,0.53493947,1.16047437

>  <Name>
ligand

>  <RI>
0

>  <Rbt.Current_Directory>
/home/itssahil/PROJECTS/Mol_Feturizer/New_Systems/rnas/2HOO

>  <Rbt.Executable>
rbdock ($Id: //depot/dev/client3/rdock/2013.1/src/exe/rbdock.cxx#4 $)

>  <Rbt.Library>
libRbt.so (2013.1, Build901 2013/11/27)

>  <Rbt.Parameter_File>
/export/apps/rDock/src/rDock_2013.1_src/data/scripts/dock_solv.prm

>  <Rbt.Receptor>
prm/blind_docking_60.prm

>  <SCORE>
-25.5219

>  <SCORE.INTER>
-13.4765

>  <SCORE.INTER.CONST>
1

>  <SCORE.INTER.POLAR>
0

>  <SCORE.INTER.ROT>
12

>  <SCORE.INTER.SOLV>
20.3898

>  <SCORE.INTER.VDW>
-27.381

>  <SCORE.INTER.norm>
-0.434727

>  <SCORE.INTRA>
-12.1154

>  <SCORE.INTRA.DIHEDRAL>
0.543055

>  <SCORE.INTRA.DIHEDRAL.0>
14.6094

>  <SCORE.INTRA.POLAR>
0

>  <SCORE.INTRA.POLAR.0>
0

>  <SCORE.INTRA.REPUL>
0

>  <SCORE.INTRA.REPUL.0>
0

>  <SCORE.INTRA.SOLV>
3.4521

>  <SCORE.INTRA.SOLV.lig_0>
-65.6478

>  <SCORE.INTRA.VDW>
-14.113

>  <SCORE.INTRA.VDW.0>
9.35535

>  <SCORE.INTRA.norm>
-0.39082

>  <SCORE.RESTR>
0.0700158

>  <SCORE.RESTR.CAVITY>
0.0700158

>  <SCORE.RESTR.norm>
0.00225857

>  <SCORE.SYSTEM>
0

>  <SCORE.SYSTEM.CONST>
0

>  <SCORE.SYSTEM.DIHEDRAL>
0

>  <SCORE.SYSTEM.SOLV>
0

>  <SCORE.SYSTEM.norm>
0

>  <SCORE.heavy>
31

>  <SCORE.norm>
-0.823288

>  <RMSD>
5.692

$$$$
ligand
 OpenBabel11021811443D
libRbt.so/2013.1/901 2013/11/27
 31 32  0  0  0  0  0  0  0  0999 V2000
    3.2913   20.1431   52.1025 C   0  0  0  0  0  0  0  0  0  0  0  0
    2.8330   19.0444   53.0569 C   0  0  0  0  0  0  0  0  0  0  0  0
    1.5703   18.3985   52.8557 C   0  0  0  0  0  0  0  0  0  0  0  0
    1.1491   17.3823   53.7465 C   0  0  0  0  0  0  0  0  0  0  0  0
    1.9701   16.9927   54.8329 C   0  0  0  0  0  0  0  0  0  0  0  0
    3.2185   17.6130   55.0426 C   0  0  0  0  0  0  0  0  0  0  0  0
    3.6540   18.6262   54.1697 C   0  0  0  0  0  0  0  0  0  0  0  0
    2.9290   21.3051   52.2841 O   0  0  0  0  0  0  0  0  0  0  0  0
    8.0026   24.7992   53.0041 C   0  0  0  0  0  0  0  0  0  0  0  0
    6.4903   17.4127   52.2720 C   0  0  0  0  0  0  0  0  0  0  0  0
    3.6634   14.7399   47.2388 P   0  0  1  0  0  0  0  0  0  0  0  0
    7.3944   22.9892   51.5589 N   0  0  0  0  0  0  0  0  0  0  0  0
    2.4041   14.0055   47.0119 O   0  0  0  0  0  0  0  0  0  0  0  0
    4.1128   19.8472   51.0285 S   0  0  0  0  0  0  0  0  0  0  0  0
    7.1790   19.1780   49.1200 C   0  0  0  0  0  0  0  0  0  0  0  0
    8.1513   23.3974   52.6340 C   0  0  0  0  0  0  0  0  0  0  0  0
    4.7958   13.8966   47.7087 O   0  5  0  0  0  0  0  0  0  0  0  0
    7.3491   18.8451   50.4235 N   0  0  0  0  0  0  0  0  0  0  0  0
    8.9506   22.6207   53.2956 N   0  0  0  0  0  0  0  0  0  0  0  0
    3.9953   15.5655   46.0546 O   0  0  0  0  0  0  0  0  0  0  0  0
    6.1653   18.2727   51.0808 C   0  0  2  0  0  0  0  0  0  0  0  0
    9.0919   21.2942   52.9351 C   0  0  0  0  0  0  0  0  0  0  0  0
    9.9276   20.5244   53.6365 N   0  0  0  0  0  0  0  0  0  0  0  0
    4.7683   18.4761   50.7099 C   0  0  1  0  0  0  0  0  0  0  0  0
    8.3316   20.7880   51.8031 C   0  0  0  0  0  0  0  0  0  0  0  0
    7.7383   18.4106   48.3678 O   0  0  0  0  0  0  0  0  0  0  0  0
    3.9190   17.4465   50.0529 C   0  0  0  0  0  0  0  0  0  0  0  0
    7.5032   21.6939   51.1723 C   0  0  0  0  0  0  0  0  0  0  0  0
    4.4670   16.6448   48.9517 C   0  0  0  0  0  0  0  0  0  0  0  0
    8.4769   19.3605   51.3353 C   0  0  0  0  0  0  0  0  0  0  0  0
    3.4706   15.7544   48.4196 O   0  0  0  0  0  0  0  0  0  0  0  0
  1  2  1  0  0  0  0
  1  8  2  0  0  0  0
  1 14  1  0  0  0  0
  2  3  2  0  0  0  0
  2  7  1  0  0  0  0
  3  4  1  0  0  0  0
  4  5  2  0  0  0  0
  5  6  1  0  0  0  0
  6  7  2  0  0  0  0
  9 16  1  0  0  0  0
 10 21  1  0  0  0  0
 11 13  1  6  0  0  0
 11 17  1  0  0  0  0
 11 20  2  0  0  0  0
 11 31  1  0  0  0  0
 12 16  2  0  0  0  0
 12 28  1  0  0  0  0
 15 26  1  0  0  0  0
 15 18  1  0  0  0  0
 16 19  1  0  0  0  0
 18 30  1  0  0  0  0
 19 22  2  0  0  0  0
 21 18  1  1  0  0  0
 21 24  1  0  0  0  0
 22 23  1  0  0  0  0
 22 25  1  0  0  0  0
 24 14  1  1  0  0  0
 24 27  1  0  0  0  0
 25 28  2  0  0  0  0
 25 30  1  0  0  0  0
 27 29  1  0  0  0  0
 29 31  1  0  0  0  0
M  CHG  1  17  -1
M  END
>  <CHROM.1>
85.14197909,-5.78162065,-99.50147984,-106.68226545,156.05134570,74.61824151
105.22908873,137.16091884,162.88686224,-177.42850662,179.91771521,179.38879062
5.28692736,18.68720716,50.90883976,1.00800681,0.51088896,0.89169609

>  <Name>
ligand

>  <RI>
0

>  <Rbt.Current_Directory>
/home/itssahil/PROJECTS/Mol_Feturizer/New_Systems/rnas/2HOO

>  <Rbt.Executable>
rbdock ($Id: //depot/dev/client3/rdock/2013.1/src/exe/rbdock.cxx#4 $)

>  <Rbt.Library>
libRbt.so (2013.1, Build901 2013/11/27)

>  <Rbt.Parameter_File>
/export/apps/rDock/src/rDock_2013.1_src/data/scripts/dock_solv.prm

>  <Rbt.Receptor>
prm/pocket_docking_4.prm

>  <SCORE>
-26.5859

>  <SCORE.INTER>
-12.4504

>  <SCORE.INTER.CONST>
1

>  <SCORE.INTER.POLAR>
0

>  <SCORE.INTER.ROT>
12

>  <SCORE.INTER.SOLV>
13.61

>  <SCORE.INTER.VDW>
-24.4369

>  <SCORE.INTER.norm>
-0.401625

>  <SCORE.INTRA>
-14.1355

>  <SCORE.INTRA.DIHEDRAL>
-1.6657

>  <SCORE.INTRA.DIHEDRAL.0>
14.6094

>  <SCORE.INTRA.POLAR>
0

>  <SCORE.INTRA.POLAR.0>
0

>  <SCORE.INTRA.REPUL>
0

>  <SCORE.INTRA.REPUL.0>
0

>  <SCORE.INTRA.SOLV>
-0.774802

>  <SCORE.INTRA.SOLV.lig_0>
-65.6478

>  <SCORE.INTRA.VDW>
-12.9153

>  <SCORE.INTRA.VDW.0>
9.35535

>  <SCORE.INTRA.norm>
-0.455985

>  <SCORE.RESTR>
0

>  <SCORE.RESTR.CAVITY>
0

>  <SCORE.RESTR.norm>
0

>  <SCORE.SYSTEM>
0

>  <SCORE.SYSTEM.CONST>
0

>  <SCORE.SYSTEM.DIHEDRAL>
0

>  <SCORE.SYSTEM.SOLV>
0

>  <SCORE.SYSTEM.norm>
0

>  <SCORE.heavy>
31

>  <SCORE.norm>
-0.85761

>  <RMSD>
5.731

$$$$
ligand
 OpenBabel11021811443D
libRbt.so/2013.1/901 2013/11/27
 31 32  0  0  0  0  0  0  0  0999 V2000
    7.4305   19.0995   48.8653 C   0  0  0  0  0  0  0  0  0  0  0  0
    8.2361   18.0599   48.0918 C   0  0  0  0  0  0  0  0  0  0  0  0
    9.2221   17.2683   48.7652 C   0  0  0  0  0  0  0  0  0  0  0  0
    9.9686   16.3078   48.0414 C   0  0  0  0  0  0  0  0  0  0  0  0
    9.7437   16.1171   46.6560 C   0  0  0  0  0  0  0  0  0  0  0  0
    8.7733   16.8828   45.9784 C   0  0  0  0  0  0  0  0  0  0  0  0
    8.0225   17.8435   46.6794 C   0  0  0  0  0  0  0  0  0  0  0  0
    7.9682   20.1431   49.2344 O   0  0  0  0  0  0  0  0  0  0  0  0
    5.5463   23.4165   57.1010 C   0  0  0  0  0  0  0  0  0  0  0  0
    3.7960   18.6700   51.9351 C   0  0  0  0  0  0  0  0  0  0  0  0
    5.5212   13.3874   49.0886 P   0  0  1  0  0  0  0  0  0  0  0  0
    5.4339   21.3360   55.9208 N   0  0  0  0  0  0  0  0  0  0  0  0
    4.5557   13.4705   50.2010 O   0  0  0  0  0  0  0  0  0  0  0  0
    6.0958   18.8816   49.1596 S   0  0  0  0  0  0  0  0  0  0  0  0
    6.7076   17.6827   53.2751 C   0  0  0  0  0  0  0  0  0  0  0  0
    5.9117   22.6270   55.9317 C   0  0  0  0  0  0  0  0  0  0  0  0
    6.9487   13.3677   49.5080 O   0  5  0  0  0  0  0  0  0  0  0  0
    6.1933   18.7458   52.6086 N   0  0  0  0  0  0  0  0  0  0  0  0
    6.6376   23.1404   54.9886 N   0  0  0  0  0  0  0  0  0  0  0  0
    5.1592   12.2763   48.1782 O   0  0  0  0  0  0  0  0  0  0  0  0
    5.2279   18.4117   51.5515 C   0  0  2  0  0  0  0  0  0  0  0  0
    6.9748   22.3884   53.8795 C   0  0  0  0  0  0  0  0  0  0  0  0
    7.7203   22.9512   52.9254 N   0  0  0  0  0  0  0  0  0  0  0  0
    5.5259   17.8984   50.2179 C   0  0  1  0  0  0  0  0  0  0  0  0
    6.5007   21.0162   53.7893 C   0  0  0  0  0  0  0  0  0  0  0  0
    6.1475   17.4806   54.3301 O   0  0  0  0  0  0  0  0  0  0  0  0
    5.3076   16.4886   49.7964 C   0  0  0  0  0  0  0  0  0  0  0  0
    5.7425   20.5633   54.8499 C   0  0  0  0  0  0  0  0  0  0  0  0
    5.9433   15.9879   48.5713 C   0  0  0  0  0  0  0  0  0  0  0  0
    6.7997   20.1601   52.5829 C   0  0  0  0  0  0  0  0  0  0  0  0
    5.4307   14.6907   48.2202 O   0  0  0  0  0  0  0  0  0  0  0  0
  1  2  1  0  0  0  0
  1  8  2  0  0  0  0
  1 14  1  0  0  0  0
  2  3  2  0  0  0  0
  2  7  1  0  0  0  0
  3  4  1  0  0  0  0
  4  5  2  0  0  0  0
  5  6  1  0  0  0  0
  6  7  2  0  0  0  0
  9 16  1  0  0  0  0
 10 21  1  0  0  0  0
 11 13  1  1  0  0  0
 11 17  1  0  0  0  0
 11 20  2  0  0  0  0
 11 31  1  0  0  0  0
 12 16  2  0  0  0  0
 12 28  1  0  0  0  0
 15 26  1  0  0  0  0
 15 18  1  0  0  0  0
 16 19  1  0  0  0  0
 18 30  1  0  0  0  0
 19 22  2  0  0  0  0
 21 18  1  6  0  0  0
 21 24  1  0  0  0  0
 22 23  1  0  0  0  0
 22 25  1  0  0  0  0
 24 14  1  6  0  0  0
 24 27  1  0  0  0  0
 25 28  2  0  0  0  0
 25 30  1  0  0  0  0
 27 29  1  0  0  0  0
 29 31  1  0  0  0  0
M  CHG  1  17  -1
M  END
>  <CHROM.1>
72.65011390,73.37180758,94.19629191,-98.38622807,103.91263232,-80.45795787
103.76019320,16.14315433,-178.04315827,-170.15530685,-60.91921738,74.78834657
6.47975790,18.02819705,50.88467624,-1.49034659,0.91967304,0.68533025

>  <Name>
ligand

>  <RI>
0

>  <Rbt.Current_Directory>
/home/itssahil/PROJECTS/Mol_Feturizer/New_Systems/rnas/2HOO

>  <Rbt.Executable>
rbdock ($Id: //depot/dev/client3/rdock/2013.1/src/exe/rbdock.cxx#4 $)

>  <Rbt.Library>
libRbt.so (2013.1, Build901 2013/11/27)

>  <Rbt.Parameter_File>
/export/apps/rDock/src/rDock_2013.1_src/data/scripts/dock_solv.prm

>  <Rbt.Receptor>
prm/pocket_docking_6.prm

>  <SCORE>
-21.508

>  <SCORE.INTER>
-9.48149

>  <SCORE.INTER.CONST>
1

>  <SCORE.INTER.POLAR>
0

>  <SCORE.INTER.ROT>
12

>  <SCORE.INTER.SOLV>
15.1784

>  <SCORE.INTER.VDW>
-22.9805

>  <SCORE.INTER.norm>
-0.305855

>  <SCORE.INTRA>
-12.0265

>  <SCORE.INTRA.DIHEDRAL>
3.26274

>  <SCORE.INTRA.DIHEDRAL.0>
14.6094

>  <SCORE.INTRA.POLAR>
0

>  <SCORE.INTRA.POLAR.0>
0

>  <SCORE.INTRA.REPUL>
0

>  <SCORE.INTRA.REPUL.0>
0

>  <SCORE.INTRA.SOLV>
0.0715286

>  <SCORE.INTRA.SOLV.lig_0>
-65.6478

>  <SCORE.INTRA.VDW>
-13.6936

>  <SCORE.INTRA.VDW.0>
9.35535

>  <SCORE.INTRA.norm>
-0.387951

>  <SCORE.RESTR>
0

>  <SCORE.RESTR.CAVITY>
0

>  <SCORE.RESTR.norm>
0

>  <SCORE.SYSTEM>
0

>  <SCORE.SYSTEM.CONST>
0

>  <SCORE.SYSTEM.DIHEDRAL>
0

>  <SCORE.SYSTEM.SOLV>
0

>  <SCORE.SYSTEM.norm>
0

>  <SCORE.heavy>
31

>  <SCORE.norm>
-0.693805

>  <RMSD>
5.753

$$$$
ligand
 OpenBabel11021811443D
libRbt.so/2013.1/901 2013/11/27
 31 32  0  0  0  0  0  0  0  0999 V2000
    6.8783   19.2042   49.5516 C   0  0  0  0  0  0  0  0  0  0  0  0
    7.9947   18.2997   49.0380 C   0  0  0  0  0  0  0  0  0  0  0  0
    7.7319   17.3576   47.9913 C   0  0  0  0  0  0  0  0  0  0  0  0
    8.7710   16.5189   47.5215 C   0  0  0  0  0  0  0  0  0  0  0  0
   10.0724   16.6083   48.0733 C   0  0  0  0  0  0  0  0  0  0  0  0
   10.3505   17.5338   49.0996 C   0  0  0  0  0  0  0  0  0  0  0  0
    9.3312   18.3746   49.5814 C   0  0  0  0  0  0  0  0  0  0  0  0
    7.1238   20.3712   49.8550 O   0  0  0  0  0  0  0  0  0  0  0  0
    1.1569   16.4950   56.0489 C   0  0  0  0  0  0  0  0  0  0  0  0
    3.6628   20.9665   51.4274 C   0  0  0  0  0  0  0  0  0  0  0  0
    1.9036   14.9839   51.2488 P   0  0  1  0  0  0  0  0  0  0  0  0
    3.2222   17.1784   55.0480 N   0  0  0  0  0  0  0  0  0  0  0  0
    1.0961   15.1882   50.0310 O   0  0  0  0  0  0  0  0  0  0  0  0
    5.5863   18.7253   49.6823 S   0  0  0  0  0  0  0  0  0  0  0  0
    6.7705   20.5593   52.6859 C   0  0  0  0  0  0  0  0  0  0  0  0
    2.0400   17.5763   55.6304 C   0  0  0  0  0  0  0  0  0  0  0  0
    1.7010   16.0117   52.3056 O   0  5  0  0  0  0  0  0  0  0  0  0
    5.4832   20.2354   52.9630 N   0  0  0  0  0  0  0  0  0  0  0  0
    1.7004   18.8140   55.8114 N   0  0  0  0  0  0  0  0  0  0  0  0
    1.7475   13.5951   51.7398 O   0  0  0  0  0  0  0  0  0  0  0  0
    4.6587   19.8995   51.7932 C   0  0  2  0  0  0  0  0  0  0  0  0
    2.5395   19.8344   55.4061 C   0  0  0  0  0  0  0  0  0  0  0  0
    2.1553   21.0977   55.6044 N   0  0  0  0  0  0  0  0  0  0  0  0
    4.7355   18.6891   50.9808 C   0  0  1  0  0  0  0  0  0  0  0  0
    3.8048   19.4955   54.7739 C   0  0  0  0  0  0  0  0  0  0  0  0
    6.9233   21.7483   52.5121 O   0  0  0  0  0  0  0  0  0  0  0  0
    4.0385   17.4165   51.3084 C   0  0  0  0  0  0  0  0  0  0  0  0
    4.0751   18.1491   54.6361 C   0  0  0  0  0  0  0  0  0  0  0  0
    4.0596   16.3062   50.3479 C   0  0  0  0  0  0  0  0  0  0  0  0
    4.7426   20.5659   54.2711 C   0  0  0  0  0  0  0  0  0  0  0  0
    3.4248   15.1389   50.8985 O   0  0  0  0  0  0  0  0  0  0  0  0
  1  2  1  0  0  0  0
  1  8  2  0  0  0  0
  1 14  1  0  0  0  0
  2  3  2  0  0  0  0
  2  7  1  0  0  0  0
  3  4  1  0  0  0  0
  4  5  2  0  0  0  0
  5  6  1  0  0  0  0
  6  7  2  0  0  0  0
  9 16  1  0  0  0  0
 10 21  1  0  0  0  0
 11 13  1  6  0  0  0
 11 17  1  0  0  0  0
 11 20  2  0  0  0  0
 11 31  1  0  0  0  0
 12 16  2  0  0  0  0
 12 28  1  0  0  0  0
 15 26  1  0  0  0  0
 15 18  1  0  0  0  0
 16 19  1  0  0  0  0
 18 30  1  0  0  0  0
 19 22  2  0  0  0  0
 21 18  1  6  0  0  0
 21 24  1  0  0  0  0
 22 23  1  0  0  0  0
 22 25  1  0  0  0  0
 24 14  1  6  0  0  0
 24 27  1  0  0  0  0
 25 28  2  0  0  0  0
 25 30  1  0  0  0  0
 27 29  1  0  0  0  0
 29 31  1  0  0  0  0
M  CHG  1  17  -1
M  END
>  <CHROM.1>
-141.92250937,121.82802763,48.25123116,91.24087805,-106.72101940,-141.78970667
83.37729417,-6.28062552,-142.82828682,175.32884592,66.71331735,59.57263294
4.61473771,18.03558323,51.79187309,-0.34533451,0.62701070,0.71091096

>  <Name>
ligand

>  <RI>
0

>  <Rbt.Current_Directory>
/home/itssahil/PROJECTS/Mol_Feturizer/New_Systems/rnas/2HOO

>  <Rbt.Executable>
rbdock ($Id: //depot/dev/client3/rdock/2013.1/src/exe/rbdock.cxx#4 $)

>  <Rbt.Library>
libRbt.so (2013.1, Build901 2013/11/27)

>  <Rbt.Parameter_File>
/export/apps/rDock/src/rDock_2013.1_src/data/scripts/dock_solv.prm

>  <Rbt.Receptor>
prm/pocket_docking_7.prm

>  <SCORE>
-28.4058

>  <SCORE.INTER>
-17.8549

>  <SCORE.INTER.CONST>
1

>  <SCORE.INTER.POLAR>
0

>  <SCORE.INTER.ROT>
12

>  <SCORE.INTER.SOLV>
14.5444

>  <SCORE.INTER.VDW>
-28.3514

>  <SCORE.INTER.norm>
-0.575965

>  <SCORE.INTRA>
-10.5509

>  <SCORE.INTRA.DIHEDRAL>
0.758549

>  <SCORE.INTRA.DIHEDRAL.0>
14.6094

>  <SCORE.INTRA.POLAR>
0

>  <SCORE.INTRA.POLAR.0>
0

>  <SCORE.INTRA.REPUL>
0

>  <SCORE.INTRA.REPUL.0>
0

>  <SCORE.INTRA.SOLV>
2.57491

>  <SCORE.INTRA.SOLV.lig_0>
-65.6478

>  <SCORE.INTRA.VDW>
-12.2177

>  <SCORE.INTRA.VDW.0>
9.35535

>  <SCORE.INTRA.norm>
-0.340352

>  <SCORE.RESTR>
0

>  <SCORE.RESTR.CAVITY>
0

>  <SCORE.RESTR.norm>
0

>  <SCORE.SYSTEM>
0

>  <SCORE.SYSTEM.CONST>
0

>  <SCORE.SYSTEM.DIHEDRAL>
0

>  <SCORE.SYSTEM.SOLV>
0

>  <SCORE.SYSTEM.norm>
0

>  <SCORE.heavy>
31

>  <SCORE.norm>
-0.916317

>  <RMSD>
5.817

$$$$
ligand
 OpenBabel11021811443D
libRbt.so/2013.1/901 2013/11/27
 31 32  0  0  0  0  0  0  0  0999 V2000
    2.9797   17.9134   50.9063 C   0  0  0  0  0  0  0  0  0  0  0  0
    2.5051   16.5497   51.3994 C   0  0  0  0  0  0  0  0  0  0  0  0
    2.9643   15.3540   50.7578 C   0  0  0  0  0  0  0  0  0  0  0  0
    2.5177   14.0919   51.2177 C   0  0  0  0  0  0  0  0  0  0  0  0
    1.6246   14.0005   52.3132 C   0  0  0  0  0  0  0  0  0  0  0  0
    1.1672   15.1664   52.9604 C   0  0  0  0  0  0  0  0  0  0  0  0
    1.5979   16.4298   52.5173 C   0  0  0  0  0  0  0  0  0  0  0  0
    2.1975   18.8630   50.8786 O   0  0  0  0  0  0  0  0  0  0  0  0
   10.9465   14.0708   45.8920 C   0  0  0  0  0  0  0  0  0  0  0  0
    7.2549   20.2980   50.6259 C   0  0  0  0  0  0  0  0  0  0  0  0
    3.3744   20.8343   55.5681 P   0  0  1  0  0  0  0  0  0  0  0  0
   10.5830   15.7752   47.5343 N   0  0  0  0  0  0  0  0  0  0  0  0
    2.0954   20.1131   55.7126 O   0  0  0  0  0  0  0  0  0  0  0  0
    4.2858   18.0962   50.4864 S   0  0  0  0  0  0  0  0  0  0  0  0
    8.0814   16.9113   50.7777 C   0  0  0  0  0  0  0  0  0  0  0  0
   10.0369   15.0199   46.5211 C   0  0  0  0  0  0  0  0  0  0  0  0
    3.2799   22.1192   54.8236 O   0  5  0  0  0  0  0  0  0  0  0  0
    7.6140   17.9149   49.9946 N   0  0  0  0  0  0  0  0  0  0  0  0
    8.8062   15.1166   46.1261 N   0  0  0  0  0  0  0  0  0  0  0  0
    4.0408   20.9638   56.8847 O   0  0  0  0  0  0  0  0  0  0  0  0
    6.7432   18.8838   50.6758 C   0  0  2  0  0  0  0  0  0  0  0  0
    7.9509   16.0233   46.7224 C   0  0  0  0  0  0  0  0  0  0  0  0
    6.6909   16.0988   46.2869 N   0  0  0  0  0  0  0  0  0  0  0  0
    5.4745   18.6093   51.3436 C   0  0  1  0  0  0  0  0  0  0  0  0
    8.4553   16.8650   47.7961 C   0  0  0  0  0  0  0  0  0  0  0  0
    7.3793   15.9249   50.7370 O   0  0  0  0  0  0  0  0  0  0  0  0
    5.2373   18.8008   52.7996 C   0  0  0  0  0  0  0  0  0  0  0  0
    9.7769   16.6775   48.1468 C   0  0  0  0  0  0  0  0  0  0  0  0
    4.2843   19.8209   53.2544 C   0  0  0  0  0  0  0  0  0  0  0  0
    7.5813   17.9036   48.4559 C   0  0  0  0  0  0  0  0  0  0  0  0
    4.3534   19.9883   54.6812 O   0  0  0  0  0  0  0  0  0  0  0  0
  1  2  1  0  0  0  0
  1  8  2  0  0  0  0
  1 14  1  0  0  0  0
  2  3  2  0  0  0  0
  2  7  1  0  0  0  0
  3  4  1  0  0  0  0
  4  5  2  0  0  0  0
  5  6  1  0  0  0  0
  6  7  2  0  0  0  0
  9 16  1  0  0  0  0
 10 21  1  0  0  0  0
 11 13  1  1  0  0  0
 11 17  1  0  0  0  0
 11 20  2  0  0  0  0
 11 31  1  0  0  0  0
 12 16  2  0  0  0  0
 12 28  1  0  0  0  0
 15 26  1  0  0  0  0
 15 18  1  0  0  0  0
 16 19  1  0  0  0  0
 18 30  1  0  0  0  0
 19 22  2  0  0  0  0
 21 18  1  6  0  0  0
 21 24  1  0  0  0  0
 22 23  1  0  0  0  0
 22 25  1  0  0  0  0
 24 14  1  6  0  0  0
 24 27  1  0  0  0  0
 25 28  2  0  0  0  0
 25 30  1  0  0  0  0
 27 29  1  0  0  0  0
 29 31  1  0  0  0  0
M  CHG  1  17  -1
M  END
>  <CHROM.1>
141.58926491,-94.16077054,-172.86858117,93.16862722,120.98190751,-16.59532908
114.69250766,-65.05763148,133.00943878,-171.06114131,-171.27807791,74.79879046
5.42639629,17.73651516,51.06635227,2.27961181,0.45708362,0.71060648

>  <Name>
ligand

>  <RI>
0

>  <Rbt.Current_Directory>
/home/itssahil/PROJECTS/Mol_Feturizer/New_Systems/rnas/2HOO

>  <Rbt.Executable>
rbdock ($Id: //depot/dev/client3/rdock/2013.1/src/exe/rbdock.cxx#4 $)

>  <Rbt.Library>
libRbt.so (2013.1, Build901 2013/11/27)

>  <Rbt.Parameter_File>
/export/apps/rDock/src/rDock_2013.1_src/data/scripts/dock_solv.prm

>  <Rbt.Receptor>
prm/pocket_docking_7.prm

>  <SCORE>
-25.2047

>  <SCORE.INTER>
-14.3314

>  <SCORE.INTER.CONST>
1

>  <SCORE.INTER.POLAR>
0

>  <SCORE.INTER.ROT>
12

>  <SCORE.INTER.SOLV>
11.9122

>  <SCORE.INTER.VDW>
-25.125

>  <SCORE.INTER.norm>
-0.462303

>  <SCORE.INTRA>
-10.8733

>  <SCORE.INTRA.DIHEDRAL>
4.96309

>  <SCORE.INTRA.DIHEDRAL.0>
14.6094

>  <SCORE.INTRA.POLAR>
0

>  <SCORE.INTRA.POLAR.0>
0

>  <SCORE.INTRA.REPUL>
0

>  <SCORE.INTRA.REPUL.0>
0

>  <SCORE.INTRA.SOLV>
-0.564388

>  <SCORE.INTRA.SOLV.lig_0>
-65.6478

>  <SCORE.INTRA.VDW>
-13.0727

>  <SCORE.INTRA.VDW.0>
9.35535

>  <SCORE.INTRA.norm>
-0.350753

>  <SCORE.RESTR>
0

>  <SCORE.RESTR.CAVITY>
0

>  <SCORE.RESTR.norm>
0

>  <SCORE.SYSTEM>
0

>  <SCORE.SYSTEM.CONST>
0

>  <SCORE.SYSTEM.DIHEDRAL>
0

>  <SCORE.SYSTEM.SOLV>
0

>  <SCORE.SYSTEM.norm>
0

>  <SCORE.heavy>
31

>  <SCORE.norm>
-0.813055

>  <RMSD>
5.828

$$$$
ligand
 OpenBabel11021811443D
libRbt.so/2013.1/901 2013/11/27
 31 32  0  0  0  0  0  0  0  0999 V2000
    2.8844   16.5286   50.9861 C   0  0  0  0  0  0  0  0  0  0  0  0
    4.0247   15.6812   50.4296 C   0  0  0  0  0  0  0  0  0  0  0  0
    5.3027   16.2755   50.1733 C   0  0  0  0  0  0  0  0  0  0  0  0
    6.3557   15.4849   49.6537 C   0  0  0  0  0  0  0  0  0  0  0  0
    6.1584   14.1071   49.3914 C   0  0  0  0  0  0  0  0  0  0  0  0
    4.9092   13.5042   49.6433 C   0  0  0  0  0  0  0  0  0  0  0  0
    3.8500   14.2731   50.1577 C   0  0  0  0  0  0  0  0  0  0  0  0
    2.0397   16.0162   51.7198 O   0  0  0  0  0  0  0  0  0  0  0  0
    6.7667   23.2830   54.3986 C   0  0  0  0  0  0  0  0  0  0  0  0
    0.1933   18.5484   52.6411 C   0  0  0  0  0  0  0  0  0  0  0  0
    6.9047   19.7141   50.6408 P   0  0  1  0  0  0  0  0  0  0  0  0
    5.7240   21.1412   54.6438 N   0  0  0  0  0  0  0  0  0  0  0  0
    7.4497   21.0789   50.5101 O   0  0  0  0  0  0  0  0  0  0  0  0
    2.7871   17.8734   50.6732 S   0  0  0  0  0  0  0  0  0  0  0  0
    2.7748   17.5818   54.5765 C   0  0  0  0  0  0  0  0  0  0  0  0
    5.5441   22.5019   54.5377 C   0  0  0  0  0  0  0  0  0  0  0  0
    7.1620   18.8301   49.4718 O   0  5  0  0  0  0  0  0  0  0  0  0
    2.1049   18.7090   54.2305 N   0  0  0  0  0  0  0  0  0  0  0  0
    4.3865   23.0847   54.5560 N   0  0  0  0  0  0  0  0  0  0  0  0
    7.3192   19.1187   51.9323 O   0  0  0  0  0  0  0  0  0  0  0  0
    1.6698   18.7704   52.8277 C   0  0  2  0  0  0  0  0  0  0  0  0
    3.2317   22.3387   54.6950 C   0  0  0  0  0  0  0  0  0  0  0  0
    2.0568   22.9729   54.7142 N   0  0  0  0  0  0  0  0  0  0  0  0
    2.5024   19.0387   51.6591 C   0  0  1  0  0  0  0  0  0  0  0  0
    3.3386   20.8936   54.8215 C   0  0  0  0  0  0  0  0  0  0  0  0
    2.3225   17.0597   55.5716 O   0  0  0  0  0  0  0  0  0  0  0  0
    3.1119   20.3606   51.3522 C   0  0  0  0  0  0  0  0  0  0  0  0
    4.6157   20.3719   54.7813 C   0  0  0  0  0  0  0  0  0  0  0  0
    4.5450   20.5745   51.5892 C   0  0  0  0  0  0  0  0  0  0  0  0
    2.1164   20.0305   55.0195 C   0  0  0  0  0  0  0  0  0  0  0  0
    5.3382   19.7800   50.6902 O   0  0  0  0  0  0  0  0  0  0  0  0
  1  2  1  0  0  0  0
  1  8  2  0  0  0  0
  1 14  1  0  0  0  0
  2  3  2  0  0  0  0
  2  7  1  0  0  0  0
  3  4  1  0  0  0  0
  4  5  2  0  0  0  0
  5  6  1  0  0  0  0
  6  7  2  0  0  0  0
  9 16  1  0  0  0  0
 10 21  1  0  0  0  0
 11 13  1  6  0  0  0
 11 17  1  0  0  0  0
 11 20  2  0  0  0  0
 11 31  1  0  0  0  0
 12 16  2  0  0  0  0
 12 28  1  0  0  0  0
 15 26  1  0  0  0  0
 15 18  1  0  0  0  0
 16 19  1  0  0  0  0
 18 30  1  0  0  0  0
 19 22  2  0  0  0  0
 21 18  1  1  0  0  0
 21 24  1  0  0  0  0
 22 23  1  0  0  0  0
 22 25  1  0  0  0  0
 24 14  1  1  0  0  0
 24 27  1  0  0  0  0
 25 28  2  0  0  0  0
 25 30  1  0  0  0  0
 27 29  1  0  0  0  0
 29 31  1  0  0  0  0
M  CHG  1  17  -1
M  END
>  <CHROM.1>
-148.83040947,-134.18260378,-31.09409843,-129.20998175,105.59867112,79.02682906
-71.71640068,-75.28632743,139.26144829,67.29621800,-179.09918036,-53.68196199
4.23888364,18.95016713,52.23224165,1.48329732,-0.52394324,-2.57563219

>  <Name>
ligand

>  <RI>
0

>  <Rbt.Current_Directory>
/home/itssahil/PROJECTS/Mol_Feturizer/New_Systems/rnas/2HOO

>  <Rbt.Executable>
rbdock ($Id: //depot/dev/client3/rdock/2013.1/src/exe/rbdock.cxx#4 $)

>  <Rbt.Library>
libRbt.so (2013.1, Build901 2013/11/27)

>  <Rbt.Parameter_File>
/export/apps/rDock/src/rDock_2013.1_src/data/scripts/dock_solv.prm

>  <Rbt.Receptor>
prm/pocket_docking_5.prm

>  <SCORE>
-26.6446

>  <SCORE.INTER>
-11.0033

>  <SCORE.INTER.CONST>
1

>  <SCORE.INTER.POLAR>
0

>  <SCORE.INTER.ROT>
12

>  <SCORE.INTER.SOLV>
8.4121

>  <SCORE.INTER.VDW>
-21.7396

>  <SCORE.INTER.norm>
-0.354946

>  <SCORE.INTRA>
-15.6412

>  <SCORE.INTRA.DIHEDRAL>
1.56615

>  <SCORE.INTRA.DIHEDRAL.0>
14.6094

>  <SCORE.INTRA.POLAR>
0

>  <SCORE.INTRA.POLAR.0>
0

>  <SCORE.INTRA.REPUL>
0

>  <SCORE.INTRA.REPUL.0>
0

>  <SCORE.INTRA.SOLV>
1.16052

>  <SCORE.INTRA.SOLV.lig_0>
-65.6478

>  <SCORE.INTRA.VDW>
-17.0046

>  <SCORE.INTRA.VDW.0>
9.35535

>  <SCORE.INTRA.norm>
-0.504556

>  <SCORE.RESTR>
0

>  <SCORE.RESTR.CAVITY>
0

>  <SCORE.RESTR.norm>
0

>  <SCORE.SYSTEM>
0

>  <SCORE.SYSTEM.CONST>
0

>  <SCORE.SYSTEM.DIHEDRAL>
0

>  <SCORE.SYSTEM.SOLV>
0

>  <SCORE.SYSTEM.norm>
0

>  <SCORE.heavy>
31

>  <SCORE.norm>
-0.859502

>  <RMSD>
5.839

$$$$
ligand
 OpenBabel11021811443D
libRbt.so/2013.1/901 2013/11/27
 31 32  0  0  0  0  0  0  0  0999 V2000
    4.4045   17.8300   51.2651 C   0  0  0  0  0  0  0  0  0  0  0  0
    3.1790   16.9427   51.0681 C   0  0  0  0  0  0  0  0  0  0  0  0
    1.8682   17.5206   51.0543 C   0  0  0  0  0  0  0  0  0  0  0  0
    0.7349   16.6917   50.8745 C   0  0  0  0  0  0  0  0  0  0  0  0
    0.8864   15.2942   50.7005 C   0  0  0  0  0  0  0  0  0  0  0  0
    2.1690   14.7092   50.7052 C   0  0  0  0  0  0  0  0  0  0  0  0
    3.3073   15.5155   50.8843 C   0  0  0  0  0  0  0  0  0  0  0  0
    4.7159   18.6483   50.4003 O   0  0  0  0  0  0  0  0  0  0  0  0
    6.2936   24.7971   57.7110 C   0  0  0  0  0  0  0  0  0  0  0  0
    7.8313   18.2591   54.7527 C   0  0  0  0  0  0  0  0  0  0  0  0
    8.3335   18.9647   48.4464 P   0  0  1  0  0  0  0  0  0  0  0  0
    5.8487   22.6160   56.8284 N   0  0  0  0  0  0  0  0  0  0  0  0
    9.1848   20.1656   48.5469 O   0  0  0  0  0  0  0  0  0  0  0  0
    5.1751   17.7245   52.4100 S   0  0  0  0  0  0  0  0  0  0  0  0
    8.6268   20.5537   52.5657 C   0  0  0  0  0  0  0  0  0  0  0  0
    6.3202   23.8843   56.5751 C   0  0  0  0  0  0  0  0  0  0  0  0
    6.9465   19.2268   47.9756 O   0  5  0  0  0  0  0  0  0  0  0  0
    7.4936   20.1907   53.2161 N   0  0  0  0  0  0  0  0  0  0  0  0
    6.7645   24.2769   55.4225 N   0  0  0  0  0  0  0  0  0  0  0  0
    9.0279   17.9079   47.6748 O   0  0  0  0  0  0  0  0  0  0  0  0
    7.3277   18.7444   53.4204 C   0  0  2  0  0  0  0  0  0  0  0  0
    6.7806   23.4083   54.3480 C   0  0  0  0  0  0  0  0  0  0  0  0
    7.2411   23.8481   53.1743 N   0  0  0  0  0  0  0  0  0  0  0  0
    6.7241   17.7887   52.4967 C   0  0  1  0  0  0  0  0  0  0  0  0
    6.2904   22.0513   54.5329 C   0  0  0  0  0  0  0  0  0  0  0  0
    8.4416   20.7518   51.3851 O   0  0  0  0  0  0  0  0  0  0  0  0
    7.4982   16.8558   51.6346 C   0  0  0  0  0  0  0  0  0  0  0  0
    5.8477   21.7315   55.8004 C   0  0  0  0  0  0  0  0  0  0  0  0
    7.5464   17.0751   50.1836 C   0  0  0  0  0  0  0  0  0  0  0  0
    6.2426   21.0709   53.3864 C   0  0  0  0  0  0  0  0  0  0  0  0
    8.1084   18.3632   49.8776 O   0  0  0  0  0  0  0  0  0  0  0  0
  1  2  1  0  0  0  0
  1  8  2  0  0  0  0
  1 14  1  0  0  0  0
  2  3  2  0  0  0  0
  2  7  1  0  0  0  0
  3  4  1  0  0  0  0
  4  5  2  0  0  0  0
  5  6  1  0  0  0  0
  6  7  2  0  0  0  0
  9 16  1  0  0  0  0
 10 21  1  0  0  0  0
 11 13  1  1  0  0  0
 11 17  1  0  0  0  0
 11 20  2  0  0  0  0
 11 31  1  0  0  0  0
 12 16  2  0  0  0  0
 12 28  1  0  0  0  0
 15 26  1  0  0  0  0
 15 18  1  0  0  0  0
 16 19  1  0  0  0  0
 18 30  1  0  0  0  0
 19 22  2  0  0  0  0
 21 18  1  1  0  0  0
 21 24  1  0  0  0  0
 22 23  1  0  0  0  0
 22 25  1  0  0  0  0
 24 14  1  1  0  0  0
 24 27  1  0  0  0  0
 25 28  2  0  0  0  0
 25 30  1  0  0  0  0
 27 29  1  0  0  0  0
 29 31  1  0  0  0  0
M  CHG  1  17  -1
M  END
>  <CHROM.1>
-66.92817563,139.92982090,126.51409776,97.99932168,94.18571733,-83.37186572
100.38250571,71.46755169,91.63595934,59.46591496,179.73464927,-168.01556314
6.24018207,19.42182794,52.02752491,1.81545745,-0.53362661,-2.27377623

>  <Name>
ligand

>  <RI>
0

>  <Rbt.Current_Directory>
/home/itssahil/PROJECTS/Mol_Feturizer/New_Systems/rnas/2HOO

>  <Rbt.Executable>
rbdock ($Id: //depot/dev/client3/rdock/2013.1/src/exe/rbdock.cxx#4 $)

>  <Rbt.Library>
libRbt.so (2013.1, Build901 2013/11/27)

>  <Rbt.Parameter_File>
/export/apps/rDock/src/rDock_2013.1_src/data/scripts/dock_solv.prm

>  <Rbt.Receptor>
prm/pocket_docking_8.prm

>  <SCORE>
-26.3732

>  <SCORE.INTER>
-13.3941

>  <SCORE.INTER.CONST>
1

>  <SCORE.INTER.POLAR>
0

>  <SCORE.INTER.ROT>
12

>  <SCORE.INTER.SOLV>
13.0319

>  <SCORE.INTER.VDW>
-24.8733

>  <SCORE.INTER.norm>
-0.432068

>  <SCORE.INTRA>
-12.9791

>  <SCORE.INTRA.DIHEDRAL>
1.6175

>  <SCORE.INTRA.DIHEDRAL.0>
14.6094

>  <SCORE.INTRA.POLAR>
0

>  <SCORE.INTRA.POLAR.0>
0

>  <SCORE.INTRA.REPUL>
0

>  <SCORE.INTRA.REPUL.0>
0

>  <SCORE.INTRA.SOLV>
4.42299

>  <SCORE.INTRA.SOLV.lig_0>
-65.6478

>  <SCORE.INTRA.VDW>
-15.9993

>  <SCORE.INTRA.VDW.0>
9.35535

>  <SCORE.INTRA.norm>
-0.418681

>  <SCORE.RESTR>
0

>  <SCORE.RESTR.CAVITY>
0

>  <SCORE.RESTR.norm>
0

>  <SCORE.SYSTEM>
0

>  <SCORE.SYSTEM.CONST>
0

>  <SCORE.SYSTEM.DIHEDRAL>
0

>  <SCORE.SYSTEM.SOLV>
0

>  <SCORE.SYSTEM.norm>
0

>  <SCORE.heavy>
31

>  <SCORE.norm>
-0.850748

>  <RMSD>
5.842

$$$$
ligand
 OpenBabel11021811443D
libRbt.so/2013.1/901 2013/11/27
 31 32  0  0  0  0  0  0  0  0999 V2000
    1.5978   16.6970   54.7584 C   0  0  0  0  0  0  0  0  0  0  0  0
    1.6782   16.3023   53.2867 C   0  0  0  0  0  0  0  0  0  0  0  0
    1.4263   14.9487   52.8911 C   0  0  0  0  0  0  0  0  0  0  0  0
    1.5057   14.5879   51.5246 C   0  0  0  0  0  0  0  0  0  0  0  0
    1.8256   15.5571   50.5424 C   0  0  0  0  0  0  0  0  0  0  0  0
    2.0704   16.8950   50.9129 C   0  0  0  0  0  0  0  0  0  0  0  0
    1.9982   17.2729   52.2656 C   0  0  0  0  0  0  0  0  0  0  0  0
    0.5960   16.4166   55.4158 O   0  0  0  0  0  0  0  0  0  0  0  0
    8.6605   22.8167   53.3827 C   0  0  0  0  0  0  0  0  0  0  0  0
    3.0752   20.4416   53.2804 C   0  0  0  0  0  0  0  0  0  0  0  0
    7.0621   17.1533   50.9843 P   0  0  1  0  0  0  0  0  0  0  0  0
    7.2656   21.1226   54.3411 N   0  0  0  0  0  0  0  0  0  0  0  0
    8.1286   16.1341   51.0070 O   0  0  0  0  0  0  0  0  0  0  0  0
    2.6426   17.3714   55.3660 S   0  0  0  0  0  0  0  0  0  0  0  0
    1.6727   20.6595   56.2206 C   0  0  0  0  0  0  0  0  0  0  0  0
    7.4896   22.4712   54.1787 C   0  0  0  0  0  0  0  0  0  0  0  0
    7.5400   18.5447   50.7614 O   0  5  0  0  0  0  0  0  0  0  0  0
    2.9467   20.6840   55.7565 N   0  0  0  0  0  0  0  0  0  0  0  0
    6.7360   23.3980   54.6818 N   0  0  0  0  0  0  0  0  0  0  0  0
    5.9831   16.7448   50.0552 O   0  0  0  0  0  0  0  0  0  0  0  0
    3.2163   19.7836   54.6263 C   0  0  2  0  0  0  0  0  0  0  0  0
    5.6311   23.0635   55.4412 C   0  0  0  0  0  0  0  0  0  0  0  0
    4.8798   24.0444   55.9474 N   0  0  0  0  0  0  0  0  0  0  0  0
    3.6131   18.3804   54.6943 C   0  0  1  0  0  0  0  0  0  0  0  0
    5.3314   21.6580   55.6661 C   0  0  0  0  0  0  0  0  0  0  0  0
    1.3394   21.7124   56.7184 O   0  0  0  0  0  0  0  0  0  0  0  0
    4.9000   17.8490   54.1705 C   0  0  0  0  0  0  0  0  0  0  0  0
    6.1906   20.7510   55.0798 C   0  0  0  0  0  0  0  0  0  0  0  0
    5.2326   18.0154   52.7501 C   0  0  0  0  0  0  0  0  0  0  0  0
    4.1641   21.2317   56.5226 C   0  0  0  0  0  0  0  0  0  0  0  0
    6.3905   17.2376   52.3995 O   0  0  0  0  0  0  0  0  0  0  0  0
  1  2  1  0  0  0  0
  1  8  2  0  0  0  0
  1 14  1  0  0  0  0
  2  3  2  0  0  0  0
  2  7  1  0  0  0  0
  3  4  1  0  0  0  0
  4  5  2  0  0  0  0
  5  6  1  0  0  0  0
  6  7  2  0  0  0  0
  9 16  1  0  0  0  0
 10 21  1  0  0  0  0
 11 13  1  6  0  0  0
 11 17  1  0  0  0  0
 11 20  2  0  0  0  0
 11 31  1  0  0  0  0
 12 16  2  0  0  0  0
 12 28  1  0  0  0  0
 15 26  1  0  0  0  0
 15 18  1  0  0  0  0
 16 19  1  0  0  0  0
 18 30  1  0  0  0  0
 19 22  2  0  0  0  0
 21 18  1  1  0  0  0
 21 24  1  0  0  0  0
 22 23  1  0  0  0  0
 22 25  1  0  0  0  0
 24 14  1  1  0  0  0
 24 27  1  0  0  0  0
 25 28  2  0  0  0  0
 25 30  1  0  0  0  0
 27 29  1  0  0  0  0
 29 31  1  0  0  0  0
M  CHG  1  17  -1
M  END
>  <CHROM.1>
-52.02687513,31.58961064,86.62089921,-151.66306730,93.80892739,-156.88164599
-119.72268448,121.71607692,105.51597794,-169.86722321,-179.69181506,-173.68286671
4.39607386,18.91508291,53.68062074,1.94370726,-0.46304391,-2.51304476

>  <Name>
ligand

>  <RI>
0

>  <Rbt.Current_Directory>
/home/itssahil/PROJECTS/Mol_Feturizer/New_Systems/rnas/2HOO

>  <Rbt.Executable>
rbdock ($Id: //depot/dev/client3/rdock/2013.1/src/exe/rbdock.cxx#4 $)

>  <Rbt.Library>
libRbt.so (2013.1, Build901 2013/11/27)

>  <Rbt.Parameter_File>
/export/apps/rDock/src/rDock_2013.1_src/data/scripts/dock_solv.prm

>  <Rbt.Receptor>
prm/pocket_docking_5.prm

>  <SCORE>
-28.1732

>  <SCORE.INTER>
-12.032

>  <SCORE.INTER.CONST>
1

>  <SCORE.INTER.POLAR>
0

>  <SCORE.INTER.ROT>
12

>  <SCORE.INTER.SOLV>
8.65343

>  <SCORE.INTER.VDW>
-22.5058

>  <SCORE.INTER.norm>
-0.388129

>  <SCORE.INTRA>
-16.1412

>  <SCORE.INTRA.DIHEDRAL>
-1.66189

>  <SCORE.INTRA.DIHEDRAL.0>
14.6094

>  <SCORE.INTRA.POLAR>
0

>  <SCORE.INTRA.POLAR.0>
0

>  <SCORE.INTRA.REPUL>
0

>  <SCORE.INTRA.REPUL.0>
0

>  <SCORE.INTRA.SOLV>
-0.23689

>  <SCORE.INTRA.SOLV.lig_0>
-65.6478

>  <SCORE.INTRA.VDW>
-15.1918

>  <SCORE.INTRA.VDW.0>
9.35535

>  <SCORE.INTRA.norm>
-0.520682

>  <SCORE.RESTR>
0

>  <SCORE.RESTR.CAVITY>
0

>  <SCORE.RESTR.norm>
0

>  <SCORE.SYSTEM>
0

>  <SCORE.SYSTEM.CONST>
0

>  <SCORE.SYSTEM.DIHEDRAL>
0

>  <SCORE.SYSTEM.SOLV>
0

>  <SCORE.SYSTEM.norm>
0

>  <SCORE.heavy>
31

>  <SCORE.norm>
-0.908811

>  <RMSD>
5.843

$$$$
ligand
 OpenBabel11021811443D
libRbt.so/2013.1/901 2013/11/27
 31 32  0  0  0  0  0  0  0  0999 V2000
    3.7602   18.8748   50.6561 C   0  0  0  0  0  0  0  0  0  0  0  0
    2.8380   18.1474   51.6301 C   0  0  0  0  0  0  0  0  0  0  0  0
    1.6265   17.5453   51.1589 C   0  0  0  0  0  0  0  0  0  0  0  0
    0.7734   16.8747   52.0679 C   0  0  0  0  0  0  0  0  0  0  0  0
    1.1114   16.7875   53.4406 C   0  0  0  0  0  0  0  0  0  0  0  0
    2.3026   17.3688   53.9208 C   0  0  0  0  0  0  0  0  0  0  0  0
    3.1625   18.0410   53.0338 C   0  0  0  0  0  0  0  0  0  0  0  0
    4.2239   18.2764   49.6859 O   0  0  0  0  0  0  0  0  0  0  0  0
    9.8622   15.9048   47.1215 C   0  0  0  0  0  0  0  0  0  0  0  0
    6.2093   19.8105   53.9878 C   0  0  0  0  0  0  0  0  0  0  0  0
    7.4328   24.4841   52.6444 P   0  0  1  0  0  0  0  0  0  0  0  0
    9.9989   17.3670   49.0129 N   0  0  0  0  0  0  0  0  0  0  0  0
    7.3251   25.1486   51.3316 O   0  0  0  0  0  0  0  0  0  0  0  0
    4.0844   20.2060   50.8522 S   0  0  0  0  0  0  0  0  0  0  0  0
    7.9652   20.6382   51.1860 C   0  0  0  0  0  0  0  0  0  0  0  0
    9.2469   16.4375   48.3305 C   0  0  0  0  0  0  0  0  0  0  0  0
    8.7372   23.8125   52.8932 O   0  5  0  0  0  0  0  0  0  0  0  0
    7.1971   19.6492   51.7064 N   0  0  0  0  0  0  0  0  0  0  0  0
    8.0717   16.0386   48.7045 N   0  0  0  0  0  0  0  0  0  0  0  0
    7.0347   25.4165   53.7245 O   0  0  0  0  0  0  0  0  0  0  0  0
    6.0603   20.1046   52.5196 C   0  0  2  0  0  0  0  0  0  0  0  0
    7.4913   16.5528   49.8482 C   0  0  0  0  0  0  0  0  0  0  0  0
    6.2776   16.1222   50.2009 N   0  0  0  0  0  0  0  0  0  0  0  0
    4.8680   20.8048   52.0515 C   0  0  1  0  0  0  0  0  0  0  0  0
    8.2197   17.5470   50.6208 C   0  0  0  0  0  0  0  0  0  0  0  0
    7.7528   20.8197   50.0072 O   0  0  0  0  0  0  0  0  0  0  0  0
    4.3553   22.0701   52.6423 C   0  0  0  0  0  0  0  0  0  0  0  0
    9.4659   17.8967   50.1419 C   0  0  0  0  0  0  0  0  0  0  0  0
    5.0235   23.3408   52.3347 C   0  0  0  0  0  0  0  0  0  0  0  0
    7.6195   18.1766   51.8542 C   0  0  0  0  0  0  0  0  0  0  0  0
    6.4101   23.2967   52.7140 O   0  0  0  0  0  0  0  0  0  0  0  0
  1  2  1  0  0  0  0
  1  8  2  0  0  0  0
  1 14  1  0  0  0  0
  2  3  2  0  0  0  0
  2  7  1  0  0  0  0
  3  4  1  0  0  0  0
  4  5  2  0  0  0  0
  5  6  1  0  0  0  0
  6  7  2  0  0  0  0
  9 16  1  0  0  0  0
 10 21  1  0  0  0  0
 11 13  1  6  0  0  0
 11 17  1  0  0  0  0
 11 20  2  0  0  0  0
 11 31  1  0  0  0  0
 12 16  2  0  0  0  0
 12 28  1  0  0  0  0
 15 26  1  0  0  0  0
 15 18  1  0  0  0  0
 16 19  1  0  0  0  0
 18 30  1  0  0  0  0
 19 22  2  0  0  0  0
 21 18  1  1  0  0  0
 21 24  1  0  0  0  0
 22 23  1  0  0  0  0
 22 25  1  0  0  0  0
 24 14  1  6  0  0  0
 24 27  1  0  0  0  0
 25 28  2  0  0  0  0
 25 30  1  0  0  0  0
 27 29  1  0  0  0  0
 29 31  1  0  0  0  0
M  CHG  1  17  -1
M  END
>  <CHROM.1>
-58.17280797,63.34485938,43.79802000,-103.38206565,-110.48457149,-48.93066086
-130.27342273,-102.97229467,-108.28702175,-57.92031266,-175.30462269,-47.12092810
6.09790800,19.85521821,51.38590108,1.66201222,-0.37371782,-2.75996505

>  <Name>
ligand

>  <RI>
0

>  <Rbt.Current_Directory>
/home/itssahil/PROJECTS/Mol_Feturizer/New_Systems/rnas/2HOO

>  <Rbt.Executable>
rbdock ($Id: //depot/dev/client3/rdock/2013.1/src/exe/rbdock.cxx#4 $)

>  <Rbt.Library>
libRbt.so (2013.1, Build901 2013/11/27)

>  <Rbt.Parameter_File>
/export/apps/rDock/src/rDock_2013.1_src/data/scripts/dock_solv.prm

>  <Rbt.Receptor>
prm/pocket_docking_6.prm

>  <SCORE>
-27.459

>  <SCORE.INTER>
-14.7017

>  <SCORE.INTER.CONST>
1

>  <SCORE.INTER.POLAR>
0

>  <SCORE.INTER.ROT>
12

>  <SCORE.INTER.SOLV>
18.2935

>  <SCORE.INTER.VDW>
-27.499

>  <SCORE.INTER.norm>
-0.474248

>  <SCORE.INTRA>
-12.7573

>  <SCORE.INTRA.DIHEDRAL>
2.2029

>  <SCORE.INTRA.DIHEDRAL.0>
14.6094

>  <SCORE.INTRA.POLAR>
0

>  <SCORE.INTRA.POLAR.0>
0

>  <SCORE.INTRA.REPUL>
0

>  <SCORE.INTRA.REPUL.0>
0

>  <SCORE.INTRA.SOLV>
3.05558

>  <SCORE.INTRA.SOLV.lig_0>
-65.6478

>  <SCORE.INTRA.VDW>
-15.3866

>  <SCORE.INTRA.VDW.0>
9.35535

>  <SCORE.INTRA.norm>
-0.411526

>  <SCORE.RESTR>
0

>  <SCORE.RESTR.CAVITY>
0

>  <SCORE.RESTR.norm>
0

>  <SCORE.SYSTEM>
0

>  <SCORE.SYSTEM.CONST>
0

>  <SCORE.SYSTEM.DIHEDRAL>
0

>  <SCORE.SYSTEM.SOLV>
0

>  <SCORE.SYSTEM.norm>
0

>  <SCORE.heavy>
31

>  <SCORE.norm>
-0.885774

>  <RMSD>
5.844

$$$$
ligand
 OpenBabel11021811443D
libRbt.so/2013.1/901 2013/11/27
 31 32  0  0  0  0  0  0  0  0999 V2000
    4.6958   22.0459   52.8206 C   0  0  0  0  0  0  0  0  0  0  0  0
    5.9655   22.8113   52.4601 C   0  0  0  0  0  0  0  0  0  0  0  0
    7.1961   22.1066   52.2571 C   0  0  0  0  0  0  0  0  0  0  0  0
    8.3715   22.8227   51.9261 C   0  0  0  0  0  0  0  0  0  0  0  0
    8.3397   24.2319   51.7866 C   0  0  0  0  0  0  0  0  0  0  0  0
    7.1363   24.9411   51.9767 C   0  0  0  0  0  0  0  0  0  0  0  0
    5.9582   24.2479   52.3078 C   0  0  0  0  0  0  0  0  0  0  0  0
    4.2156   22.1494   53.9489 O   0  0  0  0  0  0  0  0  0  0  0  0
    8.4526   20.3473   48.3631 C   0  0  0  0  0  0  0  0  0  0  0  0
    2.1269   18.6595   53.7528 C   0  0  0  0  0  0  0  0  0  0  0  0
    1.4275   23.9048   53.6979 P   0  0  1  0  0  0  0  0  0  0  0  0
    6.3719   19.2547   48.8231 N   0  0  0  0  0  0  0  0  0  0  0  0
    2.4286   24.0507   52.6240 O   0  0  0  0  0  0  0  0  0  0  0  0
    4.0750   21.2310   51.8899 S   0  0  0  0  0  0  0  0  0  0  0  0
    2.6630   17.5119   50.6527 C   0  0  0  0  0  0  0  0  0  0  0  0
    7.5733   19.6987   49.3277 C   0  0  0  0  0  0  0  0  0  0  0  0
    1.8945   24.3382   55.0426 O   0  5  0  0  0  0  0  0  0  0  0  0
    3.3769   17.9662   51.7124 N   0  0  0  0  0  0  0  0  0  0  0  0
    7.9333   19.5680   50.5660 N   0  0  0  0  0  0  0  0  0  0  0  0
    0.1457   24.5258   53.2908 O   0  0  0  0  0  0  0  0  0  0  0  0
    2.7581   19.0758   52.4519 C   0  0  2  0  0  0  0  0  0  0  0  0
    7.0977   18.9461   51.4739 C   0  0  0  0  0  0  0  0  0  0  0  0
    7.5030   18.8251   52.7404 N   0  0  0  0  0  0  0  0  0  0  0  0
    2.7257   20.4825   52.0632 C   0  0  1  0  0  0  0  0  0  0  0  0
    5.8127   18.4413   51.0160 C   0  0  0  0  0  0  0  0  0  0  0  0
    1.6123   17.0072   50.9825 O   0  0  0  0  0  0  0  0  0  0  0  0
    1.4772   21.2575   51.8318 C   0  0  0  0  0  0  0  0  0  0  0  0
    5.5217   18.6387   49.6814 C   0  0  0  0  0  0  0  0  0  0  0  0
    0.5443   21.4845   52.9426 C   0  0  0  0  0  0  0  0  0  0  0  0
    4.8766   17.7148   51.9507 C   0  0  0  0  0  0  0  0  0  0  0  0
    1.1098   22.3836   53.9124 O   0  0  0  0  0  0  0  0  0  0  0  0
  1  2  1  0  0  0  0
  1  8  2  0  0  0  0
  1 14  1  0  0  0  0
  2  3  2  0  0  0  0
  2  7  1  0  0  0  0
  3  4  1  0  0  0  0
  4  5  2  0  0  0  0
  5  6  1  0  0  0  0
  6  7  2  0  0  0  0
  9 16  1  0  0  0  0
 10 21  1  0  0  0  0
 11 13  1  6  0  0  0
 11 17  1  0  0  0  0
 11 20  2  0  0  0  0
 11 31  1  0  0  0  0
 12 16  2  0  0  0  0
 12 28  1  0  0  0  0
 15 26  1  0  0  0  0
 15 18  1  0  0  0  0
 16 19  1  0  0  0  0
 18 30  1  0  0  0  0
 19 22  2  0  0  0  0
 21 18  1  1  0  0  0
 21 24  1  0  0  0  0
 22 23  1  0  0  0  0
 22 25  1  0  0  0  0
 24 14  1  1  0  0  0
 24 27  1  0  0  0  0
 25 28  2  0  0  0  0
 25 30  1  0  0  0  0
 27 29  1  0  0  0  0
 29 31  1  0  0  0  0
M  CHG  1  17  -1
M  END
>  <CHROM.1>
109.98664509,-174.70040168,-97.66571655,-65.23697302,103.33679740,70.54821625
118.18419314,-115.64112999,144.68714444,69.33484556,66.97327421,-61.70746468
4.26543400,21.10682382,52.05580800,-2.47841602,-0.31308094,-2.81461831

>  <Name>
ligand

>  <RI>
0

>  <Rbt.Current_Directory>
/home/itssahil/PROJECTS/Mol_Feturizer/New_Systems/rnas/2HOO

>  <Rbt.Executable>
rbdock ($Id: //depot/dev/client3/rdock/2013.1/src/exe/rbdock.cxx#4 $)

>  <Rbt.Library>
libRbt.so (2013.1, Build901 2013/11/27)

>  <Rbt.Parameter_File>
/export/apps/rDock/src/rDock_2013.1_src/data/scripts/dock_solv.prm

>  <Rbt.Receptor>
prm/pocket_docking_6.prm

>  <SCORE>
-27.9237

>  <SCORE.INTER>
-10.9312

>  <SCORE.INTER.CONST>
1

>  <SCORE.INTER.POLAR>
0

>  <SCORE.INTER.ROT>
12

>  <SCORE.INTER.SOLV>
8.94119

>  <SCORE.INTER.VDW>
-21.8679

>  <SCORE.INTER.norm>
-0.352619

>  <SCORE.INTRA>
-16.9925

>  <SCORE.INTRA.DIHEDRAL>
-2.41955

>  <SCORE.INTRA.DIHEDRAL.0>
14.6094

>  <SCORE.INTRA.POLAR>
0

>  <SCORE.INTRA.POLAR.0>
0

>  <SCORE.INTRA.REPUL>
0

>  <SCORE.INTRA.REPUL.0>
0

>  <SCORE.INTRA.SOLV>
3.33006

>  <SCORE.INTRA.SOLV.lig_0>
-65.6478

>  <SCORE.INTRA.VDW>
-17.4478

>  <SCORE.INTRA.VDW.0>
9.35535

>  <SCORE.INTRA.norm>
-0.548147

>  <SCORE.RESTR>
0

>  <SCORE.RESTR.CAVITY>
0

>  <SCORE.RESTR.norm>
0

>  <SCORE.SYSTEM>
0

>  <SCORE.SYSTEM.CONST>
0

>  <SCORE.SYSTEM.DIHEDRAL>
0

>  <SCORE.SYSTEM.SOLV>
0

>  <SCORE.SYSTEM.norm>
0

>  <SCORE.heavy>
31

>  <SCORE.norm>
-0.900766

>  <RMSD>
5.847

$$$$
ligand
 OpenBabel11021811443D
libRbt.so/2013.1/901 2013/11/27
 31 32  0  0  0  0  0  0  0  0999 V2000
    1.3424   18.1512   52.5868 C   0  0  0  0  0  0  0  0  0  0  0  0
    0.8780   19.3491   53.4099 C   0  0  0  0  0  0  0  0  0  0  0  0
    1.0587   19.3580   54.8310 C   0  0  0  0  0  0  0  0  0  0  0  0
    0.6227   20.4708   55.5895 C   0  0  0  0  0  0  0  0  0  0  0  0
    0.0148   21.5808   54.9536 C   0  0  0  0  0  0  0  0  0  0  0  0
   -0.1655   21.5919   53.5555 C   0  0  0  0  0  0  0  0  0  0  0  0
    0.2593   20.4950   52.7845 C   0  0  0  0  0  0  0  0  0  0  0  0
    0.5343   17.5280   51.8991 O   0  0  0  0  0  0  0  0  0  0  0  0
   11.2885   19.9251   54.0855 C   0  0  0  0  0  0  0  0  0  0  0  0
    5.9891   18.3182   53.1359 C   0  0  0  0  0  0  0  0  0  0  0  0
    5.5360   14.9539   48.9648 P   0  0  1  0  0  0  0  0  0  0  0  0
    9.5668   19.6303   52.4475 N   0  0  0  0  0  0  0  0  0  0  0  0
    5.0486   13.6357   49.4139 O   0  0  0  0  0  0  0  0  0  0  0  0
    2.6681   17.7539   52.6053 S   0  0  0  0  0  0  0  0  0  0  0  0
    4.2637   21.0673   53.6414 C   0  0  0  0  0  0  0  0  0  0  0  0
    9.9829   20.3139   53.5676 C   0  0  0  0  0  0  0  0  0  0  0  0
    7.0062   15.1460   49.0904 O   0  5  0  0  0  0  0  0  0  0  0  0
    4.9917   20.5430   52.6245 N   0  0  0  0  0  0  0  0  0  0  0  0
    9.2917   21.2435   54.1492 N   0  0  0  0  0  0  0  0  0  0  0  0
    5.0153   15.2586   47.6119 O   0  0  0  0  0  0  0  0  0  0  0  0
    4.8820   19.0857   52.4655 C   0  0  2  0  0  0  0  0  0  0  0  0
    8.0516   21.6026   53.6569 C   0  0  0  0  0  0  0  0  0  0  0  0
    7.3654   22.5612   54.2840 N   0  0  0  0  0  0  0  0  0  0  0  0
    3.8298   18.3534   51.7674 C   0  0  1  0  0  0  0  0  0  0  0  0
    7.5374   20.9200   52.4798 C   0  0  0  0  0  0  0  0  0  0  0  0
    4.7833   20.8946   54.7220 O   0  0  0  0  0  0  0  0  0  0  0  0
    3.8007   18.1301   50.2970 C   0  0  0  0  0  0  0  0  0  0  0  0
    8.3548   19.9526   51.9315 C   0  0  0  0  0  0  0  0  0  0  0  0
    4.9417   17.4847   49.6355 C   0  0  0  0  0  0  0  0  0  0  0  0
    6.1715   21.2382   51.9220 C   0  0  0  0  0  0  0  0  0  0  0  0
    4.9569   16.0713   49.9012 O   0  0  0  0  0  0  0  0  0  0  0  0
  1  2  1  0  0  0  0
  1  8  2  0  0  0  0
  1 14  1  0  0  0  0
  2  3  2  0  0  0  0
  2  7  1  0  0  0  0
  3  4  1  0  0  0  0
  4  5  2  0  0  0  0
  5  6  1  0  0  0  0
  6  7  2  0  0  0  0
  9 16  1  0  0  0  0
 10 21  1  0  0  0  0
 11 13  1  1  0  0  0
 11 17  1  0  0  0  0
 11 20  2  0  0  0  0
 11 31  1  0  0  0  0
 12 16  2  0  0  0  0
 12 28  1  0  0  0  0
 15 26  1  0  0  0  0
 15 18  1  0  0  0  0
 16 19  1  0  0  0  0
 18 30  1  0  0  0  0
 19 22  2  0  0  0  0
 21 18  1  1  0  0  0
 21 24  1  0  0  0  0
 22 23  1  0  0  0  0
 22 25  1  0  0  0  0
 24 14  1  1  0  0  0
 24 27  1  0  0  0  0
 25 28  2  0  0  0  0
 25 30  1  0  0  0  0
 27 29  1  0  0  0  0
 29 31  1  0  0  0  0
M  CHG  1  17  -1
M  END
>  <CHROM.1>
121.34147935,-82.54472909,112.39114825,77.87881331,-96.04439133,93.21364832
81.13023704,-123.57504152,-81.80244956,74.82524769,150.92212946,-165.05830131
4.85333867,18.78211587,52.16851227,2.66596127,0.08890810,0.69803018

>  <Name>
ligand

>  <RI>
0

>  <Rbt.Current_Directory>
/home/itssahil/PROJECTS/Mol_Feturizer/New_Systems/rnas/2HOO

>  <Rbt.Executable>
rbdock ($Id: //depot/dev/client3/rdock/2013.1/src/exe/rbdock.cxx#4 $)

>  <Rbt.Library>
libRbt.so (2013.1, Build901 2013/11/27)

>  <Rbt.Parameter_File>
/export/apps/rDock/src/rDock_2013.1_src/data/scripts/dock_solv.prm

>  <Rbt.Receptor>
prm/pocket_docking_2.prm

>  <SCORE>
-16.2486

>  <SCORE.INTER>
-7.12426

>  <SCORE.INTER.CONST>
1

>  <SCORE.INTER.POLAR>
0

>  <SCORE.INTER.ROT>
12

>  <SCORE.INTER.SOLV>
9.62213

>  <SCORE.INTER.VDW>
-19.5569

>  <SCORE.INTER.norm>
-0.229815

>  <SCORE.INTRA>
-10.4644

>  <SCORE.INTRA.DIHEDRAL>
5.06263

>  <SCORE.INTRA.DIHEDRAL.0>
14.6094

>  <SCORE.INTRA.POLAR>
0

>  <SCORE.INTRA.POLAR.0>
0

>  <SCORE.INTRA.REPUL>
0

>  <SCORE.INTRA.REPUL.0>
0

>  <SCORE.INTRA.SOLV>
3.02464

>  <SCORE.INTRA.SOLV.lig_0>
-65.6478

>  <SCORE.INTRA.VDW>
-14.5081

>  <SCORE.INTRA.VDW.0>
9.35535

>  <SCORE.INTRA.norm>
-0.337562

>  <SCORE.RESTR>
1.34011

>  <SCORE.RESTR.CAVITY>
1.34011

>  <SCORE.RESTR.norm>
0.0432292

>  <SCORE.SYSTEM>
0

>  <SCORE.SYSTEM.CONST>
0

>  <SCORE.SYSTEM.DIHEDRAL>
0

>  <SCORE.SYSTEM.SOLV>
0

>  <SCORE.SYSTEM.norm>
0

>  <SCORE.heavy>
31

>  <SCORE.norm>
-0.524147

>  <RMSD>
5.866

$$$$
ligand
 OpenBabel11021811443D
libRbt.so/2013.1/901 2013/11/27
 31 32  0  0  0  0  0  0  0  0999 V2000
    3.9086   19.5355   50.7076 C   0  0  0  0  0  0  0  0  0  0  0  0
    2.5900   18.8715   51.0927 C   0  0  0  0  0  0  0  0  0  0  0  0
    1.6775   19.5416   51.9704 C   0  0  0  0  0  0  0  0  0  0  0  0
    0.4572   18.9190   52.3267 C   0  0  0  0  0  0  0  0  0  0  0  0
    0.1267   17.6398   51.8162 C   0  0  0  0  0  0  0  0  0  0  0  0
    1.0098   16.9683   50.9465 C   0  0  0  0  0  0  0  0  0  0  0  0
    2.2279   17.5694   50.5820 C   0  0  0  0  0  0  0  0  0  0  0  0
    4.1677   20.6679   51.1135 O   0  0  0  0  0  0  0  0  0  0  0  0
    8.0716   24.9683   52.9017 C   0  0  0  0  0  0  0  0  0  0  0  0
    7.9624   16.5351   49.9381 C   0  0  0  0  0  0  0  0  0  0  0  0
    5.8171   13.5844   48.1927 P   0  0  1  0  0  0  0  0  0  0  0  0
    7.1998   22.9883   51.8750 N   0  0  0  0  0  0  0  0  0  0  0  0
    7.2169   13.2661   47.8524 O   0  0  0  0  0  0  0  0  0  0  0  0
    4.8212   18.8769   49.9019 S   0  0  0  0  0  0  0  0  0  0  0  0
    7.9313   19.8270   49.2886 C   0  0  0  0  0  0  0  0  0  0  0  0
    8.1859   23.5347   52.6651 C   0  0  0  0  0  0  0  0  0  0  0  0
    5.0125   14.1230   47.0628 O   0  5  0  0  0  0  0  0  0  0  0  0
    7.9409   18.9909   50.3562 N   0  0  0  0  0  0  0  0  0  0  0  0
    9.1626   22.8560   53.1803 N   0  0  0  0  0  0  0  0  0  0  0  0
    5.1807   12.4326   48.8728 O   0  0  0  0  0  0  0  0  0  0  0  0
    7.1403   17.7682   50.1982 C   0  0  2  0  0  0  0  0  0  0  0  0
    9.2687   21.4983   52.9465 C   0  0  0  0  0  0  0  0  0  0  0  0
   10.2903   20.8318   53.4896 N   0  0  0  0  0  0  0  0  0  0  0  0
    5.6884   17.6490   50.2912 C   0  0  1  0  0  0  0  0  0  0  0  0
    8.2694   20.8477   52.1135 C   0  0  0  0  0  0  0  0  0  0  0  0
    9.0198   19.9258   48.7662 O   0  0  0  0  0  0  0  0  0  0  0  0
    4.9774   16.4252   50.7489 C   0  0  0  0  0  0  0  0  0  0  0  0
    7.2665   21.6579   51.6210 C   0  0  0  0  0  0  0  0  0  0  0  0
    4.6130   15.3876   49.7761 C   0  0  0  0  0  0  0  0  0  0  0  0
    8.3567   19.3768   51.7870 C   0  0  0  0  0  0  0  0  0  0  0  0
    5.7867   14.7580   49.2332 O   0  0  0  0  0  0  0  0  0  0  0  0
  1  2  1  0  0  0  0
  1  8  2  0  0  0  0
  1 14  1  0  0  0  0
  2  3  2  0  0  0  0
  2  7  1  0  0  0  0
  3  4  1  0  0  0  0
  4  5  2  0  0  0  0
  5  6  1  0  0  0  0
  6  7  2  0  0  0  0
  9 16  1  0  0  0  0
 10 21  1  0  0  0  0
 11 13  1  6  0  0  0
 11 17  1  0  0  0  0
 11 20  2  0  0  0  0
 11 31  1  0  0  0  0
 12 16  2  0  0  0  0
 12 28  1  0  0  0  0
 15 26  1  0  0  0  0
 15 18  1  0  0  0  0
 16 19  1  0  0  0  0
 18 30  1  0  0  0  0
 19 22  2  0  0  0  0
 21 18  1  1  0  0  0
 21 24  1  0  0  0  0
 22 23  1  0  0  0  0
 22 25  1  0  0  0  0
 24 14  1  1  0  0  0
 24 27  1  0  0  0  0
 25 28  2  0  0  0  0
 25 30  1  0  0  0  0
 27 29  1  0  0  0  0
 29 31  1  0  0  0  0
M  CHG  1  17  -1
M  END
>  <CHROM.1>
-2.56505069,-70.52054719,-121.63389765,-114.60236361,104.11951491,22.51602801
-151.97418160,91.89513936,-141.85498711,66.52371773,178.50669753,177.64489529
5.90529127,18.35291410,50.54234672,1.18695312,0.12706827,0.45907848

>  <Name>
ligand

>  <RI>
0

>  <Rbt.Current_Directory>
/home/itssahil/PROJECTS/Mol_Feturizer/New_Systems/rnas/2HOO

>  <Rbt.Executable>
rbdock ($Id: //depot/dev/client3/rdock/2013.1/src/exe/rbdock.cxx#4 $)

>  <Rbt.Library>
libRbt.so (2013.1, Build901 2013/11/27)

>  <Rbt.Parameter_File>
/export/apps/rDock/src/rDock_2013.1_src/data/scripts/dock_solv.prm

>  <Rbt.Receptor>
prm/pocket_docking_4.prm

>  <SCORE>
-26.2478

>  <SCORE.INTER>
-15.2861

>  <SCORE.INTER.CONST>
1

>  <SCORE.INTER.POLAR>
0

>  <SCORE.INTER.ROT>
12

>  <SCORE.INTER.SOLV>
20.2082

>  <SCORE.INTER.VDW>
-28.5268

>  <SCORE.INTER.norm>
-0.493101

>  <SCORE.INTRA>
-11.0077

>  <SCORE.INTRA.DIHEDRAL>
3.2158

>  <SCORE.INTRA.DIHEDRAL.0>
14.6094

>  <SCORE.INTRA.POLAR>
0

>  <SCORE.INTRA.POLAR.0>
0

>  <SCORE.INTRA.REPUL>
0

>  <SCORE.INTRA.REPUL.0>
0

>  <SCORE.INTRA.SOLV>
-0.0425412

>  <SCORE.INTRA.SOLV.lig_0>
-65.6478

>  <SCORE.INTRA.VDW>
-12.5943

>  <SCORE.INTRA.VDW.0>
9.35535

>  <SCORE.INTRA.norm>
-0.355086

>  <SCORE.RESTR>
0.0459583

>  <SCORE.RESTR.CAVITY>
0.0459583

>  <SCORE.RESTR.norm>
0.00148252

>  <SCORE.SYSTEM>
0

>  <SCORE.SYSTEM.CONST>
0

>  <SCORE.SYSTEM.DIHEDRAL>
0

>  <SCORE.SYSTEM.SOLV>
0

>  <SCORE.SYSTEM.norm>
0

>  <SCORE.heavy>
31

>  <SCORE.norm>
-0.846704

>  <RMSD>
5.874

$$$$
ligand
 OpenBabel11021811443D
libRbt.so/2013.1/901 2013/11/27
 31 32  0  0  0  0  0  0  0  0999 V2000
    4.8656   18.8557   50.6058 C   0  0  0  0  0  0  0  0  0  0  0  0
    6.1038   19.3468   49.8616 C   0  0  0  0  0  0  0  0  0  0  0  0
    7.0973   20.1162   50.5494 C   0  0  0  0  0  0  0  0  0  0  0  0
    8.2422   20.5718   49.8527 C   0  0  0  0  0  0  0  0  0  0  0  0
    8.4178   20.2669   48.4807 C   0  0  0  0  0  0  0  0  0  0  0  0
    7.4533   19.5058   47.7895 C   0  0  0  0  0  0  0  0  0  0  0  0
    6.3080   19.0454   48.4635 C   0  0  0  0  0  0  0  0  0  0  0  0
    4.8223   17.7020   51.0319 O   0  0  0  0  0  0  0  0  0  0  0  0
    0.3276   19.9026   58.5974 C   0  0  0  0  0  0  0  0  0  0  0  0
    5.8411   22.2411   52.5087 C   0  0  0  0  0  0  0  0  0  0  0  0
   -0.7144   23.6622   51.9148 P   0  0  1  0  0  0  0  0  0  0  0  0
    1.6030   19.6095   56.5920 N   0  0  0  0  0  0  0  0  0  0  0  0
   -1.7238   22.8458   51.2137 O   0  0  0  0  0  0  0  0  0  0  0  0
    3.7842   19.6957   50.8074 S   0  0  0  0  0  0  0  0  0  0  0  0
    5.3342   19.2007   53.8181 C   0  0  0  0  0  0  0  0  0  0  0  0
    1.4799   20.2793   57.7884 C   0  0  0  0  0  0  0  0  0  0  0  0
   -0.7696   25.1163   51.6039 O   0  5  0  0  0  0  0  0  0  0  0  0
    4.8357   20.4571   53.9275 N   0  0  0  0  0  0  0  0  0  0  0  0
    2.3087   21.1863   58.2013 N   0  0  0  0  0  0  0  0  0  0  0  0
   -0.7370   23.3688   53.3666 O   0  0  0  0  0  0  0  0  0  0  0  0
    4.7575   21.2091   52.6668 C   0  0  2  0  0  0  0  0  0  0  0  0
    3.3954   21.5435   57.4262 C   0  0  0  0  0  0  0  0  0  0  0  0
    4.2261   22.4848   57.8809 N   0  0  0  0  0  0  0  0  0  0  0  0
    3.7807   21.0331   51.5963 C   0  0  1  0  0  0  0  0  0  0  0  0
    3.5906   20.8867   56.1430 C   0  0  0  0  0  0  0  0  0  0  0  0
    6.5405   19.1875   53.7081 O   0  0  0  0  0  0  0  0  0  0  0  0
    2.7819   22.0612   51.1984 C   0  0  0  0  0  0  0  0  0  0  0  0
    2.6568   19.9298   55.8008 C   0  0  0  0  0  0  0  0  0  0  0  0
    1.5499   22.2210   51.9808 C   0  0  0  0  0  0  0  0  0  0  0  0
    4.7339   21.2652   55.2334 C   0  0  0  0  0  0  0  0  0  0  0  0
    0.7188   23.2547   51.4244 O   0  0  0  0  0  0  0  0  0  0  0  0
  1  2  1  0  0  0  0
  1  8  2  0  0  0  0
  1 14  1  0  0  0  0
  2  3  2  0  0  0  0
  2  7  1  0  0  0  0
  3  4  1  0  0  0  0
  4  5  2  0  0  0  0
  5  6  1  0  0  0  0
  6  7  2  0  0  0  0
  9 16  1  0  0  0  0
 10 21  1  0  0  0  0
 11 13  1  6  0  0  0
 11 17  1  0  0  0  0
 11 20  2  0  0  0  0
 11 31  1  0  0  0  0
 12 16  2  0  0  0  0
 12 28  1  0  0  0  0
 15 26  1  0  0  0  0
 15 18  1  0  0  0  0
 16 19  1  0  0  0  0
 18 30  1  0  0  0  0
 19 22  2  0  0  0  0
 21 18  1  6  0  0  0
 21 24  1  0  0  0  0
 22 23  1  0  0  0  0
 22 25  1  0  0  0  0
 24 14  1  6  0  0  0
 24 27  1  0  0  0  0
 25 28  2  0  0  0  0
 25 30  1  0  0  0  0
 27 29  1  0  0  0  0
 29 31  1  0  0  0  0
M  CHG  1  17  -1
M  END
>  <CHROM.1>
-98.54138195,-61.14206529,-27.19897005,77.42476037,-103.35286103,-77.90338168
113.32492923,100.30303354,178.34441180,-179.49275373,175.78708572,-88.78479028
3.36181131,21.02707529,52.87944555,0.63062828,0.50688521,-1.41490264

>  <Name>
ligand

>  <RI>
0

>  <Rbt.Current_Directory>
/home/itssahil/PROJECTS/Mol_Feturizer/New_Systems/rnas/2HOO

>  <Rbt.Executable>
rbdock ($Id: //depot/dev/client3/rdock/2013.1/src/exe/rbdock.cxx#4 $)

>  <Rbt.Library>
libRbt.so (2013.1, Build901 2013/11/27)

>  <Rbt.Parameter_File>
/export/apps/rDock/src/rDock_2013.1_src/data/scripts/dock_solv.prm

>  <Rbt.Receptor>
prm/pocket_docking_8.prm

>  <SCORE>
-24.1379

>  <SCORE.INTER>
-11.3837

>  <SCORE.INTER.CONST>
1

>  <SCORE.INTER.POLAR>
0

>  <SCORE.INTER.ROT>
12

>  <SCORE.INTER.SOLV>
13.4673

>  <SCORE.INTER.VDW>
-23.6783

>  <SCORE.INTER.norm>
-0.367218

>  <SCORE.INTRA>
-12.7542

>  <SCORE.INTRA.DIHEDRAL>
2.61108

>  <SCORE.INTRA.DIHEDRAL.0>
14.6094

>  <SCORE.INTRA.POLAR>
0

>  <SCORE.INTRA.POLAR.0>
0

>  <SCORE.INTRA.REPUL>
0

>  <SCORE.INTRA.REPUL.0>
0

>  <SCORE.INTRA.SOLV>
0.0377517

>  <SCORE.INTRA.SOLV.lig_0>
-65.6478

>  <SCORE.INTRA.VDW>
-14.0786

>  <SCORE.INTRA.VDW.0>
9.35535

>  <SCORE.INTRA.norm>
-0.411425

>  <SCORE.RESTR>
0

>  <SCORE.RESTR.CAVITY>
0

>  <SCORE.RESTR.norm>
0

>  <SCORE.SYSTEM>
0

>  <SCORE.SYSTEM.CONST>
0

>  <SCORE.SYSTEM.DIHEDRAL>
0

>  <SCORE.SYSTEM.SOLV>
0

>  <SCORE.SYSTEM.norm>
0

>  <SCORE.heavy>
31

>  <SCORE.norm>
-0.778643

>  <RMSD>
5.878

$$$$
ligand
 OpenBabel11021811443D
libRbt.so/2013.1/901 2013/11/27
 31 32  0  0  0  0  0  0  0  0999 V2000
    2.1213   16.5918   50.3431 C   0  0  0  0  0  0  0  0  0  0  0  0
    3.0488   15.5388   49.7440 C   0  0  0  0  0  0  0  0  0  0  0  0
    3.3436   15.5549   48.3422 C   0  0  0  0  0  0  0  0  0  0  0  0
    4.2022   14.5732   47.7917 C   0  0  0  0  0  0  0  0  0  0  0  0
    4.7790   13.5776   48.6176 C   0  0  0  0  0  0  0  0  0  0  0  0
    4.5048   13.5502   50.0002 C   0  0  0  0  0  0  0  0  0  0  0  0
    3.6528   14.5156   50.5658 C   0  0  0  0  0  0  0  0  0  0  0  0
    0.9289   16.3370   50.5095 O   0  0  0  0  0  0  0  0  0  0  0  0
    5.9660   23.7629   57.5549 C   0  0  0  0  0  0  0  0  0  0  0  0
    4.1921   18.7171   53.7744 C   0  0  0  0  0  0  0  0  0  0  0  0
    8.5340   17.5644   48.7548 P   0  0  1  0  0  0  0  0  0  0  0  0
    5.0816   22.0678   56.1131 N   0  0  0  0  0  0  0  0  0  0  0  0
    9.0992   16.3533   48.1300 O   0  0  0  0  0  0  0  0  0  0  0  0
    2.6067   17.8372   50.7023 S   0  0  0  0  0  0  0  0  0  0  0  0
    2.8984   21.2091   52.1690 C   0  0  0  0  0  0  0  0  0  0  0  0
    5.8877   23.1783   56.2221 C   0  0  0  0  0  0  0  0  0  0  0  0
    9.3786   18.1607   49.8250 O   0  5  0  0  0  0  0  0  0  0  0  0
    4.1206   20.6217   52.1701 N   0  0  0  0  0  0  0  0  0  0  0  0
    6.5464   23.6971   55.2336 N   0  0  0  0  0  0  0  0  0  0  0  0
    8.1292   18.5368   47.7131 O   0  0  0  0  0  0  0  0  0  0  0  0
    4.1108   19.1614   52.3391 C   0  0  2  0  0  0  0  0  0  0  0  0
    6.4624   23.1418   53.9710 C   0  0  0  0  0  0  0  0  0  0  0  0
    7.1510   23.7051   52.9754 N   0  0  0  0  0  0  0  0  0  0  0  0
    4.0098   18.1545   51.2871 C   0  0  1  0  0  0  0  0  0  0  0  0
    5.6234   21.9703   53.7721 C   0  0  0  0  0  0  0  0  0  0  0  0
    2.6609   21.7852   51.1302 O   0  0  0  0  0  0  0  0  0  0  0  0
    5.1674   17.3965   50.7411 C   0  0  0  0  0  0  0  0  0  0  0  0
    4.9717   21.4914   54.8905 C   0  0  0  0  0  0  0  0  0  0  0  0
    6.2397   18.1113   50.0376 C   0  0  0  0  0  0  0  0  0  0  0  0
    5.4576   21.3460   52.4081 C   0  0  0  0  0  0  0  0  0  0  0  0
    7.2155   17.1910   49.5183 O   0  0  0  0  0  0  0  0  0  0  0  0
  1  2  1  0  0  0  0
  1  8  2  0  0  0  0
  1 14  1  0  0  0  0
  2  3  2  0  0  0  0
  2  7  1  0  0  0  0
  3  4  1  0  0  0  0
  4  5  2  0  0  0  0
  5  6  1  0  0  0  0
  6  7  2  0  0  0  0
  9 16  1  0  0  0  0
 10 21  1  0  0  0  0
 11 13  1  6  0  0  0
 11 17  1  0  0  0  0
 11 20  2  0  0  0  0
 11 31  1  0  0  0  0
 12 16  2  0  0  0  0
 12 28  1  0  0  0  0
 15 26  1  0  0  0  0
 15 18  1  0  0  0  0
 16 19  1  0  0  0  0
 18 30  1  0  0  0  0
 19 22  2  0  0  0  0
 21 18  1  1  0  0  0
 21 24  1  0  0  0  0
 22 23  1  0  0  0  0
 22 25  1  0  0  0  0
 24 14  1  1  0  0  0
 24 27  1  0  0  0  0
 25 28  2  0  0  0  0
 25 30  1  0  0  0  0
 27 29  1  0  0  0  0
 29 31  1  0  0  0  0
M  CHG  1  17  -1
M  END
>  <CHROM.1>
96.41277333,-34.88189823,-140.98153181,-119.11990831,-90.45478518,63.50286845
98.70260175,117.03910080,-151.48834741,-176.36962226,-177.57506340,-167.37538511
5.19510474,18.84520391,51.36726130,1.61417208,-0.29855834,-2.43214693

>  <Name>
ligand

>  <RI>
0

>  <Rbt.Current_Directory>
/home/itssahil/PROJECTS/Mol_Feturizer/New_Systems/rnas/2HOO

>  <Rbt.Executable>
rbdock ($Id: //depot/dev/client3/rdock/2013.1/src/exe/rbdock.cxx#4 $)

>  <Rbt.Library>
libRbt.so (2013.1, Build901 2013/11/27)

>  <Rbt.Parameter_File>
/export/apps/rDock/src/rDock_2013.1_src/data/scripts/dock_solv.prm

>  <Rbt.Receptor>
prm/pocket_docking_4.prm

>  <SCORE>
-24.2072

>  <SCORE.INTER>
-9.77166

>  <SCORE.INTER.CONST>
1

>  <SCORE.INTER.POLAR>
0

>  <SCORE.INTER.ROT>
12

>  <SCORE.INTER.SOLV>
11.9472

>  <SCORE.INTER.VDW>
-22.0968

>  <SCORE.INTER.norm>
-0.315215

>  <SCORE.INTRA>
-14.4355

>  <SCORE.INTRA.DIHEDRAL>
-0.536476

>  <SCORE.INTRA.DIHEDRAL.0>
14.6094

>  <SCORE.INTRA.POLAR>
0

>  <SCORE.INTRA.POLAR.0>
0

>  <SCORE.INTRA.REPUL>
0

>  <SCORE.INTRA.REPUL.0>
0

>  <SCORE.INTRA.SOLV>
-0.869695

>  <SCORE.INTRA.SOLV.lig_0>
-65.6478

>  <SCORE.INTRA.VDW>
-13.7324

>  <SCORE.INTRA.VDW.0>
9.35535

>  <SCORE.INTRA.norm>
-0.465662

>  <SCORE.RESTR>
0

>  <SCORE.RESTR.CAVITY>
0

>  <SCORE.RESTR.norm>
0

>  <SCORE.SYSTEM>
0

>  <SCORE.SYSTEM.CONST>
0

>  <SCORE.SYSTEM.DIHEDRAL>
0

>  <SCORE.SYSTEM.SOLV>
0

>  <SCORE.SYSTEM.norm>
0

>  <SCORE.heavy>
31

>  <SCORE.norm>
-0.780877

>  <RMSD>
5.889

$$$$
ligand
 OpenBabel11021811443D
libRbt.so/2013.1/901 2013/11/27
 31 32  0  0  0  0  0  0  0  0999 V2000
    1.7781   19.4835   52.0406 C   0  0  0  0  0  0  0  0  0  0  0  0
    1.4161   18.0760   52.5054 C   0  0  0  0  0  0  0  0  0  0  0  0
    1.9679   17.5567   53.7212 C   0  0  0  0  0  0  0  0  0  0  0  0
    1.6310   16.2489   54.1455 C   0  0  0  0  0  0  0  0  0  0  0  0
    0.7457   15.4505   53.3806 C   0  0  0  0  0  0  0  0  0  0  0  0
    0.1886   15.9475   52.1848 C   0  0  0  0  0  0  0  0  0  0  0  0
    0.5124   17.2437   51.7454 C   0  0  0  0  0  0  0  0  0  0  0  0
    1.0760   20.4389   52.3704 O   0  0  0  0  0  0  0  0  0  0  0  0
    7.8148   24.9808   51.7864 C   0  0  0  0  0  0  0  0  0  0  0  0
    6.3950   19.4044   50.3683 C   0  0  0  0  0  0  0  0  0  0  0  0
    4.2516   14.5291   48.7479 P   0  0  1  0  0  0  0  0  0  0  0  0
    7.9831   22.6102   52.0807 N   0  0  0  0  0  0  0  0  0  0  0  0
    3.4399   13.8001   47.7547 O   0  0  0  0  0  0  0  0  0  0  0  0
    2.8914   19.6999   51.2472 S   0  0  0  0  0  0  0  0  0  0  0  0
    6.7568   17.7879   52.9167 C   0  0  0  0  0  0  0  0  0  0  0  0
    7.2220   23.7412   52.2724 C   0  0  0  0  0  0  0  0  0  0  0  0
    5.2053   13.6797   49.5115 O   0  5  0  0  0  0  0  0  0  0  0  0
    5.8853   18.8105   52.7335 N   0  0  0  0  0  0  0  0  0  0  0  0
    6.0568   23.7444   52.8401 N   0  0  0  0  0  0  0  0  0  0  0  0
    4.8869   15.7116   48.1215 O   0  0  0  0  0  0  0  0  0  0  0  0
    5.3646   18.9488   51.3657 C   0  0  2  0  0  0  0  0  0  0  0  0
    5.5035   22.5666   53.3047 C   0  0  0  0  0  0  0  0  0  0  0  0
    4.3032   22.6080   53.8883 N   0  0  0  0  0  0  0  0  0  0  0  0
    4.0057   18.6727   50.9093 C   0  0  1  0  0  0  0  0  0  0  0  0
    6.2503   21.3283   53.1470 C   0  0  0  0  0  0  0  0  0  0  0  0
    6.4597   17.0877   53.8596 O   0  0  0  0  0  0  0  0  0  0  0  0
    3.6102   17.4582   50.1468 C   0  0  0  0  0  0  0  0  0  0  0  0
    7.4763   21.4323   52.5219 C   0  0  0  0  0  0  0  0  0  0  0  0
    3.6390   16.1449   50.8027 C   0  0  0  0  0  0  0  0  0  0  0  0
    5.7173   20.0179   53.6731 C   0  0  0  0  0  0  0  0  0  0  0  0
    3.3155   15.0984   49.8705 O   0  0  0  0  0  0  0  0  0  0  0  0
  1  2  1  0  0  0  0
  1  8  2  0  0  0  0
  1 14  1  0  0  0  0
  2  3  2  0  0  0  0
  2  7  1  0  0  0  0
  3  4  1  0  0  0  0
  4  5  2  0  0  0  0
  5  6  1  0  0  0  0
  6  7  2  0  0  0  0
  9 16  1  0  0  0  0
 10 21  1  0  0  0  0
 11 13  1  6  0  0  0
 11 17  1  0  0  0  0
 11 20  2  0  0  0  0
 11 31  1  0  0  0  0
 12 16  2  0  0  0  0
 12 28  1  0  0  0  0
 15 26  1  0  0  0  0
 15 18  1  0  0  0  0
 16 19  1  0  0  0  0
 18 30  1  0  0  0  0
 19 22  2  0  0  0  0
 21 18  1  6  0  0  0
 21 24  1  0  0  0  0
 22 23  1  0  0  0  0
 22 25  1  0  0  0  0
 24 14  1  1  0  0  0
 24 27  1  0  0  0  0
 25 28  2  0  0  0  0
 25 30  1  0  0  0  0
 27 29  1  0  0  0  0
 29 31  1  0  0  0  0
M  CHG  1  17  -1
M  END
>  <CHROM.1>
-91.78448093,-10.00439956,-116.52707426,-129.23253497,-69.29464493,107.87892415
-105.38677969,-111.30477328,137.26658062,-175.86814989,74.94853025,-162.06409653
4.31622217,18.53309100,51.58127345,1.14218949,0.41208353,0.51871743

>  <Name>
ligand

>  <RI>
0

>  <Rbt.Current_Directory>
/home/itssahil/PROJECTS/Mol_Feturizer/New_Systems/rnas/2HOO

>  <Rbt.Executable>
rbdock ($Id: //depot/dev/client3/rdock/2013.1/src/exe/rbdock.cxx#4 $)

>  <Rbt.Library>
libRbt.so (2013.1, Build901 2013/11/27)

>  <Rbt.Parameter_File>
/export/apps/rDock/src/rDock_2013.1_src/data/scripts/dock_solv.prm

>  <Rbt.Receptor>
prm/pocket_docking_5.prm

>  <SCORE>
-28.9794

>  <SCORE.INTER>
-14.4668

>  <SCORE.INTER.CONST>
1

>  <SCORE.INTER.POLAR>
0

>  <SCORE.INTER.ROT>
12

>  <SCORE.INTER.SOLV>
12.1019

>  <SCORE.INTER.VDW>
-25.2785

>  <SCORE.INTER.norm>
-0.466671

>  <SCORE.INTRA>
-14.5126

>  <SCORE.INTRA.DIHEDRAL>
-0.669066

>  <SCORE.INTRA.DIHEDRAL.0>
14.6094

>  <SCORE.INTRA.POLAR>
0

>  <SCORE.INTRA.POLAR.0>
0

>  <SCORE.INTRA.REPUL>
0

>  <SCORE.INTRA.REPUL.0>
0

>  <SCORE.INTRA.SOLV>
1.50743

>  <SCORE.INTRA.SOLV.lig_0>
-65.6478

>  <SCORE.INTRA.VDW>
-14.9318

>  <SCORE.INTRA.VDW.0>
9.35535

>  <SCORE.INTRA.norm>
-0.468148

>  <SCORE.RESTR>
0

>  <SCORE.RESTR.CAVITY>
0

>  <SCORE.RESTR.norm>
0

>  <SCORE.SYSTEM>
0

>  <SCORE.SYSTEM.CONST>
0

>  <SCORE.SYSTEM.DIHEDRAL>
0

>  <SCORE.SYSTEM.SOLV>
0

>  <SCORE.SYSTEM.norm>
0

>  <SCORE.heavy>
31

>  <SCORE.norm>
-0.934819

>  <RMSD>
5.911

$$$$
ligand
 OpenBabel11021811443D
libRbt.so/2013.1/901 2013/11/27
 31 32  0  0  0  0  0  0  0  0999 V2000
    4.1866   17.5634   50.3388 C   0  0  0  0  0  0  0  0  0  0  0  0
    3.0618   16.5347   50.4076 C   0  0  0  0  0  0  0  0  0  0  0  0
    2.6762   15.8121   49.2323 C   0  0  0  0  0  0  0  0  0  0  0  0
    1.6297   14.8614   49.3018 C   0  0  0  0  0  0  0  0  0  0  0  0
    0.9641   14.6128   50.5271 C   0  0  0  0  0  0  0  0  0  0  0  0
    1.3345   15.3102   51.6949 C   0  0  0  0  0  0  0  0  0  0  0  0
    2.3706   16.2600   51.6461 C   0  0  0  0  0  0  0  0  0  0  0  0
    3.9364   18.7273   50.0270 O   0  0  0  0  0  0  0  0  0  0  0  0
   10.5943   23.1781   54.1914 C   0  0  0  0  0  0  0  0  0  0  0  0
    9.1641   17.4737   50.0013 C   0  0  0  0  0  0  0  0  0  0  0  0
    5.4631   12.3728   47.7408 P   0  0  1  0  0  0  0  0  0  0  0  0
    9.0011   23.0631   52.4074 N   0  0  0  0  0  0  0  0  0  0  0  0
    5.4160   11.7774   49.0899 O   0  0  0  0  0  0  0  0  0  0  0  0
    5.4920   17.2016   50.6230 S   0  0  0  0  0  0  0  0  0  0  0  0
    7.9744   20.0180   48.4580 C   0  0  0  0  0  0  0  0  0  0  0  0
    9.6894   22.3737   53.3802 C   0  0  0  0  0  0  0  0  0  0  0  0
    6.3636   11.6719   46.7858 O   0  5  0  0  0  0  0  0  0  0  0  0
    7.7310   19.4862   49.6815 N   0  0  0  0  0  0  0  0  0  0  0  0
    9.5686   21.1005   53.5907 N   0  0  0  0  0  0  0  0  0  0  0  0
    4.0905   12.5699   47.2199 O   0  0  0  0  0  0  0  0  0  0  0  0
    7.7850   18.0186   49.7458 C   0  0  2  0  0  0  0  0  0  0  0  0
    8.7138   20.3425   52.8134 C   0  0  0  0  0  0  0  0  0  0  0  0
    8.6178   19.0329   53.0556 N   0  0  0  0  0  0  0  0  0  0  0  0
    6.6663   17.0902   49.6132 C   0  0  1  0  0  0  0  0  0  0  0  0
    7.9564   20.9967   51.7578 C   0  0  0  0  0  0  0  0  0  0  0  0
    9.0901   20.4808   48.3663 O   0  0  0  0  0  0  0  0  0  0  0  0
    6.5797   16.0279   48.5755 C   0  0  0  0  0  0  0  0  0  0  0  0
    8.1508   22.3563   51.6222 C   0  0  0  0  0  0  0  0  0  0  0  0
    5.9018   14.7624   48.8833 C   0  0  0  0  0  0  0  0  0  0  0  0
    7.0405   20.2143   50.8486 C   0  0  0  0  0  0  0  0  0  0  0  0
    6.0923   13.8073   47.8250 O   0  0  0  0  0  0  0  0  0  0  0  0
  1  2  1  0  0  0  0
  1  8  2  0  0  0  0
  1 14  1  0  0  0  0
  2  3  2  0  0  0  0
  2  7  1  0  0  0  0
  3  4  1  0  0  0  0
  4  5  2  0  0  0  0
  5  6  1  0  0  0  0
  6  7  2  0  0  0  0
  9 16  1  0  0  0  0
 10 21  1  0  0  0  0
 11 13  1  1  0  0  0
 11 17  1  0  0  0  0
 11 20  2  0  0  0  0
 11 31  1  0  0  0  0
 12 16  2  0  0  0  0
 12 28  1  0  0  0  0
 15 26  1  0  0  0  0
 15 18  1  0  0  0  0
 16 19  1  0  0  0  0
 18 30  1  0  0  0  0
 19 22  2  0  0  0  0
 21 18  1  1  0  0  0
 21 24  1  0  0  0  0
 22 23  1  0  0  0  0
 22 25  1  0  0  0  0
 24 14  1  1  0  0  0
 24 27  1  0  0  0  0
 25 28  2  0  0  0  0
 25 30  1  0  0  0  0
 27 29  1  0  0  0  0
 29 31  1  0  0  0  0
M  CHG  1  17  -1
M  END
>  <CHROM.1>
87.25375319,109.79498629,114.36758120,-103.00355144,87.22434655,-88.62925494
119.39432208,-32.16026797,-81.08065921,-171.79467165,-176.37348194,-36.92830096
6.25704707,17.30169039,50.13821744,2.08723513,-0.29703488,-2.55327110

>  <Name>
ligand

>  <RI>
0

>  <Rbt.Current_Directory>
/home/itssahil/PROJECTS/Mol_Feturizer/New_Systems/rnas/2HOO

>  <Rbt.Executable>
rbdock ($Id: //depot/dev/client3/rdock/2013.1/src/exe/rbdock.cxx#4 $)

>  <Rbt.Library>
libRbt.so (2013.1, Build901 2013/11/27)

>  <Rbt.Parameter_File>
/export/apps/rDock/src/rDock_2013.1_src/data/scripts/dock_solv.prm

>  <Rbt.Receptor>
prm/pocket_docking_7.prm

>  <SCORE>
-28.4972

>  <SCORE.INTER>
-17.6889

>  <SCORE.INTER.CONST>
1

>  <SCORE.INTER.POLAR>
0

>  <SCORE.INTER.ROT>
12

>  <SCORE.INTER.SOLV>
15.1761

>  <SCORE.INTER.VDW>
-28.4513

>  <SCORE.INTER.norm>
-0.570608

>  <SCORE.INTRA>
-10.8083

>  <SCORE.INTRA.DIHEDRAL>
4.30005

>  <SCORE.INTRA.DIHEDRAL.0>
14.6094

>  <SCORE.INTRA.POLAR>
0

>  <SCORE.INTRA.POLAR.0>
0

>  <SCORE.INTRA.REPUL>
0

>  <SCORE.INTRA.REPUL.0>
0

>  <SCORE.INTRA.SOLV>
2.91028

>  <SCORE.INTRA.SOLV.lig_0>
-65.6478

>  <SCORE.INTRA.VDW>
-14.4135

>  <SCORE.INTRA.VDW.0>
9.35535

>  <SCORE.INTRA.norm>
-0.348656

>  <SCORE.RESTR>
0

>  <SCORE.RESTR.CAVITY>
0

>  <SCORE.RESTR.norm>
0

>  <SCORE.SYSTEM>
0

>  <SCORE.SYSTEM.CONST>
0

>  <SCORE.SYSTEM.DIHEDRAL>
0

>  <SCORE.SYSTEM.SOLV>
0

>  <SCORE.SYSTEM.norm>
0

>  <SCORE.heavy>
31

>  <SCORE.norm>
-0.919264

>  <RMSD>
5.940

$$$$
ligand
 OpenBabel11021811443D
libRbt.so/2013.1/901 2013/11/27
 31 32  0  0  0  0  0  0  0  0999 V2000
    3.2642   20.2989   54.6861 C   0  0  0  0  0  0  0  0  0  0  0  0
    3.2266   21.2086   53.4618 C   0  0  0  0  0  0  0  0  0  0  0  0
    2.2044   21.0398   52.4724 C   0  0  0  0  0  0  0  0  0  0  0  0
    2.1767   21.8847   51.3370 C   0  0  0  0  0  0  0  0  0  0  0  0
    3.1485   22.9022   51.1740 C   0  0  0  0  0  0  0  0  0  0  0  0
    4.1579   23.0867   52.1406 C   0  0  0  0  0  0  0  0  0  0  0  0
    4.2036   22.2563   53.2747 C   0  0  0  0  0  0  0  0  0  0  0  0
    2.7717   20.6777   55.7483 O   0  0  0  0  0  0  0  0  0  0  0  0
    9.6080   15.9040   46.5292 C   0  0  0  0  0  0  0  0  0  0  0  0
    6.7484   18.9452   54.0709 C   0  0  0  0  0  0  0  0  0  0  0  0
    2.0297   15.7543   50.1798 P   0  0  1  0  0  0  0  0  0  0  0  0
    9.6212   17.0100   48.6531 N   0  0  0  0  0  0  0  0  0  0  0  0
    0.6867   15.3083   49.7621 O   0  0  0  0  0  0  0  0  0  0  0  0
    3.8499   19.0467   54.6169 S   0  0  0  0  0  0  0  0  0  0  0  0
    6.4754   19.1790   50.8514 C   0  0  0  0  0  0  0  0  0  0  0  0
    8.9893   16.1018   47.8339 C   0  0  0  0  0  0  0  0  0  0  0  0
    2.5625   15.0668   51.3871 O   0  5  0  0  0  0  0  0  0  0  0  0
    6.4380   18.1477   51.7312 N   0  0  0  0  0  0  0  0  0  0  0  0
    7.9189   15.4493   48.1631 N   0  0  0  0  0  0  0  0  0  0  0  0
    2.9599   15.7268   49.0273 O   0  0  0  0  0  0  0  0  0  0  0  0
    5.7946   18.4488   53.0183 C   0  0  2  0  0  0  0  0  0  0  0  0
    7.3335   15.6467   49.3991 C   0  0  0  0  0  0  0  0  0  0  0  0
    6.2290   14.9606   49.7028 N   0  0  0  0  0  0  0  0  0  0  0  0
    4.3753   18.3358   53.3403 C   0  0  1  0  0  0  0  0  0  0  0  0
    7.9372   16.5975   50.3197 C   0  0  0  0  0  0  0  0  0  0  0  0
    5.5464   19.1605   50.0743 O   0  0  0  0  0  0  0  0  0  0  0  0
    3.3921   17.5694   52.5286 C   0  0  0  0  0  0  0  0  0  0  0  0
    9.0792   17.2330   49.8761 C   0  0  0  0  0  0  0  0  0  0  0  0
    3.0457   18.0300   51.1782 C   0  0  0  0  0  0  0  0  0  0  0  0
    7.3192   16.8876   51.6657 C   0  0  0  0  0  0  0  0  0  0  0  0
    1.9639   17.2546   50.6331 O   0  0  0  0  0  0  0  0  0  0  0  0
  1  2  1  0  0  0  0
  1  8  2  0  0  0  0
  1 14  1  0  0  0  0
  2  3  2  0  0  0  0
  2  7  1  0  0  0  0
  3  4  1  0  0  0  0
  4  5  2  0  0  0  0
  5  6  1  0  0  0  0
  6  7  2  0  0  0  0
  9 16  1  0  0  0  0
 10 21  1  0  0  0  0
 11 13  1  6  0  0  0
 11 17  1  0  0  0  0
 11 20  2  0  0  0  0
 11 31  1  0  0  0  0
 12 16  2  0  0  0  0
 12 28  1  0  0  0  0
 15 26  1  0  0  0  0
 15 18  1  0  0  0  0
 16 19  1  0  0  0  0
 18 30  1  0  0  0  0
 19 22  2  0  0  0  0
 21 18  1  6  0  0  0
 21 24  1  0  0  0  0
 22 23  1  0  0  0  0
 22 25  1  0  0  0  0
 24 14  1  1  0  0  0
 24 27  1  0  0  0  0
 25 28  2  0  0  0  0
 25 30  1  0  0  0  0
 27 29  1  0  0  0  0
 29 31  1  0  0  0  0
M  CHG  1  17  -1
M  END
>  <CHROM.1>
-97.39271841,-7.44968940,95.55153430,-94.55828949,-91.01147138,-19.76448949
14.70325517,113.24029719,-97.52291974,-172.76639806,-70.08354950,176.32757811
4.79898663,18.06212666,51.31951565,-2.20532849,-0.22170893,-2.49262905

>  <Name>
ligand

>  <RI>
0

>  <Rbt.Current_Directory>
/home/itssahil/PROJECTS/Mol_Feturizer/New_Systems/rnas/2HOO

>  <Rbt.Executable>
rbdock ($Id: //depot/dev/client3/rdock/2013.1/src/exe/rbdock.cxx#4 $)

>  <Rbt.Library>
libRbt.so (2013.1, Build901 2013/11/27)

>  <Rbt.Parameter_File>
/export/apps/rDock/src/rDock_2013.1_src/data/scripts/dock_solv.prm

>  <Rbt.Receptor>
prm/pocket_docking_8.prm

>  <SCORE>
-22.7622

>  <SCORE.INTER>
-11.8692

>  <SCORE.INTER.CONST>
1

>  <SCORE.INTER.POLAR>
0

>  <SCORE.INTER.ROT>
12

>  <SCORE.INTER.SOLV>
15.6752

>  <SCORE.INTER.VDW>
-24.7379

>  <SCORE.INTER.norm>
-0.382878

>  <SCORE.INTRA>
-10.8929

>  <SCORE.INTRA.DIHEDRAL>
-0.975736

>  <SCORE.INTRA.DIHEDRAL.0>
14.6094

>  <SCORE.INTRA.POLAR>
0

>  <SCORE.INTRA.POLAR.0>
0

>  <SCORE.INTRA.REPUL>
0

>  <SCORE.INTRA.REPUL.0>
0

>  <SCORE.INTRA.SOLV>
4.6142

>  <SCORE.INTRA.SOLV.lig_0>
-65.6478

>  <SCORE.INTRA.VDW>
-12.7122

>  <SCORE.INTRA.VDW.0>
9.35535

>  <SCORE.INTRA.norm>
-0.351385

>  <SCORE.RESTR>
0

>  <SCORE.RESTR.CAVITY>
0

>  <SCORE.RESTR.norm>
0

>  <SCORE.SYSTEM>
0

>  <SCORE.SYSTEM.CONST>
0

>  <SCORE.SYSTEM.DIHEDRAL>
0

>  <SCORE.SYSTEM.SOLV>
0

>  <SCORE.SYSTEM.norm>
0

>  <SCORE.heavy>
31

>  <SCORE.norm>
-0.734264

>  <RMSD>
5.963

$$$$
ligand
 OpenBabel11021811443D
libRbt.so/2013.1/901 2013/11/27
 31 32  0  0  0  0  0  0  0  0999 V2000
    2.4098   16.1110   51.0516 C   0  0  0  0  0  0  0  0  0  0  0  0
    1.6682   15.1835   50.0936 C   0  0  0  0  0  0  0  0  0  0  0  0
    2.0591   15.1106   48.7173 C   0  0  0  0  0  0  0  0  0  0  0  0
    1.3650   14.2508   47.8326 C   0  0  0  0  0  0  0  0  0  0  0  0
    0.2900   13.4550   48.2988 C   0  0  0  0  0  0  0  0  0  0  0  0
   -0.1043   13.5094   49.6512 C   0  0  0  0  0  0  0  0  0  0  0  0
    0.5715   14.3588   50.5455 C   0  0  0  0  0  0  0  0  0  0  0  0
    1.7781   16.7999   51.8521 O   0  0  0  0  0  0  0  0  0  0  0  0
    9.6537   23.1703   53.8157 C   0  0  0  0  0  0  0  0  0  0  0  0
    3.9635   19.8151   51.5280 C   0  0  0  0  0  0  0  0  0  0  0  0
    8.9832   17.3247   47.9008 P   0  0  1  0  0  0  0  0  0  0  0  0
    7.7701   21.7728   54.2989 N   0  0  0  0  0  0  0  0  0  0  0  0
    9.5107   16.1005   48.5332 O   0  0  0  0  0  0  0  0  0  0  0  0
    3.7916   16.1885   51.0305 S   0  0  0  0  0  0  0  0  0  0  0  0
    4.3907   18.1747   54.1713 C   0  0  0  0  0  0  0  0  0  0  0  0
    8.9732   21.8933   53.6408 C   0  0  0  0  0  0  0  0  0  0  0  0
    9.5870   18.5894   48.4010 O   0  5  0  0  0  0  0  0  0  0  0  0
    5.2504   18.4366   53.1558 N   0  0  0  0  0  0  0  0  0  0  0  0
    9.4968   20.9607   52.9086 N   0  0  0  0  0  0  0  0  0  0  0  0
    9.0219   17.1965   46.4256 O   0  0  0  0  0  0  0  0  0  0  0  0
    4.6378   18.5023   51.8211 C   0  0  2  0  0  0  0  0  0  0  0  0
    8.8431   19.7548   52.7416 C   0  0  0  0  0  0  0  0  0  0  0  0
    9.4098   18.8184   51.9769 N   0  0  0  0  0  0  0  0  0  0  0  0
    4.6474   17.4628   50.7963 C   0  0  1  0  0  0  0  0  0  0  0  0
    7.5611   19.5527   53.3984 C   0  0  0  0  0  0  0  0  0  0  0  0
    4.1622   19.1518   54.8500 O   0  0  0  0  0  0  0  0  0  0  0  0
    5.4375   17.5363   49.5380 C   0  0  0  0  0  0  0  0  0  0  0  0
    7.0957   20.6042   54.1617 C   0  0  0  0  0  0  0  0  0  0  0  0
    6.9027   17.4596   49.5924 C   0  0  0  0  0  0  0  0  0  0  0  0
    6.7797   18.2741   53.2181 C   0  0  0  0  0  0  0  0  0  0  0  0
    7.4678   17.4917   48.2701 O   0  0  0  0  0  0  0  0  0  0  0  0
  1  2  1  0  0  0  0
  1  8  2  0  0  0  0
  1 14  1  0  0  0  0
  2  3  2  0  0  0  0
  2  7  1  0  0  0  0
  3  4  1  0  0  0  0
  4  5  2  0  0  0  0
  5  6  1  0  0  0  0
  6  7  2  0  0  0  0
  9 16  1  0  0  0  0
 10 21  1  0  0  0  0
 11 13  1  1  0  0  0
 11 17  1  0  0  0  0
 11 20  2  0  0  0  0
 11 31  1  0  0  0  0
 12 16  2  0  0  0  0
 12 28  1  0  0  0  0
 15 26  1  0  0  0  0
 15 18  1  0  0  0  0
 16 19  1  0  0  0  0
 18 30  1  0  0  0  0
 19 22  2  0  0  0  0
 21 18  1  6  0  0  0
 21 24  1  0  0  0  0
 22 23  1  0  0  0  0
 22 25  1  0  0  0  0
 24 14  1  1  0  0  0
 24 27  1  0  0  0  0
 25 28  2  0  0  0  0
 25 30  1  0  0  0  0
 27 29  1  0  0  0  0
 29 31  1  0  0  0  0
M  CHG  1  17  -1
M  END
>  <CHROM.1>
136.42440097,122.17154087,68.21613244,-106.05165795,80.23027667,-102.02858560
-110.32170880,-110.74701750,-143.41152616,177.53317418,-175.14292826,51.77101266
5.78166736,17.81761871,50.96160326,2.54509765,-0.39940362,-2.16402427

>  <Name>
ligand

>  <RI>
0

>  <Rbt.Current_Directory>
/home/itssahil/PROJECTS/Mol_Feturizer/New_Systems/rnas/2HOO

>  <Rbt.Executable>
rbdock ($Id: //depot/dev/client3/rdock/2013.1/src/exe/rbdock.cxx#4 $)

>  <Rbt.Library>
libRbt.so (2013.1, Build901 2013/11/27)

>  <Rbt.Parameter_File>
/export/apps/rDock/src/rDock_2013.1_src/data/scripts/dock_solv.prm

>  <Rbt.Receptor>
prm/blind_docking_60.prm

>  <SCORE>
-23.5708

>  <SCORE.INTER>
-11.5312

>  <SCORE.INTER.CONST>
1

>  <SCORE.INTER.POLAR>
0

>  <SCORE.INTER.ROT>
12

>  <SCORE.INTER.SOLV>
18.6787

>  <SCORE.INTER.VDW>
-25.5137

>  <SCORE.INTER.norm>
-0.371973

>  <SCORE.INTRA>
-12.3996

>  <SCORE.INTRA.DIHEDRAL>
2.62313

>  <SCORE.INTRA.DIHEDRAL.0>
14.6094

>  <SCORE.INTRA.POLAR>
0

>  <SCORE.INTRA.POLAR.0>
0

>  <SCORE.INTRA.REPUL>
0

>  <SCORE.INTRA.REPUL.0>
0

>  <SCORE.INTRA.SOLV>
1.88307

>  <SCORE.INTRA.SOLV.lig_0>
-65.6478

>  <SCORE.INTRA.VDW>
-14.6527

>  <SCORE.INTRA.VDW.0>
9.35535

>  <SCORE.INTRA.norm>
-0.399988

>  <SCORE.RESTR>
0.359969

>  <SCORE.RESTR.CAVITY>
0.359969

>  <SCORE.RESTR.norm>
0.0116119

>  <SCORE.SYSTEM>
0

>  <SCORE.SYSTEM.CONST>
0

>  <SCORE.SYSTEM.DIHEDRAL>
0

>  <SCORE.SYSTEM.SOLV>
0

>  <SCORE.SYSTEM.norm>
0

>  <SCORE.heavy>
31

>  <SCORE.norm>
-0.760349

>  <RMSD>
5.973

$$$$
ligand
 OpenBabel11021811443D
libRbt.so/2013.1/901 2013/11/27
 31 32  0  0  0  0  0  0  0  0999 V2000
    1.8540   16.0704   51.8904 C   0  0  0  0  0  0  0  0  0  0  0  0
    1.6540   16.3727   53.3725 C   0  0  0  0  0  0  0  0  0  0  0  0
    2.3861   17.4357   53.9941 C   0  0  0  0  0  0  0  0  0  0  0  0
    2.1986   17.7092   55.3702 C   0  0  0  0  0  0  0  0  0  0  0  0
    1.2866   16.9442   56.1378 C   0  0  0  0  0  0  0  0  0  0  0  0
    0.5532   15.8985   55.5412 C   0  0  0  0  0  0  0  0  0  0  0  0
    0.7266   15.6099   54.1757 C   0  0  0  0  0  0  0  0  0  0  0  0
    1.8198   14.9069   51.4907 O   0  0  0  0  0  0  0  0  0  0  0  0
   10.2070   22.7127   53.9488 C   0  0  0  0  0  0  0  0  0  0  0  0
    3.1108   19.9770   51.6113 C   0  0  0  0  0  0  0  0  0  0  0  0
    5.5634   14.0406   49.2713 P   0  0  1  0  0  0  0  0  0  0  0  0
    9.5802   20.7989   52.6530 N   0  0  0  0  0  0  0  0  0  0  0  0
    6.5666   14.9785   49.8103 O   0  0  0  0  0  0  0  0  0  0  0  0
    2.0759   17.0937   50.9853 S   0  0  0  0  0  0  0  0  0  0  0  0
    5.7112   18.0726   52.8026 C   0  0  0  0  0  0  0  0  0  0  0  0
    9.1881   22.0085   53.1806 C   0  0  0  0  0  0  0  0  0  0  0  0
    5.6323   13.8393   47.7986 O   0  5  0  0  0  0  0  0  0  0  0  0
    5.3672   18.9421   51.8205 N   0  0  0  0  0  0  0  0  0  0  0  0
    8.0064   22.5185   53.0273 N   0  0  0  0  0  0  0  0  0  0  0  0
    5.5806   12.7747   50.0404 O   0  0  0  0  0  0  0  0  0  0  0  0
    3.9956   18.7975   51.3116 C   0  0  2  0  0  0  0  0  0  0  0  0
    7.0429   21.8424   52.3034 C   0  0  0  0  0  0  0  0  0  0  0  0
    5.8351   22.3957   52.1696 N   0  0  0  0  0  0  0  0  0  0  0  0
    3.4512   17.6731   50.5564 C   0  0  1  0  0  0  0  0  0  0  0  0
    7.3773   20.5524   51.7204 C   0  0  0  0  0  0  0  0  0  0  0  0
    5.1780   18.3307   53.8592 O   0  0  0  0  0  0  0  0  0  0  0  0
    4.1356   17.0314   49.4020 C   0  0  0  0  0  0  0  0  0  0  0  0
    8.6644   20.1027   51.9348 C   0  0  0  0  0  0  0  0  0  0  0  0
    3.5856   15.7998   48.8220 C   0  0  0  0  0  0  0  0  0  0  0  0
    6.3543   19.7473   50.9567 C   0  0  0  0  0  0  0  0  0  0  0  0
    4.1274   14.6384   49.4749 O   0  0  0  0  0  0  0  0  0  0  0  0
  1  2  1  0  0  0  0
  1  8  2  0  0  0  0
  1 14  1  0  0  0  0
  2  3  2  0  0  0  0
  2  7  1  0  0  0  0
  3  4  1  0  0  0  0
  4  5  2  0  0  0  0
  5  6  1  0  0  0  0
  6  7  2  0  0  0  0
  9 16  1  0  0  0  0
 10 21  1  0  0  0  0
 11 13  1  1  0  0  0
 11 17  1  0  0  0  0
 11 20  2  0  0  0  0
 11 31  1  0  0  0  0
 12 16  2  0  0  0  0
 12 28  1  0  0  0  0
 15 26  1  0  0  0  0
 15 18  1  0  0  0  0
 16 19  1  0  0  0  0
 18 30  1  0  0  0  0
 19 22  2  0  0  0  0
 21 18  1  6  0  0  0
 21 24  1  0  0  0  0
 22 23  1  0  0  0  0
 22 25  1  0  0  0  0
 24 14  1  1  0  0  0
 24 27  1  0  0  0  0
 25 28  2  0  0  0  0
 25 30  1  0  0  0  0
 27 29  1  0  0  0  0
 29 31  1  0  0  0  0
M  CHG  1  17  -1
M  END
>  <CHROM.1>
143.96583578,90.44526591,-90.54983544,-72.57131242,113.96612420,-52.76590458
-47.92641914,-7.31491829,-80.15259766,-89.45862038,-75.84726039,67.62529642
4.77793051,17.66790367,51.73199598,2.31415084,-0.51220225,-2.44817058

>  <Name>
ligand

>  <RI>
0

>  <Rbt.Current_Directory>
/home/itssahil/PROJECTS/Mol_Feturizer/New_Systems/rnas/2HOO

>  <Rbt.Executable>
rbdock ($Id: //depot/dev/client3/rdock/2013.1/src/exe/rbdock.cxx#4 $)

>  <Rbt.Library>
libRbt.so (2013.1, Build901 2013/11/27)

>  <Rbt.Parameter_File>
/export/apps/rDock/src/rDock_2013.1_src/data/scripts/dock_solv.prm

>  <Rbt.Receptor>
prm/pocket_docking_4.prm

>  <SCORE>
-26.1282

>  <SCORE.INTER>
-16.9299

>  <SCORE.INTER.CONST>
1

>  <SCORE.INTER.POLAR>
0

>  <SCORE.INTER.ROT>
12

>  <SCORE.INTER.SOLV>
14.2222

>  <SCORE.INTER.VDW>
-27.6273

>  <SCORE.INTER.norm>
-0.546126

>  <SCORE.INTRA>
-9.19832

>  <SCORE.INTRA.DIHEDRAL>
5.40008

>  <SCORE.INTRA.DIHEDRAL.0>
14.6094

>  <SCORE.INTRA.POLAR>
0

>  <SCORE.INTRA.POLAR.0>
0

>  <SCORE.INTRA.REPUL>
0

>  <SCORE.INTRA.REPUL.0>
0

>  <SCORE.INTRA.SOLV>
2.89174

>  <SCORE.INTRA.SOLV.lig_0>
-65.6478

>  <SCORE.INTRA.VDW>
-13.3442

>  <SCORE.INTRA.VDW.0>
9.35535

>  <SCORE.INTRA.norm>
-0.29672

>  <SCORE.RESTR>
0

>  <SCORE.RESTR.CAVITY>
0

>  <SCORE.RESTR.norm>
0

>  <SCORE.SYSTEM>
0

>  <SCORE.SYSTEM.CONST>
0

>  <SCORE.SYSTEM.DIHEDRAL>
0

>  <SCORE.SYSTEM.SOLV>
0

>  <SCORE.SYSTEM.norm>
0

>  <SCORE.heavy>
31

>  <SCORE.norm>
-0.842846

>  <RMSD>
5.977

$$$$
ligand
 OpenBabel11021811443D
libRbt.so/2013.1/901 2013/11/27
 31 32  0  0  0  0  0  0  0  0999 V2000
    0.9911   16.6748   52.0047 C   0  0  0  0  0  0  0  0  0  0  0  0
    0.6707   16.3576   53.4624 C   0  0  0  0  0  0  0  0  0  0  0  0
    1.7305   16.1020   54.3918 C   0  0  0  0  0  0  0  0  0  0  0  0
    1.4267   15.8049   55.7420 C   0  0  0  0  0  0  0  0  0  0  0  0
    0.0819   15.7651   56.1846 C   0  0  0  0  0  0  0  0  0  0  0  0
   -0.9734   16.0200   55.2853 C   0  0  0  0  0  0  0  0  0  0  0  0
   -0.6924   16.3152   53.9393 C   0  0  0  0  0  0  0  0  0  0  0  0
    1.1159   15.7609   51.1902 O   0  0  0  0  0  0  0  0  0  0  0  0
    7.1212   19.1354   47.5717 C   0  0  0  0  0  0  0  0  0  0  0  0
    3.0901   20.9090   51.5105 C   0  0  0  0  0  0  0  0  0  0  0  0
   -0.4591   22.0867   55.4673 P   0  0  1  0  0  0  0  0  0  0  0  0
    5.4014   18.2317   48.9717 N   0  0  0  0  0  0  0  0  0  0  0  0
    0.4502   23.2254   55.2364 O   0  0  0  0  0  0  0  0  0  0  0  0
    1.1452   17.9848   51.5853 S   0  0  0  0  0  0  0  0  0  0  0  0
    3.8811   19.7612   54.5808 C   0  0  0  0  0  0  0  0  0  0  0  0
    6.5705   18.9558   48.9091 C   0  0  0  0  0  0  0  0  0  0  0  0
    0.1973   20.8736   56.0257 O   0  5  0  0  0  0  0  0  0  0  0  0
    3.9274   19.3714   53.2828 N   0  0  0  0  0  0  0  0  0  0  0  0
    7.1694   19.4583   49.9430 N   0  0  0  0  0  0  0  0  0  0  0  0
   -1.6429   22.5256   56.2420 O   0  0  0  0  0  0  0  0  0  0  0  0
    2.7791   19.7880   52.4649 C   0  0  2  0  0  0  0  0  0  0  0  0
    6.6454   19.2785   51.2089 C   0  0  0  0  0  0  0  0  0  0  0  0
    7.2914   19.8065   52.2514 N   0  0  0  0  0  0  0  0  0  0  0  0
    1.4347   19.2196   52.4813 C   0  0  1  0  0  0  0  0  0  0  0  0
    5.4155   18.5167   51.3595 C   0  0  0  0  0  0  0  0  0  0  0  0
    4.1500   20.9337   54.7235 O   0  0  0  0  0  0  0  0  0  0  0  0
    0.3104   19.7545   53.2953 C   0  0  0  0  0  0  0  0  0  0  0  0
    4.8531   18.0323   50.1960 C   0  0  0  0  0  0  0  0  0  0  0  0
   -0.2458   21.0782   52.9882 C   0  0  0  0  0  0  0  0  0  0  0  0
    4.8190   18.2501   52.7200 C   0  0  0  0  0  0  0  0  0  0  0  0
   -1.0191   21.5789   54.0927 O   0  0  0  0  0  0  0  0  0  0  0  0
  1  2  1  0  0  0  0
  1  8  2  0  0  0  0
  1 14  1  0  0  0  0
  2  3  2  0  0  0  0
  2  7  1  0  0  0  0
  3  4  1  0  0  0  0
  4  5  2  0  0  0  0
  5  6  1  0  0  0  0
  6  7  2  0  0  0  0
  9 16  1  0  0  0  0
 10 21  1  0  0  0  0
 11 13  1  6  0  0  0
 11 17  1  0  0  0  0
 11 20  2  0  0  0  0
 11 31  1  0  0  0  0
 12 16  2  0  0  0  0
 12 28  1  0  0  0  0
 15 26  1  0  0  0  0
 15 18  1  0  0  0  0
 16 19  1  0  0  0  0
 18 30  1  0  0  0  0
 19 22  2  0  0  0  0
 21 18  1  6  0  0  0
 21 24  1  0  0  0  0
 22 23  1  0  0  0  0
 22 25  1  0  0  0  0
 24 14  1  6  0  0  0
 24 27  1  0  0  0  0
 25 28  2  0  0  0  0
 25 30  1  0  0  0  0
 27 29  1  0  0  0  0
 29 31  1  0  0  0  0
M  CHG  1  17  -1
M  END
>  <CHROM.1>
87.82236436,18.97380959,105.66030552,-76.29627286,106.05127674,-141.57137964
92.49106124,-112.66460874,84.24173162,-162.77875741,71.49761110,59.91521003
2.30734768,19.17191302,52.95246140,0.33464594,-0.61330338,-2.88112473

>  <Name>
ligand

>  <RI>
0

>  <Rbt.Current_Directory>
/home/itssahil/PROJECTS/Mol_Feturizer/New_Systems/rnas/2HOO

>  <Rbt.Executable>
rbdock ($Id: //depot/dev/client3/rdock/2013.1/src/exe/rbdock.cxx#4 $)

>  <Rbt.Library>
libRbt.so (2013.1, Build901 2013/11/27)

>  <Rbt.Parameter_File>
/export/apps/rDock/src/rDock_2013.1_src/data/scripts/dock_solv.prm

>  <Rbt.Receptor>
prm/pocket_docking_7.prm

>  <SCORE>
-25.4676

>  <SCORE.INTER>
-10.6586

>  <SCORE.INTER.CONST>
1

>  <SCORE.INTER.POLAR>
0

>  <SCORE.INTER.ROT>
12

>  <SCORE.INTER.SOLV>
10.5769

>  <SCORE.INTER.VDW>
-22.2314

>  <SCORE.INTER.norm>
-0.343825

>  <SCORE.INTRA>
-14.809

>  <SCORE.INTRA.DIHEDRAL>
-0.435239

>  <SCORE.INTRA.DIHEDRAL.0>
14.6094

>  <SCORE.INTRA.POLAR>
0

>  <SCORE.INTRA.POLAR.0>
0

>  <SCORE.INTRA.REPUL>
0

>  <SCORE.INTRA.REPUL.0>
0

>  <SCORE.INTRA.SOLV>
2.62579

>  <SCORE.INTRA.SOLV.lig_0>
-65.6478

>  <SCORE.INTRA.VDW>
-15.9043

>  <SCORE.INTRA.VDW.0>
9.35535

>  <SCORE.INTRA.norm>
-0.47771

>  <SCORE.RESTR>
0

>  <SCORE.RESTR.CAVITY>
0

>  <SCORE.RESTR.norm>
0

>  <SCORE.SYSTEM>
0

>  <SCORE.SYSTEM.CONST>
0

>  <SCORE.SYSTEM.DIHEDRAL>
0

>  <SCORE.SYSTEM.SOLV>
0

>  <SCORE.SYSTEM.norm>
0

>  <SCORE.heavy>
31

>  <SCORE.norm>
-0.821535

>  <RMSD>
5.977

$$$$
ligand
 OpenBabel11021811443D
libRbt.so/2013.1/901 2013/11/27
 31 32  0  0  0  0  0  0  0  0999 V2000
    4.0794   17.7861   50.3007 C   0  0  0  0  0  0  0  0  0  0  0  0
    3.0578   16.7142   49.9325 C   0  0  0  0  0  0  0  0  0  0  0  0
    1.7963   16.6613   50.6092 C   0  0  0  0  0  0  0  0  0  0  0  0
    0.8540   15.6625   50.2655 C   0  0  0  0  0  0  0  0  0  0  0  0
    1.1453   14.7176   49.2513 C   0  0  0  0  0  0  0  0  0  0  0  0
    2.3792   14.7584   48.5707 C   0  0  0  0  0  0  0  0  0  0  0  0
    3.3294   15.7420   48.8990 C   0  0  0  0  0  0  0  0  0  0  0  0
    5.2751   17.5009   50.3591 O   0  0  0  0  0  0  0  0  0  0  0  0
    3.4948   27.7327   55.3545 C   0  0  0  0  0  0  0  0  0  0  0  0
    2.4395   22.0519   51.5093 C   0  0  0  0  0  0  0  0  0  0  0  0
    1.2428   16.8445   55.0808 P   0  0  1  0  0  0  0  0  0  0  0  0
    4.6939   25.6835   55.0433 N   0  0  0  0  0  0  0  0  0  0  0  0
    2.4928   17.3379   55.6898 O   0  0  0  0  0  0  0  0  0  0  0  0
    3.6756   19.0817   50.5727 S   0  0  0  0  0  0  0  0  0  0  0  0
    5.4077   21.9453   52.7102 C   0  0  0  0  0  0  0  0  0  0  0  0
    3.4627   26.2929   55.1308 C   0  0  0  0  0  0  0  0  0  0  0  0
    1.4287   15.7642   54.0746 O   0  5  0  0  0  0  0  0  0  0  0  0
    4.1987   21.5915   53.2122 N   0  0  0  0  0  0  0  0  0  0  0  0
    2.3331   25.6657   55.0269 N   0  0  0  0  0  0  0  0  0  0  0  0
    0.2589   16.5049   56.1349 O   0  0  0  0  0  0  0  0  0  0  0  0
    3.2604   21.0206   52.2350 C   0  0  2  0  0  0  0  0  0  0  0  0
    2.3099   24.2994   54.8216 C   0  0  0  0  0  0  0  0  0  0  0  0
    1.1282   23.6854   54.7238 N   0  0  0  0  0  0  0  0  0  0  0  0
    3.0820   19.6094   51.9070 C   0  0  1  0  0  0  0  0  0  0  0  0
    3.5709   23.5807   54.7263 C   0  0  0  0  0  0  0  0  0  0  0  0
    6.2603   21.1109   52.9209 O   0  0  0  0  0  0  0  0  0  0  0  0
    2.3536   18.6370   52.7653 C   0  0  0  0  0  0  0  0  0  0  0  0
    4.7159   24.3426   54.8416 C   0  0  0  0  0  0  0  0  0  0  0  0
    1.2620   19.1031   53.6295 C   0  0  0  0  0  0  0  0  0  0  0  0
    3.6089   22.0827   54.5463 C   0  0  0  0  0  0  0  0  0  0  0  0
    0.5820   17.9932   54.2414 O   0  0  0  0  0  0  0  0  0  0  0  0
  1  2  1  0  0  0  0
  1  8  2  0  0  0  0
  1 14  1  0  0  0  0
  2  3  2  0  0  0  0
  2  7  1  0  0  0  0
  3  4  1  0  0  0  0
  4  5  2  0  0  0  0
  5  6  1  0  0  0  0
  6  7  2  0  0  0  0
  9 16  1  0  0  0  0
 10 21  1  0  0  0  0
 11 13  1  1  0  0  0
 11 17  1  0  0  0  0
 11 20  2  0  0  0  0
 11 31  1  0  0  0  0
 12 16  2  0  0  0  0
 12 28  1  0  0  0  0
 15 26  1  0  0  0  0
 15 18  1  0  0  0  0
 16 19  1  0  0  0  0
 18 30  1  0  0  0  0
 19 22  2  0  0  0  0
 21 18  1  6  0  0  0
 21 24  1  0  0  0  0
 22 23  1  0  0  0  0
 22 25  1  0  0  0  0
 24 14  1  6  0  0  0
 24 27  1  0  0  0  0
 25 28  2  0  0  0  0
 25 30  1  0  0  0  0
 27 29  1  0  0  0  0
 29 31  1  0  0  0  0
M  CHG  1  17  -1
M  END
>  <CHROM.1>
140.00507608,80.40218062,153.19063128,-99.26056578,-87.11265915,53.16744313
74.56489919,-150.29124310,114.76945819,172.61967551,53.93602957,26.25509825
2.84692733,19.89507942,52.95967952,-1.83453673,0.96937099,0.59322157

>  <Name>
ligand

>  <RI>
0

>  <Rbt.Current_Directory>
/home/itssahil/PROJECTS/Mol_Feturizer/New_Systems/rnas/2HOO

>  <Rbt.Executable>
rbdock ($Id: //depot/dev/client3/rdock/2013.1/src/exe/rbdock.cxx#4 $)

>  <Rbt.Library>
libRbt.so (2013.1, Build901 2013/11/27)

>  <Rbt.Parameter_File>
/export/apps/rDock/src/rDock_2013.1_src/data/scripts/dock_solv.prm

>  <Rbt.Receptor>
prm/pocket_docking_8.prm

>  <SCORE>
-20.6272

>  <SCORE.INTER>
-11.085

>  <SCORE.INTER.CONST>
1

>  <SCORE.INTER.POLAR>
0

>  <SCORE.INTER.ROT>
12

>  <SCORE.INTER.SOLV>
9.97123

>  <SCORE.INTER.VDW>
-22.3138

>  <SCORE.INTER.norm>
-0.357582

>  <SCORE.INTRA>
-9.54214

>  <SCORE.INTRA.DIHEDRAL>
5.68913

>  <SCORE.INTRA.DIHEDRAL.0>
14.6094

>  <SCORE.INTRA.POLAR>
0

>  <SCORE.INTRA.POLAR.0>
0

>  <SCORE.INTRA.REPUL>
0

>  <SCORE.INTRA.REPUL.0>
0

>  <SCORE.INTRA.SOLV>
1.53307

>  <SCORE.INTRA.SOLV.lig_0>
-65.6478

>  <SCORE.INTRA.VDW>
-13.1532

>  <SCORE.INTRA.VDW.0>
9.35535

>  <SCORE.INTRA.norm>
-0.307811

>  <SCORE.RESTR>
0

>  <SCORE.RESTR.CAVITY>
0

>  <SCORE.RESTR.norm>
0

>  <SCORE.SYSTEM>
0

>  <SCORE.SYSTEM.CONST>
0

>  <SCORE.SYSTEM.DIHEDRAL>
0

>  <SCORE.SYSTEM.SOLV>
0

>  <SCORE.SYSTEM.norm>
0

>  <SCORE.heavy>
31

>  <SCORE.norm>
-0.665393

>  <RMSD>
5.984

$$$$
ligand
 OpenBabel11021811443D
libRbt.so/2013.1/901 2013/11/27
 31 32  0  0  0  0  0  0  0  0999 V2000
    4.5380   22.9349   52.2052 C   0  0  0  0  0  0  0  0  0  0  0  0
    5.6960   23.8803   52.5107 C   0  0  0  0  0  0  0  0  0  0  0  0
    5.7153   24.6197   53.7376 C   0  0  0  0  0  0  0  0  0  0  0  0
    6.7907   25.4978   54.0138 C   0  0  0  0  0  0  0  0  0  0  0  0
    7.8534   25.6465   53.0892 C   0  0  0  0  0  0  0  0  0  0  0  0
    7.8539   24.9222   51.8798 C   0  0  0  0  0  0  0  0  0  0  0  0
    6.7935   24.0462   51.5861 C   0  0  0  0  0  0  0  0  0  0  0  0
    3.5351   23.3575   51.6306 O   0  0  0  0  0  0  0  0  0  0  0  0
    9.1089   16.5160   46.2481 C   0  0  0  0  0  0  0  0  0  0  0  0
    5.3048   18.6784   49.9789 C   0  0  0  0  0  0  0  0  0  0  0  0
    2.2128   17.9547   54.8084 P   0  0  1  0  0  0  0  0  0  0  0  0
    7.9702   18.5405   46.8304 N   0  0  0  0  0  0  0  0  0  0  0  0
    3.4952   17.2934   55.1164 O   0  0  0  0  0  0  0  0  0  0  0  0
    4.6013   21.6011   52.5695 S   0  0  0  0  0  0  0  0  0  0  0  0
    7.4609   19.5773   52.3731 C   0  0  0  0  0  0  0  0  0  0  0  0
    8.8124   17.5346   47.2475 C   0  0  0  0  0  0  0  0  0  0  0  0
    1.1686   17.0521   54.2523 O   0  5  0  0  0  0  0  0  0  0  0  0
    6.9401   20.0829   51.2276 N   0  0  0  0  0  0  0  0  0  0  0  0
    9.3254   17.4632   48.4357 N   0  0  0  0  0  0  0  0  0  0  0  0
    1.7502   18.7430   55.9741 O   0  0  0  0  0  0  0  0  0  0  0  0
    5.5234   19.7675   50.9939 C   0  0  2  0  0  0  0  0  0  0  0  0
    9.0346   18.4287   49.3805 C   0  0  0  0  0  0  0  0  0  0  0  0
    9.5773   18.3210   50.5957 N   0  0  0  0  0  0  0  0  0  0  0  0
    4.3675   20.3738   51.6474 C   0  0  1  0  0  0  0  0  0  0  0  0
    8.1447   19.5211   49.0193 C   0  0  0  0  0  0  0  0  0  0  0  0
    8.2166   20.3498   52.9204 O   0  0  0  0  0  0  0  0  0  0  0  0
    2.9707   19.8843   51.4986 C   0  0  0  0  0  0  0  0  0  0  0  0
    7.6594   19.5091   47.7273 C   0  0  0  0  0  0  0  0  0  0  0  0
    2.5292   18.7021   52.2492 C   0  0  0  0  0  0  0  0  0  0  0  0
    7.7559   20.5808   50.0212 C   0  0  0  0  0  0  0  0  0  0  0  0
    2.4259   18.9948   53.6536 O   0  0  0  0  0  0  0  0  0  0  0  0
  1  2  1  0  0  0  0
  1  8  2  0  0  0  0
  1 14  1  0  0  0  0
  2  3  2  0  0  0  0
  2  7  1  0  0  0  0
  3  4  1  0  0  0  0
  4  5  2  0  0  0  0
  5  6  1  0  0  0  0
  6  7  2  0  0  0  0
  9 16  1  0  0  0  0
 10 21  1  0  0  0  0
 11 13  1  1  0  0  0
 11 17  1  0  0  0  0
 11 20  2  0  0  0  0
 11 31  1  0  0  0  0
 12 16  2  0  0  0  0
 12 28  1  0  0  0  0
 15 26  1  0  0  0  0
 15 18  1  0  0  0  0
 16 19  1  0  0  0  0
 18 30  1  0  0  0  0
 19 22  2  0  0  0  0
 21 18  1  1  0  0  0
 21 24  1  0  0  0  0
 22 23  1  0  0  0  0
 22 25  1  0  0  0  0
 24 14  1  1  0  0  0
 24 27  1  0  0  0  0
 25 28  2  0  0  0  0
 25 30  1  0  0  0  0
 27 29  1  0  0  0  0
 29 31  1  0  0  0  0
M  CHG  1  17  -1
M  END
>  <CHROM.1>
88.71885987,-127.31732692,92.79641286,-140.70220990,-102.88925070,86.18807830
-173.20947413,-101.18570243,-64.10245847,70.24065827,-169.50268119,78.80014010
5.66562296,20.15903005,51.69791069,-2.77471301,-0.71026847,-2.76788387

>  <Name>
ligand

>  <RI>
0

>  <Rbt.Current_Directory>
/home/itssahil/PROJECTS/Mol_Feturizer/New_Systems/rnas/2HOO

>  <Rbt.Executable>
rbdock ($Id: //depot/dev/client3/rdock/2013.1/src/exe/rbdock.cxx#4 $)

>  <Rbt.Library>
libRbt.so (2013.1, Build901 2013/11/27)

>  <Rbt.Parameter_File>
/export/apps/rDock/src/rDock_2013.1_src/data/scripts/dock_solv.prm

>  <Rbt.Receptor>
prm/pocket_docking_5.prm

>  <SCORE>
-25.7881

>  <SCORE.INTER>
-15.3794

>  <SCORE.INTER.CONST>
1

>  <SCORE.INTER.POLAR>
0

>  <SCORE.INTER.ROT>
12

>  <SCORE.INTER.SOLV>
14.5293

>  <SCORE.INTER.VDW>
-26.696

>  <SCORE.INTER.norm>
-0.496109

>  <SCORE.INTRA>
-10.4088

>  <SCORE.INTRA.DIHEDRAL>
1.49904

>  <SCORE.INTRA.DIHEDRAL.0>
14.6094

>  <SCORE.INTRA.POLAR>
0

>  <SCORE.INTRA.POLAR.0>
0

>  <SCORE.INTRA.REPUL>
0

>  <SCORE.INTRA.REPUL.0>
0

>  <SCORE.INTRA.SOLV>
3.6469

>  <SCORE.INTRA.SOLV.lig_0>
-65.6478

>  <SCORE.INTRA.VDW>
-12.9817

>  <SCORE.INTRA.VDW.0>
9.35535

>  <SCORE.INTRA.norm>
-0.335766

>  <SCORE.RESTR>
0

>  <SCORE.RESTR.CAVITY>
0

>  <SCORE.RESTR.norm>
0

>  <SCORE.SYSTEM>
0

>  <SCORE.SYSTEM.CONST>
0

>  <SCORE.SYSTEM.DIHEDRAL>
0

>  <SCORE.SYSTEM.SOLV>
0

>  <SCORE.SYSTEM.norm>
0

>  <SCORE.heavy>
31

>  <SCORE.norm>
-0.831875

>  <RMSD>
6.000

$$$$
ligand
 OpenBabel11021811443D
libRbt.so/2013.1/901 2013/11/27
 31 32  0  0  0  0  0  0  0  0999 V2000
    6.8110   18.0018   51.0897 C   0  0  0  0  0  0  0  0  0  0  0  0
    7.1392   18.7231   49.7858 C   0  0  0  0  0  0  0  0  0  0  0  0
    6.5640   18.2755   48.5526 C   0  0  0  0  0  0  0  0  0  0  0  0
    6.8751   18.9467   47.3457 C   0  0  0  0  0  0  0  0  0  0  0  0
    7.7461   20.0636   47.3479 C   0  0  0  0  0  0  0  0  0  0  0  0
    8.3164   20.5217   48.5530 C   0  0  0  0  0  0  0  0  0  0  0  0
    8.0212   19.8671   49.7623 C   0  0  0  0  0  0  0  0  0  0  0  0
    7.4133   16.9717   51.3903 O   0  0  0  0  0  0  0  0  0  0  0  0
    1.5075   16.0017   55.5774 C   0  0  0  0  0  0  0  0  0  0  0  0
    3.1300   21.3928   51.8172 C   0  0  0  0  0  0  0  0  0  0  0  0
    3.2865   14.8993   50.2796 P   0  0  1  0  0  0  0  0  0  0  0  0
    3.4291   17.2333   54.8528 N   0  0  0  0  0  0  0  0  0  0  0  0
    2.6231   14.4915   51.5327 O   0  0  0  0  0  0  0  0  0  0  0  0
    5.8379   18.4937   51.9423 S   0  0  0  0  0  0  0  0  0  0  0  0
    6.0039   21.9064   53.1599 C   0  0  0  0  0  0  0  0  0  0  0  0
    2.1769   17.2870   55.4222 C   0  0  0  0  0  0  0  0  0  0  0  0
    4.5359   14.1531   49.9693 O   0  5  0  0  0  0  0  0  0  0  0  0
    4.9858   21.0572   53.4450 N   0  0  0  0  0  0  0  0  0  0  0  0
    1.6004   18.3826   55.8061 N   0  0  0  0  0  0  0  0  0  0  0  0
    2.3124   14.9075   49.1637 O   0  0  0  0  0  0  0  0  0  0  0  0
    4.2710   20.5255   52.2756 C   0  0  2  0  0  0  0  0  0  0  0  0
    2.2379   19.5985   55.6498 C   0  0  0  0  0  0  0  0  0  0  0  0
    1.6124   20.7073   56.0525 N   0  0  0  0  0  0  0  0  0  0  0  0
    4.5728   19.3002   51.5420 C   0  0  1  0  0  0  0  0  0  0  0  0
    3.5618   19.6265   55.0477 C   0  0  0  0  0  0  0  0  0  0  0  0
    6.1241   22.7822   53.9881 O   0  0  0  0  0  0  0  0  0  0  0  0
    3.7509   18.7735   50.4195 C   0  0  0  0  0  0  0  0  0  0  0  0
    4.0900   18.4051   54.6818 C   0  0  0  0  0  0  0  0  0  0  0  0
    2.9677   17.5454   50.6039 C   0  0  0  0  0  0  0  0  0  0  0  0
    4.2892   20.9276   54.8113 C   0  0  0  0  0  0  0  0  0  0  0  0
    3.7882   16.3797   50.4125 O   0  0  0  0  0  0  0  0  0  0  0  0
  1  2  1  0  0  0  0
  1  8  2  0  0  0  0
  1 14  1  0  0  0  0
  2  3  2  0  0  0  0
  2  7  1  0  0  0  0
  3  4  1  0  0  0  0
  4  5  2  0  0  0  0
  5  6  1  0  0  0  0
  6  7  2  0  0  0  0
  9 16  1  0  0  0  0
 10 21  1  0  0  0  0
 11 13  1  1  0  0  0
 11 17  1  0  0  0  0
 11 20  2  0  0  0  0
 11 31  1  0  0  0  0
 12 16  2  0  0  0  0
 12 28  1  0  0  0  0
 15 26  1  0  0  0  0
 15 18  1  0  0  0  0
 16 19  1  0  0  0  0
 18 30  1  0  0  0  0
 19 22  2  0  0  0  0
 21 18  1  6  0  0  0
 21 24  1  0  0  0  0
 22 23  1  0  0  0  0
 22 25  1  0  0  0  0
 24 14  1  6  0  0  0
 24 27  1  0  0  0  0
 25 28  2  0  0  0  0
 25 30  1  0  0  0  0
 27 29  1  0  0  0  0
 29 31  1  0  0  0  0
M  CHG  1  17  -1
M  END
>  <CHROM.1>
81.94273133,30.21603314,-131.70564582,145.70073838,-88.16417754,-158.67855340
173.99529118,70.21432292,-136.29274906,-82.56803362,-168.81827874,-63.12266660
4.49987810,18.36820795,51.96478254,-0.78804799,0.82025098,0.71633900

>  <Name>
ligand

>  <RI>
0

>  <Rbt.Current_Directory>
/home/itssahil/PROJECTS/Mol_Feturizer/New_Systems/rnas/2HOO

>  <Rbt.Executable>
rbdock ($Id: //depot/dev/client3/rdock/2013.1/src/exe/rbdock.cxx#4 $)

>  <Rbt.Library>
libRbt.so (2013.1, Build901 2013/11/27)

>  <Rbt.Parameter_File>
/export/apps/rDock/src/rDock_2013.1_src/data/scripts/dock_solv.prm

>  <Rbt.Receptor>
prm/pocket_docking_4.prm

>  <SCORE>
-27.3517

>  <SCORE.INTER>
-14.6956

>  <SCORE.INTER.CONST>
1

>  <SCORE.INTER.POLAR>
0

>  <SCORE.INTER.ROT>
12

>  <SCORE.INTER.SOLV>
13.4703

>  <SCORE.INTER.VDW>
-25.8872

>  <SCORE.INTER.norm>
-0.474053

>  <SCORE.INTRA>
-12.6561

>  <SCORE.INTRA.DIHEDRAL>
3.43708

>  <SCORE.INTRA.DIHEDRAL.0>
14.6094

>  <SCORE.INTRA.POLAR>
0

>  <SCORE.INTRA.POLAR.0>
0

>  <SCORE.INTRA.REPUL>
0

>  <SCORE.INTRA.REPUL.0>
0

>  <SCORE.INTRA.SOLV>
-0.757937

>  <SCORE.INTRA.SOLV.lig_0>
-65.6478

>  <SCORE.INTRA.VDW>
-13.9956

>  <SCORE.INTRA.VDW.0>
9.35535

>  <SCORE.INTRA.norm>
-0.40826

>  <SCORE.RESTR>
0

>  <SCORE.RESTR.CAVITY>
0

>  <SCORE.RESTR.norm>
0

>  <SCORE.SYSTEM>
0

>  <SCORE.SYSTEM.CONST>
0

>  <SCORE.SYSTEM.DIHEDRAL>
0

>  <SCORE.SYSTEM.SOLV>
0

>  <SCORE.SYSTEM.norm>
0

>  <SCORE.heavy>
31

>  <SCORE.norm>
-0.882313

>  <RMSD>
6.017

$$$$
ligand
 OpenBabel11021811443D
libRbt.so/2013.1/901 2013/11/27
 31 32  0  0  0  0  0  0  0  0999 V2000
    5.9921   17.6963   53.1421 C   0  0  0  0  0  0  0  0  0  0  0  0
    5.0579   17.5070   51.9506 C   0  0  0  0  0  0  0  0  0  0  0  0
    3.8719   18.3020   51.8341 C   0  0  0  0  0  0  0  0  0  0  0  0
    3.0073   18.1193   50.7282 C   0  0  0  0  0  0  0  0  0  0  0  0
    3.3091   17.1605   49.7303 C   0  0  0  0  0  0  0  0  0  0  0  0
    4.4749   16.3737   49.8255 C   0  0  0  0  0  0  0  0  0  0  0  0
    5.3456   16.5389   50.9176 C   0  0  0  0  0  0  0  0  0  0  0  0
    5.5258   17.9172   54.2593 O   0  0  0  0  0  0  0  0  0  0  0  0
    2.3645   21.9285   51.5652 C   0  0  0  0  0  0  0  0  0  0  0  0
   10.1886   19.2661   54.0792 C   0  0  0  0  0  0  0  0  0  0  0  0
    7.2176   18.8682   48.0465 P   0  0  1  0  0  0  0  0  0  0  0  0
    4.6540   21.2473   51.7333 N   0  0  0  0  0  0  0  0  0  0  0  0
    5.9065   18.8863   48.7228 O   0  0  0  0  0  0  0  0  0  0  0  0
    7.3648   17.6238   52.9807 S   0  0  0  0  0  0  0  0  0  0  0  0
    8.9141   22.0339   53.1615 C   0  0  0  0  0  0  0  0  0  0  0  0
    3.5335   21.6871   52.4013 C   0  0  0  0  0  0  0  0  0  0  0  0
    7.9084   17.5505   48.0704 O   0  5  0  0  0  0  0  0  0  0  0  0
    8.3902   20.9705   53.8200 N   0  0  0  0  0  0  0  0  0  0  0  0
    3.4822   21.8843   53.6814 N   0  0  0  0  0  0  0  0  0  0  0  0
    7.1013   19.4480   46.6884 O   0  0  0  0  0  0  0  0  0  0  0  0
    8.9057   19.6599   53.3985 C   0  0  2  0  0  0  0  0  0  0  0  0
    4.5963   21.6599   54.4674 C   0  0  0  0  0  0  0  0  0  0  0  0
    4.5084   21.8778   55.7818 N   0  0  0  0  0  0  0  0  0  0  0  0
    8.2974   18.7417   52.4406 C   0  0  1  0  0  0  0  0  0  0  0  0
    5.8231   21.2017   53.8344 C   0  0  0  0  0  0  0  0  0  0  0  0
    9.5874   22.7394   53.8800 O   0  0  0  0  0  0  0  0  0  0  0  0
    8.5217   18.7967   50.9710 C   0  0  0  0  0  0  0  0  0  0  0  0
    5.7698   21.0144   52.4680 C   0  0  0  0  0  0  0  0  0  0  0  0
    8.2396   20.0367   50.2371 C   0  0  0  0  0  0  0  0  0  0  0  0
    7.0840   20.9813   54.6340 C   0  0  0  0  0  0  0  0  0  0  0  0
    8.2162   19.7996   48.8187 O   0  0  0  0  0  0  0  0  0  0  0  0
  1  2  1  0  0  0  0
  1  8  2  0  0  0  0
  1 14  1  0  0  0  0
  2  3  2  0  0  0  0
  2  7  1  0  0  0  0
  3  4  1  0  0  0  0
  4  5  2  0  0  0  0
  5  6  1  0  0  0  0
  6  7  2  0  0  0  0
  9 16  1  0  0  0  0
 10 21  1  0  0  0  0
 11 13  1  1  0  0  0
 11 17  1  0  0  0  0
 11 20  2  0  0  0  0
 11 31  1  0  0  0  0
 12 16  2  0  0  0  0
 12 28  1  0  0  0  0
 15 26  1  0  0  0  0
 15 18  1  0  0  0  0
 16 19  1  0  0  0  0
 18 30  1  0  0  0  0
 19 22  2  0  0  0  0
 21 18  1  1  0  0  0
 21 24  1  0  0  0  0
 22 23  1  0  0  0  0
 22 25  1  0  0  0  0
 24 14  1  1  0  0  0
 24 27  1  0  0  0  0
 25 28  2  0  0  0  0
 25 30  1  0  0  0  0
 27 29  1  0  0  0  0
 29 31  1  0  0  0  0
M  CHG  1  17  -1
M  END
>  <CHROM.1>
38.11356159,80.01101356,91.59065100,-113.36564239,84.78687194,66.11918876
85.12997151,124.62108731,-159.98740816,-166.48402044,62.68896113,32.89918974
6.40923151,19.52992684,51.73145313,1.58506852,0.03786150,1.07631375

>  <Name>
ligand

>  <RI>
0

>  <Rbt.Current_Directory>
/home/itssahil/PROJECTS/Mol_Feturizer/New_Systems/rnas/2HOO

>  <Rbt.Executable>
rbdock ($Id: //depot/dev/client3/rdock/2013.1/src/exe/rbdock.cxx#4 $)

>  <Rbt.Library>
libRbt.so (2013.1, Build901 2013/11/27)

>  <Rbt.Parameter_File>
/export/apps/rDock/src/rDock_2013.1_src/data/scripts/dock_solv.prm

>  <Rbt.Receptor>
prm/pocket_docking_3.prm

>  <SCORE>
-26.5546

>  <SCORE.INTER>
-10.001

>  <SCORE.INTER.CONST>
1

>  <SCORE.INTER.POLAR>
0

>  <SCORE.INTER.ROT>
12

>  <SCORE.INTER.SOLV>
13.6586

>  <SCORE.INTER.VDW>
-22.8202

>  <SCORE.INTER.norm>
-0.322614

>  <SCORE.INTRA>
-16.5622

>  <SCORE.INTRA.DIHEDRAL>
3.51045

>  <SCORE.INTRA.DIHEDRAL.0>
14.6094

>  <SCORE.INTRA.POLAR>
0

>  <SCORE.INTRA.POLAR.0>
0

>  <SCORE.INTRA.REPUL>
0

>  <SCORE.INTRA.REPUL.0>
0

>  <SCORE.INTRA.SOLV>
0.147749

>  <SCORE.INTRA.SOLV.lig_0>
-65.6478

>  <SCORE.INTRA.VDW>
-18.3913

>  <SCORE.INTRA.VDW.0>
9.35535

>  <SCORE.INTRA.norm>
-0.534265

>  <SCORE.RESTR>
0.00866208

>  <SCORE.RESTR.CAVITY>
0.00866208

>  <SCORE.RESTR.norm>
0.000279422

>  <SCORE.SYSTEM>
0

>  <SCORE.SYSTEM.CONST>
0

>  <SCORE.SYSTEM.DIHEDRAL>
0

>  <SCORE.SYSTEM.SOLV>
0

>  <SCORE.SYSTEM.norm>
0

>  <SCORE.heavy>
31

>  <SCORE.norm>
-0.8566

>  <RMSD>
6.052

$$$$
ligand
 OpenBabel11021811443D
libRbt.so/2013.1/901 2013/11/27
 31 32  0  0  0  0  0  0  0  0999 V2000
    3.9455   17.5670   50.5009 C   0  0  0  0  0  0  0  0  0  0  0  0
    2.8365   16.6118   50.9320 C   0  0  0  0  0  0  0  0  0  0  0  0
    1.5287   17.1161   51.2279 C   0  0  0  0  0  0  0  0  0  0  0  0
    0.5049   16.2253   51.6306 C   0  0  0  0  0  0  0  0  0  0  0  0
    0.7609   14.8363   51.7370 C   0  0  0  0  0  0  0  0  0  0  0  0
    2.0402   14.3218   51.4438 C   0  0  0  0  0  0  0  0  0  0  0  0
    3.0713   15.1907   51.0438 C   0  0  0  0  0  0  0  0  0  0  0  0
    4.1473   17.7741   49.3047 O   0  0  0  0  0  0  0  0  0  0  0  0
    7.9897   26.3831   52.2845 C   0  0  0  0  0  0  0  0  0  0  0  0
    7.4673   17.4283   53.2006 C   0  0  0  0  0  0  0  0  0  0  0  0
    9.7777   17.7143   49.2470 P   0  0  1  0  0  0  0  0  0  0  0  0
    7.2686   24.1730   51.7101 N   0  0  0  0  0  0  0  0  0  0  0  0
   10.5092   16.8654   48.2873 O   0  0  0  0  0  0  0  0  0  0  0  0
    4.7325   18.2057   51.4434 S   0  0  0  0  0  0  0  0  0  0  0  0
    7.1544   20.0351   54.4697 C   0  0  0  0  0  0  0  0  0  0  0  0
    8.1919   24.9429   52.3808 C   0  0  0  0  0  0  0  0  0  0  0  0
   10.3558   17.7388   50.6178 O   0  5  0  0  0  0  0  0  0  0  0  0
    7.5056   19.9190   53.1650 N   0  0  0  0  0  0  0  0  0  0  0  0
    9.1840   24.4592   53.0604 N   0  0  0  0  0  0  0  0  0  0  0  0
    9.5600   19.0633   48.6750 O   0  0  0  0  0  0  0  0  0  0  0  0
    7.0432   18.6914   52.5014 C   0  0  2  0  0  0  0  0  0  0  0  0
    9.3738   23.0930   53.1420 C   0  0  0  0  0  0  0  0  0  0  0  0
   10.4090   22.6301   53.8471 N   0  0  0  0  0  0  0  0  0  0  0  0
    6.2277   18.5972   51.2944 C   0  0  1  0  0  0  0  0  0  0  0  0
    8.4447   22.2112   52.4528 C   0  0  0  0  0  0  0  0  0  0  0  0
    6.4942   21.0274   54.6865 O   0  0  0  0  0  0  0  0  0  0  0  0
    6.7387   18.8409   49.9188 C   0  0  0  0  0  0  0  0  0  0  0  0
    7.4183   22.8262   51.7650 C   0  0  0  0  0  0  0  0  0  0  0  0
    7.0991   17.7033   49.0635 C   0  0  0  0  0  0  0  0  0  0  0  0
    8.6256   20.7129   52.4693 C   0  0  0  0  0  0  0  0  0  0  0  0
    8.3452   17.1201   49.4831 O   0  0  0  0  0  0  0  0  0  0  0  0
  1  2  1  0  0  0  0
  1  8  2  0  0  0  0
  1 14  1  0  0  0  0
  2  3  2  0  0  0  0
  2  7  1  0  0  0  0
  3  4  1  0  0  0  0
  4  5  2  0  0  0  0
  5  6  1  0  0  0  0
  6  7  2  0  0  0  0
  9 16  1  0  0  0  0
 10 21  1  0  0  0  0
 11 13  1  6  0  0  0
 11 17  1  0  0  0  0
 11 20  2  0  0  0  0
 11 31  1  0  0  0  0
 12 16  2  0  0  0  0
 12 28  1  0  0  0  0
 15 26  1  0  0  0  0
 15 18  1  0  0  0  0
 16 19  1  0  0  0  0
 18 30  1  0  0  0  0
 19 22  2  0  0  0  0
 21 18  1  1  0  0  0
 21 24  1  0  0  0  0
 22 23  1  0  0  0  0
 22 25  1  0  0  0  0
 24 14  1  6  0  0  0
 24 27  1  0  0  0  0
 25 28  2  0  0  0  0
 25 30  1  0  0  0  0
 27 29  1  0  0  0  0
 29 31  1  0  0  0  0
M  CHG  1  17  -1
M  END
>  <CHROM.1>
-93.12042567,147.26637814,-152.66592977,-120.99784704,-55.20312001,-61.20973725
73.64118589,-80.15912628,116.14525735,-74.57824188,-75.08614977,-111.29225178
6.80257708,19.27053013,51.39113721,2.29517260,-0.32902700,-2.64219258

>  <Name>
ligand

>  <RI>
0

>  <Rbt.Current_Directory>
/home/itssahil/PROJECTS/Mol_Feturizer/New_Systems/rnas/2HOO

>  <Rbt.Executable>
rbdock ($Id: //depot/dev/client3/rdock/2013.1/src/exe/rbdock.cxx#4 $)

>  <Rbt.Library>
libRbt.so (2013.1, Build901 2013/11/27)

>  <Rbt.Parameter_File>
/export/apps/rDock/src/rDock_2013.1_src/data/scripts/dock_solv.prm

>  <Rbt.Receptor>
prm/blind_docking_80.prm

>  <SCORE>
-27.1788

>  <SCORE.INTER>
-19.6557

>  <SCORE.INTER.CONST>
1

>  <SCORE.INTER.POLAR>
0

>  <SCORE.INTER.ROT>
12

>  <SCORE.INTER.SOLV>
25.7133

>  <SCORE.INTER.VDW>
-33.2749

>  <SCORE.INTER.norm>
-0.634054

>  <SCORE.INTRA>
-7.52309

>  <SCORE.INTRA.DIHEDRAL>
5.18094

>  <SCORE.INTRA.DIHEDRAL.0>
14.6094

>  <SCORE.INTRA.POLAR>
0

>  <SCORE.INTRA.POLAR.0>
0

>  <SCORE.INTRA.REPUL>
0

>  <SCORE.INTRA.REPUL.0>
0

>  <SCORE.INTRA.SOLV>
3.98778

>  <SCORE.INTRA.SOLV.lig_0>
-65.6478

>  <SCORE.INTRA.VDW>
-12.1074

>  <SCORE.INTRA.VDW.0>
9.35535

>  <SCORE.INTRA.norm>
-0.24268

>  <SCORE.RESTR>
0

>  <SCORE.RESTR.CAVITY>
0

>  <SCORE.RESTR.norm>
0

>  <SCORE.SYSTEM>
0

>  <SCORE.SYSTEM.CONST>
0

>  <SCORE.SYSTEM.DIHEDRAL>
0

>  <SCORE.SYSTEM.SOLV>
0

>  <SCORE.SYSTEM.norm>
0

>  <SCORE.heavy>
31

>  <SCORE.norm>
-0.876734

>  <RMSD>
6.054

$$$$
ligand
 OpenBabel11021811443D
libRbt.so/2013.1/901 2013/11/27
 31 32  0  0  0  0  0  0  0  0999 V2000
   -0.1283   19.0130   52.4440 C   0  0  0  0  0  0  0  0  0  0  0  0
    0.4581   17.6829   51.9805 C   0  0  0  0  0  0  0  0  0  0  0  0
    1.4855   17.6594   50.9825 C   0  0  0  0  0  0  0  0  0  0  0  0
    2.0232   16.4220   50.5541 C   0  0  0  0  0  0  0  0  0  0  0  0
    1.5585   15.2049   51.1101 C   0  0  0  0  0  0  0  0  0  0  0  0
    0.5524   15.2095   52.0976 C   0  0  0  0  0  0  0  0  0  0  0  0
    0.0042   16.4285   52.5351 C   0  0  0  0  0  0  0  0  0  0  0  0
   -1.3270   19.2436   52.2880 O   0  0  0  0  0  0  0  0  0  0  0  0
    8.7543   24.6404   52.8288 C   0  0  0  0  0  0  0  0  0  0  0  0
    3.0457   21.0111   51.6253 C   0  0  0  0  0  0  0  0  0  0  0  0
   -2.2262   25.1186   53.0101 P   0  0  1  0  0  0  0  0  0  0  0  0
    6.6522   23.9471   51.9148 N   0  0  0  0  0  0  0  0  0  0  0  0
   -3.0457   26.0514   52.2132 O   0  0  0  0  0  0  0  0  0  0  0  0
    0.6759   19.9692   53.0397 S   0  0  0  0  0  0  0  0  0  0  0  0
    1.8466   24.0681   50.9650 C   0  0  0  0  0  0  0  0  0  0  0  0
    7.3087   24.5281   52.9763 C   0  0  0  0  0  0  0  0  0  0  0  0
   -1.3986   25.7664   54.0634 O   0  5  0  0  0  0  0  0  0  0  0  0
    2.4154   23.3929   51.9944 N   0  0  0  0  0  0  0  0  0  0  0  0
    6.7188   24.9572   54.0477 N   0  0  0  0  0  0  0  0  0  0  0  0
   -3.0636   24.0076   53.5189 O   0  0  0  0  0  0  0  0  0  0  0  0
    2.0097   21.9853   52.1171 C   0  0  2  0  0  0  0  0  0  0  0  0
    5.3486   24.8415   54.1840 C   0  0  0  0  0  0  0  0  0  0  0  0
    4.7751   25.2904   55.3032 N   0  0  0  0  0  0  0  0  0  0  0  0
    0.7588   21.4751   52.6701 C   0  0  1  0  0  0  0  0  0  0  0  0
    4.5837   24.2304   53.1082 C   0  0  0  0  0  0  0  0  0  0  0  0
    2.2970   23.7404   49.8893 O   0  0  0  0  0  0  0  0  0  0  0  0
   -0.4561   22.3038   52.8940 C   0  0  0  0  0  0  0  0  0  0  0  0
    5.3058   23.8149   52.0079 C   0  0  0  0  0  0  0  0  0  0  0  0
   -1.0474   23.0470   51.7743 C   0  0  0  0  0  0  0  0  0  0  0  0
    3.0909   24.0371   53.2181 C   0  0  0  0  0  0  0  0  0  0  0  0
   -1.1513   24.4473   52.0855 O   0  0  0  0  0  0  0  0  0  0  0  0
  1  2  1  0  0  0  0
  1  8  2  0  0  0  0
  1 14  1  0  0  0  0
  2  3  2  0  0  0  0
  2  7  1  0  0  0  0
  3  4  1  0  0  0  0
  4  5  2  0  0  0  0
  5  6  1  0  0  0  0
  6  7  2  0  0  0  0
  9 16  1  0  0  0  0
 10 21  1  0  0  0  0
 11 13  1  6  0  0  0
 11 17  1  0  0  0  0
 11 20  2  0  0  0  0
 11 31  1  0  0  0  0
 12 16  2  0  0  0  0
 12 28  1  0  0  0  0
 15 26  1  0  0  0  0
 15 18  1  0  0  0  0
 16 19  1  0  0  0  0
 18 30  1  0  0  0  0
 19 22  2  0  0  0  0
 21 18  1  1  0  0  0
 21 24  1  0  0  0  0
 22 23  1  0  0  0  0
 22 25  1  0  0  0  0
 24 14  1  6  0  0  0
 24 27  1  0  0  0  0
 25 28  2  0  0  0  0
 25 30  1  0  0  0  0
 27 29  1  0  0  0  0
 29 31  1  0  0  0  0
M  CHG  1  17  -1
M  END
>  <CHROM.1>
118.95498879,130.49130518,-114.47330167,-72.96663855,103.40986569,-93.65171582
14.22614817,-123.23383541,179.28366865,-124.28510020,-77.02346285,-116.72404031
1.57081951,22.25325466,52.48767702,-2.26591320,-0.00729821,0.16011503

>  <Name>
ligand

>  <RI>
0

>  <Rbt.Current_Directory>
/home/itssahil/PROJECTS/Mol_Feturizer/New_Systems/rnas/2HOO

>  <Rbt.Executable>
rbdock ($Id: //depot/dev/client3/rdock/2013.1/src/exe/rbdock.cxx#4 $)

>  <Rbt.Library>
libRbt.so (2013.1, Build901 2013/11/27)

>  <Rbt.Parameter_File>
/export/apps/rDock/src/rDock_2013.1_src/data/scripts/dock_solv.prm

>  <Rbt.Receptor>
prm/pocket_docking_8.prm

>  <SCORE>
-26.366

>  <SCORE.INTER>
-19.8506

>  <SCORE.INTER.CONST>
1

>  <SCORE.INTER.POLAR>
0

>  <SCORE.INTER.ROT>
12

>  <SCORE.INTER.SOLV>
22.5486

>  <SCORE.INTER.VDW>
-32.3499

>  <SCORE.INTER.norm>
-0.640341

>  <SCORE.INTRA>
-6.52615

>  <SCORE.INTRA.DIHEDRAL>
9.52825

>  <SCORE.INTRA.DIHEDRAL.0>
14.6094

>  <SCORE.INTRA.POLAR>
0

>  <SCORE.INTRA.POLAR.0>
0

>  <SCORE.INTRA.REPUL>
0

>  <SCORE.INTRA.REPUL.0>
0

>  <SCORE.INTRA.SOLV>
0.900534

>  <SCORE.INTRA.SOLV.lig_0>
-65.6478

>  <SCORE.INTRA.VDW>
-11.7405

>  <SCORE.INTRA.VDW.0>
9.35535

>  <SCORE.INTRA.norm>
-0.210521

>  <SCORE.RESTR>
0.0107079

>  <SCORE.RESTR.CAVITY>
0.0107079

>  <SCORE.RESTR.norm>
0.000345415

>  <SCORE.SYSTEM>
0

>  <SCORE.SYSTEM.CONST>
0

>  <SCORE.SYSTEM.DIHEDRAL>
0

>  <SCORE.SYSTEM.SOLV>
0

>  <SCORE.SYSTEM.norm>
0

>  <SCORE.heavy>
31

>  <SCORE.norm>
-0.850517

>  <RMSD>
6.088

$$$$
ligand
 OpenBabel11021811443D
libRbt.so/2013.1/901 2013/11/27
 31 32  0  0  0  0  0  0  0  0999 V2000
    6.3508   21.4592   53.4489 C   0  0  0  0  0  0  0  0  0  0  0  0
    7.0528   22.7281   52.9745 C   0  0  0  0  0  0  0  0  0  0  0  0
    8.4383   22.9370   53.2727 C   0  0  0  0  0  0  0  0  0  0  0  0
    9.0832   24.1178   52.8327 C   0  0  0  0  0  0  0  0  0  0  0  0
    8.3709   25.0932   52.0927 C   0  0  0  0  0  0  0  0  0  0  0  0
    7.0086   24.9014   51.7849 C   0  0  0  0  0  0  0  0  0  0  0  0
    6.3495   23.7357   52.2147 C   0  0  0  0  0  0  0  0  0  0  0  0
    6.1726   21.2687   54.6516 O   0  0  0  0  0  0  0  0  0  0  0  0
   10.1381   15.3553   46.6511 C   0  0  0  0  0  0  0  0  0  0  0  0
    7.1301   17.0710   52.2562 C   0  0  0  0  0  0  0  0  0  0  0  0
    1.7427   16.9609   55.6952 P   0  0  1  0  0  0  0  0  0  0  0  0
    7.9699   15.6394   47.6271 N   0  0  0  0  0  0  0  0  0  0  0  0
    1.5856   16.9043   57.1611 O   0  0  0  0  0  0  0  0  0  0  0  0
    5.9108   20.5140   52.5386 S   0  0  0  0  0  0  0  0  0  0  0  0
    4.2694   17.2983   50.4241 C   0  0  0  0  0  0  0  0  0  0  0  0
    9.1816   16.2210   47.3292 C   0  0  0  0  0  0  0  0  0  0  0  0
    1.9181   15.6365   55.0398 O   0  5  0  0  0  0  0  0  0  0  0  0
    5.5213   17.8132   50.5048 N   0  0  0  0  0  0  0  0  0  0  0  0
    9.4879   17.4476   47.6149 N   0  0  0  0  0  0  0  0  0  0  0  0
    0.6615   17.7766   55.0953 O   0  0  0  0  0  0  0  0  0  0  0  0
    6.0252   18.0169   51.8707 C   0  0  2  0  0  0  0  0  0  0  0  0
    8.5787   18.2610   48.2640 C   0  0  0  0  0  0  0  0  0  0  0  0
    8.9298   19.5179   48.5464 N   0  0  0  0  0  0  0  0  0  0  0  0
    5.5837   19.0244   52.8304 C   0  0  1  0  0  0  0  0  0  0  0  0
    7.2776   17.7171   48.6208 C   0  0  0  0  0  0  0  0  0  0  0  0
    3.4133   18.1553   50.4319 O   0  0  0  0  0  0  0  0  0  0  0  0
    4.8464   18.7175   54.0854 C   0  0  0  0  0  0  0  0  0  0  0  0
    7.0483   16.4037   48.2641 C   0  0  0  0  0  0  0  0  0  0  0  0
    3.5671   17.9998   54.0217 C   0  0  0  0  0  0  0  0  0  0  0  0
    6.2599   18.5432   49.3689 C   0  0  0  0  0  0  0  0  0  0  0  0
    3.0779   17.7046   55.3416 O   0  0  0  0  0  0  0  0  0  0  0  0
  1  2  1  0  0  0  0
  1  8  2  0  0  0  0
  1 14  1  0  0  0  0
  2  3  2  0  0  0  0
  2  7  1  0  0  0  0
  3  4  1  0  0  0  0
  4  5  2  0  0  0  0
  5  6  1  0  0  0  0
  6  7  2  0  0  0  0
  9 16  1  0  0  0  0
 10 21  1  0  0  0  0
 11 13  1  1  0  0  0
 11 17  1  0  0  0  0
 11 20  2  0  0  0  0
 11 31  1  0  0  0  0
 12 16  2  0  0  0  0
 12 28  1  0  0  0  0
 15 26  1  0  0  0  0
 15 18  1  0  0  0  0
 16 19  1  0  0  0  0
 18 30  1  0  0  0  0
 19 22  2  0  0  0  0
 21 18  1  6  0  0  0
 21 24  1  0  0  0  0
 22 23  1  0  0  0  0
 22 25  1  0  0  0  0
 24 14  1  1  0  0  0
 24 27  1  0  0  0  0
 25 28  2  0  0  0  0
 25 30  1  0  0  0  0
 27 29  1  0  0  0  0
 29 31  1  0  0  0  0
M  CHG  1  17  -1
M  END
>  <CHROM.1>
67.14449818,160.10398246,-137.93042427,88.31733388,110.01000743,-100.66664523
110.17603166,122.64896743,-137.00724330,175.09680637,179.53447317,-177.90813272
5.77707148,18.89758624,51.98149825,-2.81560456,-0.77975692,-2.59991278

>  <Name>
ligand

>  <RI>
0

>  <Rbt.Current_Directory>
/home/itssahil/PROJECTS/Mol_Feturizer/New_Systems/rnas/2HOO

>  <Rbt.Executable>
rbdock ($Id: //depot/dev/client3/rdock/2013.1/src/exe/rbdock.cxx#4 $)

>  <Rbt.Library>
libRbt.so (2013.1, Build901 2013/11/27)

>  <Rbt.Parameter_File>
/export/apps/rDock/src/rDock_2013.1_src/data/scripts/dock_solv.prm

>  <Rbt.Receptor>
prm/pocket_docking_7.prm

>  <SCORE>
-28.0269

>  <SCORE.INTER>
-13.2284

>  <SCORE.INTER.CONST>
1

>  <SCORE.INTER.POLAR>
0

>  <SCORE.INTER.ROT>
12

>  <SCORE.INTER.SOLV>
18.4358

>  <SCORE.INTER.VDW>
-26.5642

>  <SCORE.INTER.norm>
-0.426723

>  <SCORE.INTRA>
-14.7985

>  <SCORE.INTRA.DIHEDRAL>
-1.79288

>  <SCORE.INTRA.DIHEDRAL.0>
14.6094

>  <SCORE.INTRA.POLAR>
0

>  <SCORE.INTRA.POLAR.0>
0

>  <SCORE.INTRA.REPUL>
0

>  <SCORE.INTRA.REPUL.0>
0

>  <SCORE.INTRA.SOLV>
-0.0872442

>  <SCORE.INTRA.SOLV.lig_0>
-65.6478

>  <SCORE.INTRA.VDW>
-13.8584

>  <SCORE.INTRA.VDW.0>
9.35535

>  <SCORE.INTRA.norm>
-0.47737

>  <SCORE.RESTR>
0

>  <SCORE.RESTR.CAVITY>
0

>  <SCORE.RESTR.norm>
0

>  <SCORE.SYSTEM>
0

>  <SCORE.SYSTEM.CONST>
0

>  <SCORE.SYSTEM.DIHEDRAL>
0

>  <SCORE.SYSTEM.SOLV>
0

>  <SCORE.SYSTEM.norm>
0

>  <SCORE.heavy>
31

>  <SCORE.norm>
-0.904094

>  <RMSD>
6.133

$$$$
ligand
 OpenBabel11021811443D
libRbt.so/2013.1/901 2013/11/27
 31 32  0  0  0  0  0  0  0  0999 V2000
    8.3995   18.4754   54.5491 C   0  0  0  0  0  0  0  0  0  0  0  0
    9.5769   19.3932   54.2339 C   0  0  0  0  0  0  0  0  0  0  0  0
   10.8913   18.8465   54.0737 C   0  0  0  0  0  0  0  0  0  0  0  0
   11.9802   19.7035   53.7847 C   0  0  0  0  0  0  0  0  0  0  0  0
   11.7799   21.0987   53.6453 C   0  0  0  0  0  0  0  0  0  0  0  0
   10.4924   21.6533   53.7936 C   0  0  0  0  0  0  0  0  0  0  0  0
    9.3979   20.8187   54.0827 C   0  0  0  0  0  0  0  0  0  0  0  0
    8.5952   17.3918   55.0987 O   0  0  0  0  0  0  0  0  0  0  0  0
    6.3039   18.4448   44.7562 C   0  0  0  0  0  0  0  0  0  0  0  0
    6.7354   17.1536   51.1877 C   0  0  0  0  0  0  0  0  0  0  0  0
    2.9035   18.1332   54.0464 P   0  0  1  0  0  0  0  0  0  0  0  0
    6.2733   18.2830   47.1451 N   0  0  0  0  0  0  0  0  0  0  0  0
    4.1711   17.8329   54.7391 O   0  0  0  0  0  0  0  0  0  0  0  0
    7.1073   18.8477   54.2213 S   0  0  0  0  0  0  0  0  0  0  0  0
    9.4518   18.2269   50.8771 C   0  0  0  0  0  0  0  0  0  0  0  0
    6.7759   18.9383   46.0437 C   0  0  0  0  0  0  0  0  0  0  0  0
    2.4423   17.0713   53.1116 O   0  5  0  0  0  0  0  0  0  0  0  0
    8.3548   19.0238   50.8939 N   0  0  0  0  0  0  0  0  0  0  0  0
    7.6109   19.9277   46.1061 N   0  0  0  0  0  0  0  0  0  0  0  0
    1.8708   18.5463   55.0247 O   0  0  0  0  0  0  0  0  0  0  0  0
    7.2146   18.4997   51.6596 C   0  0  2  0  0  0  0  0  0  0  0  0
    8.0596   20.3863   47.3299 C   0  0  0  0  0  0  0  0  0  0  0  0
    8.9228   21.4046   47.3561 N   0  0  0  0  0  0  0  0  0  0  0  0
    6.5545   19.1310   52.7982 C   0  0  1  0  0  0  0  0  0  0  0  0
    7.5810   19.7398   48.5419 C   0  0  0  0  0  0  0  0  0  0  0  0
    9.5609   17.6086   49.8410 O   0  0  0  0  0  0  0  0  0  0  0  0
    5.3707   20.0251   52.6882 C   0  0  0  0  0  0  0  0  0  0  0  0
    6.6881   18.7022   48.3664 C   0  0  0  0  0  0  0  0  0  0  0  0
    4.1263   19.5168   52.0974 C   0  0  0  0  0  0  0  0  0  0  0  0
    8.0686   20.1676   49.9046 C   0  0  0  0  0  0  0  0  0  0  0  0
    3.1057   19.3676   53.0998 O   0  0  0  0  0  0  0  0  0  0  0  0
  1  2  1  0  0  0  0
  1  8  2  0  0  0  0
  1 14  1  0  0  0  0
  2  3  2  0  0  0  0
  2  7  1  0  0  0  0
  3  4  1  0  0  0  0
  4  5  2  0  0  0  0
  5  6  1  0  0  0  0
  6  7  2  0  0  0  0
  9 16  1  0  0  0  0
 10 21  1  0  0  0  0
 11 13  1  1  0  0  0
 11 17  1  0  0  0  0
 11 20  2  0  0  0  0
 11 31  1  0  0  0  0
 12 16  2  0  0  0  0
 12 28  1  0  0  0  0
 15 26  1  0  0  0  0
 15 18  1  0  0  0  0
 16 19  1  0  0  0  0
 18 30  1  0  0  0  0
 19 22  2  0  0  0  0
 21 18  1  1  0  0  0
 21 24  1  0  0  0  0
 22 23  1  0  0  0  0
 22 25  1  0  0  0  0
 24 14  1  1  0  0  0
 24 27  1  0  0  0  0
 25 28  2  0  0  0  0
 25 30  1  0  0  0  0
 27 29  1  0  0  0  0
 29 31  1  0  0  0  0
M  CHG  1  17  -1
M  END
>  <CHROM.1>
24.46766472,61.45607642,25.16605405,101.77439365,-57.70156368,77.01373787
90.45090203,-119.43778747,-138.89661204,109.72545093,-84.42479241,52.79167169
6.97668426,18.99508957,51.68253155,-2.01523101,-0.20808782,-1.52921721

>  <Name>
ligand

>  <RI>
0

>  <Rbt.Current_Directory>
/home/itssahil/PROJECTS/Mol_Feturizer/New_Systems/rnas/2HOO

>  <Rbt.Executable>
rbdock ($Id: //depot/dev/client3/rdock/2013.1/src/exe/rbdock.cxx#4 $)

>  <Rbt.Library>
libRbt.so (2013.1, Build901 2013/11/27)

>  <Rbt.Parameter_File>
/export/apps/rDock/src/rDock_2013.1_src/data/scripts/dock_solv.prm

>  <Rbt.Receptor>
prm/blind_docking_60.prm

>  <SCORE>
-24.6219

>  <SCORE.INTER>
-14.327

>  <SCORE.INTER.CONST>
1

>  <SCORE.INTER.POLAR>
0

>  <SCORE.INTER.ROT>
12

>  <SCORE.INTER.SOLV>
22.982

>  <SCORE.INTER.VDW>
-28.812

>  <SCORE.INTER.norm>
-0.462162

>  <SCORE.INTRA>
-10.2949

>  <SCORE.INTRA.DIHEDRAL>
8.01922

>  <SCORE.INTRA.DIHEDRAL.0>
14.6094

>  <SCORE.INTRA.POLAR>
0

>  <SCORE.INTRA.POLAR.0>
0

>  <SCORE.INTRA.REPUL>
0

>  <SCORE.INTRA.REPUL.0>
0

>  <SCORE.INTRA.SOLV>
0.270802

>  <SCORE.INTRA.SOLV.lig_0>
-65.6478

>  <SCORE.INTRA.VDW>
-14.4399

>  <SCORE.INTRA.VDW.0>
9.35535

>  <SCORE.INTRA.norm>
-0.332093

>  <SCORE.RESTR>
0

>  <SCORE.RESTR.CAVITY>
0

>  <SCORE.RESTR.norm>
0

>  <SCORE.SYSTEM>
0

>  <SCORE.SYSTEM.CONST>
0

>  <SCORE.SYSTEM.DIHEDRAL>
0

>  <SCORE.SYSTEM.SOLV>
0

>  <SCORE.SYSTEM.norm>
0

>  <SCORE.heavy>
31

>  <SCORE.norm>
-0.794255

>  <RMSD>
6.185

$$$$
ligand
 OpenBabel11021811443D
libRbt.so/2013.1/901 2013/11/27
 31 32  0  0  0  0  0  0  0  0999 V2000
    3.8485   19.4003   51.2299 C   0  0  0  0  0  0  0  0  0  0  0  0
    2.3997   19.0757   51.5816 C   0  0  0  0  0  0  0  0  0  0  0  0
    1.6134   20.0140   52.3256 C   0  0  0  0  0  0  0  0  0  0  0  0
    0.2709   19.7056   52.6517 C   0  0  0  0  0  0  0  0  0  0  0  0
   -0.3050   18.4782   52.2418 C   0  0  0  0  0  0  0  0  0  0  0  0
    0.4520   17.5457   51.5038 C   0  0  0  0  0  0  0  0  0  0  0  0
    1.7882   17.8327   51.1715 C   0  0  0  0  0  0  0  0  0  0  0  0
    4.5039   20.1481   51.9549 O   0  0  0  0  0  0  0  0  0  0  0  0
    7.1836   23.4699   53.3407 C   0  0  0  0  0  0  0  0  0  0  0  0
    7.0363   15.8872   49.8189 C   0  0  0  0  0  0  0  0  0  0  0  0
    4.4010   14.2886   46.7188 P   0  0  1  0  0  0  0  0  0  0  0  0
    7.4314   22.2841   51.2751 N   0  0  0  0  0  0  0  0  0  0  0  0
    3.4766   13.1549   46.9113 O   0  0  0  0  0  0  0  0  0  0  0  0
    4.4374   18.8623   50.0988 S   0  0  0  0  0  0  0  0  0  0  0  0
    7.0722   19.0372   48.2417 C   0  0  0  0  0  0  0  0  0  0  0  0
    7.4876   22.2235   52.6492 C   0  0  0  0  0  0  0  0  0  0  0  0
    5.8001   13.8986   46.3959 O   0  5  0  0  0  0  0  0  0  0  0  0
    7.3908   18.3058   49.3382 N   0  0  0  0  0  0  0  0  0  0  0  0
    7.7855   21.1533   53.3171 N   0  0  0  0  0  0  0  0  0  0  0  0
    3.8250   15.2623   45.7625 O   0  0  0  0  0  0  0  0  0  0  0  0
    6.4241   17.2558   49.6902 C   0  0  2  0  0  0  0  0  0  0  0  0
    8.0792   19.9765   52.6549 C   0  0  0  0  0  0  0  0  0  0  0  0
    8.3861   18.8947   53.3749 N   0  0  0  0  0  0  0  0  0  0  0  0
    4.9951   17.4221   49.9369 C   0  0  1  0  0  0  0  0  0  0  0  0
    8.0496   19.9613   51.2007 C   0  0  0  0  0  0  0  0  0  0  0  0
    6.8976   18.3499   47.2595 O   0  0  0  0  0  0  0  0  0  0  0  0
    4.0305   16.2961   50.0569 C   0  0  0  0  0  0  0  0  0  0  0  0
    7.7125   21.1503   50.5863 C   0  0  0  0  0  0  0  0  0  0  0  0
    3.5006   15.6585   48.8451 C   0  0  0  0  0  0  0  0  0  0  0  0
    8.4035   18.7182   50.4214 C   0  0  0  0  0  0  0  0  0  0  0  0
    4.5593   15.0684   48.0708 O   0  0  0  0  0  0  0  0  0  0  0  0
  1  2  1  0  0  0  0
  1  8  2  0  0  0  0
  1 14  1  0  0  0  0
  2  3  2  0  0  0  0
  2  7  1  0  0  0  0
  3  4  1  0  0  0  0
  4  5  2  0  0  0  0
  5  6  1  0  0  0  0
  6  7  2  0  0  0  0
  9 16  1  0  0  0  0
 10 21  1  0  0  0  0
 11 13  1  1  0  0  0
 11 17  1  0  0  0  0
 11 20  2  0  0  0  0
 11 31  1  0  0  0  0
 12 16  2  0  0  0  0
 12 28  1  0  0  0  0
 15 26  1  0  0  0  0
 15 18  1  0  0  0  0
 16 19  1  0  0  0  0
 18 30  1  0  0  0  0
 19 22  2  0  0  0  0
 21 18  1  1  0  0  0
 21 24  1  0  0  0  0
 22 23  1  0  0  0  0
 22 25  1  0  0  0  0
 24 14  1  1  0  0  0
 24 27  1  0  0  0  0
 25 28  2  0  0  0  0
 25 30  1  0  0  0  0
 27 29  1  0  0  0  0
 29 31  1  0  0  0  0
M  CHG  1  17  -1
M  END
>  <CHROM.1>
27.97659201,-78.50482950,-116.51637791,-55.91329613,125.76830798,63.29688953
167.15776465,99.75944991,130.05177220,61.48341262,179.53912428,-56.96687517
5.13737982,18.10772966,50.06926781,1.25935197,0.21640672,0.73485397

>  <Name>
ligand

>  <RI>
0

>  <Rbt.Current_Directory>
/home/itssahil/PROJECTS/Mol_Feturizer/New_Systems/rnas/2HOO

>  <Rbt.Executable>
rbdock ($Id: //depot/dev/client3/rdock/2013.1/src/exe/rbdock.cxx#4 $)

>  <Rbt.Library>
libRbt.so (2013.1, Build901 2013/11/27)

>  <Rbt.Parameter_File>
/export/apps/rDock/src/rDock_2013.1_src/data/scripts/dock_solv.prm

>  <Rbt.Receptor>
prm/pocket_docking_4.prm

>  <SCORE>
-25.2532

>  <SCORE.INTER>
-12.8038

>  <SCORE.INTER.CONST>
1

>  <SCORE.INTER.POLAR>
0

>  <SCORE.INTER.ROT>
12

>  <SCORE.INTER.SOLV>
9.46685

>  <SCORE.INTER.VDW>
-23.2915

>  <SCORE.INTER.norm>
-0.413026

>  <SCORE.INTRA>
-12.4494

>  <SCORE.INTRA.DIHEDRAL>
1.2774

>  <SCORE.INTRA.DIHEDRAL.0>
14.6094

>  <SCORE.INTRA.POLAR>
0

>  <SCORE.INTRA.POLAR.0>
0

>  <SCORE.INTRA.REPUL>
0

>  <SCORE.INTRA.REPUL.0>
0

>  <SCORE.INTRA.SOLV>
0.129036

>  <SCORE.INTRA.SOLV.lig_0>
-65.6478

>  <SCORE.INTRA.VDW>
-13.1526

>  <SCORE.INTRA.VDW.0>
9.35535

>  <SCORE.INTRA.norm>
-0.401592

>  <SCORE.RESTR>
0

>  <SCORE.RESTR.CAVITY>
0

>  <SCORE.RESTR.norm>
0

>  <SCORE.SYSTEM>
0

>  <SCORE.SYSTEM.CONST>
0

>  <SCORE.SYSTEM.DIHEDRAL>
0

>  <SCORE.SYSTEM.SOLV>
0

>  <SCORE.SYSTEM.norm>
0

>  <SCORE.heavy>
31

>  <SCORE.norm>
-0.814618

>  <RMSD>
6.186

$$$$
ligand
 OpenBabel11021811443D
libRbt.so/2013.1/901 2013/11/27
 31 32  0  0  0  0  0  0  0  0999 V2000
    3.8002   17.7160   52.5562 C   0  0  0  0  0  0  0  0  0  0  0  0
    2.3113   17.3868   52.5053 C   0  0  0  0  0  0  0  0  0  0  0  0
    1.4471   18.1027   51.6148 C   0  0  0  0  0  0  0  0  0  0  0  0
    0.0660   17.7950   51.5746 C   0  0  0  0  0  0  0  0  0  0  0  0
   -0.4687   16.7786   52.4036 C   0  0  0  0  0  0  0  0  0  0  0  0
    0.3679   16.0597   53.2815 C   0  0  0  0  0  0  0  0  0  0  0  0
    1.7425   16.3518   53.3374 C   0  0  0  0  0  0  0  0  0  0  0  0
    4.3941   17.7107   53.6340 O   0  0  0  0  0  0  0  0  0  0  0  0
    5.1050   12.8191   48.3430 C   0  0  0  0  0  0  0  0  0  0  0  0
    7.8537   18.3167   51.9741 C   0  0  0  0  0  0  0  0  0  0  0  0
    4.1764   20.9121   55.1836 P   0  0  1  0  0  0  0  0  0  0  0  0
    5.8577   14.6434   49.6994 N   0  0  0  0  0  0  0  0  0  0  0  0
    5.4796   21.0816   55.8544 O   0  0  0  0  0  0  0  0  0  0  0  0
    4.4947   18.0236   51.3990 S   0  0  0  0  0  0  0  0  0  0  0  0
    7.6829   19.9969   48.9882 C   0  0  0  0  0  0  0  0  0  0  0  0
    5.9243   14.0171   48.4752 C   0  0  0  0  0  0  0  0  0  0  0  0
    3.3452   19.7997   55.7180 O   0  5  0  0  0  0  0  0  0  0  0  0
    7.5365   18.7691   49.5449 N   0  0  0  0  0  0  0  0  0  0  0  0
    6.6517   14.4324   47.4860 N   0  0  0  0  0  0  0  0  0  0  0  0
    3.4595   22.2069   55.1230 O   0  0  0  0  0  0  0  0  0  0  0  0
    6.9205   18.7587   50.8796 C   0  0  2  0  0  0  0  0  0  0  0  0
    7.4313   15.5653   47.6204 C   0  0  0  0  0  0  0  0  0  0  0  0
    8.1715   15.9615   46.5821 N   0  0  0  0  0  0  0  0  0  0  0  0
    5.5547   19.1442   51.2214 C   0  0  1  0  0  0  0  0  0  0  0  0
    7.4221   16.2794   48.8876 C   0  0  0  0  0  0  0  0  0  0  0  0
    8.7136   20.5386   49.3225 O   0  0  0  0  0  0  0  0  0  0  0  0
    5.1027   20.5501   51.4007 C   0  0  0  0  0  0  0  0  0  0  0  0
    6.6076   15.7599   49.8732 C   0  0  0  0  0  0  0  0  0  0  0  0
    5.2074   21.1863   52.7198 C   0  0  0  0  0  0  0  0  0  0  0  0
    8.2856   17.4974   49.1085 C   0  0  0  0  0  0  0  0  0  0  0  0
    4.4087   20.4883   53.6912 O   0  0  0  0  0  0  0  0  0  0  0  0
  1  2  1  0  0  0  0
  1  8  2  0  0  0  0
  1 14  1  0  0  0  0
  2  3  2  0  0  0  0
  2  7  1  0  0  0  0
  3  4  1  0  0  0  0
  4  5  2  0  0  0  0
  5  6  1  0  0  0  0
  6  7  2  0  0  0  0
  9 16  1  0  0  0  0
 10 21  1  0  0  0  0
 11 13  1  1  0  0  0
 11 17  1  0  0  0  0
 11 20  2  0  0  0  0
 11 31  1  0  0  0  0
 12 16  2  0  0  0  0
 12 28  1  0  0  0  0
 15 26  1  0  0  0  0
 15 18  1  0  0  0  0
 16 19  1  0  0  0  0
 18 30  1  0  0  0  0
 19 22  2  0  0  0  0
 21 18  1  1  0  0  0
 21 24  1  0  0  0  0
 22 23  1  0  0  0  0
 22 25  1  0  0  0  0
 24 14  1  6  0  0  0
 24 27  1  0  0  0  0
 25 28  2  0  0  0  0
 25 30  1  0  0  0  0
 27 29  1  0  0  0  0
 29 31  1  0  0  0  0
M  CHG  1  17  -1
M  END
>  <CHROM.1>
141.58102259,138.10780434,117.20022299,86.32849914,-113.21737319,-131.05560837
-82.27305804,92.23136929,124.08645005,-61.61466033,-175.44570843,-54.86930644
5.03177892,18.12197561,51.51096835,2.11144953,0.50241505,0.68249528

>  <Name>
ligand

>  <RI>
0

>  <Rbt.Current_Directory>
/home/itssahil/PROJECTS/Mol_Feturizer/New_Systems/rnas/2HOO

>  <Rbt.Executable>
rbdock ($Id: //depot/dev/client3/rdock/2013.1/src/exe/rbdock.cxx#4 $)

>  <Rbt.Library>
libRbt.so (2013.1, Build901 2013/11/27)

>  <Rbt.Parameter_File>
/export/apps/rDock/src/rDock_2013.1_src/data/scripts/dock_solv.prm

>  <Rbt.Receptor>
prm/pocket_docking_3.prm

>  <SCORE>
-17.1714

>  <SCORE.INTER>
-3.43789

>  <SCORE.INTER.CONST>
1

>  <SCORE.INTER.POLAR>
0

>  <SCORE.INTER.ROT>
12

>  <SCORE.INTER.SOLV>
10.4956

>  <SCORE.INTER.VDW>
-17.3905

>  <SCORE.INTER.norm>
-0.1109

>  <SCORE.INTRA>
-13.7445

>  <SCORE.INTRA.DIHEDRAL>
-0.0443166

>  <SCORE.INTRA.DIHEDRAL.0>
14.6094

>  <SCORE.INTRA.POLAR>
0

>  <SCORE.INTRA.POLAR.0>
0

>  <SCORE.INTRA.REPUL>
0

>  <SCORE.INTRA.REPUL.0>
0

>  <SCORE.INTRA.SOLV>
1.49218

>  <SCORE.INTRA.SOLV.lig_0>
-65.6478

>  <SCORE.INTRA.VDW>
-14.4685

>  <SCORE.INTRA.VDW.0>
9.35535

>  <SCORE.INTRA.norm>
-0.443372

>  <SCORE.RESTR>
0.010998

>  <SCORE.RESTR.CAVITY>
0.010998

>  <SCORE.RESTR.norm>
0.000354773

>  <SCORE.SYSTEM>
0

>  <SCORE.SYSTEM.CONST>
0

>  <SCORE.SYSTEM.DIHEDRAL>
0

>  <SCORE.SYSTEM.SOLV>
0

>  <SCORE.SYSTEM.norm>
0

>  <SCORE.heavy>
31

>  <SCORE.norm>
-0.553917

>  <RMSD>
6.196

$$$$
ligand
 OpenBabel11021811443D
libRbt.so/2013.1/901 2013/11/27
 31 32  0  0  0  0  0  0  0  0999 V2000
    3.6814   17.8738   50.2914 C   0  0  0  0  0  0  0  0  0  0  0  0
    2.5367   17.0637   50.8926 C   0  0  0  0  0  0  0  0  0  0  0  0
    2.7181   15.6739   51.1888 C   0  0  0  0  0  0  0  0  0  0  0  0
    1.6512   14.9269   51.7434 C   0  0  0  0  0  0  0  0  0  0  0  0
    0.4058   15.5445   52.0150 C   0  0  0  0  0  0  0  0  0  0  0  0
    0.2114   16.9125   51.7355 C   0  0  0  0  0  0  0  0  0  0  0  0
    1.2585   17.6714   51.1828 C   0  0  0  0  0  0  0  0  0  0  0  0
    4.1576   17.5507   49.2036 O   0  0  0  0  0  0  0  0  0  0  0  0
    7.7185   24.6022   52.1700 C   0  0  0  0  0  0  0  0  0  0  0  0
    6.3594   17.7937   53.8769 C   0  0  0  0  0  0  0  0  0  0  0  0
    8.6180   17.6714   48.6728 P   0  0  1  0  0  0  0  0  0  0  0  0
    7.5235   22.3634   52.9969 N   0  0  0  0  0  0  0  0  0  0  0  0
    7.6569   17.0683   47.7298 O   0  0  0  0  0  0  0  0  0  0  0  0
    4.1946   18.9725   50.9587 S   0  0  0  0  0  0  0  0  0  0  0  0
    3.3741   18.5124   54.4827 C   0  0  0  0  0  0  0  0  0  0  0  0
    6.9358   23.6034   52.8868 C   0  0  0  0  0  0  0  0  0  0  0  0
    8.7580   16.9445   49.9636 O   0  5  0  0  0  0  0  0  0  0  0  0
    4.4173   19.3243   54.1800 N   0  0  0  0  0  0  0  0  0  0  0  0
    5.7713   23.9005   53.3722 N   0  0  0  0  0  0  0  0  0  0  0  0
    9.9109   17.9233   47.9952 O   0  0  0  0  0  0  0  0  0  0  0  0
    5.3960   18.7584   53.2403 C   0  0  2  0  0  0  0  0  0  0  0  0
    5.0373   22.9507   54.0566 C   0  0  0  0  0  0  0  0  0  0  0  0
    3.8435   23.2931   54.5469 N   0  0  0  0  0  0  0  0  0  0  0  0
    5.4938   19.0208   51.8077 C   0  0  1  0  0  0  0  0  0  0  0  0
    5.5940   21.6171   54.2231 C   0  0  0  0  0  0  0  0  0  0  0  0
    2.4565   18.6238   53.6998 O   0  0  0  0  0  0  0  0  0  0  0  0
    6.7659   19.3218   51.0976 C   0  0  0  0  0  0  0  0  0  0  0  0
    6.8360   21.4015   53.6612 C   0  0  0  0  0  0  0  0  0  0  0  0
    6.7845   19.3828   49.6308 C   0  0  0  0  0  0  0  0  0  0  0  0
    4.8589   20.5509   54.9981 C   0  0  0  0  0  0  0  0  0  0  0  0
    8.0951   19.0808   49.1211 O   0  0  0  0  0  0  0  0  0  0  0  0
  1  2  1  0  0  0  0
  1  8  2  0  0  0  0
  1 14  1  0  0  0  0
  2  3  2  0  0  0  0
  2  7  1  0  0  0  0
  3  4  1  0  0  0  0
  4  5  2  0  0  0  0
  5  6  1  0  0  0  0
  6  7  2  0  0  0  0
  9 16  1  0  0  0  0
 10 21  1  0  0  0  0
 11 13  1  6  0  0  0
 11 17  1  0  0  0  0
 11 20  2  0  0  0  0
 11 31  1  0  0  0  0
 12 16  2  0  0  0  0
 12 28  1  0  0  0  0
 15 26  1  0  0  0  0
 15 18  1  0  0  0  0
 16 19  1  0  0  0  0
 18 30  1  0  0  0  0
 19 22  2  0  0  0  0
 21 18  1  6  0  0  0
 21 24  1  0  0  0  0
 22 23  1  0  0  0  0
 22 25  1  0  0  0  0
 24 14  1  6  0  0  0
 24 27  1  0  0  0  0
 25 28  2  0  0  0  0
 25 30  1  0  0  0  0
 27 29  1  0  0  0  0
 29 31  1  0  0  0  0
M  CHG  1  17  -1
M  END
>  <CHROM.1>
60.31589383,100.34650086,-91.73251007,-87.52005770,-79.11308428,-154.30588606
132.14384812,-8.06831249,115.86907114,-153.97211565,93.08979777,50.88025650
5.35851416,19.15739054,51.63499078,1.91846837,-0.48843974,-2.49037499

>  <Name>
ligand

>  <RI>
0

>  <Rbt.Current_Directory>
/home/itssahil/PROJECTS/Mol_Feturizer/New_Systems/rnas/2HOO

>  <Rbt.Executable>
rbdock ($Id: //depot/dev/client3/rdock/2013.1/src/exe/rbdock.cxx#4 $)

>  <Rbt.Library>
libRbt.so (2013.1, Build901 2013/11/27)

>  <Rbt.Parameter_File>
/export/apps/rDock/src/rDock_2013.1_src/data/scripts/dock_solv.prm

>  <Rbt.Receptor>
prm/pocket_docking_4.prm

>  <SCORE>
-20.6523

>  <SCORE.INTER>
-11.4611

>  <SCORE.INTER.CONST>
1

>  <SCORE.INTER.POLAR>
0

>  <SCORE.INTER.ROT>
12

>  <SCORE.INTER.SOLV>
15.1473

>  <SCORE.INTER.VDW>
-24.2898

>  <SCORE.INTER.norm>
-0.369713

>  <SCORE.INTRA>
-9.19576

>  <SCORE.INTRA.DIHEDRAL>
8.5084

>  <SCORE.INTRA.DIHEDRAL.0>
14.6094

>  <SCORE.INTRA.POLAR>
0

>  <SCORE.INTRA.POLAR.0>
0

>  <SCORE.INTRA.REPUL>
0

>  <SCORE.INTRA.REPUL.0>
0

>  <SCORE.INTRA.SOLV>
1.06319

>  <SCORE.INTRA.SOLV.lig_0>
-65.6478

>  <SCORE.INTRA.VDW>
-13.9816

>  <SCORE.INTRA.VDW.0>
9.35535

>  <SCORE.INTRA.norm>
-0.296637

>  <SCORE.RESTR>
0.00459213

>  <SCORE.RESTR.CAVITY>
0.00459213

>  <SCORE.RESTR.norm>
0.000148133

>  <SCORE.SYSTEM>
0

>  <SCORE.SYSTEM.CONST>
0

>  <SCORE.SYSTEM.DIHEDRAL>
0

>  <SCORE.SYSTEM.SOLV>
0

>  <SCORE.SYSTEM.norm>
0

>  <SCORE.heavy>
31

>  <SCORE.norm>
-0.666202

>  <RMSD>
6.221

$$$$
ligand
 OpenBabel11021811443D
libRbt.so/2013.1/901 2013/11/27
 31 32  0  0  0  0  0  0  0  0999 V2000
    0.6490   18.2549   52.5444 C   0  0  0  0  0  0  0  0  0  0  0  0
    1.0441   17.5507   53.8390 C   0  0  0  0  0  0  0  0  0  0  0  0
    1.1270   18.2905   55.0629 C   0  0  0  0  0  0  0  0  0  0  0  0
    1.4973   17.6322   56.2601 C   0  0  0  0  0  0  0  0  0  0  0  0
    1.7801   16.2444   56.2598 C   0  0  0  0  0  0  0  0  0  0  0  0
    1.6977   15.4994   55.0658 C   0  0  0  0  0  0  0  0  0  0  0  0
    1.3332   16.1355   53.8656 C   0  0  0  0  0  0  0  0  0  0  0  0
   -0.4517   18.0384   52.0384 O   0  0  0  0  0  0  0  0  0  0  0  0
    6.3628   25.5827   56.1526 C   0  0  0  0  0  0  0  0  0  0  0  0
    4.1893   18.8064   53.8757 C   0  0  0  0  0  0  0  0  0  0  0  0
    2.3271   15.0345   50.7343 P   0  0  1  0  0  0  0  0  0  0  0  0
    6.6521   24.1302   54.2709 N   0  0  0  0  0  0  0  0  0  0  0  0
    2.0501   13.9687   51.7162 O   0  0  0  0  0  0  0  0  0  0  0  0
    1.5186   19.1379   51.9279 S   0  0  0  0  0  0  0  0  0  0  0  0
    6.1258   20.2628   51.7626 C   0  0  0  0  0  0  0  0  0  0  0  0
    5.7696   24.6834   55.1711 C   0  0  0  0  0  0  0  0  0  0  0  0
    2.7512   14.5466   49.3941 O   0  5  0  0  0  0  0  0  0  0  0  0
    4.9120   20.5771   52.2792 N   0  0  0  0  0  0  0  0  0  0  0  0
    4.4953   24.4461   55.1778 N   0  0  0  0  0  0  0  0  0  0  0  0
    1.1962   15.9899   50.6828 O   0  0  0  0  0  0  0  0  0  0  0  0
    4.0205   19.4329   52.5181 C   0  0  2  0  0  0  0  0  0  0  0  0
    3.9404   23.5871   54.2485 C   0  0  0  0  0  0  0  0  0  0  0  0
    2.6248   23.3626   54.2878 N   0  0  0  0  0  0  0  0  0  0  0  0
    3.0175   18.8932   51.6050 C   0  0  1  0  0  0  0  0  0  0  0  0
    4.8091   22.9553   53.2677 C   0  0  0  0  0  0  0  0  0  0  0  0
    6.0842   20.0598   50.5691 O   0  0  0  0  0  0  0  0  0  0  0  0
    3.3360   18.1076   50.3826 C   0  0  0  0  0  0  0  0  0  0  0  0
    6.1482   23.2814   53.3410 C   0  0  0  0  0  0  0  0  0  0  0  0
    4.2097   16.9316   50.4795 C   0  0  0  0  0  0  0  0  0  0  0  0
    4.2680   21.9748   52.2559 C   0  0  0  0  0  0  0  0  0  0  0  0
    3.5656   15.8723   51.2086 O   0  0  0  0  0  0  0  0  0  0  0  0
  1  2  1  0  0  0  0
  1  8  2  0  0  0  0
  1 14  1  0  0  0  0
  2  3  2  0  0  0  0
  2  7  1  0  0  0  0
  3  4  1  0  0  0  0
  4  5  2  0  0  0  0
  5  6  1  0  0  0  0
  6  7  2  0  0  0  0
  9 16  1  0  0  0  0
 10 21  1  0  0  0  0
 11 13  1  1  0  0  0
 11 17  1  0  0  0  0
 11 20  2  0  0  0  0
 11 31  1  0  0  0  0
 12 16  2  0  0  0  0
 12 28  1  0  0  0  0
 15 26  1  0  0  0  0
 15 18  1  0  0  0  0
 16 19  1  0  0  0  0
 18 30  1  0  0  0  0
 19 22  2  0  0  0  0
 21 18  1  1  0  0  0
 21 24  1  0  0  0  0
 22 23  1  0  0  0  0
 22 25  1  0  0  0  0
 24 14  1  1  0  0  0
 24 27  1  0  0  0  0
 25 28  2  0  0  0  0
 25 30  1  0  0  0  0
 27 29  1  0  0  0  0
 29 31  1  0  0  0  0
M  CHG  1  17  -1
M  END
>  <CHROM.1>
-108.95504764,49.09880935,-98.53950923,79.39315863,88.33434923,-77.12926562
71.39054553,-126.49922362,-122.16799094,68.24902724,68.62955209,174.97630943
3.23334921,19.09620335,52.74095755,2.12974214,-0.79624658,-2.40183747

>  <Name>
ligand

>  <RI>
0

>  <Rbt.Current_Directory>
/home/itssahil/PROJECTS/Mol_Feturizer/New_Systems/rnas/2HOO

>  <Rbt.Executable>
rbdock ($Id: //depot/dev/client3/rdock/2013.1/src/exe/rbdock.cxx#4 $)

>  <Rbt.Library>
libRbt.so (2013.1, Build901 2013/11/27)

>  <Rbt.Parameter_File>
/export/apps/rDock/src/rDock_2013.1_src/data/scripts/dock_solv.prm

>  <Rbt.Receptor>
prm/pocket_docking_5.prm

>  <SCORE>
-26.7048

>  <SCORE.INTER>
-12.4734

>  <SCORE.INTER.CONST>
1

>  <SCORE.INTER.POLAR>
0

>  <SCORE.INTER.ROT>
12

>  <SCORE.INTER.SOLV>
10.8493

>  <SCORE.INTER.VDW>
-23.5321

>  <SCORE.INTER.norm>
-0.402369

>  <SCORE.INTRA>
-14.2313

>  <SCORE.INTRA.DIHEDRAL>
0.300934

>  <SCORE.INTRA.DIHEDRAL.0>
14.6094

>  <SCORE.INTRA.POLAR>
0

>  <SCORE.INTRA.POLAR.0>
0

>  <SCORE.INTRA.REPUL>
0

>  <SCORE.INTRA.REPUL.0>
0

>  <SCORE.INTRA.SOLV>
5.04209

>  <SCORE.INTRA.SOLV.lig_0>
-65.6478

>  <SCORE.INTRA.VDW>
-16.9028

>  <SCORE.INTRA.VDW.0>
9.35535

>  <SCORE.INTRA.norm>
-0.459075

>  <SCORE.RESTR>
0

>  <SCORE.RESTR.CAVITY>
0

>  <SCORE.RESTR.norm>
0

>  <SCORE.SYSTEM>
0

>  <SCORE.SYSTEM.CONST>
0

>  <SCORE.SYSTEM.DIHEDRAL>
0

>  <SCORE.SYSTEM.SOLV>
0

>  <SCORE.SYSTEM.norm>
0

>  <SCORE.heavy>
31

>  <SCORE.norm>
-0.861444

>  <RMSD>
6.226

$$$$
ligand
 OpenBabel11021811443D
libRbt.so/2013.1/901 2013/11/27
 31 32  0  0  0  0  0  0  0  0999 V2000
    4.3639   16.3096   50.1446 C   0  0  0  0  0  0  0  0  0  0  0  0
    3.0206   15.9088   50.7471 C   0  0  0  0  0  0  0  0  0  0  0  0
    2.8051   14.5642   51.1918 C   0  0  0  0  0  0  0  0  0  0  0  0
    1.5555   14.1976   51.7467 C   0  0  0  0  0  0  0  0  0  0  0  0
    0.5169   15.1523   51.8730 C   0  0  0  0  0  0  0  0  0  0  0  0
    0.7134   16.4815   51.4463 C   0  0  0  0  0  0  0  0  0  0  0  0
    1.9471   16.8649   50.8905 C   0  0  0  0  0  0  0  0  0  0  0  0
    4.8521   15.6420   49.2333 O   0  0  0  0  0  0  0  0  0  0  0  0
    8.0191   26.2339   52.4024 C   0  0  0  0  0  0  0  0  0  0  0  0
    6.0715   18.0926   53.9452 C   0  0  0  0  0  0  0  0  0  0  0  0
    9.3148   17.8039   48.1596 P   0  0  1  0  0  0  0  0  0  0  0  0
    6.3150   24.6161   51.9407 N   0  0  0  0  0  0  0  0  0  0  0  0
   10.4916   16.9315   47.9835 O   0  0  0  0  0  0  0  0  0  0  0  0
    5.0444   17.4197   50.6138 S   0  0  0  0  0  0  0  0  0  0  0  0
    7.9694   19.9919   51.5430 C   0  0  0  0  0  0  0  0  0  0  0  0
    7.5247   24.8705   52.5466 C   0  0  0  0  0  0  0  0  0  0  0  0
    9.6306   19.2533   48.2763 O   0  5  0  0  0  0  0  0  0  0  0  0
    6.9014   19.8282   52.3624 N   0  0  0  0  0  0  0  0  0  0  0  0
    8.2057   23.9872   53.2070 N   0  0  0  0  0  0  0  0  0  0  0  0
    8.2959   17.5041   47.1270 O   0  0  0  0  0  0  0  0  0  0  0  0
    6.4517   18.4388   52.5311 C   0  0  2  0  0  0  0  0  0  0  0  0
    7.7343   22.6946   53.3341 C   0  0  0  0  0  0  0  0  0  0  0  0
    8.4643   21.8099   54.0177 N   0  0  0  0  0  0  0  0  0  0  0  0
    6.3257   17.4223   51.4910 C   0  0  1  0  0  0  0  0  0  0  0  0
    6.4659   22.3441   52.7144 C   0  0  0  0  0  0  0  0  0  0  0  0
    8.9515   19.4018   51.9364 O   0  0  0  0  0  0  0  0  0  0  0  0
    7.3440   16.3723   51.2201 C   0  0  0  0  0  0  0  0  0  0  0  0
    5.8160   23.3592   52.0419 C   0  0  0  0  0  0  0  0  0  0  0  0
    7.9458   16.2685   49.8849 C   0  0  0  0  0  0  0  0  0  0  0  0
    5.9212   20.9382   52.7819 C   0  0  0  0  0  0  0  0  0  0  0  0
    8.6292   17.4844   49.5339 O   0  0  0  0  0  0  0  0  0  0  0  0
  1  2  1  0  0  0  0
  1  8  2  0  0  0  0
  1 14  1  0  0  0  0
  2  3  2  0  0  0  0
  2  7  1  0  0  0  0
  3  4  1  0  0  0  0
  4  5  2  0  0  0  0
  5  6  1  0  0  0  0
  6  7  2  0  0  0  0
  9 16  1  0  0  0  0
 10 21  1  0  0  0  0
 11 13  1  6  0  0  0
 11 17  1  0  0  0  0
 11 20  2  0  0  0  0
 11 31  1  0  0  0  0
 12 16  2  0  0  0  0
 12 28  1  0  0  0  0
 15 26  1  0  0  0  0
 15 18  1  0  0  0  0
 16 19  1  0  0  0  0
 18 30  1  0  0  0  0
 19 22  2  0  0  0  0
 21 18  1  6  0  0  0
 21 24  1  0  0  0  0
 22 23  1  0  0  0  0
 22 25  1  0  0  0  0
 24 14  1  1  0  0  0
 24 27  1  0  0  0  0
 25 28  2  0  0  0  0
 25 30  1  0  0  0  0
 27 29  1  0  0  0  0
 29 31  1  0  0  0  0
M  CHG  1  17  -1
M  END
>  <CHROM.1>
51.17604009,106.76037607,-142.36374315,-60.45565128,138.81474586,-23.95127441
96.76872106,58.35614243,-50.65015693,60.12043218,-175.64469084,-67.59235667
6.48677512,18.88101978,51.04023729,2.10599152,-0.45673953,-2.65035894

>  <Name>
ligand

>  <RI>
0

>  <Rbt.Current_Directory>
/home/itssahil/PROJECTS/Mol_Feturizer/New_Systems/rnas/2HOO

>  <Rbt.Executable>
rbdock ($Id: //depot/dev/client3/rdock/2013.1/src/exe/rbdock.cxx#4 $)

>  <Rbt.Library>
libRbt.so (2013.1, Build901 2013/11/27)

>  <Rbt.Parameter_File>
/export/apps/rDock/src/rDock_2013.1_src/data/scripts/dock_solv.prm

>  <Rbt.Receptor>
prm/blind_docking_80.prm

>  <SCORE>
-24.7208

>  <SCORE.INTER>
-15.905

>  <SCORE.INTER.CONST>
1

>  <SCORE.INTER.POLAR>
0

>  <SCORE.INTER.ROT>
12

>  <SCORE.INTER.SOLV>
18.6742

>  <SCORE.INTER.VDW>
-28.4281

>  <SCORE.INTER.norm>
-0.513065

>  <SCORE.INTRA>
-8.81577

>  <SCORE.INTRA.DIHEDRAL>
3.64064

>  <SCORE.INTRA.DIHEDRAL.0>
14.6094

>  <SCORE.INTRA.POLAR>
0

>  <SCORE.INTRA.POLAR.0>
0

>  <SCORE.INTRA.REPUL>
0

>  <SCORE.INTRA.REPUL.0>
0

>  <SCORE.INTRA.SOLV>
5.72991

>  <SCORE.INTRA.SOLV.lig_0>
-65.6478

>  <SCORE.INTRA.VDW>
-13.501

>  <SCORE.INTRA.VDW.0>
9.35535

>  <SCORE.INTRA.norm>
-0.28438

>  <SCORE.RESTR>
0

>  <SCORE.RESTR.CAVITY>
0

>  <SCORE.RESTR.norm>
0

>  <SCORE.SYSTEM>
0

>  <SCORE.SYSTEM.CONST>
0

>  <SCORE.SYSTEM.DIHEDRAL>
0

>  <SCORE.SYSTEM.SOLV>
0

>  <SCORE.SYSTEM.norm>
0

>  <SCORE.heavy>
31

>  <SCORE.norm>
-0.797445

>  <RMSD>
6.230

$$$$
ligand
 OpenBabel11021811443D
libRbt.so/2013.1/901 2013/11/27
 31 32  0  0  0  0  0  0  0  0999 V2000
    7.8246   17.0655   49.8436 C   0  0  0  0  0  0  0  0  0  0  0  0
    7.7125   18.0694   48.7000 C   0  0  0  0  0  0  0  0  0  0  0  0
    8.3093   19.3660   48.8210 C   0  0  0  0  0  0  0  0  0  0  0  0
    8.1990   20.2942   47.7579 C   0  0  0  0  0  0  0  0  0  0  0  0
    7.5085   19.9487   46.5705 C   0  0  0  0  0  0  0  0  0  0  0  0
    6.9204   18.6751   46.4315 C   0  0  0  0  0  0  0  0  0  0  0  0
    7.0174   17.7396   47.4772 C   0  0  0  0  0  0  0  0  0  0  0  0
    8.8213   16.3498   49.9372 O   0  0  0  0  0  0  0  0  0  0  0  0
    0.1382   16.4917   56.6249 C   0  0  0  0  0  0  0  0  0  0  0  0
    6.1107   20.3047   51.7357 C   0  0  0  0  0  0  0  0  0  0  0  0
    1.8412   15.1937   51.3445 P   0  0  1  0  0  0  0  0  0  0  0  0
    2.2939   16.6393   55.5928 N   0  0  0  0  0  0  0  0  0  0  0  0
    2.2592   13.9229   51.9666 O   0  0  0  0  0  0  0  0  0  0  0  0
    6.8132   16.9484   50.7811 S   0  0  0  0  0  0  0  0  0  0  0  0
    6.3770   18.0206   54.1636 C   0  0  0  0  0  0  0  0  0  0  0  0
    1.1689   17.3161   56.0069 C   0  0  0  0  0  0  0  0  0  0  0  0
    1.1237   15.0425   50.0496 O   0  5  0  0  0  0  0  0  0  0  0  0
    5.4040   18.6734   53.4808 N   0  0  0  0  0  0  0  0  0  0  0  0
    1.0009   18.5945   55.8743 N   0  0  0  0  0  0  0  0  0  0  0  0
    1.1136   16.0300   52.3271 O   0  0  0  0  0  0  0  0  0  0  0  0
    5.6850   18.8973   52.0554 C   0  0  2  0  0  0  0  0  0  0  0  0
    1.9793   19.3693   55.2813 C   0  0  0  0  0  0  0  0  0  0  0  0
    1.7705   20.6823   55.1573 N   0  0  0  0  0  0  0  0  0  0  0  0
    5.6132   17.9138   50.9792 C   0  0  1  0  0  0  0  0  0  0  0  0
    3.1956   18.7264   54.8090 C   0  0  0  0  0  0  0  0  0  0  0  0
    6.3419   16.8222   53.9904 O   0  0  0  0  0  0  0  0  0  0  0  0
    4.4643   17.7802   50.0437 C   0  0  0  0  0  0  0  0  0  0  0  0
    3.2792   17.3629   55.0057 C   0  0  0  0  0  0  0  0  0  0  0  0
    3.1421   17.4082   50.5623 C   0  0  0  0  0  0  0  0  0  0  0  0
    4.2803   19.5130   54.1143 C   0  0  0  0  0  0  0  0  0  0  0  0
    3.1119   16.0220   50.9446 O   0  0  0  0  0  0  0  0  0  0  0  0
  1  2  1  0  0  0  0
  1  8  2  0  0  0  0
  1 14  1  0  0  0  0
  2  3  2  0  0  0  0
  2  7  1  0  0  0  0
  3  4  1  0  0  0  0
  4  5  2  0  0  0  0
  5  6  1  0  0  0  0
  6  7  2  0  0  0  0
  9 16  1  0  0  0  0
 10 21  1  0  0  0  0
 11 13  1  1  0  0  0
 11 17  1  0  0  0  0
 11 20  2  0  0  0  0
 11 31  1  0  0  0  0
 12 16  2  0  0  0  0
 12 28  1  0  0  0  0
 15 26  1  0  0  0  0
 15 18  1  0  0  0  0
 16 19  1  0  0  0  0
 18 30  1  0  0  0  0
 19 22  2  0  0  0  0
 21 18  1  1  0  0  0
 21 24  1  0  0  0  0
 22 23  1  0  0  0  0
 22 25  1  0  0  0  0
 24 14  1  6  0  0  0
 24 27  1  0  0  0  0
 25 28  2  0  0  0  0
 25 30  1  0  0  0  0
 27 29  1  0  0  0  0
 29 31  1  0  0  0  0
M  CHG  1  17  -1
M  END
>  <CHROM.1>
-84.81438276,-11.56336769,-99.98160981,-80.00855559,-102.77781035,-72.94664327
97.79534374,117.42616113,-170.99554836,-72.67975745,-170.52068094,-166.77586116
4.44439137,17.56158878,51.88529289,-0.57387954,0.61105454,1.02295686

>  <Name>
ligand

>  <RI>
0

>  <Rbt.Current_Directory>
/home/itssahil/PROJECTS/Mol_Feturizer/New_Systems/rnas/2HOO

>  <Rbt.Executable>
rbdock ($Id: //depot/dev/client3/rdock/2013.1/src/exe/rbdock.cxx#4 $)

>  <Rbt.Library>
libRbt.so (2013.1, Build901 2013/11/27)

>  <Rbt.Parameter_File>
/export/apps/rDock/src/rDock_2013.1_src/data/scripts/dock_solv.prm

>  <Rbt.Receptor>
prm/pocket_docking_5.prm

>  <SCORE>
-33.4927

>  <SCORE.INTER>
-17.9206

>  <SCORE.INTER.CONST>
1

>  <SCORE.INTER.POLAR>
0

>  <SCORE.INTER.ROT>
12

>  <SCORE.INTER.SOLV>
13.859

>  <SCORE.INTER.VDW>
-28.1667

>  <SCORE.INTER.norm>
-0.578085

>  <SCORE.INTRA>
-15.5721

>  <SCORE.INTRA.DIHEDRAL>
-0.347555

>  <SCORE.INTRA.DIHEDRAL.0>
14.6094

>  <SCORE.INTRA.POLAR>
0

>  <SCORE.INTRA.POLAR.0>
0

>  <SCORE.INTRA.REPUL>
0

>  <SCORE.INTRA.REPUL.0>
0

>  <SCORE.INTRA.SOLV>
0.055606

>  <SCORE.INTRA.SOLV.lig_0>
-65.6478

>  <SCORE.INTRA.VDW>
-15.4261

>  <SCORE.INTRA.VDW.0>
9.35535

>  <SCORE.INTRA.norm>
-0.502326

>  <SCORE.RESTR>
0

>  <SCORE.RESTR.CAVITY>
0

>  <SCORE.RESTR.norm>
0

>  <SCORE.SYSTEM>
0

>  <SCORE.SYSTEM.CONST>
0

>  <SCORE.SYSTEM.DIHEDRAL>
0

>  <SCORE.SYSTEM.SOLV>
0

>  <SCORE.SYSTEM.norm>
0

>  <SCORE.heavy>
31

>  <SCORE.norm>
-1.08041

>  <RMSD>
6.283

$$$$
ligand
 OpenBabel11021811443D
libRbt.so/2013.1/901 2013/11/27
 31 32  0  0  0  0  0  0  0  0999 V2000
    1.9533   19.1830   55.4544 C   0  0  0  0  0  0  0  0  0  0  0  0
    1.1631   18.5037   54.3399 C   0  0  0  0  0  0  0  0  0  0  0  0
    0.9925   17.0813   54.3441 C   0  0  0  0  0  0  0  0  0  0  0  0
    0.2612   16.4566   53.3055 C   0  0  0  0  0  0  0  0  0  0  0  0
   -0.3105   17.2278   52.2641 C   0  0  0  0  0  0  0  0  0  0  0  0
   -0.1579   18.6291   52.2472 C   0  0  0  0  0  0  0  0  0  0  0  0
    0.5667   19.2684   53.2690 C   0  0  0  0  0  0  0  0  0  0  0  0
    1.4224   19.3910   56.5450 O   0  0  0  0  0  0  0  0  0  0  0  0
    9.8772   17.3899   48.5792 C   0  0  0  0  0  0  0  0  0  0  0  0
    5.4873   17.8810   53.7507 C   0  0  0  0  0  0  0  0  0  0  0  0
    6.2896   24.3074   53.9206 P   0  0  1  0  0  0  0  0  0  0  0  0
    8.6395   18.9119   49.9525 N   0  0  0  0  0  0  0  0  0  0  0  0
    7.0839   23.5296   54.8906 O   0  0  0  0  0  0  0  0  0  0  0  0
    3.2663   19.5714   55.2525 S   0  0  0  0  0  0  0  0  0  0  0  0
    3.1314   17.7424   51.4725 C   0  0  0  0  0  0  0  0  0  0  0  0
    8.5882   17.8430   49.0866 C   0  0  0  0  0  0  0  0  0  0  0  0
    5.5269   25.4401   54.5117 O   0  5  0  0  0  0  0  0  0  0  0  0
    4.2279   18.5087   51.6949 N   0  0  0  0  0  0  0  0  0  0  0  0
    7.4918   17.2543   48.7242 N   0  0  0  0  0  0  0  0  0  0  0  0
    7.1324   24.7022   52.7681 O   0  0  0  0  0  0  0  0  0  0  0  0
    4.4989   18.8152   53.1069 C   0  0  2  0  0  0  0  0  0  0  0  0
    6.2725   17.6932   49.2037 C   0  0  0  0  0  0  0  0  0  0  0  0
    5.1631   17.0658   48.8056 N   0  0  0  0  0  0  0  0  0  0  0  0
    3.9371   19.9091   53.8934 C   0  0  1  0  0  0  0  0  0  0  0  0
    6.2419   18.8244   50.1177 C   0  0  0  0  0  0  0  0  0  0  0  0
    3.4100   16.5817   51.2660 O   0  0  0  0  0  0  0  0  0  0  0  0
    3.9526   21.3357   53.4723 C   0  0  0  0  0  0  0  0  0  0  0  0
    7.4643   19.3740   50.4471 C   0  0  0  0  0  0  0  0  0  0  0  0
    5.2252   21.9769   53.1182 C   0  0  0  0  0  0  0  0  0  0  0  0
    4.9380   19.3762   50.6403 C   0  0  0  0  0  0  0  0  0  0  0  0
    5.1584   23.3987   53.3242 O   0  0  0  0  0  0  0  0  0  0  0  0
  1  2  1  0  0  0  0
  1  8  2  0  0  0  0
  1 14  1  0  0  0  0
  2  3  2  0  0  0  0
  2  7  1  0  0  0  0
  3  4  1  0  0  0  0
  4  5  2  0  0  0  0
  5  6  1  0  0  0  0
  6  7  2  0  0  0  0
  9 16  1  0  0  0  0
 10 21  1  0  0  0  0
 11 13  1  1  0  0  0
 11 17  1  0  0  0  0
 11 20  2  0  0  0  0
 11 31  1  0  0  0  0
 12 16  2  0  0  0  0
 12 28  1  0  0  0  0
 15 26  1  0  0  0  0
 15 18  1  0  0  0  0
 16 19  1  0  0  0  0
 18 30  1  0  0  0  0
 19 22  2  0  0  0  0
 21 18  1  6  0  0  0
 21 24  1  0  0  0  0
 22 23  1  0  0  0  0
 22 25  1  0  0  0  0
 24 14  1  6  0  0  0
 24 27  1  0  0  0  0
 25 28  2  0  0  0  0
 25 30  1  0  0  0  0
 27 29  1  0  0  0  0
 29 31  1  0  0  0  0
M  CHG  1  17  -1
M  END
>  <CHROM.1>
-79.50814129,25.15296632,-85.86464021,-100.91991070,95.51037795,-104.65741100
-53.47717781,125.90036240,73.29914846,-154.16667936,139.81691576,-31.14058022
4.59799123,19.76450844,52.58742924,-3.00236051,-0.54357150,-2.54736038

>  <Name>
ligand

>  <RI>
0

>  <Rbt.Current_Directory>
/home/itssahil/PROJECTS/Mol_Feturizer/New_Systems/rnas/2HOO

>  <Rbt.Executable>
rbdock ($Id: //depot/dev/client3/rdock/2013.1/src/exe/rbdock.cxx#4 $)

>  <Rbt.Library>
libRbt.so (2013.1, Build901 2013/11/27)

>  <Rbt.Parameter_File>
/export/apps/rDock/src/rDock_2013.1_src/data/scripts/dock_solv.prm

>  <Rbt.Receptor>
prm/pocket_docking_5.prm

>  <SCORE>
-17.1221

>  <SCORE.INTER>
-6.43839

>  <SCORE.INTER.CONST>
1

>  <SCORE.INTER.POLAR>
0

>  <SCORE.INTER.ROT>
12

>  <SCORE.INTER.SOLV>
13.3409

>  <SCORE.INTER.VDW>
-20.3392

>  <SCORE.INTER.norm>
-0.20769

>  <SCORE.INTRA>
-10.6837

>  <SCORE.INTRA.DIHEDRAL>
8.37085

>  <SCORE.INTRA.DIHEDRAL.0>
14.6094

>  <SCORE.INTRA.POLAR>
0

>  <SCORE.INTRA.POLAR.0>
0

>  <SCORE.INTRA.REPUL>
0

>  <SCORE.INTRA.REPUL.0>
0

>  <SCORE.INTRA.SOLV>
2.26374

>  <SCORE.INTRA.SOLV.lig_0>
-65.6478

>  <SCORE.INTRA.VDW>
-16.001

>  <SCORE.INTRA.VDW.0>
9.35535

>  <SCORE.INTRA.norm>
-0.344636

>  <SCORE.RESTR>
0

>  <SCORE.RESTR.CAVITY>
0

>  <SCORE.RESTR.norm>
0

>  <SCORE.SYSTEM>
0

>  <SCORE.SYSTEM.CONST>
0

>  <SCORE.SYSTEM.DIHEDRAL>
0

>  <SCORE.SYSTEM.SOLV>
0

>  <SCORE.SYSTEM.norm>
0

>  <SCORE.heavy>
31

>  <SCORE.norm>
-0.552326

>  <RMSD>
6.301

$$$$
ligand
 OpenBabel11021811443D
libRbt.so/2013.1/901 2013/11/27
 31 32  0  0  0  0  0  0  0  0999 V2000
    4.1896   18.2137   50.5354 C   0  0  0  0  0  0  0  0  0  0  0  0
    2.7367   17.9472   50.9175 C   0  0  0  0  0  0  0  0  0  0  0  0
    2.0915   16.7409   50.4923 C   0  0  0  0  0  0  0  0  0  0  0  0
    0.7423   16.5010   50.8472 C   0  0  0  0  0  0  0  0  0  0  0  0
    0.0256   17.4416   51.6267 C   0  0  0  0  0  0  0  0  0  0  0  0
    0.6464   18.6312   52.0590 C   0  0  0  0  0  0  0  0  0  0  0  0
    1.9855   18.8888   51.7152 C   0  0  0  0  0  0  0  0  0  0  0  0
    4.5124   19.3073   50.0724 O   0  0  0  0  0  0  0  0  0  0  0  0
    7.9398   26.1000   52.5873 C   0  0  0  0  0  0  0  0  0  0  0  0
    5.7632   18.1646   53.8718 C   0  0  0  0  0  0  0  0  0  0  0  0
    8.9706   17.7135   47.8686 P   0  0  1  0  0  0  0  0  0  0  0  0
    8.6465   23.9304   51.8606 N   0  0  0  0  0  0  0  0  0  0  0  0
    9.8085   18.8469   48.3047 O   0  0  0  0  0  0  0  0  0  0  0  0
    5.1539   17.2349   50.7024 S   0  0  0  0  0  0  0  0  0  0  0  0
    8.4054   19.6831   53.2205 C   0  0  0  0  0  0  0  0  0  0  0  0
    7.5981   24.7162   52.2832 C   0  0  0  0  0  0  0  0  0  0  0  0
    7.9280   18.0641   46.8665 O   0  5  0  0  0  0  0  0  0  0  0  0
    7.2434   19.6459   52.5224 N   0  0  0  0  0  0  0  0  0  0  0  0
    6.3801   24.2926   52.4138 N   0  0  0  0  0  0  0  0  0  0  0  0
    9.8237   16.5744   47.4576 O   0  0  0  0  0  0  0  0  0  0  0  0
    6.5179   18.3690   52.5861 C   0  0  2  0  0  0  0  0  0  0  0  0
    6.0642   22.9776   52.1302 C   0  0  0  0  0  0  0  0  0  0  0  0
    4.8001   22.5747   52.2803 N   0  0  0  0  0  0  0  0  0  0  0  0
    6.4503   17.3427   51.5503 C   0  0  1  0  0  0  0  0  0  0  0  0
    7.1197   22.0807   51.6857 C   0  0  0  0  0  0  0  0  0  0  0  0
    9.3373   19.2261   52.5960 O   0  0  0  0  0  0  0  0  0  0  0  0
    7.5431   16.3769   51.2575 C   0  0  0  0  0  0  0  0  0  0  0  0
    8.3794   22.6327   51.5712 C   0  0  0  0  0  0  0  0  0  0  0  0
    8.6367   16.7651   50.3581 C   0  0  0  0  0  0  0  0  0  0  0  0
    6.8444   20.6240   51.4029 C   0  0  0  0  0  0  0  0  0  0  0  0
    8.1258   17.1913   49.0829 O   0  0  0  0  0  0  0  0  0  0  0  0
  1  2  1  0  0  0  0
  1  8  2  0  0  0  0
  1 14  1  0  0  0  0
  2  3  2  0  0  0  0
  2  7  1  0  0  0  0
  3  4  1  0  0  0  0
  4  5  2  0  0  0  0
  5  6  1  0  0  0  0
  6  7  2  0  0  0  0
  9 16  1  0  0  0  0
 10 21  1  0  0  0  0
 11 13  1  1  0  0  0
 11 17  1  0  0  0  0
 11 20  2  0  0  0  0
 11 31  1  0  0  0  0
 12 16  2  0  0  0  0
 12 28  1  0  0  0  0
 15 26  1  0  0  0  0
 15 18  1  0  0  0  0
 16 19  1  0  0  0  0
 18 30  1  0  0  0  0
 19 22  2  0  0  0  0
 21 18  1  6  0  0  0
 21 24  1  0  0  0  0
 22 23  1  0  0  0  0
 22 25  1  0  0  0  0
 24 14  1  1  0  0  0
 24 27  1  0  0  0  0
 25 28  2  0  0  0  0
 25 30  1  0  0  0  0
 27 29  1  0  0  0  0
 29 31  1  0  0  0  0
M  CHG  1  17  -1
M  END
>  <CHROM.1>
132.28772447,-122.00331992,19.75664995,83.93712176,77.64928051,-44.15822196
75.44577323,95.73895305,-100.01276552,-55.80190595,178.45464656,-55.14176359
6.37779701,19.32911523,50.92021705,2.20101612,-0.32049054,-2.68607761

>  <Name>
ligand

>  <RI>
0

>  <Rbt.Current_Directory>
/home/itssahil/PROJECTS/Mol_Feturizer/New_Systems/rnas/2HOO

>  <Rbt.Executable>
rbdock ($Id: //depot/dev/client3/rdock/2013.1/src/exe/rbdock.cxx#4 $)

>  <Rbt.Library>
libRbt.so (2013.1, Build901 2013/11/27)

>  <Rbt.Parameter_File>
/export/apps/rDock/src/rDock_2013.1_src/data/scripts/dock_solv.prm

>  <Rbt.Receptor>
prm/blind_docking_60.prm

>  <SCORE>
-31.0996

>  <SCORE.INTER>
-17.1676

>  <SCORE.INTER.CONST>
1

>  <SCORE.INTER.POLAR>
0

>  <SCORE.INTER.ROT>
12

>  <SCORE.INTER.SOLV>
20.5803

>  <SCORE.INTER.VDW>
-29.9051

>  <SCORE.INTER.norm>
-0.553792

>  <SCORE.INTRA>
-14.0641

>  <SCORE.INTRA.DIHEDRAL>
0.341314

>  <SCORE.INTRA.DIHEDRAL.0>
14.6094

>  <SCORE.INTRA.POLAR>
0

>  <SCORE.INTRA.POLAR.0>
0

>  <SCORE.INTRA.REPUL>
0

>  <SCORE.INTRA.REPUL.0>
0

>  <SCORE.INTRA.SOLV>
1.04808

>  <SCORE.INTRA.SOLV.lig_0>
-65.6478

>  <SCORE.INTRA.VDW>
-14.7588

>  <SCORE.INTRA.VDW.0>
9.35535

>  <SCORE.INTRA.norm>
-0.45368

>  <SCORE.RESTR>
0.131997

>  <SCORE.RESTR.CAVITY>
0.131997

>  <SCORE.RESTR.norm>
0.00425798

>  <SCORE.SYSTEM>
0

>  <SCORE.SYSTEM.CONST>
0

>  <SCORE.SYSTEM.DIHEDRAL>
0

>  <SCORE.SYSTEM.SOLV>
0

>  <SCORE.SYSTEM.norm>
0

>  <SCORE.heavy>
31

>  <SCORE.norm>
-1.00321

>  <RMSD>
6.322

$$$$
ligand
 OpenBabel11021811443D
libRbt.so/2013.1/901 2013/11/27
 31 32  0  0  0  0  0  0  0  0999 V2000
    8.1929   17.8648   54.7501 C   0  0  0  0  0  0  0  0  0  0  0  0
    9.0385   19.0660   54.3377 C   0  0  0  0  0  0  0  0  0  0  0  0
   10.4383   18.9047   54.0797 C   0  0  0  0  0  0  0  0  0  0  0  0
   11.2182   20.0236   53.7006 C   0  0  0  0  0  0  0  0  0  0  0  0
   10.6238   21.3023   53.5670 C   0  0  0  0  0  0  0  0  0  0  0  0
    9.2466   21.4784   53.8110 C   0  0  0  0  0  0  0  0  0  0  0  0
    8.4551   20.3795   54.1904 C   0  0  0  0  0  0  0  0  0  0  0  0
    8.5539   17.1517   55.6859 O   0  0  0  0  0  0  0  0  0  0  0  0
    7.2704   19.3492   44.9144 C   0  0  0  0  0  0  0  0  0  0  0  0
    6.3367   20.1302   51.4800 C   0  0  0  0  0  0  0  0  0  0  0  0
    2.2663   16.7351   55.3496 P   0  0  1  0  0  0  0  0  0  0  0  0
    6.7448   19.5904   47.2381 N   0  0  0  0  0  0  0  0  0  0  0  0
    2.5970   15.4056   55.8972 O   0  0  0  0  0  0  0  0  0  0  0  0
    7.0195   17.5647   54.0803 S   0  0  0  0  0  0  0  0  0  0  0  0
    4.3373   17.7453   50.6622 C   0  0  0  0  0  0  0  0  0  0  0  0
    7.1883   18.7513   46.2410 C   0  0  0  0  0  0  0  0  0  0  0  0
    1.5838   16.7079   54.0276 O   0  5  0  0  0  0  0  0  0  0  0  0
    5.6475   17.7828   51.0100 N   0  0  0  0  0  0  0  0  0  0  0  0
    7.5189   17.5121   46.4286 N   0  0  0  0  0  0  0  0  0  0  0  0
    1.5526   17.5440   56.3647 O   0  0  0  0  0  0  0  0  0  0  0  0
    5.9920   18.7758   52.0377 C   0  0  2  0  0  0  0  0  0  0  0  0
    7.4323   16.9496   47.6877 C   0  0  0  0  0  0  0  0  0  0  0  0
    7.7769   15.6690   47.8433 N   0  0  0  0  0  0  0  0  0  0  0  0
    6.0048   18.5775   53.4839 C   0  0  1  0  0  0  0  0  0  0  0  0
    6.9637   17.7697   48.7939 C   0  0  0  0  0  0  0  0  0  0  0  0
    3.9725   16.6345   50.3452 O   0  0  0  0  0  0  0  0  0  0  0  0
    5.0960   19.2763   54.4318 C   0  0  0  0  0  0  0  0  0  0  0  0
    6.6455   19.0778   48.4898 C   0  0  0  0  0  0  0  0  0  0  0  0
    3.6919   18.8597   54.5359 C   0  0  0  0  0  0  0  0  0  0  0  0
    6.8066   17.1993   50.1824 C   0  0  0  0  0  0  0  0  0  0  0  0
    3.5909   17.5173   55.0422 O   0  0  0  0  0  0  0  0  0  0  0  0
  1  2  1  0  0  0  0
  1  8  2  0  0  0  0
  1 14  1  0  0  0  0
  2  3  2  0  0  0  0
  2  7  1  0  0  0  0
  3  4  1  0  0  0  0
  4  5  2  0  0  0  0
  5  6  1  0  0  0  0
  6  7  2  0  0  0  0
  9 16  1  0  0  0  0
 10 21  1  0  0  0  0
 11 13  1  1  0  0  0
 11 17  1  0  0  0  0
 11 20  2  0  0  0  0
 11 31  1  0  0  0  0
 12 16  2  0  0  0  0
 12 28  1  0  0  0  0
 15 26  1  0  0  0  0
 15 18  1  0  0  0  0
 16 19  1  0  0  0  0
 18 30  1  0  0  0  0
 19 22  2  0  0  0  0
 21 18  1  1  0  0  0
 21 24  1  0  0  0  0
 22 23  1  0  0  0  0
 22 25  1  0  0  0  0
 24 14  1  6  0  0  0
 24 27  1  0  0  0  0
 25 28  2  0  0  0  0
 25 30  1  0  0  0  0
 27 29  1  0  0  0  0
 29 31  1  0  0  0  0
M  CHG  1  17  -1
M  END
>  <CHROM.1>
51.63644826,-35.61923594,104.21714957,-148.13337818,-88.63374936,59.46910442
-116.95099777,-103.81463672,-146.32062306,64.56874692,177.40286343,-178.05680028
6.13715072,18.13505030,52.22217256,-2.08000237,-0.39152149,-1.63253099

>  <Name>
ligand

>  <RI>
0

>  <Rbt.Current_Directory>
/home/itssahil/PROJECTS/Mol_Feturizer/New_Systems/rnas/2HOO

>  <Rbt.Executable>
rbdock ($Id: //depot/dev/client3/rdock/2013.1/src/exe/rbdock.cxx#4 $)

>  <Rbt.Library>
libRbt.so (2013.1, Build901 2013/11/27)

>  <Rbt.Parameter_File>
/export/apps/rDock/src/rDock_2013.1_src/data/scripts/dock_solv.prm

>  <Rbt.Receptor>
prm/blind_docking_60.prm

>  <SCORE>
-34.7933

>  <SCORE.INTER>
-19.6558

>  <SCORE.INTER.CONST>
1

>  <SCORE.INTER.POLAR>
0

>  <SCORE.INTER.ROT>
12

>  <SCORE.INTER.SOLV>
16.19

>  <SCORE.INTER.VDW>
-30.1006

>  <SCORE.INTER.norm>
-0.634058

>  <SCORE.INTRA>
-15.1648

>  <SCORE.INTRA.DIHEDRAL>
-0.93267

>  <SCORE.INTRA.DIHEDRAL.0>
14.6094

>  <SCORE.INTRA.POLAR>
0

>  <SCORE.INTRA.POLAR.0>
0

>  <SCORE.INTRA.REPUL>
0

>  <SCORE.INTRA.REPUL.0>
0

>  <SCORE.INTRA.SOLV>
-0.730768

>  <SCORE.INTRA.SOLV.lig_0>
-65.6478

>  <SCORE.INTRA.VDW>
-14.3331

>  <SCORE.INTRA.VDW.0>
9.35535

>  <SCORE.INTRA.norm>
-0.489188

>  <SCORE.RESTR>
0.0273405

>  <SCORE.RESTR.CAVITY>
0.0273405

>  <SCORE.RESTR.norm>
0.000881951

>  <SCORE.SYSTEM>
0

>  <SCORE.SYSTEM.CONST>
0

>  <SCORE.SYSTEM.DIHEDRAL>
0

>  <SCORE.SYSTEM.SOLV>
0

>  <SCORE.SYSTEM.norm>
0

>  <SCORE.heavy>
31

>  <SCORE.norm>
-1.12236

>  <RMSD>
6.381

$$$$
ligand
 OpenBabel11021811443D
libRbt.so/2013.1/901 2013/11/27
 31 32  0  0  0  0  0  0  0  0999 V2000
    7.4212   22.4869   54.0052 C   0  0  0  0  0  0  0  0  0  0  0  0
    8.8965   22.1081   53.9162 C   0  0  0  0  0  0  0  0  0  0  0  0
    9.9060   23.1172   54.0374 C   0  0  0  0  0  0  0  0  0  0  0  0
   11.2730   22.7600   53.9506 C   0  0  0  0  0  0  0  0  0  0  0  0
   11.6522   21.4099   53.7518 C   0  0  0  0  0  0  0  0  0  0  0  0
   10.6725   20.4029   53.6365 C   0  0  0  0  0  0  0  0  0  0  0  0
    9.3090   20.7377   53.7181 C   0  0  0  0  0  0  0  0  0  0  0  0
    6.9878   23.0356   55.0178 O   0  0  0  0  0  0  0  0  0  0  0  0
    4.8864   14.6364   47.3035 C   0  0  0  0  0  0  0  0  0  0  0  0
    4.0423   19.9014   51.2251 C   0  0  0  0  0  0  0  0  0  0  0  0
    1.5310   20.2767   55.4074 P   0  0  1  0  0  0  0  0  0  0  0  0
    4.5109   16.5747   48.6586 N   0  0  0  0  0  0  0  0  0  0  0  0
    0.6006   20.5384   56.5222 O   0  0  0  0  0  0  0  0  0  0  0  0
    6.5593   22.2182   52.9560 S   0  0  0  0  0  0  0  0  0  0  0  0
    6.7687   18.3458   52.4853 C   0  0  0  0  0  0  0  0  0  0  0  0
    5.4298   15.8091   47.9771 C   0  0  0  0  0  0  0  0  0  0  0  0
    1.6517   18.8436   55.0253 O   0  5  0  0  0  0  0  0  0  0  0  0
    6.4317   19.2848   51.5668 N   0  0  0  0  0  0  0  0  0  0  0  0
    6.6961   16.0788   47.9152 N   0  0  0  0  0  0  0  0  0  0  0  0
    1.2242   21.1675   54.2644 O   0  0  0  0  0  0  0  0  0  0  0  0
    5.3278   20.1729   51.9586 C   0  0  2  0  0  0  0  0  0  0  0  0
    7.2057   17.1886   48.5618 C   0  0  0  0  0  0  0  0  0  0  0  0
    8.5159   17.4332   48.4802 N   0  0  0  0  0  0  0  0  0  0  0  0
    5.3628   21.2285   52.9662 C   0  0  1  0  0  0  0  0  0  0  0  0
    6.2991   18.0442   49.3114 C   0  0  0  0  0  0  0  0  0  0  0  0
    6.1104   17.3346   52.3788 O   0  0  0  0  0  0  0  0  0  0  0  0
    4.3281   21.4149   54.0185 C   0  0  0  0  0  0  0  0  0  0  0  0
    4.9696   17.6739   49.3071 C   0  0  0  0  0  0  0  0  0  0  0  0
    4.1932   20.4217   55.0915 C   0  0  0  0  0  0  0  0  0  0  0  0
    6.8035   19.2451   50.0738 C   0  0  0  0  0  0  0  0  0  0  0  0
    2.9908   20.6442   55.8487 O   0  0  0  0  0  0  0  0  0  0  0  0
  1  2  1  0  0  0  0
  1  8  2  0  0  0  0
  1 14  1  0  0  0  0
  2  3  2  0  0  0  0
  2  7  1  0  0  0  0
  3  4  1  0  0  0  0
  4  5  2  0  0  0  0
  5  6  1  0  0  0  0
  6  7  2  0  0  0  0
  9 16  1  0  0  0  0
 10 21  1  0  0  0  0
 11 13  1  1  0  0  0
 11 17  1  0  0  0  0
 11 20  2  0  0  0  0
 11 31  1  0  0  0  0
 12 16  2  0  0  0  0
 12 28  1  0  0  0  0
 15 26  1  0  0  0  0
 15 18  1  0  0  0  0
 16 19  1  0  0  0  0
 18 30  1  0  0  0  0
 19 22  2  0  0  0  0
 21 18  1  1  0  0  0
 21 24  1  0  0  0  0
 22 23  1  0  0  0  0
 22 25  1  0  0  0  0
 24 14  1  1  0  0  0
 24 27  1  0  0  0  0
 25 28  2  0  0  0  0
 25 30  1  0  0  0  0
 27 29  1  0  0  0  0
 29 31  1  0  0  0  0
M  CHG  1  17  -1
M  END
>  <CHROM.1>
-59.00903368,114.16523871,-124.00802666,87.04658866,-107.31752845,59.39798496
-134.49568460,-111.15402571,-124.97532213,-169.03908848,76.65615720,174.12109986
5.74202686,19.79279215,52.50727495,-1.89966450,-0.26738346,-2.26834185

>  <Name>
ligand

>  <RI>
0

>  <Rbt.Current_Directory>
/home/itssahil/PROJECTS/Mol_Feturizer/New_Systems/rnas/2HOO

>  <Rbt.Executable>
rbdock ($Id: //depot/dev/client3/rdock/2013.1/src/exe/rbdock.cxx#4 $)

>  <Rbt.Library>
libRbt.so (2013.1, Build901 2013/11/27)

>  <Rbt.Parameter_File>
/export/apps/rDock/src/rDock_2013.1_src/data/scripts/dock_solv.prm

>  <Rbt.Receptor>
prm/pocket_docking_3.prm

>  <SCORE>
-20.912

>  <SCORE.INTER>
-9.47897

>  <SCORE.INTER.CONST>
1

>  <SCORE.INTER.POLAR>
0

>  <SCORE.INTER.ROT>
12

>  <SCORE.INTER.SOLV>
6.36003

>  <SCORE.INTER.VDW>
-20.0393

>  <SCORE.INTER.norm>
-0.305773

>  <SCORE.INTRA>
-11.433

>  <SCORE.INTRA.DIHEDRAL>
2.07961

>  <SCORE.INTRA.DIHEDRAL.0>
14.6094

>  <SCORE.INTRA.POLAR>
0

>  <SCORE.INTRA.POLAR.0>
0

>  <SCORE.INTRA.REPUL>
0

>  <SCORE.INTRA.REPUL.0>
0

>  <SCORE.INTRA.SOLV>
1.95681

>  <SCORE.INTRA.SOLV.lig_0>
-65.6478

>  <SCORE.INTRA.VDW>
-13.4512

>  <SCORE.INTRA.VDW.0>
9.35535

>  <SCORE.INTRA.norm>
-0.368806

>  <SCORE.RESTR>
0

>  <SCORE.RESTR.CAVITY>
0

>  <SCORE.RESTR.norm>
0

>  <SCORE.SYSTEM>
0

>  <SCORE.SYSTEM.CONST>
0

>  <SCORE.SYSTEM.DIHEDRAL>
0

>  <SCORE.SYSTEM.SOLV>
0

>  <SCORE.SYSTEM.norm>
0

>  <SCORE.heavy>
31

>  <SCORE.norm>
-0.674579

>  <RMSD>
6.386

$$$$
ligand
 OpenBabel11021811443D
libRbt.so/2013.1/901 2013/11/27
 31 32  0  0  0  0  0  0  0  0999 V2000
    6.8832   17.2648   51.3614 C   0  0  0  0  0  0  0  0  0  0  0  0
    7.3022   18.4222   50.4598 C   0  0  0  0  0  0  0  0  0  0  0  0
    7.4586   19.7376   51.0051 C   0  0  0  0  0  0  0  0  0  0  0  0
    7.8443   20.8080   50.1628 C   0  0  0  0  0  0  0  0  0  0  0  0
    8.0844   20.5878   48.7844 C   0  0  0  0  0  0  0  0  0  0  0  0
    7.9413   19.2988   48.2319 C   0  0  0  0  0  0  0  0  0  0  0  0
    7.5571   18.2226   49.0518 C   0  0  0  0  0  0  0  0  0  0  0  0
    7.7209   16.4468   51.7402 O   0  0  0  0  0  0  0  0  0  0  0  0
    5.4515   22.7208   57.0628 C   0  0  0  0  0  0  0  0  0  0  0  0
    4.0847   20.2351   51.2130 C   0  0  0  0  0  0  0  0  0  0  0  0
    3.4264   14.6617   47.6147 P   0  0  1  0  0  0  0  0  0  0  0  0
    5.4736   21.1195   55.2825 N   0  0  0  0  0  0  0  0  0  0  0  0
    3.1073   14.3234   46.2145 O   0  0  0  0  0  0  0  0  0  0  0  0
    5.5653   17.1221   51.7595 S   0  0  0  0  0  0  0  0  0  0  0  0
    1.3192   18.7912   52.1369 C   0  0  0  0  0  0  0  0  0  0  0  0
    4.7645   21.6660   56.3283 C   0  0  0  0  0  0  0  0  0  0  0  0
    2.2423   14.9610   48.4646 O   0  5  0  0  0  0  0  0  0  0  0  0
    2.5784   18.8525   52.6363 N   0  0  0  0  0  0  0  0  0  0  0  0
    3.5693   21.2960   56.6668 N   0  0  0  0  0  0  0  0  0  0  0  0
    4.3258   13.6385   48.1965 O   0  0  0  0  0  0  0  0  0  0  0  0
    3.6494   18.8562   51.6293 C   0  0  2  0  0  0  0  0  0  0  0  0
    2.9263   20.2906   55.9703 C   0  0  0  0  0  0  0  0  0  0  0  0
    1.6972   19.9322   56.3495 N   0  0  0  0  0  0  0  0  0  0  0  0
    4.3113   17.6941   51.0444 C   0  0  1  0  0  0  0  0  0  0  0  0
    3.6132   19.6565   54.8559 C   0  0  0  0  0  0  0  0  0  0  0  0
    0.8909   17.6589   52.0944 O   0  0  0  0  0  0  0  0  0  0  0  0
    3.8698   17.0223   49.7927 C   0  0  0  0  0  0  0  0  0  0  0  0
    4.8783   20.1295   54.5720 C   0  0  0  0  0  0  0  0  0  0  0  0
    4.8687   16.5856   48.8091 C   0  0  0  0  0  0  0  0  0  0  0  0
    2.9797   18.5238   54.0854 C   0  0  0  0  0  0  0  0  0  0  0  0
    4.2342   16.0058   47.6559 O   0  0  0  0  0  0  0  0  0  0  0  0
  1  2  1  0  0  0  0
  1  8  2  0  0  0  0
  1 14  1  0  0  0  0
  2  3  2  0  0  0  0
  2  7  1  0  0  0  0
  3  4  1  0  0  0  0
  4  5  2  0  0  0  0
  5  6  1  0  0  0  0
  6  7  2  0  0  0  0
  9 16  1  0  0  0  0
 10 21  1  0  0  0  0
 11 13  1  6  0  0  0
 11 17  1  0  0  0  0
 11 20  2  0  0  0  0
 11 31  1  0  0  0  0
 12 16  2  0  0  0  0
 12 28  1  0  0  0  0
 15 26  1  0  0  0  0
 15 18  1  0  0  0  0
 16 19  1  0  0  0  0
 18 30  1  0  0  0  0
 19 22  2  0  0  0  0
 21 18  1  1  0  0  0
 21 24  1  0  0  0  0
 22 23  1  0  0  0  0
 22 25  1  0  0  0  0
 24 14  1  6  0  0  0
 24 27  1  0  0  0  0
 25 28  2  0  0  0  0
 25 30  1  0  0  0  0
 27 29  1  0  0  0  0
 29 31  1  0  0  0  0
M  CHG  1  17  -1
M  END
>  <CHROM.1>
-102.99504537,22.91756200,-104.84796740,95.01754377,92.57814549,-119.52415413
89.98789881,-41.28717386,111.41391556,-177.93260148,-67.32908743,-171.86097550
4.55626042,18.15611810,51.44136650,-1.54922885,0.40856491,0.94150954

>  <Name>
ligand

>  <RI>
0

>  <Rbt.Current_Directory>
/home/itssahil/PROJECTS/Mol_Feturizer/New_Systems/rnas/2HOO

>  <Rbt.Executable>
rbdock ($Id: //depot/dev/client3/rdock/2013.1/src/exe/rbdock.cxx#4 $)

>  <Rbt.Library>
libRbt.so (2013.1, Build901 2013/11/27)

>  <Rbt.Parameter_File>
/export/apps/rDock/src/rDock_2013.1_src/data/scripts/dock_solv.prm

>  <Rbt.Receptor>
prm/pocket_docking_5.prm

>  <SCORE>
-22.779

>  <SCORE.INTER>
-9.1291

>  <SCORE.INTER.CONST>
1

>  <SCORE.INTER.POLAR>
0

>  <SCORE.INTER.ROT>
12

>  <SCORE.INTER.SOLV>
14.9985

>  <SCORE.INTER.VDW>
-22.6856

>  <SCORE.INTER.norm>
-0.294487

>  <SCORE.INTRA>
-13.6499

>  <SCORE.INTRA.DIHEDRAL>
0.295891

>  <SCORE.INTRA.DIHEDRAL.0>
14.6094

>  <SCORE.INTRA.POLAR>
0

>  <SCORE.INTRA.POLAR.0>
0

>  <SCORE.INTRA.REPUL>
0

>  <SCORE.INTRA.REPUL.0>
0

>  <SCORE.INTRA.SOLV>
1.68006

>  <SCORE.INTRA.SOLV.lig_0>
-65.6478

>  <SCORE.INTRA.VDW>
-14.6379

>  <SCORE.INTRA.VDW.0>
9.35535

>  <SCORE.INTRA.norm>
-0.44032

>  <SCORE.RESTR>
0

>  <SCORE.RESTR.CAVITY>
0

>  <SCORE.RESTR.norm>
0

>  <SCORE.SYSTEM>
0

>  <SCORE.SYSTEM.CONST>
0

>  <SCORE.SYSTEM.DIHEDRAL>
0

>  <SCORE.SYSTEM.SOLV>
0

>  <SCORE.SYSTEM.norm>
0

>  <SCORE.heavy>
31

>  <SCORE.norm>
-0.734807

>  <RMSD>
6.395

$$$$
ligand
 OpenBabel11021811443D
libRbt.so/2013.1/901 2013/11/27
 31 32  0  0  0  0  0  0  0  0999 V2000
    8.4307   20.5595   54.0751 C   0  0  0  0  0  0  0  0  0  0  0  0
    9.9476   20.7238   54.0663 C   0  0  0  0  0  0  0  0  0  0  0  0
   10.5285   22.0331   54.0857 C   0  0  0  0  0  0  0  0  0  0  0  0
   11.9365   22.1791   54.0741 C   0  0  0  0  0  0  0  0  0  0  0  0
   12.7775   21.0397   54.0505 C   0  0  0  0  0  0  0  0  0  0  0  0
   12.2232   19.7436   54.0372 C   0  0  0  0  0  0  0  0  0  0  0  0
   10.8266   19.5775   54.0466 C   0  0  0  0  0  0  0  0  0  0  0  0
    7.9016   19.7817   54.8685 O   0  0  0  0  0  0  0  0  0  0  0  0
    3.8522   21.5989   58.8768 C   0  0  0  0  0  0  0  0  0  0  0  0
    4.3561   23.0919   52.2913 C   0  0  0  0  0  0  0  0  0  0  0  0
    2.9424   18.3026   54.4845 P   0  0  1  0  0  0  0  0  0  0  0  0
    5.5276   22.2435   57.2920 N   0  0  0  0  0  0  0  0  0  0  0  0
    2.5649   17.1647   55.3445 O   0  0  0  0  0  0  0  0  0  0  0  0
    7.6382   21.2772   53.1960 S   0  0  0  0  0  0  0  0  0  0  0  0
    7.1011   24.7073   52.4894 C   0  0  0  0  0  0  0  0  0  0  0  0
    4.2759   22.4940   57.8075 C   0  0  0  0  0  0  0  0  0  0  0  0
    3.8214   17.9471   53.3378 O   0  5  0  0  0  0  0  0  0  0  0  0
    6.2856   24.1769   53.4342 N   0  0  0  0  0  0  0  0  0  0  0  0
    3.4997   23.4478   57.3981 N   0  0  0  0  0  0  0  0  0  0  0  0
    1.7369   19.0668   54.0881 O   0  0  0  0  0  0  0  0  0  0  0  0
    5.6372   22.9118   53.0598 C   0  0  2  0  0  0  0  0  0  0  0  0
    3.9050   24.2887   56.3792 C   0  0  0  0  0  0  0  0  0  0  0  0
    3.0777   25.2577   55.9798 N   0  0  0  0  0  0  0  0  0  0  0  0
    6.1180   21.5614   53.3352 C   0  0  1  0  0  0  0  0  0  0  0  0
    5.2126   24.0835   55.7759 C   0  0  0  0  0  0  0  0  0  0  0  0
    8.2021   24.2020   52.4895 O   0  0  0  0  0  0  0  0  0  0  0  0
    5.2419   20.4264   53.7315 C   0  0  0  0  0  0  0  0  0  0  0  0
    5.9642   23.0464   56.2900 C   0  0  0  0  0  0  0  0  0  0  0  0
    4.3089   20.5839   54.8542 C   0  0  0  0  0  0  0  0  0  0  0  0
    5.6920   24.9417   54.6307 C   0  0  0  0  0  0  0  0  0  0  0  0
    3.8270   19.3057   55.3044 O   0  0  0  0  0  0  0  0  0  0  0  0
  1  2  1  0  0  0  0
  1  8  2  0  0  0  0
  1 14  1  0  0  0  0
  2  3  2  0  0  0  0
  2  7  1  0  0  0  0
  3  4  1  0  0  0  0
  4  5  2  0  0  0  0
  5  6  1  0  0  0  0
  6  7  2  0  0  0  0
  9 16  1  0  0  0  0
 10 21  1  0  0  0  0
 11 13  1  1  0  0  0
 11 17  1  0  0  0  0
 11 20  2  0  0  0  0
 11 31  1  0  0  0  0
 12 16  2  0  0  0  0
 12 28  1  0  0  0  0
 15 26  1  0  0  0  0
 15 18  1  0  0  0  0
 16 19  1  0  0  0  0
 18 30  1  0  0  0  0
 19 22  2  0  0  0  0
 21 18  1  6  0  0  0
 21 24  1  0  0  0  0
 22 23  1  0  0  0  0
 22 25  1  0  0  0  0
 24 14  1  6  0  0  0
 24 27  1  0  0  0  0
 25 28  2  0  0  0  0
 25 30  1  0  0  0  0
 27 29  1  0  0  0  0
 29 31  1  0  0  0  0
M  CHG  1  17  -1
M  END
>  <CHROM.1>
-131.10802910,-160.33675901,135.62070820,-81.69614063,-85.74808688,-160.33438718
138.79844132,128.68616278,-131.96094124,-164.53958871,-64.65801053,-175.00651661
6.06388381,21.47030256,54.60221446,-0.13309569,-0.26539290,-2.98603689

>  <Name>
ligand

>  <RI>
0

>  <Rbt.Current_Directory>
/home/itssahil/PROJECTS/Mol_Feturizer/New_Systems/rnas/2HOO

>  <Rbt.Executable>
rbdock ($Id: //depot/dev/client3/rdock/2013.1/src/exe/rbdock.cxx#4 $)

>  <Rbt.Library>
libRbt.so (2013.1, Build901 2013/11/27)

>  <Rbt.Parameter_File>
/export/apps/rDock/src/rDock_2013.1_src/data/scripts/dock_solv.prm

>  <Rbt.Receptor>
prm/pocket_docking_8.prm

>  <SCORE>
-30.0379

>  <SCORE.INTER>
-16.4926

>  <SCORE.INTER.CONST>
1

>  <SCORE.INTER.POLAR>
0

>  <SCORE.INTER.ROT>
12

>  <SCORE.INTER.SOLV>
10.684

>  <SCORE.INTER.VDW>
-26.1564

>  <SCORE.INTER.norm>
-0.532019

>  <SCORE.INTRA>
-13.5454

>  <SCORE.INTRA.DIHEDRAL>
-0.807294

>  <SCORE.INTRA.DIHEDRAL.0>
14.6094

>  <SCORE.INTRA.POLAR>
0

>  <SCORE.INTRA.POLAR.0>
0

>  <SCORE.INTRA.REPUL>
0

>  <SCORE.INTRA.REPUL.0>
0

>  <SCORE.INTRA.SOLV>
2.03202

>  <SCORE.INTRA.SOLV.lig_0>
-65.6478

>  <SCORE.INTRA.VDW>
-14.1577

>  <SCORE.INTRA.VDW.0>
9.35535

>  <SCORE.INTRA.norm>
-0.436947

>  <SCORE.RESTR>
0

>  <SCORE.RESTR.CAVITY>
0

>  <SCORE.RESTR.norm>
0

>  <SCORE.SYSTEM>
0

>  <SCORE.SYSTEM.CONST>
0

>  <SCORE.SYSTEM.DIHEDRAL>
0

>  <SCORE.SYSTEM.SOLV>
0

>  <SCORE.SYSTEM.norm>
0

>  <SCORE.heavy>
31

>  <SCORE.norm>
-0.968966

>  <RMSD>
6.406

$$$$
ligand
 OpenBabel11021811443D
libRbt.so/2013.1/901 2013/11/27
 31 32  0  0  0  0  0  0  0  0999 V2000
    4.3906   17.7014   50.3182 C   0  0  0  0  0  0  0  0  0  0  0  0
    2.9163   17.4773   50.6410 C   0  0  0  0  0  0  0  0  0  0  0  0
    2.2707   16.2616   50.2444 C   0  0  0  0  0  0  0  0  0  0  0  0
    0.9018   16.0609   50.5438 C   0  0  0  0  0  0  0  0  0  0  0  0
    0.1653   17.0506   51.2397 C   0  0  0  0  0  0  0  0  0  0  0  0
    0.7859   18.2504   51.6431 C   0  0  0  0  0  0  0  0  0  0  0  0
    2.1446   18.4694   51.3534 C   0  0  0  0  0  0  0  0  0  0  0  0
    4.7239   18.6278   49.5799 O   0  0  0  0  0  0  0  0  0  0  0  0
    7.8563   26.1767   52.5287 C   0  0  0  0  0  0  0  0  0  0  0  0
    7.3774   18.2239   53.3779 C   0  0  0  0  0  0  0  0  0  0  0  0
    8.1994   16.3686   47.1616 P   0  0  1  0  0  0  0  0  0  0  0  0
    8.2947   23.9145   51.8772 N   0  0  0  0  0  0  0  0  0  0  0  0
    9.4329   15.6563   46.7769 O   0  0  0  0  0  0  0  0  0  0  0  0
    5.3628   16.8704   50.8473 S   0  0  0  0  0  0  0  0  0  0  0  0
    8.1874   19.9738   50.4261 C   0  0  0  0  0  0  0  0  0  0  0  0
    7.3694   24.8138   52.3569 C   0  0  0  0  0  0  0  0  0  0  0  0
    7.6835   17.3127   46.1337 O   0  5  0  0  0  0  0  0  0  0  0  0
    7.3023   19.7820   51.4354 N   0  0  0  0  0  0  0  0  0  0  0  0
    6.1434   24.5089   52.6468 N   0  0  0  0  0  0  0  0  0  0  0  0
    7.1809   15.4062   47.6419 O   0  0  0  0  0  0  0  0  0  0  0  0
    7.1735   18.3921   51.8965 C   0  0  2  0  0  0  0  0  0  0  0  0
    5.6902   23.2132   52.4880 C   0  0  0  0  0  0  0  0  0  0  0  0
    4.4224   22.9342   52.8007 N   0  0  0  0  0  0  0  0  0  0  0  0
    6.8568   17.2213   51.0843 C   0  0  1  0  0  0  0  0  0  0  0  0
    6.6108   22.2016   51.9932 C   0  0  0  0  0  0  0  0  0  0  0  0
    7.6606   19.9501   49.3355 O   0  0  0  0  0  0  0  0  0  0  0  0
    7.8763   16.3268   50.4733 C   0  0  0  0  0  0  0  0  0  0  0  0
    7.8905   22.6313   51.7062 C   0  0  0  0  0  0  0  0  0  0  0  0
    8.9679   16.9028   49.6780 C   0  0  0  0  0  0  0  0  0  0  0  0
    6.1861   20.7614   51.8404 C   0  0  0  0  0  0  0  0  0  0  0  0
    8.4987   17.3094   48.3807 O   0  0  0  0  0  0  0  0  0  0  0  0
  1  2  1  0  0  0  0
  1  8  2  0  0  0  0
  1 14  1  0  0  0  0
  2  3  2  0  0  0  0
  2  7  1  0  0  0  0
  3  4  1  0  0  0  0
  4  5  2  0  0  0  0
  5  6  1  0  0  0  0
  6  7  2  0  0  0  0
  9 16  1  0  0  0  0
 10 21  1  0  0  0  0
 11 13  1  6  0  0  0
 11 17  1  0  0  0  0
 11 20  2  0  0  0  0
 11 31  1  0  0  0  0
 12 16  2  0  0  0  0
 12 28  1  0  0  0  0
 15 26  1  0  0  0  0
 15 18  1  0  0  0  0
 16 19  1  0  0  0  0
 18 30  1  0  0  0  0
 19 22  2  0  0  0  0
 21 18  1  1  0  0  0
 21 24  1  0  0  0  0
 22 23  1  0  0  0  0
 22 25  1  0  0  0  0
 24 14  1  1  0  0  0
 24 27  1  0  0  0  0
 25 28  2  0  0  0  0
 25 30  1  0  0  0  0
 27 29  1  0  0  0  0
 29 31  1  0  0  0  0
M  CHG  1  17  -1
M  END
>  <CHROM.1>
117.35098956,-155.16355821,55.36440459,94.32509005,126.17516437,-48.03211108
91.77766919,129.74244874,-174.37495733,-75.71460540,-77.07986995,-60.68595697
6.22318086,19.01029341,50.44307999,1.60921626,-0.35730629,-2.65454118

>  <Name>
ligand

>  <RI>
0

>  <Rbt.Current_Directory>
/home/itssahil/PROJECTS/Mol_Feturizer/New_Systems/rnas/2HOO

>  <Rbt.Executable>
rbdock ($Id: //depot/dev/client3/rdock/2013.1/src/exe/rbdock.cxx#4 $)

>  <Rbt.Library>
libRbt.so (2013.1, Build901 2013/11/27)

>  <Rbt.Parameter_File>
/export/apps/rDock/src/rDock_2013.1_src/data/scripts/dock_solv.prm

>  <Rbt.Receptor>
prm/pocket_docking_6.prm

>  <SCORE>
-32.0078

>  <SCORE.INTER>
-19.083

>  <SCORE.INTER.CONST>
1

>  <SCORE.INTER.POLAR>
0

>  <SCORE.INTER.ROT>
12

>  <SCORE.INTER.SOLV>
13.2035

>  <SCORE.INTER.VDW>
-28.7232

>  <SCORE.INTER.norm>
-0.615582

>  <SCORE.INTRA>
-12.9248

>  <SCORE.INTRA.DIHEDRAL>
0.461603

>  <SCORE.INTRA.DIHEDRAL.0>
14.6094

>  <SCORE.INTRA.POLAR>
0

>  <SCORE.INTRA.POLAR.0>
0

>  <SCORE.INTRA.REPUL>
0

>  <SCORE.INTRA.REPUL.0>
0

>  <SCORE.INTRA.SOLV>
2.59769

>  <SCORE.INTRA.SOLV.lig_0>
-65.6478

>  <SCORE.INTRA.VDW>
-14.4544

>  <SCORE.INTRA.VDW.0>
9.35535

>  <SCORE.INTRA.norm>
-0.416928

>  <SCORE.RESTR>
0

>  <SCORE.RESTR.CAVITY>
0

>  <SCORE.RESTR.norm>
0

>  <SCORE.SYSTEM>
0

>  <SCORE.SYSTEM.CONST>
0

>  <SCORE.SYSTEM.DIHEDRAL>
0

>  <SCORE.SYSTEM.SOLV>
0

>  <SCORE.SYSTEM.norm>
0

>  <SCORE.heavy>
31

>  <SCORE.norm>
-1.03251

>  <RMSD>
6.412

$$$$
ligand
 OpenBabel11021811443D
libRbt.so/2013.1/901 2013/11/27
 31 32  0  0  0  0  0  0  0  0999 V2000
    8.4657   19.3516   54.2119 C   0  0  0  0  0  0  0  0  0  0  0  0
    9.7902   20.1050   54.1333 C   0  0  0  0  0  0  0  0  0  0  0  0
    9.8062   21.5367   54.1798 C   0  0  0  0  0  0  0  0  0  0  0  0
   11.0378   22.2302   54.1030 C   0  0  0  0  0  0  0  0  0  0  0  0
   12.2574   21.5192   53.9876 C   0  0  0  0  0  0  0  0  0  0  0  0
   12.2611   20.1101   53.9466 C   0  0  0  0  0  0  0  0  0  0  0  0
   11.0476   19.4029   54.0196 C   0  0  0  0  0  0  0  0  0  0  0  0
    8.4455   18.1836   54.5992 O   0  0  0  0  0  0  0  0  0  0  0  0
    7.9873   16.1274   45.3920 C   0  0  0  0  0  0  0  0  0  0  0  0
    4.4204   20.8761   51.9944 C   0  0  0  0  0  0  0  0  0  0  0  0
    1.6976   18.9436   54.3375 P   0  0  1  0  0  0  0  0  0  0  0  0
    7.4501   18.0291   46.7446 N   0  0  0  0  0  0  0  0  0  0  0  0
    1.7089   19.9180   55.4453 O   0  0  0  0  0  0  0  0  0  0  0  0
    7.2807   19.9682   53.8499 S   0  0  0  0  0  0  0  0  0  0  0  0
    7.2518   20.0306   50.2661 C   0  0  0  0  0  0  0  0  0  0  0  0
    7.2719   16.6802   46.5352 C   0  0  0  0  0  0  0  0  0  0  0  0
    1.2454   17.5782   54.7187 O   0  5  0  0  0  0  0  0  0  0  0  0
    6.0035   19.5915   50.5627 N   0  0  0  0  0  0  0  0  0  0  0  0
    6.5293   15.9219   47.2792 N   0  0  0  0  0  0  0  0  0  0  0  0
    0.9718   19.5009   53.1727 O   0  0  0  0  0  0  0  0  0  0  0  0
    5.5483   19.8822   51.9299 C   0  0  2  0  0  0  0  0  0  0  0  0
    5.8483   16.4538   48.3575 C   0  0  0  0  0  0  0  0  0  0  0  0
    5.0890   15.6440   49.0995 N   0  0  0  0  0  0  0  0  0  0  0  0
    6.0557   19.3001   53.1687 C   0  0  1  0  0  0  0  0  0  0  0  0
    5.9784   17.8747   48.6403 C   0  0  0  0  0  0  0  0  0  0  0  0
    8.1096   19.2305   50.5685 O   0  0  0  0  0  0  0  0  0  0  0  0
    5.4819   18.0931   53.8220 C   0  0  0  0  0  0  0  0  0  0  0  0
    6.7995   18.5912   47.7934 C   0  0  0  0  0  0  0  0  0  0  0  0
    4.2642   18.2134   54.6335 C   0  0  0  0  0  0  0  0  0  0  0  0
    5.2251   18.5209   49.7773 C   0  0  0  0  0  0  0  0  0  0  0  0
    3.1658   18.6993   53.8422 O   0  0  0  0  0  0  0  0  0  0  0  0
  1  2  1  0  0  0  0
  1  8  2  0  0  0  0
  1 14  1  0  0  0  0
  2  3  2  0  0  0  0
  2  7  1  0  0  0  0
  3  4  1  0  0  0  0
  4  5  2  0  0  0  0
  5  6  1  0  0  0  0
  6  7  2  0  0  0  0
  9 16  1  0  0  0  0
 10 21  1  0  0  0  0
 11 13  1  1  0  0  0
 11 17  1  0  0  0  0
 11 20  2  0  0  0  0
 11 31  1  0  0  0  0
 12 16  2  0  0  0  0
 12 28  1  0  0  0  0
 15 26  1  0  0  0  0
 15 18  1  0  0  0  0
 16 19  1  0  0  0  0
 18 30  1  0  0  0  0
 19 22  2  0  0  0  0
 21 18  1  6  0  0  0
 21 24  1  0  0  0  0
 22 23  1  0  0  0  0
 22 25  1  0  0  0  0
 24 14  1  6  0  0  0
 24 27  1  0  0  0  0
 25 28  2  0  0  0  0
 25 30  1  0  0  0  0
 27 29  1  0  0  0  0
 29 31  1  0  0  0  0
M  CHG  1  17  -1
M  END
>  <CHROM.1>
-156.62424036,145.73759430,-125.86086205,86.91422347,112.31265747,3.72807597
-94.24269046,101.06750101,141.11855068,60.59708688,179.12544198,58.77466395
6.25328550,18.91802273,51.98585263,-2.38645047,-0.19752194,-1.95372587

>  <Name>
ligand

>  <RI>
0

>  <Rbt.Current_Directory>
/home/itssahil/PROJECTS/Mol_Feturizer/New_Systems/rnas/2HOO

>  <Rbt.Executable>
rbdock ($Id: //depot/dev/client3/rdock/2013.1/src/exe/rbdock.cxx#4 $)

>  <Rbt.Library>
libRbt.so (2013.1, Build901 2013/11/27)

>  <Rbt.Parameter_File>
/export/apps/rDock/src/rDock_2013.1_src/data/scripts/dock_solv.prm

>  <Rbt.Receptor>
prm/pocket_docking_3.prm

>  <SCORE>
-27.3841

>  <SCORE.INTER>
-13.858

>  <SCORE.INTER.CONST>
1

>  <SCORE.INTER.POLAR>
0

>  <SCORE.INTER.ROT>
12

>  <SCORE.INTER.SOLV>
9.32905

>  <SCORE.INTER.VDW>
-23.9484

>  <SCORE.INTER.norm>
-0.447033

>  <SCORE.INTRA>
-13.534

>  <SCORE.INTRA.DIHEDRAL>
-0.980615

>  <SCORE.INTRA.DIHEDRAL.0>
14.6094

>  <SCORE.INTRA.POLAR>
0

>  <SCORE.INTRA.POLAR.0>
0

>  <SCORE.INTRA.REPUL>
0

>  <SCORE.INTRA.REPUL.0>
0

>  <SCORE.INTRA.SOLV>
0.427661

>  <SCORE.INTRA.SOLV.lig_0>
-65.6478

>  <SCORE.INTRA.VDW>
-13.2575

>  <SCORE.INTRA.VDW.0>
9.35535

>  <SCORE.INTRA.norm>
-0.436581

>  <SCORE.RESTR>
0.00795936

>  <SCORE.RESTR.CAVITY>
0.00795936

>  <SCORE.RESTR.norm>
0.000256753

>  <SCORE.SYSTEM>
0

>  <SCORE.SYSTEM.CONST>
0

>  <SCORE.SYSTEM.DIHEDRAL>
0

>  <SCORE.SYSTEM.SOLV>
0

>  <SCORE.SYSTEM.norm>
0

>  <SCORE.heavy>
31

>  <SCORE.norm>
-0.883357

>  <RMSD>
6.416

$$$$
ligand
 OpenBabel11021811443D
libRbt.so/2013.1/901 2013/11/27
 31 32  0  0  0  0  0  0  0  0999 V2000
    7.5729   21.6048   54.0663 C   0  0  0  0  0  0  0  0  0  0  0  0
    9.0933   21.4773   54.0841 C   0  0  0  0  0  0  0  0  0  0  0  0
    9.9092   22.6368   54.2893 C   0  0  0  0  0  0  0  0  0  0  0  0
   11.3192   22.5127   54.3014 C   0  0  0  0  0  0  0  0  0  0  0  0
   11.9314   21.2485   54.1193 C   0  0  0  0  0  0  0  0  0  0  0  0
   11.1440   20.0959   53.9222 C   0  0  0  0  0  0  0  0  0  0  0  0
    9.7415   20.1987   53.9050 C   0  0  0  0  0  0  0  0  0  0  0  0
    7.0501   22.6833   53.7869 O   0  0  0  0  0  0  0  0  0  0  0  0
    4.6061   13.8856   48.2054 C   0  0  0  0  0  0  0  0  0  0  0  0
    5.1202   17.7641   52.7331 C   0  0  0  0  0  0  0  0  0  0  0  0
    1.3083   19.1104   53.4518 P   0  0  1  0  0  0  0  0  0  0  0  0
    3.7416   15.7137   49.4880 N   0  0  0  0  0  0  0  0  0  0  0  0
    1.5903   20.0142   52.3202 O   0  0  0  0  0  0  0  0  0  0  0  0
    6.7703   20.5171   54.3634 S   0  0  0  0  0  0  0  0  0  0  0  0
    7.2639   19.6398   50.9828 C   0  0  0  0  0  0  0  0  0  0  0  0
    4.7214   15.2764   48.6255 C   0  0  0  0  0  0  0  0  0  0  0  0
    0.3618   19.6584   54.4608 O   0  5  0  0  0  0  0  0  0  0  0  0
    5.9246   19.5180   51.1574 N   0  0  0  0  0  0  0  0  0  0  0  0
    5.6934   16.0180   48.1950 N   0  0  0  0  0  0  0  0  0  0  0  0
    0.9262   17.7690   52.9529 O   0  0  0  0  0  0  0  0  0  0  0  0
    5.5002   19.2057   52.5297 C   0  0  2  0  0  0  0  0  0  0  0  0
    5.8006   17.3340   48.6026 C   0  0  0  0  0  0  0  0  0  0  0  0
    6.8172   18.0673   48.1424 N   0  0  0  0  0  0  0  0  0  0  0  0
    5.4413   20.1239   53.6631 C   0  0  1  0  0  0  0  0  0  0  0  0
    4.8078   17.8690   49.5212 C   0  0  0  0  0  0  0  0  0  0  0  0
    7.8029   18.5764   50.7680 O   0  0  0  0  0  0  0  0  0  0  0  0
    4.1832   20.7037   54.2050 C   0  0  0  0  0  0  0  0  0  0  0  0
    3.8095   17.0000   49.9123 C   0  0  0  0  0  0  0  0  0  0  0  0
    3.3134   19.8862   55.0599 C   0  0  0  0  0  0  0  0  0  0  0  0
    4.8969   19.2852   50.0355 C   0  0  0  0  0  0  0  0  0  0  0  0
    2.6193   18.8928   54.2853 O   0  0  0  0  0  0  0  0  0  0  0  0
  1  2  1  0  0  0  0
  1  8  2  0  0  0  0
  1 14  1  0  0  0  0
  2  3  2  0  0  0  0
  2  7  1  0  0  0  0
  3  4  1  0  0  0  0
  4  5  2  0  0  0  0
  5  6  1  0  0  0  0
  6  7  2  0  0  0  0
  9 16  1  0  0  0  0
 10 21  1  0  0  0  0
 11 13  1  6  0  0  0
 11 17  1  0  0  0  0
 11 20  2  0  0  0  0
 11 31  1  0  0  0  0
 12 16  2  0  0  0  0
 12 28  1  0  0  0  0
 15 26  1  0  0  0  0
 15 18  1  0  0  0  0
 16 19  1  0  0  0  0
 18 30  1  0  0  0  0
 19 22  2  0  0  0  0
 21 18  1  1  0  0  0
 21 24  1  0  0  0  0
 22 23  1  0  0  0  0
 22 25  1  0  0  0  0
 24 14  1  1  0  0  0
 24 27  1  0  0  0  0
 25 28  2  0  0  0  0
 25 30  1  0  0  0  0
 27 29  1  0  0  0  0
 29 31  1  0  0  0  0
M  CHG  1  17  -1
M  END
>  <CHROM.1>
23.92662807,-140.50138510,91.62634798,86.21577956,-102.68631682,78.22375436
102.50017390,-101.74105362,-77.77575739,-73.20339249,-82.09575309,66.73045768
5.52337673,19.18770206,52.27510534,0.67035673,0.19759982,0.89895394

>  <Name>
ligand

>  <RI>
0

>  <Rbt.Current_Directory>
/home/itssahil/PROJECTS/Mol_Feturizer/New_Systems/rnas/2HOO

>  <Rbt.Executable>
rbdock ($Id: //depot/dev/client3/rdock/2013.1/src/exe/rbdock.cxx#4 $)

>  <Rbt.Library>
libRbt.so (2013.1, Build901 2013/11/27)

>  <Rbt.Parameter_File>
/export/apps/rDock/src/rDock_2013.1_src/data/scripts/dock_solv.prm

>  <Rbt.Receptor>
prm/pocket_docking_2.prm

>  <SCORE>
-22.2969

>  <SCORE.INTER>
-11.4263

>  <SCORE.INTER.CONST>
1

>  <SCORE.INTER.POLAR>
0

>  <SCORE.INTER.ROT>
12

>  <SCORE.INTER.SOLV>
8.8634

>  <SCORE.INTER.VDW>
-22.172

>  <SCORE.INTER.norm>
-0.368591

>  <SCORE.INTRA>
-11.5345

>  <SCORE.INTRA.DIHEDRAL>
1.81303

>  <SCORE.INTRA.DIHEDRAL.0>
14.6094

>  <SCORE.INTRA.POLAR>
0

>  <SCORE.INTRA.POLAR.0>
0

>  <SCORE.INTRA.REPUL>
0

>  <SCORE.INTRA.REPUL.0>
0

>  <SCORE.INTRA.SOLV>
4.51809

>  <SCORE.INTRA.SOLV.lig_0>
-65.6478

>  <SCORE.INTRA.VDW>
-14.7001

>  <SCORE.INTRA.VDW.0>
9.35535

>  <SCORE.INTRA.norm>
-0.372082

>  <SCORE.RESTR>
0.663999

>  <SCORE.RESTR.CAVITY>
0.663999

>  <SCORE.RESTR.norm>
0.0214193

>  <SCORE.SYSTEM>
0

>  <SCORE.SYSTEM.CONST>
0

>  <SCORE.SYSTEM.DIHEDRAL>
0

>  <SCORE.SYSTEM.SOLV>
0

>  <SCORE.SYSTEM.norm>
0

>  <SCORE.heavy>
31

>  <SCORE.norm>
-0.719254

>  <RMSD>
6.442

$$$$
ligand
 OpenBabel11021811443D
libRbt.so/2013.1/901 2013/11/27
 31 32  0  0  0  0  0  0  0  0999 V2000
    0.4752   17.6675   52.0772 C   0  0  0  0  0  0  0  0  0  0  0  0
    0.7098   17.1337   53.4872 C   0  0  0  0  0  0  0  0  0  0  0  0
    1.3728   15.8784   53.6792 C   0  0  0  0  0  0  0  0  0  0  0  0
    1.5845   15.3869   54.9896 C   0  0  0  0  0  0  0  0  0  0  0  0
    1.1521   16.1302   56.1151 C   0  0  0  0  0  0  0  0  0  0  0  0
    0.5035   17.3703   55.9452 C   0  0  0  0  0  0  0  0  0  0  0  0
    0.2821   17.8749   54.6512 C   0  0  0  0  0  0  0  0  0  0  0  0
   -0.6537   17.6362   51.5884 O   0  0  0  0  0  0  0  0  0  0  0  0
    7.7531   25.8514   52.3374 C   0  0  0  0  0  0  0  0  0  0  0  0
    3.6128   18.7907   54.0218 C   0  0  0  0  0  0  0  0  0  0  0  0
    4.6281   14.7042   48.8085 P   0  0  1  0  0  0  0  0  0  0  0  0
    7.5810   23.6038   51.5292 N   0  0  0  0  0  0  0  0  0  0  0  0
    3.6365   15.1448   47.8087 O   0  0  0  0  0  0  0  0  0  0  0  0
    1.5223   18.1880   51.3367 S   0  0  0  0  0  0  0  0  0  0  0  0
    3.5262   21.2134   51.5993 C   0  0  0  0  0  0  0  0  0  0  0  0
    7.1905   24.5150   52.4844 C   0  0  0  0  0  0  0  0  0  0  0  0
    5.1118   13.3088   48.6274 O   0  5  0  0  0  0  0  0  0  0  0  0
    4.3309   20.2723   52.1522 N   0  0  0  0  0  0  0  0  0  0  0  0
    6.3819   24.2424   53.4601 N   0  0  0  0  0  0  0  0  0  0  0  0
    5.7216   15.6975   48.9174 O   0  0  0  0  0  0  0  0  0  0  0  0
    3.6576   19.0231   52.5358 C   0  0  2  0  0  0  0  0  0  0  0  0
    5.8574   22.9714   53.5975 C   0  0  0  0  0  0  0  0  0  0  0  0
    5.0312   22.7252   54.6171 N   0  0  0  0  0  0  0  0  0  0  0  0
    3.0379   18.0477   51.6440 C   0  0  1  0  0  0  0  0  0  0  0  0
    6.2290   21.9488   52.6320 C   0  0  0  0  0  0  0  0  0  0  0  0
    2.9380   21.8686   52.4313 O   0  0  0  0  0  0  0  0  0  0  0  0
    3.7628   16.9117   51.0139 C   0  0  0  0  0  0  0  0  0  0  0  0
    7.0884   22.3441   51.6271 C   0  0  0  0  0  0  0  0  0  0  0  0
    3.0636   15.6423   50.7785 C   0  0  0  0  0  0  0  0  0  0  0  0
    5.7230   20.5323   52.7551 C   0  0  0  0  0  0  0  0  0  0  0  0
    3.9563   14.6595   50.2254 O   0  0  0  0  0  0  0  0  0  0  0  0
  1  2  1  0  0  0  0
  1  8  2  0  0  0  0
  1 14  1  0  0  0  0
  2  3  2  0  0  0  0
  2  7  1  0  0  0  0
  3  4  1  0  0  0  0
  4  5  2  0  0  0  0
  5  6  1  0  0  0  0
  6  7  2  0  0  0  0
  9 16  1  0  0  0  0
 10 21  1  0  0  0  0
 11 13  1  6  0  0  0
 11 17  1  0  0  0  0
 11 20  2  0  0  0  0
 11 31  1  0  0  0  0
 12 16  2  0  0  0  0
 12 28  1  0  0  0  0
 15 26  1  0  0  0  0
 15 18  1  0  0  0  0
 16 19  1  0  0  0  0
 18 30  1  0  0  0  0
 19 22  2  0  0  0  0
 21 18  1  1  0  0  0
 21 24  1  0  0  0  0
 22 23  1  0  0  0  0
 22 25  1  0  0  0  0
 24 14  1  1  0  0  0
 24 27  1  0  0  0  0
 25 28  2  0  0  0  0
 25 30  1  0  0  0  0
 27 29  1  0  0  0  0
 29 31  1  0  0  0  0
M  CHG  1  17  -1
M  END
>  <CHROM.1>
105.88086531,13.70513082,-86.85664808,82.80280302,-112.80831911,-3.55735758
86.17921535,-32.90208922,84.36001618,-177.12732964,-66.83815137,-42.65850526
3.75160494,18.70493298,51.95115264,2.09247506,-0.67953815,-2.55878998

>  <Name>
ligand

>  <RI>
0

>  <Rbt.Current_Directory>
/home/itssahil/PROJECTS/Mol_Feturizer/New_Systems/rnas/2HOO

>  <Rbt.Executable>
rbdock ($Id: //depot/dev/client3/rdock/2013.1/src/exe/rbdock.cxx#4 $)

>  <Rbt.Library>
libRbt.so (2013.1, Build901 2013/11/27)

>  <Rbt.Parameter_File>
/export/apps/rDock/src/rDock_2013.1_src/data/scripts/dock_solv.prm

>  <Rbt.Receptor>
prm/pocket_docking_6.prm

>  <SCORE>
-27.1154

>  <SCORE.INTER>
-15.7996

>  <SCORE.INTER.CONST>
1

>  <SCORE.INTER.POLAR>
0

>  <SCORE.INTER.ROT>
12

>  <SCORE.INTER.SOLV>
10.891

>  <SCORE.INTER.VDW>
-25.7634

>  <SCORE.INTER.norm>
-0.509664

>  <SCORE.INTRA>
-11.3158

>  <SCORE.INTRA.DIHEDRAL>
-0.0375399

>  <SCORE.INTRA.DIHEDRAL.0>
14.6094

>  <SCORE.INTRA.POLAR>
0

>  <SCORE.INTRA.POLAR.0>
0

>  <SCORE.INTRA.REPUL>
0

>  <SCORE.INTRA.REPUL.0>
0

>  <SCORE.INTRA.SOLV>
3.73486

>  <SCORE.INTRA.SOLV.lig_0>
-65.6478

>  <SCORE.INTRA.VDW>
-13.1644

>  <SCORE.INTRA.VDW.0>
9.35535

>  <SCORE.INTRA.norm>
-0.365025

>  <SCORE.RESTR>
0

>  <SCORE.RESTR.CAVITY>
0

>  <SCORE.RESTR.norm>
0

>  <SCORE.SYSTEM>
0

>  <SCORE.SYSTEM.CONST>
0

>  <SCORE.SYSTEM.DIHEDRAL>
0

>  <SCORE.SYSTEM.SOLV>
0

>  <SCORE.SYSTEM.norm>
0

>  <SCORE.heavy>
31

>  <SCORE.norm>
-0.874689

>  <RMSD>
6.442

$$$$
ligand
 OpenBabel11021811443D
libRbt.so/2013.1/901 2013/11/27
 31 32  0  0  0  0  0  0  0  0999 V2000
    6.9208   17.6613   54.1265 C   0  0  0  0  0  0  0  0  0  0  0  0
    7.5890   17.6060   52.7559 C   0  0  0  0  0  0  0  0  0  0  0  0
    7.4143   16.4579   51.9172 C   0  0  0  0  0  0  0  0  0  0  0  0
    8.0395   16.4111   50.6481 C   0  0  0  0  0  0  0  0  0  0  0  0
    8.8319   17.4947   50.1964 C   0  0  0  0  0  0  0  0  0  0  0  0
    9.0098   18.6350   51.0059 C   0  0  0  0  0  0  0  0  0  0  0  0
    8.3984   18.6999   52.2708 C   0  0  0  0  0  0  0  0  0  0  0  0
    7.6100   17.7336   55.1435 O   0  0  0  0  0  0  0  0  0  0  0  0
    6.9232   17.1140   47.6454 C   0  0  0  0  0  0  0  0  0  0  0  0
    2.2027   18.4885   54.8206 C   0  0  0  0  0  0  0  0  0  0  0  0
    7.0046   22.6094   52.7735 P   0  0  1  0  0  0  0  0  0  0  0  0
    5.9262   18.7421   49.0909 N   0  0  0  0  0  0  0  0  0  0  0  0
    7.1069   24.0694   52.5866 O   0  0  0  0  0  0  0  0  0  0  0  0
    5.5418   17.6295   54.2409 S   0  0  0  0  0  0  0  0  0  0  0  0
    1.5193   17.0333   52.5748 C   0  0  0  0  0  0  0  0  0  0  0  0
    5.8364   17.4819   48.5441 C   0  0  0  0  0  0  0  0  0  0  0  0
    7.8027   21.8045   51.8096 O   0  5  0  0  0  0  0  0  0  0  0  0
    2.5099   17.9444   52.4090 N   0  0  0  0  0  0  0  0  0  0  0  0
    4.8703   16.6525   48.7865 N   0  0  0  0  0  0  0  0  0  0  0  0
    7.2586   22.2554   54.1893 O   0  0  0  0  0  0  0  0  0  0  0  0
    3.1457   18.4076   53.6508 C   0  0  2  0  0  0  0  0  0  0  0  0
    3.8395   17.0103   49.6343 C   0  0  0  0  0  0  0  0  0  0  0  0
    2.8586   16.1323   49.8577 N   0  0  0  0  0  0  0  0  0  0  0  0
    4.5501   18.7563   53.8435 C   0  0  1  0  0  0  0  0  0  0  0  0
    3.8575   18.3299   50.2459 C   0  0  0  0  0  0  0  0  0  0  0  0
    1.9434   15.9095   52.7318 O   0  0  0  0  0  0  0  0  0  0  0  0
    5.0982   20.1313   53.6957 C   0  0  0  0  0  0  0  0  0  0  0  0
    4.9345   19.1328   49.9294 C   0  0  0  0  0  0  0  0  0  0  0  0
    5.0692   20.7899   52.3838 C   0  0  0  0  0  0  0  0  0  0  0  0
    2.7379   18.7934   51.1456 C   0  0  0  0  0  0  0  0  0  0  0  0
    5.5343   22.1474   52.4805 O   0  0  0  0  0  0  0  0  0  0  0  0
  1  2  1  0  0  0  0
  1  8  2  0  0  0  0
  1 14  1  0  0  0  0
  2  3  2  0  0  0  0
  2  7  1  0  0  0  0
  3  4  1  0  0  0  0
  4  5  2  0  0  0  0
  5  6  1  0  0  0  0
  6  7  2  0  0  0  0
  9 16  1  0  0  0  0
 10 21  1  0  0  0  0
 11 13  1  6  0  0  0
 11 17  1  0  0  0  0
 11 20  2  0  0  0  0
 11 31  1  0  0  0  0
 12 16  2  0  0  0  0
 12 28  1  0  0  0  0
 15 26  1  0  0  0  0
 15 18  1  0  0  0  0
 16 19  1  0  0  0  0
 18 30  1  0  0  0  0
 19 22  2  0  0  0  0
 21 18  1  1  0  0  0
 21 24  1  0  0  0  0
 22 23  1  0  0  0  0
 22 25  1  0  0  0  0
 24 14  1  1  0  0  0
 24 27  1  0  0  0  0
 25 28  2  0  0  0  0
 25 30  1  0  0  0  0
 27 29  1  0  0  0  0
 29 31  1  0  0  0  0
M  CHG  1  17  -1
M  END
>  <CHROM.1>
117.73446307,-70.59507948,161.57107463,-80.96650074,-33.94423925,-102.51670851
90.65298801,116.03389442,60.42427331,174.88631697,69.34524572,171.40135222
5.55891767,18.84671394,52.03412309,0.86841411,0.54187835,0.79975258

>  <Name>
ligand

>  <RI>
0

>  <Rbt.Current_Directory>
/home/itssahil/PROJECTS/Mol_Feturizer/New_Systems/rnas/2HOO

>  <Rbt.Executable>
rbdock ($Id: //depot/dev/client3/rdock/2013.1/src/exe/rbdock.cxx#4 $)

>  <Rbt.Library>
libRbt.so (2013.1, Build901 2013/11/27)

>  <Rbt.Parameter_File>
/export/apps/rDock/src/rDock_2013.1_src/data/scripts/dock_solv.prm

>  <Rbt.Receptor>
prm/blind_docking_60.prm

>  <SCORE>
-20.8951

>  <SCORE.INTER>
-12.9191

>  <SCORE.INTER.CONST>
1

>  <SCORE.INTER.POLAR>
0

>  <SCORE.INTER.ROT>
12

>  <SCORE.INTER.SOLV>
15.3193

>  <SCORE.INTER.VDW>
-25.3192

>  <SCORE.INTER.norm>
-0.416745

>  <SCORE.INTRA>
-7.98586

>  <SCORE.INTRA.DIHEDRAL>
3.11693

>  <SCORE.INTRA.DIHEDRAL.0>
14.6094

>  <SCORE.INTRA.POLAR>
0

>  <SCORE.INTRA.POLAR.0>
0

>  <SCORE.INTRA.REPUL>
0

>  <SCORE.INTRA.REPUL.0>
0

>  <SCORE.INTRA.SOLV>
5.56764

>  <SCORE.INTRA.SOLV.lig_0>
-65.6478

>  <SCORE.INTRA.VDW>
-12.3281

>  <SCORE.INTRA.VDW.0>
9.35535

>  <SCORE.INTRA.norm>
-0.257609

>  <SCORE.RESTR>
0.00990437

>  <SCORE.RESTR.CAVITY>
0.00990437

>  <SCORE.RESTR.norm>
0.000319496

>  <SCORE.SYSTEM>
0

>  <SCORE.SYSTEM.CONST>
0

>  <SCORE.SYSTEM.DIHEDRAL>
0

>  <SCORE.SYSTEM.SOLV>
0

>  <SCORE.SYSTEM.norm>
0

>  <SCORE.heavy>
31

>  <SCORE.norm>
-0.674034

>  <RMSD>
6.456

$$$$
ligand
 OpenBabel11021811443D
libRbt.so/2013.1/901 2013/11/27
 31 32  0  0  0  0  0  0  0  0999 V2000
    3.5829   17.9100   54.0360 C   0  0  0  0  0  0  0  0  0  0  0  0
    2.3258   17.1599   54.4665 C   0  0  0  0  0  0  0  0  0  0  0  0
    1.1031   17.3304   53.7397 C   0  0  0  0  0  0  0  0  0  0  0  0
   -0.0606   16.6343   54.1460 C   0  0  0  0  0  0  0  0  0  0  0  0
   -0.0247   15.7637   55.2626 C   0  0  0  0  0  0  0  0  0  0  0  0
    1.1712   15.5791   55.9857 C   0  0  0  0  0  0  0  0  0  0  0  0
    2.3377   16.2631   55.5990 C   0  0  0  0  0  0  0  0  0  0  0  0
    4.3492   18.3629   54.8857 O   0  0  0  0  0  0  0  0  0  0  0  0
   10.1103   15.1671   45.8817 C   0  0  0  0  0  0  0  0  0  0  0  0
    4.7168   17.9685   49.7583 C   0  0  0  0  0  0  0  0  0  0  0  0
    5.5432   24.0701   52.9790 P   0  0  1  0  0  0  0  0  0  0  0  0
   10.2572   16.5558   47.8270 N   0  0  0  0  0  0  0  0  0  0  0  0
    4.1267   24.4790   52.9240 O   0  0  0  0  0  0  0  0  0  0  0  0
    3.8728   18.0894   52.6945 S   0  0  0  0  0  0  0  0  0  0  0  0
    7.5288   19.8469   50.2861 C   0  0  0  0  0  0  0  0  0  0  0  0
    9.4918   15.6712   47.1013 C   0  0  0  0  0  0  0  0  0  0  0  0
    6.2915   24.2577   51.7066 O   0  5  0  0  0  0  0  0  0  0  0  0
    7.0257   18.5983   50.4499 N   0  0  0  0  0  0  0  0  0  0  0  0
    8.3018   15.2893   47.4449 N   0  0  0  0  0  0  0  0  0  0  0  0
    6.2089   24.6858   54.1503 O   0  0  0  0  0  0  0  0  0  0  0  0
    5.6062   18.5423   50.8278 C   0  0  2  0  0  0  0  0  0  0  0  0
    7.7185   15.7763   48.5990 C   0  0  0  0  0  0  0  0  0  0  0  0
    6.4895   15.3645   48.9198 N   0  0  0  0  0  0  0  0  0  0  0  0
    5.0170   18.9534   52.0985 C   0  0  1  0  0  0  0  0  0  0  0  0
    8.4607   16.7228   49.4170 C   0  0  0  0  0  0  0  0  0  0  0  0
    8.1020   20.2500   51.2743 O   0  0  0  0  0  0  0  0  0  0  0  0
    5.4331   20.1606   52.8615 C   0  0  0  0  0  0  0  0  0  0  0  0
    9.7220   17.0576   48.9676 C   0  0  0  0  0  0  0  0  0  0  0  0
    5.1558   21.4966   52.3193 C   0  0  0  0  0  0  0  0  0  0  0  0
    7.8593   17.3224   50.6646 C   0  0  0  0  0  0  0  0  0  0  0  0
    5.6308   22.5210   53.2101 O   0  0  0  0  0  0  0  0  0  0  0  0
  1  2  1  0  0  0  0
  1  8  2  0  0  0  0
  1 14  1  0  0  0  0
  2  3  2  0  0  0  0
  2  7  1  0  0  0  0
  3  4  1  0  0  0  0
  4  5  2  0  0  0  0
  5  6  1  0  0  0  0
  6  7  2  0  0  0  0
  9 16  1  0  0  0  0
 10 21  1  0  0  0  0
 11 13  1  6  0  0  0
 11 17  1  0  0  0  0
 11 20  2  0  0  0  0
 11 31  1  0  0  0  0
 12 16  2  0  0  0  0
 12 28  1  0  0  0  0
 15 26  1  0  0  0  0
 15 18  1  0  0  0  0
 16 19  1  0  0  0  0
 18 30  1  0  0  0  0
 19 22  2  0  0  0  0
 21 18  1  1  0  0  0
 21 24  1  0  0  0  0
 22 23  1  0  0  0  0
 22 25  1  0  0  0  0
 24 14  1  6  0  0  0
 24 27  1  0  0  0  0
 25 28  2  0  0  0  0
 25 30  1  0  0  0  0
 27 29  1  0  0  0  0
 29 31  1  0  0  0  0
M  CHG  1  17  -1
M  END
>  <CHROM.1>
141.61483121,172.84606872,149.50392313,96.67582029,112.24297069,-79.76568805
37.88397701,-111.33015730,-87.10477586,179.71456668,179.00594677,63.35546493
5.60845084,18.88692920,51.69942429,2.47942476,0.70282876,0.28641217

>  <Name>
ligand

>  <RI>
0

>  <Rbt.Current_Directory>
/home/itssahil/PROJECTS/Mol_Feturizer/New_Systems/rnas/2HOO

>  <Rbt.Executable>
rbdock ($Id: //depot/dev/client3/rdock/2013.1/src/exe/rbdock.cxx#4 $)

>  <Rbt.Library>
libRbt.so (2013.1, Build901 2013/11/27)

>  <Rbt.Parameter_File>
/export/apps/rDock/src/rDock_2013.1_src/data/scripts/dock_solv.prm

>  <Rbt.Receptor>
prm/pocket_docking_8.prm

>  <SCORE>
-25.1878

>  <SCORE.INTER>
-13.1323

>  <SCORE.INTER.CONST>
1

>  <SCORE.INTER.POLAR>
0

>  <SCORE.INTER.ROT>
12

>  <SCORE.INTER.SOLV>
16.0373

>  <SCORE.INTER.VDW>
-25.7006

>  <SCORE.INTER.norm>
-0.423622

>  <SCORE.INTRA>
-12.0555

>  <SCORE.INTRA.DIHEDRAL>
-2.16426

>  <SCORE.INTRA.DIHEDRAL.0>
14.6094

>  <SCORE.INTRA.POLAR>
0

>  <SCORE.INTRA.POLAR.0>
0

>  <SCORE.INTRA.REPUL>
0

>  <SCORE.INTRA.REPUL.0>
0

>  <SCORE.INTRA.SOLV>
2.56838

>  <SCORE.INTRA.SOLV.lig_0>
-65.6478

>  <SCORE.INTRA.VDW>
-12.2576

>  <SCORE.INTRA.VDW.0>
9.35535

>  <SCORE.INTRA.norm>
-0.388887

>  <SCORE.RESTR>
0

>  <SCORE.RESTR.CAVITY>
0

>  <SCORE.RESTR.norm>
0

>  <SCORE.SYSTEM>
0

>  <SCORE.SYSTEM.CONST>
0

>  <SCORE.SYSTEM.DIHEDRAL>
0

>  <SCORE.SYSTEM.SOLV>
0

>  <SCORE.SYSTEM.norm>
0

>  <SCORE.heavy>
31

>  <SCORE.norm>
-0.812509

>  <RMSD>
6.470

$$$$
ligand
 OpenBabel11021811443D
libRbt.so/2013.1/901 2013/11/27
 31 32  0  0  0  0  0  0  0  0999 V2000
    6.9812   18.2111   53.4319 C   0  0  0  0  0  0  0  0  0  0  0  0
    7.3692   19.5351   52.7804 C   0  0  0  0  0  0  0  0  0  0  0  0
    7.6025   20.6933   53.5905 C   0  0  0  0  0  0  0  0  0  0  0  0
    7.9589   21.9197   52.9800 C   0  0  0  0  0  0  0  0  0  0  0  0
    8.0942   22.0099   51.5729 C   0  0  0  0  0  0  0  0  0  0  0  0
    7.8744   20.8789   50.7607 C   0  0  0  0  0  0  0  0  0  0  0  0
    7.5176   19.6518   51.3481 C   0  0  0  0  0  0  0  0  0  0  0  0
    7.6386   17.7753   54.3765 O   0  0  0  0  0  0  0  0  0  0  0  0
   10.0736   15.1932   44.4611 C   0  0  0  0  0  0  0  0  0  0  0  0
    4.1436   15.8393   50.2611 C   0  0  0  0  0  0  0  0  0  0  0  0
    0.6989   17.2258   52.0377 P   0  0  1  0  0  0  0  0  0  0  0  0
    9.4984   16.3614   46.4708 N   0  0  0  0  0  0  0  0  0  0  0  0
    0.4509   16.6729   50.6924 O   0  0  0  0  0  0  0  0  0  0  0  0
    5.8940   17.4895   52.9702 S   0  0  0  0  0  0  0  0  0  0  0  0
    7.4089   15.9134   50.1241 C   0  0  0  0  0  0  0  0  0  0  0  0
    9.0431   15.6426   45.3886 C   0  0  0  0  0  0  0  0  0  0  0  0
   -0.0951   18.4413   52.3636 O   0  5  0  0  0  0  0  0  0  0  0  0
    6.4040   16.6970   49.6604 N   0  0  0  0  0  0  0  0  0  0  0  0
    7.7952   15.3647   45.1748 N   0  0  0  0  0  0  0  0  0  0  0  0
    0.5878   16.1581   53.0585 O   0  0  0  0  0  0  0  0  0  0  0  0
    5.2452   16.8208   50.5564 C   0  0  2  0  0  0  0  0  0  0  0  0
    6.8226   15.7996   46.0546 C   0  0  0  0  0  0  0  0  0  0  0  0
    5.5468   15.4987   45.8005 N   0  0  0  0  0  0  0  0  0  0  0  0
    5.0887   17.7528   51.6689 C   0  0  1  0  0  0  0  0  0  0  0  0
    7.2229   16.5733   47.2195 C   0  0  0  0  0  0  0  0  0  0  0  0
    8.0218   16.4323   51.0310 O   0  0  0  0  0  0  0  0  0  0  0  0
    4.1935   18.9406   51.6452 C   0  0  0  0  0  0  0  0  0  0  0  0
    8.5759   16.8069   47.3595 C   0  0  0  0  0  0  0  0  0  0  0  0
    2.7713   18.7745   51.3202 C   0  0  0  0  0  0  0  0  0  0  0  0
    6.2026   17.1125   48.1921 C   0  0  0  0  0  0  0  0  0  0  0  0
    2.1779   17.7412   52.1257 O   0  0  0  0  0  0  0  0  0  0  0  0
  1  2  1  0  0  0  0
  1  8  2  0  0  0  0
  1 14  1  0  0  0  0
  2  3  2  0  0  0  0
  2  7  1  0  0  0  0
  3  4  1  0  0  0  0
  4  5  2  0  0  0  0
  5  6  1  0  0  0  0
  6  7  2  0  0  0  0
  9 16  1  0  0  0  0
 10 21  1  0  0  0  0
 11 13  1  6  0  0  0
 11 17  1  0  0  0  0
 11 20  2  0  0  0  0
 11 31  1  0  0  0  0
 12 16  2  0  0  0  0
 12 28  1  0  0  0  0
 15 26  1  0  0  0  0
 15 18  1  0  0  0  0
 16 19  1  0  0  0  0
 18 30  1  0  0  0  0
 19 22  2  0  0  0  0
 21 18  1  1  0  0  0
 21 24  1  0  0  0  0
 22 23  1  0  0  0  0
 22 25  1  0  0  0  0
 24 14  1  1  0  0  0
 24 27  1  0  0  0  0
 25 28  2  0  0  0  0
 25 30  1  0  0  0  0
 27 29  1  0  0  0  0
 29 31  1  0  0  0  0
M  CHG  1  17  -1
M  END
>  <CHROM.1>
-49.67009129,10.30935591,108.06188408,-72.15466143,-94.27629873,0.50454800
105.24240887,-124.82416153,124.14315305,50.91075826,-177.33341972,60.85579179
5.61461311,17.51217459,50.42135980,-2.36927126,-0.26417515,-2.11933010

>  <Name>
ligand

>  <RI>
0

>  <Rbt.Current_Directory>
/home/itssahil/PROJECTS/Mol_Feturizer/New_Systems/rnas/2HOO

>  <Rbt.Executable>
rbdock ($Id: //depot/dev/client3/rdock/2013.1/src/exe/rbdock.cxx#4 $)

>  <Rbt.Library>
libRbt.so (2013.1, Build901 2013/11/27)

>  <Rbt.Parameter_File>
/export/apps/rDock/src/rDock_2013.1_src/data/scripts/dock_solv.prm

>  <Rbt.Receptor>
prm/pocket_docking_5.prm

>  <SCORE>
-24.0194

>  <SCORE.INTER>
-8.9913

>  <SCORE.INTER.CONST>
1

>  <SCORE.INTER.POLAR>
0

>  <SCORE.INTER.ROT>
12

>  <SCORE.INTER.SOLV>
13.9368

>  <SCORE.INTER.VDW>
-22.2398

>  <SCORE.INTER.norm>
-0.290042

>  <SCORE.INTRA>
-15.0372

>  <SCORE.INTRA.DIHEDRAL>
-1.42668

>  <SCORE.INTRA.DIHEDRAL.0>
14.6094

>  <SCORE.INTRA.POLAR>
0

>  <SCORE.INTRA.POLAR.0>
0

>  <SCORE.INTRA.REPUL>
0

>  <SCORE.INTRA.REPUL.0>
0

>  <SCORE.INTRA.SOLV>
0.347863

>  <SCORE.INTRA.SOLV.lig_0>
-65.6478

>  <SCORE.INTRA.VDW>
-14.4977

>  <SCORE.INTRA.VDW.0>
9.35535

>  <SCORE.INTRA.norm>
-0.48507

>  <SCORE.RESTR>
0.00908878

>  <SCORE.RESTR.CAVITY>
0.00908878

>  <SCORE.RESTR.norm>
0.000293186

>  <SCORE.SYSTEM>
0

>  <SCORE.SYSTEM.CONST>
0

>  <SCORE.SYSTEM.DIHEDRAL>
0

>  <SCORE.SYSTEM.SOLV>
0

>  <SCORE.SYSTEM.norm>
0

>  <SCORE.heavy>
31

>  <SCORE.norm>
-0.774818

>  <RMSD>
6.477

$$$$
ligand
 OpenBabel11021811443D
libRbt.so/2013.1/901 2013/11/27
 31 32  0  0  0  0  0  0  0  0999 V2000
    3.0540   18.9075   51.3159 C   0  0  0  0  0  0  0  0  0  0  0  0
    2.8144   18.4555   52.7533 C   0  0  0  0  0  0  0  0  0  0  0  0
    3.9204   18.0767   53.5812 C   0  0  0  0  0  0  0  0  0  0  0  0
    3.6913   17.6550   54.9130 C   0  0  0  0  0  0  0  0  0  0  0  0
    2.3763   17.6110   55.4372 C   0  0  0  0  0  0  0  0  0  0  0  0
    1.2766   17.9860   54.6388 C   0  0  0  0  0  0  0  0  0  0  0  0
    1.4832   18.4061   53.3126 C   0  0  0  0  0  0  0  0  0  0  0  0
    2.5458   18.2855   50.3835 O   0  0  0  0  0  0  0  0  0  0  0  0
   10.1023   15.0054   46.4254 C   0  0  0  0  0  0  0  0  0  0  0  0
    7.5611   20.6893   50.7391 C   0  0  0  0  0  0  0  0  0  0  0  0
    7.9479   24.0623   52.8717 P   0  0  1  0  0  0  0  0  0  0  0  0
    8.0691   15.0693   47.6888 N   0  0  0  0  0  0  0  0  0  0  0  0
    7.9522   24.6119   51.5025 O   0  0  0  0  0  0  0  0  0  0  0  0
    3.8413   20.0135   51.0461 S   0  0  0  0  0  0  0  0  0  0  0  0
    6.9695   17.5861   51.8566 C   0  0  0  0  0  0  0  0  0  0  0  0
    9.1209   15.7876   47.1664 C   0  0  0  0  0  0  0  0  0  0  0  0
    9.2761   23.5993   53.3570 O   0  5  0  0  0  0  0  0  0  0  0  0
    6.6613   18.3668   50.7915 N   0  0  0  0  0  0  0  0  0  0  0  0
    9.2636   17.0687   47.3021 N   0  0  0  0  0  0  0  0  0  0  0  0
    7.2768   25.0027   53.7988 O   0  0  0  0  0  0  0  0  0  0  0  0
    6.4177   19.7822   51.1051 C   0  0  2  0  0  0  0  0  0  0  0  0
    8.3329   17.8033   48.0117 C   0  0  0  0  0  0  0  0  0  0  0  0
    8.5142   19.1205   48.1350 N   0  0  0  0  0  0  0  0  0  0  0  0
    5.2112   20.3587   51.6906 C   0  0  1  0  0  0  0  0  0  0  0  0
    7.1957   17.1152   48.6025 C   0  0  0  0  0  0  0  0  0  0  0  0
    7.9836   17.9420   52.4155 O   0  0  0  0  0  0  0  0  0  0  0  0
    5.2056   21.2717   52.8649 C   0  0  0  0  0  0  0  0  0  0  0  0
    7.1325   15.7526   48.3923 C   0  0  0  0  0  0  0  0  0  0  0  0
    5.6654   22.6577   52.7122 C   0  0  0  0  0  0  0  0  0  0  0  0
    6.1702   17.8568   49.4248 C   0  0  0  0  0  0  0  0  0  0  0  0
    7.0876   22.7510   52.9051 O   0  0  0  0  0  0  0  0  0  0  0  0
  1  2  1  0  0  0  0
  1  8  2  0  0  0  0
  1 14  1  0  0  0  0
  2  3  2  0  0  0  0
  2  7  1  0  0  0  0
  3  4  1  0  0  0  0
  4  5  2  0  0  0  0
  5  6  1  0  0  0  0
  6  7  2  0  0  0  0
  9 16  1  0  0  0  0
 10 21  1  0  0  0  0
 11 13  1  6  0  0  0
 11 17  1  0  0  0  0
 11 20  2  0  0  0  0
 11 31  1  0  0  0  0
 12 16  2  0  0  0  0
 12 28  1  0  0  0  0
 15 26  1  0  0  0  0
 15 18  1  0  0  0  0
 16 19  1  0  0  0  0
 18 30  1  0  0  0  0
 19 22  2  0  0  0  0
 21 18  1  6  0  0  0
 21 24  1  0  0  0  0
 22 23  1  0  0  0  0
 22 25  1  0  0  0  0
 24 14  1  6  0  0  0
 24 27  1  0  0  0  0
 25 28  2  0  0  0  0
 25 30  1  0  0  0  0
 27 29  1  0  0  0  0
 29 31  1  0  0  0  0
M  CHG  1  17  -1
M  END
>  <CHROM.1>
119.81502340,44.49342939,85.80819034,-61.01367465,103.57668451,-69.46451060
127.89395027,-106.14823194,-69.57636713,-87.52315041,-177.82661506,-67.12185966
6.22056871,19.53571288,51.25109424,1.89898903,0.56281107,0.54015235

>  <Name>
ligand

>  <RI>
0

>  <Rbt.Current_Directory>
/home/itssahil/PROJECTS/Mol_Feturizer/New_Systems/rnas/2HOO

>  <Rbt.Executable>
rbdock ($Id: //depot/dev/client3/rdock/2013.1/src/exe/rbdock.cxx#4 $)

>  <Rbt.Library>
libRbt.so (2013.1, Build901 2013/11/27)

>  <Rbt.Parameter_File>
/export/apps/rDock/src/rDock_2013.1_src/data/scripts/dock_solv.prm

>  <Rbt.Receptor>
prm/pocket_docking_5.prm

>  <SCORE>
-22.2506

>  <SCORE.INTER>
-10.4653

>  <SCORE.INTER.CONST>
1

>  <SCORE.INTER.POLAR>
0

>  <SCORE.INTER.ROT>
12

>  <SCORE.INTER.SOLV>
16.1613

>  <SCORE.INTER.VDW>
-23.964

>  <SCORE.INTER.norm>
-0.33759

>  <SCORE.INTRA>
-11.7877

>  <SCORE.INTRA.DIHEDRAL>
2.41502

>  <SCORE.INTRA.DIHEDRAL.0>
14.6094

>  <SCORE.INTRA.POLAR>
0

>  <SCORE.INTRA.POLAR.0>
0

>  <SCORE.INTRA.REPUL>
0

>  <SCORE.INTRA.REPUL.0>
0

>  <SCORE.INTRA.SOLV>
3.84274

>  <SCORE.INTRA.SOLV.lig_0>
-65.6478

>  <SCORE.INTRA.VDW>
-14.9166

>  <SCORE.INTRA.VDW.0>
9.35535

>  <SCORE.INTRA.norm>
-0.380248

>  <SCORE.RESTR>
0.00234521

>  <SCORE.RESTR.CAVITY>
0.00234521

>  <SCORE.RESTR.norm>
7.56519e-05

>  <SCORE.SYSTEM>
0

>  <SCORE.SYSTEM.CONST>
0

>  <SCORE.SYSTEM.DIHEDRAL>
0

>  <SCORE.SYSTEM.SOLV>
0

>  <SCORE.SYSTEM.norm>
0

>  <SCORE.heavy>
31

>  <SCORE.norm>
-0.717762

>  <RMSD>
6.486

$$$$
ligand
 OpenBabel11021811443D
libRbt.so/2013.1/901 2013/11/27
 31 32  0  0  0  0  0  0  0  0999 V2000
    7.1656   17.6283   53.1181 C   0  0  0  0  0  0  0  0  0  0  0  0
    7.8915   17.4253   51.7915 C   0  0  0  0  0  0  0  0  0  0  0  0
    7.5845   16.2921   50.9706 C   0  0  0  0  0  0  0  0  0  0  0  0
    8.2637   16.1074   49.7424 C   0  0  0  0  0  0  0  0  0  0  0  0
    9.2410   17.0388   49.3140 C   0  0  0  0  0  0  0  0  0  0  0  0
    9.5515   18.1628   50.1061 C   0  0  0  0  0  0  0  0  0  0  0  0
    8.8890   18.3631   51.3305 C   0  0  0  0  0  0  0  0  0  0  0  0
    7.8032   17.6478   54.1705 O   0  0  0  0  0  0  0  0  0  0  0  0
    6.6413   17.3417   47.3493 C   0  0  0  0  0  0  0  0  0  0  0  0
    2.6509   18.8057   54.7093 C   0  0  0  0  0  0  0  0  0  0  0  0
    7.8994   21.7837   51.7349 P   0  0  1  0  0  0  0  0  0  0  0  0
    5.6210   18.6645   49.0649 N   0  0  0  0  0  0  0  0  0  0  0  0
    8.1769   21.1312   50.4411 O   0  0  0  0  0  0  0  0  0  0  0  0
    5.7915   17.7903   53.1528 S   0  0  0  0  0  0  0  0  0  0  0  0
    2.7986   20.6241   51.9187 C   0  0  0  0  0  0  0  0  0  0  0  0
    5.6069   17.4781   48.3668 C   0  0  0  0  0  0  0  0  0  0  0  0
    9.0997   22.0070   52.5856 O   0  5  0  0  0  0  0  0  0  0  0  0
    2.8626   19.3188   52.2807 N   0  0  0  0  0  0  0  0  0  0  0  0
    4.7512   16.5260   48.5706 N   0  0  0  0  0  0  0  0  0  0  0  0
    7.0878   23.0056   51.5286 O   0  0  0  0  0  0  0  0  0  0  0  0
    3.5683   19.0554   53.5430 C   0  0  2  0  0  0  0  0  0  0  0  0
    3.7688   16.6646   49.5324 C   0  0  0  0  0  0  0  0  0  0  0  0
    2.9016   15.6654   49.7122 N   0  0  0  0  0  0  0  0  0  0  0  0
    5.0124   18.9946   53.7477 C   0  0  1  0  0  0  0  0  0  0  0  0
    3.7117   17.8940   50.3077 C   0  0  0  0  0  0  0  0  0  0  0  0
    2.0048   21.2522   52.5842 O   0  0  0  0  0  0  0  0  0  0  0  0
    5.7932   20.0098   54.5043 C   0  0  0  0  0  0  0  0  0  0  0  0
    4.6734   18.8409   50.0189 C   0  0  0  0  0  0  0  0  0  0  0  0
    6.3023   21.2008   53.8129 C   0  0  0  0  0  0  0  0  0  0  0  0
    2.6355   18.1210   51.3412 C   0  0  0  0  0  0  0  0  0  0  0  0
    7.0166   20.8353   52.6192 O   0  0  0  0  0  0  0  0  0  0  0  0
  1  2  1  0  0  0  0
  1  8  2  0  0  0  0
  1 14  1  0  0  0  0
  2  3  2  0  0  0  0
  2  7  1  0  0  0  0
  3  4  1  0  0  0  0
  4  5  2  0  0  0  0
  5  6  1  0  0  0  0
  6  7  2  0  0  0  0
  9 16  1  0  0  0  0
 10 21  1  0  0  0  0
 11 13  1  6  0  0  0
 11 17  1  0  0  0  0
 11 20  2  0  0  0  0
 11 31  1  0  0  0  0
 12 16  2  0  0  0  0
 12 28  1  0  0  0  0
 15 26  1  0  0  0  0
 15 18  1  0  0  0  0
 16 19  1  0  0  0  0
 18 30  1  0  0  0  0
 19 22  2  0  0  0  0
 21 18  1  6  0  0  0
 21 24  1  0  0  0  0
 22 23  1  0  0  0  0
 22 25  1  0  0  0  0
 24 14  1  1  0  0  0
 24 27  1  0  0  0  0
 25 28  2  0  0  0  0
 25 30  1  0  0  0  0
 27 29  1  0  0  0  0
 29 31  1  0  0  0  0
M  CHG  1  17  -1
M  END
>  <CHROM.1>
118.98682320,-122.46545661,172.67122302,-74.25211968,101.62240429,69.86931143
108.40944836,93.42481395,167.79671721,-50.85891332,-169.50843533,-165.91742641
5.94192666,18.95375120,51.55850914,-1.08793791,-0.24144781,-2.39375322

>  <Name>
ligand

>  <RI>
0

>  <Rbt.Current_Directory>
/home/itssahil/PROJECTS/Mol_Feturizer/New_Systems/rnas/2HOO

>  <Rbt.Executable>
rbdock ($Id: //depot/dev/client3/rdock/2013.1/src/exe/rbdock.cxx#4 $)

>  <Rbt.Library>
libRbt.so (2013.1, Build901 2013/11/27)

>  <Rbt.Parameter_File>
/export/apps/rDock/src/rDock_2013.1_src/data/scripts/dock_solv.prm

>  <Rbt.Receptor>
prm/pocket_docking_4.prm

>  <SCORE>
-29.6982

>  <SCORE.INTER>
-12.9976

>  <SCORE.INTER.CONST>
1

>  <SCORE.INTER.POLAR>
0

>  <SCORE.INTER.ROT>
12

>  <SCORE.INTER.SOLV>
19.2148

>  <SCORE.INTER.VDW>
-26.67

>  <SCORE.INTER.norm>
-0.419277

>  <SCORE.INTRA>
-16.7006

>  <SCORE.INTRA.DIHEDRAL>
2.74474

>  <SCORE.INTRA.DIHEDRAL.0>
14.6094

>  <SCORE.INTRA.POLAR>
0

>  <SCORE.INTRA.POLAR.0>
0

>  <SCORE.INTRA.REPUL>
0

>  <SCORE.INTRA.REPUL.0>
0

>  <SCORE.INTRA.SOLV>
0.170798

>  <SCORE.INTRA.SOLV.lig_0>
-65.6478

>  <SCORE.INTRA.VDW>
-18.1584

>  <SCORE.INTRA.VDW.0>
9.35535

>  <SCORE.INTRA.norm>
-0.53873

>  <SCORE.RESTR>
0

>  <SCORE.RESTR.CAVITY>
0

>  <SCORE.RESTR.norm>
0

>  <SCORE.SYSTEM>
0

>  <SCORE.SYSTEM.CONST>
0

>  <SCORE.SYSTEM.DIHEDRAL>
0

>  <SCORE.SYSTEM.SOLV>
0

>  <SCORE.SYSTEM.norm>
0

>  <SCORE.heavy>
31

>  <SCORE.norm>
-0.958007

>  <RMSD>
6.488

$$$$
ligand
 OpenBabel11021811443D
libRbt.so/2013.1/901 2013/11/27
 31 32  0  0  0  0  0  0  0  0999 V2000
    1.9313   16.4467   50.4591 C   0  0  0  0  0  0  0  0  0  0  0  0
    2.9006   15.4806   49.7845 C   0  0  0  0  0  0  0  0  0  0  0  0
    3.6180   14.5190   50.5674 C   0  0  0  0  0  0  0  0  0  0  0  0
    4.5184   13.6276   49.9362 C   0  0  0  0  0  0  0  0  0  0  0  0
    4.7111   13.6734   48.5337 C   0  0  0  0  0  0  0  0  0  0  0  0
    4.0090   14.6090   47.7469 C   0  0  0  0  0  0  0  0  0  0  0  0
    3.1114   15.5044   48.3555 C   0  0  0  0  0  0  0  0  0  0  0  0
    0.7936   16.0753   50.7458 O   0  0  0  0  0  0  0  0  0  0  0  0
    2.9244   21.4607   59.7419 C   0  0  0  0  0  0  0  0  0  0  0  0
    4.0641   20.7315   51.4575 C   0  0  0  0  0  0  0  0  0  0  0  0
    8.0606   19.6883   50.6526 P   0  0  1  0  0  0  0  0  0  0  0  0
    1.8438   20.4994   57.8334 N   0  0  0  0  0  0  0  0  0  0  0  0
    8.6044   20.3112   51.8746 O   0  0  0  0  0  0  0  0  0  0  0  0
    2.3174   17.7430   50.7529 S   0  0  0  0  0  0  0  0  0  0  0  0
    4.6647   18.8632   54.2479 C   0  0  0  0  0  0  0  0  0  0  0  0
    2.9166   21.2223   58.3041 C   0  0  0  0  0  0  0  0  0  0  0  0
    7.5749   20.6533   49.6294 O   0  5  0  0  0  0  0  0  0  0  0  0
    3.6574   19.4488   53.5541 N   0  0  0  0  0  0  0  0  0  0  0  0
    3.8715   21.6759   57.5541 N   0  0  0  0  0  0  0  0  0  0  0  0
    9.0171   18.6924   50.1164 O   0  0  0  0  0  0  0  0  0  0  0  0
    3.7931   19.3939   52.0914 C   0  0  2  0  0  0  0  0  0  0  0  0
    3.8543   21.4521   56.1907 C   0  0  0  0  0  0  0  0  0  0  0  0
    4.8522   21.9379   55.4483 N   0  0  0  0  0  0  0  0  0  0  0  0
    3.7152   18.2077   51.2443 C   0  0  1  0  0  0  0  0  0  0  0  0
    2.7487   20.7027   55.6146 C   0  0  0  0  0  0  0  0  0  0  0  0
    4.4220   17.7119   54.5363 O   0  0  0  0  0  0  0  0  0  0  0  0
    4.8922   17.3997   50.8263 C   0  0  0  0  0  0  0  0  0  0  0  0
    1.7887   20.2569   56.5002 C   0  0  0  0  0  0  0  0  0  0  0  0
    6.0050   18.0457   50.1192 C   0  0  0  0  0  0  0  0  0  0  0  0
    2.6527   20.4641   54.1274 C   0  0  0  0  0  0  0  0  0  0  0  0
    6.7656   18.8789   51.0113 O   0  0  0  0  0  0  0  0  0  0  0  0
  1  2  1  0  0  0  0
  1  8  2  0  0  0  0
  1 14  1  0  0  0  0
  2  3  2  0  0  0  0
  2  7  1  0  0  0  0
  3  4  1  0  0  0  0
  4  5  2  0  0  0  0
  5  6  1  0  0  0  0
  6  7  2  0  0  0  0
  9 16  1  0  0  0  0
 10 21  1  0  0  0  0
 11 13  1  1  0  0  0
 11 17  1  0  0  0  0
 11 20  2  0  0  0  0
 11 31  1  0  0  0  0
 12 16  2  0  0  0  0
 12 28  1  0  0  0  0
 15 26  1  0  0  0  0
 15 18  1  0  0  0  0
 16 19  1  0  0  0  0
 18 30  1  0  0  0  0
 19 22  2  0  0  0  0
 21 18  1  1  0  0  0
 21 24  1  0  0  0  0
 22 23  1  0  0  0  0
 22 25  1  0  0  0  0
 24 14  1  1  0  0  0
 24 27  1  0  0  0  0
 25 28  2  0  0  0  0
 25 30  1  0  0  0  0
 27 29  1  0  0  0  0
 29 31  1  0  0  0  0
M  CHG  1  17  -1
M  END
>  <CHROM.1>
-81.00041006,-37.40517944,-150.71996862,-93.92367454,-110.83692143,-5.98367693
-94.72120167,124.18003194,72.46857864,72.22682826,177.37917868,-174.73517349
4.37542670,18.65702634,52.43646430,1.38289219,-0.49035042,-2.22295477

>  <Name>
ligand

>  <RI>
0

>  <Rbt.Current_Directory>
/home/itssahil/PROJECTS/Mol_Feturizer/New_Systems/rnas/2HOO

>  <Rbt.Executable>
rbdock ($Id: //depot/dev/client3/rdock/2013.1/src/exe/rbdock.cxx#4 $)

>  <Rbt.Library>
libRbt.so (2013.1, Build901 2013/11/27)

>  <Rbt.Parameter_File>
/export/apps/rDock/src/rDock_2013.1_src/data/scripts/dock_solv.prm

>  <Rbt.Receptor>
prm/pocket_docking_7.prm

>  <SCORE>
-22.2719

>  <SCORE.INTER>
-10.7695

>  <SCORE.INTER.CONST>
1

>  <SCORE.INTER.POLAR>
0

>  <SCORE.INTER.ROT>
12

>  <SCORE.INTER.SOLV>
14.7056

>  <SCORE.INTER.VDW>
-23.6815

>  <SCORE.INTER.norm>
-0.347402

>  <SCORE.INTRA>
-11.5024

>  <SCORE.INTRA.DIHEDRAL>
0.730077

>  <SCORE.INTRA.DIHEDRAL.0>
14.6094

>  <SCORE.INTRA.POLAR>
0

>  <SCORE.INTRA.POLAR.0>
0

>  <SCORE.INTRA.REPUL>
0

>  <SCORE.INTRA.REPUL.0>
0

>  <SCORE.INTRA.SOLV>
3.40184

>  <SCORE.INTRA.SOLV.lig_0>
-65.6478

>  <SCORE.INTRA.VDW>
-13.5684

>  <SCORE.INTRA.VDW.0>
9.35535

>  <SCORE.INTRA.norm>
-0.371046

>  <SCORE.RESTR>
0

>  <SCORE.RESTR.CAVITY>
0

>  <SCORE.RESTR.norm>
0

>  <SCORE.SYSTEM>
0

>  <SCORE.SYSTEM.CONST>
0

>  <SCORE.SYSTEM.DIHEDRAL>
0

>  <SCORE.SYSTEM.SOLV>
0

>  <SCORE.SYSTEM.norm>
0

>  <SCORE.heavy>
31

>  <SCORE.norm>
-0.718449

>  <RMSD>
6.492

$$$$
ligand
 OpenBabel11021811443D
libRbt.so/2013.1/901 2013/11/27
 31 32  0  0  0  0  0  0  0  0999 V2000
    7.6232   21.3001   52.5662 C   0  0  0  0  0  0  0  0  0  0  0  0
    9.0063   21.5769   53.1480 C   0  0  0  0  0  0  0  0  0  0  0  0
    9.8102   20.4959   53.6353 C   0  0  0  0  0  0  0  0  0  0  0  0
   11.0912   20.7595   54.1770 C   0  0  0  0  0  0  0  0  0  0  0  0
   11.5888   22.0843   54.2350 C   0  0  0  0  0  0  0  0  0  0  0  0
   10.8139   23.1595   53.7545 C   0  0  0  0  0  0  0  0  0  0  0  0
    9.5380   22.9185   53.2143 C   0  0  0  0  0  0  0  0  0  0  0  0
    7.4748   21.2174   51.3473 O   0  0  0  0  0  0  0  0  0  0  0  0
    6.0311   13.0296   47.9537 C   0  0  0  0  0  0  0  0  0  0  0  0
    6.9166   18.2286   52.4610 C   0  0  0  0  0  0  0  0  0  0  0  0
    0.7350   20.0395   54.4134 P   0  0  1  0  0  0  0  0  0  0  0  0
    4.9355   14.5590   49.4353 N   0  0  0  0  0  0  0  0  0  0  0  0
    0.3028   19.4139   53.1490 O   0  0  0  0  0  0  0  0  0  0  0  0
    6.5273   21.1414   53.3966 S   0  0  0  0  0  0  0  0  0  0  0  0
    3.3804   18.2996   51.7927 C   0  0  0  0  0  0  0  0  0  0  0  0
    5.8356   14.4014   48.4056 C   0  0  0  0  0  0  0  0  0  0  0  0
   -0.3214   20.8230   55.1093 O   0  5  0  0  0  0  0  0  0  0  0  0
    4.6726   18.3805   51.3897 N   0  0  0  0  0  0  0  0  0  0  0  0
    6.4827   15.3780   47.8512 N   0  0  0  0  0  0  0  0  0  0  0  0
    1.3933   19.0364   55.2822 O   0  0  0  0  0  0  0  0  0  0  0  0
    5.5996   18.9515   52.3775 C   0  0  2  0  0  0  0  0  0  0  0  0
    6.2976   16.6755   48.2891 C   0  0  0  0  0  0  0  0  0  0  0  0
    6.9842   17.6562   47.6978 N   0  0  0  0  0  0  0  0  0  0  0  0
    5.3726   20.1173   53.2261 C   0  0  1  0  0  0  0  0  0  0  0  0
    5.3683   16.9239   49.3802 C   0  0  0  0  0  0  0  0  0  0  0  0
    3.1975   17.4057   52.5896 O   0  0  0  0  0  0  0  0  0  0  0  0
    4.1040   20.3871   53.9546 C   0  0  0  0  0  0  0  0  0  0  0  0
    4.7240   15.8173   49.8949 C   0  0  0  0  0  0  0  0  0  0  0  0
    2.9625   20.9699   53.2383 C   0  0  0  0  0  0  0  0  0  0  0  0
    5.1571   18.3134   49.9303 C   0  0  0  0  0  0  0  0  0  0  0  0
    1.8307   21.1211   54.1129 O   0  0  0  0  0  0  0  0  0  0  0  0
  1  2  1  0  0  0  0
  1  8  2  0  0  0  0
  1 14  1  0  0  0  0
  2  3  2  0  0  0  0
  2  7  1  0  0  0  0
  3  4  1  0  0  0  0
  4  5  2  0  0  0  0
  5  6  1  0  0  0  0
  6  7  2  0  0  0  0
  9 16  1  0  0  0  0
 10 21  1  0  0  0  0
 11 13  1  6  0  0  0
 11 17  1  0  0  0  0
 11 20  2  0  0  0  0
 11 31  1  0  0  0  0
 12 16  2  0  0  0  0
 12 28  1  0  0  0  0
 15 26  1  0  0  0  0
 15 18  1  0  0  0  0
 16 19  1  0  0  0  0
 18 30  1  0  0  0  0
 19 22  2  0  0  0  0
 21 18  1  6  0  0  0
 21 24  1  0  0  0  0
 22 23  1  0  0  0  0
 22 25  1  0  0  0  0
 24 14  1  1  0  0  0
 24 27  1  0  0  0  0
 25 28  2  0  0  0  0
 25 30  1  0  0  0  0
 27 29  1  0  0  0  0
 29 31  1  0  0  0  0
M  CHG  1  17  -1
M  END
>  <CHROM.1>
-97.93776992,-140.33190932,19.49478823,-74.53769263,138.21283386,-85.14993419
41.92836086,100.57049244,-154.53095751,178.67725270,-87.25536252,-45.41790413
5.30052351,19.14434874,52.16182560,-0.80095017,0.21583056,0.73264523

>  <Name>
ligand

>  <RI>
0

>  <Rbt.Current_Directory>
/home/itssahil/PROJECTS/Mol_Feturizer/New_Systems/rnas/2HOO

>  <Rbt.Executable>
rbdock ($Id: //depot/dev/client3/rdock/2013.1/src/exe/rbdock.cxx#4 $)

>  <Rbt.Library>
libRbt.so (2013.1, Build901 2013/11/27)

>  <Rbt.Parameter_File>
/export/apps/rDock/src/rDock_2013.1_src/data/scripts/dock_solv.prm

>  <Rbt.Receptor>
prm/pocket_docking_2.prm

>  <SCORE>
-17.8503

>  <SCORE.INTER>
-10.2218

>  <SCORE.INTER.CONST>
1

>  <SCORE.INTER.POLAR>
0

>  <SCORE.INTER.ROT>
12

>  <SCORE.INTER.SOLV>
8.84455

>  <SCORE.INTER.VDW>
-21.3627

>  <SCORE.INTER.norm>
-0.329736

>  <SCORE.INTRA>
-8.88023

>  <SCORE.INTRA.DIHEDRAL>
4.03269

>  <SCORE.INTRA.DIHEDRAL.0>
14.6094

>  <SCORE.INTRA.POLAR>
0

>  <SCORE.INTRA.POLAR.0>
0

>  <SCORE.INTRA.REPUL>
0

>  <SCORE.INTRA.REPUL.0>
0

>  <SCORE.INTRA.SOLV>
1.64122

>  <SCORE.INTRA.SOLV.lig_0>
-65.6478

>  <SCORE.INTRA.VDW>
-11.7172

>  <SCORE.INTRA.VDW.0>
9.35535

>  <SCORE.INTRA.norm>
-0.286459

>  <SCORE.RESTR>
1.25178

>  <SCORE.RESTR.CAVITY>
1.25178

>  <SCORE.RESTR.norm>
0.0403801

>  <SCORE.SYSTEM>
0

>  <SCORE.SYSTEM.CONST>
0

>  <SCORE.SYSTEM.DIHEDRAL>
0

>  <SCORE.SYSTEM.SOLV>
0

>  <SCORE.SYSTEM.norm>
0

>  <SCORE.heavy>
31

>  <SCORE.norm>
-0.575815

>  <RMSD>
6.518

$$$$
ligand
 OpenBabel11021811443D
libRbt.so/2013.1/901 2013/11/27
 31 32  0  0  0  0  0  0  0  0999 V2000
    6.9599   20.0187   50.5522 C   0  0  0  0  0  0  0  0  0  0  0  0
    8.0412   19.1132   49.9700 C   0  0  0  0  0  0  0  0  0  0  0  0
    8.9185   18.3898   50.8414 C   0  0  0  0  0  0  0  0  0  0  0  0
    9.9218   17.5539   50.2952 C   0  0  0  0  0  0  0  0  0  0  0  0
   10.0615   17.4207   48.8920 C   0  0  0  0  0  0  0  0  0  0  0  0
    9.2031   18.1202   48.0196 C   0  0  0  0  0  0  0  0  0  0  0  0
    8.2012   18.9571   48.5427 C   0  0  0  0  0  0  0  0  0  0  0  0
    7.2767   21.0343   51.1707 O   0  0  0  0  0  0  0  0  0  0  0  0
    3.8834   21.5948   59.2191 C   0  0  0  0  0  0  0  0  0  0  0  0
    2.5346   18.0639   51.7166 C   0  0  0  0  0  0  0  0  0  0  0  0
    3.9160   14.3874   47.6508 P   0  0  1  0  0  0  0  0  0  0  0  0
    5.0388   21.4584   57.1261 N   0  0  0  0  0  0  0  0  0  0  0  0
    4.4565   13.0161   47.7156 O   0  0  0  0  0  0  0  0  0  0  0  0
    5.6201   19.7096   50.3935 S   0  0  0  0  0  0  0  0  0  0  0  0
    5.0157   18.0672   54.0517 C   0  0  0  0  0  0  0  0  0  0  0  0
    3.8473   21.2894   57.7944 C   0  0  0  0  0  0  0  0  0  0  0  0
    4.1554   15.0867   46.3594 O   0  5  0  0  0  0  0  0  0  0  0  0
    4.2452   18.9086   53.3187 N   0  0  0  0  0  0  0  0  0  0  0  0
    2.7500   20.8892   57.2323 N   0  0  0  0  0  0  0  0  0  0  0  0
    2.4961   14.3987   48.0726 O   0  0  0  0  0  0  0  0  0  0  0  0
    3.9672   18.4632   51.9457 C   0  0  2  0  0  0  0  0  0  0  0  0
    2.7244   20.5949   55.8825 C   0  0  0  0  0  0  0  0  0  0  0  0
    1.5777   20.1810   55.3378 N   0  0  0  0  0  0  0  0  0  0  0  0
    4.9100   18.4005   50.8330 C   0  0  1  0  0  0  0  0  0  0  0  0
    3.9467   20.7402   55.1074 C   0  0  0  0  0  0  0  0  0  0  0  0
    4.3750   17.4440   54.8693 O   0  0  0  0  0  0  0  0  0  0  0  0
    5.2304   17.1599   50.0772 C   0  0  0  0  0  0  0  0  0  0  0  0
    5.0570   21.1807   55.7987 C   0  0  0  0  0  0  0  0  0  0  0  0
    4.2167   16.5580   49.2020 C   0  0  0  0  0  0  0  0  0  0  0  0
    3.9913   20.3923   53.6395 C   0  0  0  0  0  0  0  0  0  0  0  0
    4.6703   15.2951   48.6842 O   0  0  0  0  0  0  0  0  0  0  0  0
  1  2  1  0  0  0  0
  1  8  2  0  0  0  0
  1 14  1  0  0  0  0
  2  3  2  0  0  0  0
  2  7  1  0  0  0  0
  3  4  1  0  0  0  0
  4  5  2  0  0  0  0
  5  6  1  0  0  0  0
  6  7  2  0  0  0  0
  9 16  1  0  0  0  0
 10 21  1  0  0  0  0
 11 13  1  6  0  0  0
 11 17  1  0  0  0  0
 11 20  2  0  0  0  0
 11 31  1  0  0  0  0
 12 16  2  0  0  0  0
 12 28  1  0  0  0  0
 15 26  1  0  0  0  0
 15 18  1  0  0  0  0
 16 19  1  0  0  0  0
 18 30  1  0  0  0  0
 19 22  2  0  0  0  0
 21 18  1  6  0  0  0
 21 24  1  0  0  0  0
 22 23  1  0  0  0  0
 22 25  1  0  0  0  0
 24 14  1  6  0  0  0
 24 27  1  0  0  0  0
 25 28  2  0  0  0  0
 25 30  1  0  0  0  0
 27 29  1  0  0  0  0
 29 31  1  0  0  0  0
M  CHG  1  17  -1
M  END
>  <CHROM.1>
66.65673368,57.20318056,110.25098640,-104.66954489,110.31712573,-33.35003702
120.02580254,-110.03981505,-84.77526142,-173.59107092,-176.09282538,-161.16677744
5.06177888,18.30682669,51.67856283,-1.39664850,0.44817729,0.94534841

>  <Name>
ligand

>  <RI>
0

>  <Rbt.Current_Directory>
/home/itssahil/PROJECTS/Mol_Feturizer/New_Systems/rnas/2HOO

>  <Rbt.Executable>
rbdock ($Id: //depot/dev/client3/rdock/2013.1/src/exe/rbdock.cxx#4 $)

>  <Rbt.Library>
libRbt.so (2013.1, Build901 2013/11/27)

>  <Rbt.Parameter_File>
/export/apps/rDock/src/rDock_2013.1_src/data/scripts/dock_solv.prm

>  <Rbt.Receptor>
prm/pocket_docking_6.prm

>  <SCORE>
-24.6705

>  <SCORE.INTER>
-11.5426

>  <SCORE.INTER.CONST>
1

>  <SCORE.INTER.POLAR>
0

>  <SCORE.INTER.ROT>
12

>  <SCORE.INTER.SOLV>
12.1979

>  <SCORE.INTER.VDW>
-23.3611

>  <SCORE.INTER.norm>
-0.372342

>  <SCORE.INTRA>
-13.1279

>  <SCORE.INTRA.DIHEDRAL>
1.05915

>  <SCORE.INTRA.DIHEDRAL.0>
14.6094

>  <SCORE.INTRA.POLAR>
0

>  <SCORE.INTRA.POLAR.0>
0

>  <SCORE.INTRA.REPUL>
0

>  <SCORE.INTRA.REPUL.0>
0

>  <SCORE.INTRA.SOLV>
1.71306

>  <SCORE.INTRA.SOLV.lig_0>
-65.6478

>  <SCORE.INTRA.VDW>
-14.514

>  <SCORE.INTRA.VDW.0>
9.35535

>  <SCORE.INTRA.norm>
-0.423481

>  <SCORE.RESTR>
0

>  <SCORE.RESTR.CAVITY>
0

>  <SCORE.RESTR.norm>
0

>  <SCORE.SYSTEM>
0

>  <SCORE.SYSTEM.CONST>
0

>  <SCORE.SYSTEM.DIHEDRAL>
0

>  <SCORE.SYSTEM.SOLV>
0

>  <SCORE.SYSTEM.norm>
0

>  <SCORE.heavy>
31

>  <SCORE.norm>
-0.795823

>  <RMSD>
6.529

$$$$
ligand
 OpenBabel11021811443D
libRbt.so/2013.1/901 2013/11/27
 31 32  0  0  0  0  0  0  0  0999 V2000
    4.7715   19.2378   51.1975 C   0  0  0  0  0  0  0  0  0  0  0  0
    5.6660   18.7978   52.3526 C   0  0  0  0  0  0  0  0  0  0  0  0
    6.7448   19.6351   52.7852 C   0  0  0  0  0  0  0  0  0  0  0  0
    7.5733   19.2198   53.8553 C   0  0  0  0  0  0  0  0  0  0  0  0
    7.3399   17.9846   54.5079 C   0  0  0  0  0  0  0  0  0  0  0  0
    6.2791   17.1508   54.0995 C   0  0  0  0  0  0  0  0  0  0  0  0
    5.4459   17.5447   53.0372 C   0  0  0  0  0  0  0  0  0  0  0  0
    3.8522   20.0305   51.3999 O   0  0  0  0  0  0  0  0  0  0  0  0
    7.1002   19.5126   43.7316 C   0  0  0  0  0  0  0  0  0  0  0  0
    6.5299   15.4170   48.4811 C   0  0  0  0  0  0  0  0  0  0  0  0
    1.4952   15.3535   51.4546 P   0  0  1  0  0  0  0  0  0  0  0  0
    7.2557   19.6364   46.1180 N   0  0  0  0  0  0  0  0  0  0  0  0
    0.7654   14.3242   50.6900 O   0  0  0  0  0  0  0  0  0  0  0  0
    4.9815   18.7527   49.9183 S   0  0  0  0  0  0  0  0  0  0  0  0
    7.8515   17.1351   51.1178 C   0  0  0  0  0  0  0  0  0  0  0  0
    7.5787   18.9323   44.9800 C   0  0  0  0  0  0  0  0  0  0  0  0
    1.2271   16.7519   51.0224 O   0  5  0  0  0  0  0  0  0  0  0  0
    7.6860   17.2055   49.7737 N   0  0  0  0  0  0  0  0  0  0  0  0
    8.2581   17.8284   44.9776 N   0  0  0  0  0  0  0  0  0  0  0  0
    1.3084   15.1400   52.9085 O   0  0  0  0  0  0  0  0  0  0  0  0
    6.4032   16.6887   49.2752 C   0  0  2  0  0  0  0  0  0  0  0  0
    8.7029   17.2801   46.1654 C   0  0  0  0  0  0  0  0  0  0  0  0
    9.3962   16.1396   46.1255 N   0  0  0  0  0  0  0  0  0  0  0  0
    5.0788   17.2623   49.4938 C   0  0  1  0  0  0  0  0  0  0  0  0
    8.3947   17.9607   47.4134 C   0  0  0  0  0  0  0  0  0  0  0  0
    7.8997   15.9937   51.5207 O   0  0  0  0  0  0  0  0  0  0  0  0
    3.8058   16.5065   49.3484 C   0  0  0  0  0  0  0  0  0  0  0  0
    7.6739   19.1327   47.3057 C   0  0  0  0  0  0  0  0  0  0  0  0
    3.6894   15.1589   49.9197 C   0  0  0  0  0  0  0  0  0  0  0  0
    8.8159   17.3878   48.7447 C   0  0  0  0  0  0  0  0  0  0  0  0
    3.0354   15.1989   51.2000 O   0  0  0  0  0  0  0  0  0  0  0  0
  1  2  1  0  0  0  0
  1  8  2  0  0  0  0
  1 14  1  0  0  0  0
  2  3  2  0  0  0  0
  2  7  1  0  0  0  0
  3  4  1  0  0  0  0
  4  5  2  0  0  0  0
  5  6  1  0  0  0  0
  6  7  2  0  0  0  0
  9 16  1  0  0  0  0
 10 21  1  0  0  0  0
 11 13  1  6  0  0  0
 11 17  1  0  0  0  0
 11 20  2  0  0  0  0
 11 31  1  0  0  0  0
 12 16  2  0  0  0  0
 12 28  1  0  0  0  0
 15 26  1  0  0  0  0
 15 18  1  0  0  0  0
 16 19  1  0  0  0  0
 18 30  1  0  0  0  0
 19 22  2  0  0  0  0
 21 18  1  1  0  0  0
 21 24  1  0  0  0  0
 22 23  1  0  0  0  0
 22 25  1  0  0  0  0
 24 14  1  1  0  0  0
 24 27  1  0  0  0  0
 25 28  2  0  0  0  0
 25 30  1  0  0  0  0
 27 29  1  0  0  0  0
 29 31  1  0  0  0  0
M  CHG  1  17  -1
M  END
>  <CHROM.1>
-81.25705307,53.32553413,-100.58583504,65.52591743,-111.08032893,-157.31170686
-161.64826359,-134.59669702,-125.72264392,97.85848103,77.60257135,53.31769187
5.57299806,17.32694938,49.88530606,-2.39208848,-0.44571449,-1.67425835

>  <Name>
ligand

>  <RI>
0

>  <Rbt.Current_Directory>
/home/itssahil/PROJECTS/Mol_Feturizer/New_Systems/rnas/2HOO

>  <Rbt.Executable>
rbdock ($Id: //depot/dev/client3/rdock/2013.1/src/exe/rbdock.cxx#4 $)

>  <Rbt.Library>
libRbt.so (2013.1, Build901 2013/11/27)

>  <Rbt.Parameter_File>
/export/apps/rDock/src/rDock_2013.1_src/data/scripts/dock_solv.prm

>  <Rbt.Receptor>
prm/blind_docking_100.prm

>  <SCORE>
-24.2499

>  <SCORE.INTER>
-15.2651

>  <SCORE.INTER.CONST>
1

>  <SCORE.INTER.POLAR>
0

>  <SCORE.INTER.ROT>
12

>  <SCORE.INTER.SOLV>
19.0507

>  <SCORE.INTER.VDW>
-28.127

>  <SCORE.INTER.norm>
-0.492423

>  <SCORE.INTRA>
-9.74588

>  <SCORE.INTRA.DIHEDRAL>
5.10086

>  <SCORE.INTRA.DIHEDRAL.0>
14.6094

>  <SCORE.INTRA.POLAR>
0

>  <SCORE.INTRA.POLAR.0>
0

>  <SCORE.INTRA.REPUL>
0

>  <SCORE.INTRA.REPUL.0>
0

>  <SCORE.INTRA.SOLV>
2.32875

>  <SCORE.INTRA.SOLV.lig_0>
-65.6478

>  <SCORE.INTRA.VDW>
-13.4607

>  <SCORE.INTRA.VDW.0>
9.35535

>  <SCORE.INTRA.norm>
-0.314383

>  <SCORE.RESTR>
0.76106

>  <SCORE.RESTR.CAVITY>
0.76106

>  <SCORE.RESTR.norm>
0.0245503

>  <SCORE.SYSTEM>
0

>  <SCORE.SYSTEM.CONST>
0

>  <SCORE.SYSTEM.DIHEDRAL>
0

>  <SCORE.SYSTEM.SOLV>
0

>  <SCORE.SYSTEM.norm>
0

>  <SCORE.heavy>
31

>  <SCORE.norm>
-0.782255

>  <RMSD>
6.542

$$$$
ligand
 OpenBabel11021811443D
libRbt.so/2013.1/901 2013/11/27
 31 32  0  0  0  0  0  0  0  0999 V2000
   10.0834   20.7494   53.4647 C   0  0  0  0  0  0  0  0  0  0  0  0
    9.3008   22.0423   53.2549 C   0  0  0  0  0  0  0  0  0  0  0  0
    8.6201   22.2772   52.0165 C   0  0  0  0  0  0  0  0  0  0  0  0
    7.8985   23.4802   51.8266 C   0  0  0  0  0  0  0  0  0  0  0  0
    7.8376   24.4522   52.8550 C   0  0  0  0  0  0  0  0  0  0  0  0
    8.4963   24.2351   54.0823 C   0  0  0  0  0  0  0  0  0  0  0  0
    9.2200   23.0471   54.2897 C   0  0  0  0  0  0  0  0  0  0  0  0
   11.2695   20.7951   53.7893 O   0  0  0  0  0  0  0  0  0  0  0  0
   10.0483   15.0109   45.5187 C   0  0  0  0  0  0  0  0  0  0  0  0
    6.3291   20.3264   51.3419 C   0  0  0  0  0  0  0  0  0  0  0  0
    3.9249   18.3356   54.4239 P   0  0  1  0  0  0  0  0  0  0  0  0
   10.3849   16.3443   47.4791 N   0  0  0  0  0  0  0  0  0  0  0  0
    4.1742   19.7832   54.5626 O   0  0  0  0  0  0  0  0  0  0  0  0
    9.4728   19.5193   53.2921 S   0  0  0  0  0  0  0  0  0  0  0  0
    8.7123   19.6195   49.5618 C   0  0  0  0  0  0  0  0  0  0  0  0
    9.5207   15.5414   46.7694 C   0  0  0  0  0  0  0  0  0  0  0  0
    2.9046   17.7907   55.3600 O   0  5  0  0  0  0  0  0  0  0  0  0
    8.0520   18.7892   50.4065 N   0  0  0  0  0  0  0  0  0  0  0  0
    8.3162   15.2542   47.1528 N   0  0  0  0  0  0  0  0  0  0  0  0
    3.6657   17.9942   53.0060 O   0  0  0  0  0  0  0  0  0  0  0  0
    7.5071   19.4300   51.6121 C   0  0  2  0  0  0  0  0  0  0  0  0
    7.8198   15.7661   48.3364 C   0  0  0  0  0  0  0  0  0  0  0  0
    6.5732   15.4528   48.6980 N   0  0  0  0  0  0  0  0  0  0  0  0
    7.9727   19.2612   52.9852 C   0  0  1  0  0  0  0  0  0  0  0  0
    8.6696   16.6308   49.1401 C   0  0  0  0  0  0  0  0  0  0  0  0
    8.2652   19.5889   48.4364 O   0  0  0  0  0  0  0  0  0  0  0  0
    7.1033   18.8435   54.1177 C   0  0  0  0  0  0  0  0  0  0  0  0
    9.9370   16.8671   48.6475 C   0  0  0  0  0  0  0  0  0  0  0  0
    6.4625   17.5227   54.0953 C   0  0  0  0  0  0  0  0  0  0  0  0
    8.1682   17.2545   50.4198 C   0  0  0  0  0  0  0  0  0  0  0  0
    5.2196   17.5428   54.8188 O   0  0  0  0  0  0  0  0  0  0  0  0
  1  2  1  0  0  0  0
  1  8  2  0  0  0  0
  1 14  1  0  0  0  0
  2  3  2  0  0  0  0
  2  7  1  0  0  0  0
  3  4  1  0  0  0  0
  4  5  2  0  0  0  0
  5  6  1  0  0  0  0
  6  7  2  0  0  0  0
  9 16  1  0  0  0  0
 10 21  1  0  0  0  0
 11 13  1  1  0  0  0
 11 17  1  0  0  0  0
 11 20  2  0  0  0  0
 11 31  1  0  0  0  0
 12 16  2  0  0  0  0
 12 28  1  0  0  0  0
 15 26  1  0  0  0  0
 15 18  1  0  0  0  0
 16 19  1  0  0  0  0
 18 30  1  0  0  0  0
 19 22  2  0  0  0  0
 21 18  1  1  0  0  0
 21 24  1  0  0  0  0
 22 23  1  0  0  0  0
 22 25  1  0  0  0  0
 24 14  1  6  0  0  0
 24 27  1  0  0  0  0
 25 28  2  0  0  0  0
 25 30  1  0  0  0  0
 27 29  1  0  0  0  0
 29 31  1  0  0  0  0
M  CHG  1  17  -1
M  END
>  <CHROM.1>
124.96303061,-4.71539222,79.45723749,-124.47791649,71.26128835,-21.30707355
-126.89211412,-116.64674142,-114.54373791,-150.65687973,66.27512786,-68.14436033
7.62909699,18.93291376,51.69429701,-1.95901493,-0.62970872,-2.40054969

>  <Name>
ligand

>  <RI>
0

>  <Rbt.Current_Directory>
/home/itssahil/PROJECTS/Mol_Feturizer/New_Systems/rnas/2HOO

>  <Rbt.Executable>
rbdock ($Id: //depot/dev/client3/rdock/2013.1/src/exe/rbdock.cxx#4 $)

>  <Rbt.Library>
libRbt.so (2013.1, Build901 2013/11/27)

>  <Rbt.Parameter_File>
/export/apps/rDock/src/rDock_2013.1_src/data/scripts/dock_solv.prm

>  <Rbt.Receptor>
prm/pocket_docking_5.prm

>  <SCORE>
-31.0934

>  <SCORE.INTER>
-18.3006

>  <SCORE.INTER.CONST>
1

>  <SCORE.INTER.POLAR>
0

>  <SCORE.INTER.ROT>
12

>  <SCORE.INTER.SOLV>
16.9424

>  <SCORE.INTER.VDW>
-29.4479

>  <SCORE.INTER.norm>
-0.590341

>  <SCORE.INTRA>
-12.7928

>  <SCORE.INTRA.DIHEDRAL>
0.935146

>  <SCORE.INTRA.DIHEDRAL.0>
14.6094

>  <SCORE.INTRA.POLAR>
0

>  <SCORE.INTRA.POLAR.0>
0

>  <SCORE.INTRA.REPUL>
0

>  <SCORE.INTRA.REPUL.0>
0

>  <SCORE.INTRA.SOLV>
0.901132

>  <SCORE.INTRA.SOLV.lig_0>
-65.6478

>  <SCORE.INTRA.VDW>
-13.7109

>  <SCORE.INTRA.VDW.0>
9.35535

>  <SCORE.INTRA.norm>
-0.412671

>  <SCORE.RESTR>
0

>  <SCORE.RESTR.CAVITY>
0

>  <SCORE.RESTR.norm>
0

>  <SCORE.SYSTEM>
0

>  <SCORE.SYSTEM.CONST>
0

>  <SCORE.SYSTEM.DIHEDRAL>
0

>  <SCORE.SYSTEM.SOLV>
0

>  <SCORE.SYSTEM.norm>
0

>  <SCORE.heavy>
31

>  <SCORE.norm>
-1.00301

>  <RMSD>
6.563

$$$$
ligand
 OpenBabel11021811443D
libRbt.so/2013.1/901 2013/11/27
 31 32  0  0  0  0  0  0  0  0999 V2000
    6.9316   18.9629   51.2417 C   0  0  0  0  0  0  0  0  0  0  0  0
    7.8250   18.4299   50.1256 C   0  0  0  0  0  0  0  0  0  0  0  0
    8.8290   19.2710   49.5454 C   0  0  0  0  0  0  0  0  0  0  0  0
    9.6526   18.7719   48.5079 C   0  0  0  0  0  0  0  0  0  0  0  0
    9.4970   17.4432   48.0424 C   0  0  0  0  0  0  0  0  0  0  0  0
    8.5183   16.5995   48.6060 C   0  0  0  0  0  0  0  0  0  0  0  0
    7.6890   17.0774   49.6364 C   0  0  0  0  0  0  0  0  0  0  0  0
    6.8116   18.3276   52.2888 O   0  0  0  0  0  0  0  0  0  0  0  0
    3.6497   15.4789   48.7440 C   0  0  0  0  0  0  0  0  0  0  0  0
    3.8220   22.7182   52.0388 C   0  0  0  0  0  0  0  0  0  0  0  0
    6.1695   23.8752   55.4392 P   0  0  1  0  0  0  0  0  0  0  0  0
    4.0352   17.7172   49.5029 N   0  0  0  0  0  0  0  0  0  0  0  0
    7.5966   24.2458   55.3857 O   0  0  0  0  0  0  0  0  0  0  0  0
    6.2496   20.1577   51.0897 S   0  0  0  0  0  0  0  0  0  0  0  0
    3.3572   20.4203   54.3397 C   0  0  0  0  0  0  0  0  0  0  0  0
    3.2707   16.5786   49.6222 C   0  0  0  0  0  0  0  0  0  0  0  0
    5.5316   24.0592   56.7709 O   0  5  0  0  0  0  0  0  0  0  0  0
    3.4049   20.4516   52.9848 N   0  0  0  0  0  0  0  0  0  0  0  0
    2.2767   16.4544   50.4448 N   0  0  0  0  0  0  0  0  0  0  0  0
    5.4288   24.5292   54.3356 O   0  0  0  0  0  0  0  0  0  0  0  0
    4.3942   21.3788   52.4167 C   0  0  2  0  0  0  0  0  0  0  0  0
    1.9184   17.5033   51.2699 C   0  0  0  0  0  0  0  0  0  0  0  0
    0.8865   17.3416   52.1017 N   0  0  0  0  0  0  0  0  0  0  0  0
    5.8193   21.1324   52.2192 C   0  0  1  0  0  0  0  0  0  0  0  0
    2.6729   18.7448   51.1974 C   0  0  0  0  0  0  0  0  0  0  0  0
    4.3076   19.8468   54.8248 O   0  0  0  0  0  0  0  0  0  0  0  0
    6.8960   21.7472   53.0412 C   0  0  0  0  0  0  0  0  0  0  0  0
    3.7171   18.7708   50.2954 C   0  0  0  0  0  0  0  0  0  0  0  0
    6.9472   21.4889   54.4857 C   0  0  0  0  0  0  0  0  0  0  0  0
    2.3016   19.9394   52.0418 C   0  0  0  0  0  0  0  0  0  0  0  0
    6.0210   22.3333   55.1913 O   0  0  0  0  0  0  0  0  0  0  0  0
  1  2  1  0  0  0  0
  1  8  2  0  0  0  0
  1 14  1  0  0  0  0
  2  3  2  0  0  0  0
  2  7  1  0  0  0  0
  3  4  1  0  0  0  0
  4  5  2  0  0  0  0
  5  6  1  0  0  0  0
  6  7  2  0  0  0  0
  9 16  1  0  0  0  0
 10 21  1  0  0  0  0
 11 13  1  1  0  0  0
 11 17  1  0  0  0  0
 11 20  2  0  0  0  0
 11 31  1  0  0  0  0
 12 16  2  0  0  0  0
 12 28  1  0  0  0  0
 15 26  1  0  0  0  0
 15 18  1  0  0  0  0
 16 19  1  0  0  0  0
 18 30  1  0  0  0  0
 19 22  2  0  0  0  0
 21 18  1  1  0  0  0
 21 24  1  0  0  0  0
 22 23  1  0  0  0  0
 22 25  1  0  0  0  0
 24 14  1  1  0  0  0
 24 27  1  0  0  0  0
 25 28  2  0  0  0  0
 25 30  1  0  0  0  0
 27 29  1  0  0  0  0
 29 31  1  0  0  0  0
M  CHG  1  17  -1
M  END
>  <CHROM.1>
-128.40274194,-152.00797980,-117.69278388,-73.51174064,-96.04219273,-114.08765193
-108.98156852,-118.43793938,121.40327804,-80.81696155,-72.50470406,-24.47662259
5.39188424,20.04273351,52.13094773,-1.63773513,0.25674403,0.74858193

>  <Name>
ligand

>  <RI>
0

>  <Rbt.Current_Directory>
/home/itssahil/PROJECTS/Mol_Feturizer/New_Systems/rnas/2HOO

>  <Rbt.Executable>
rbdock ($Id: //depot/dev/client3/rdock/2013.1/src/exe/rbdock.cxx#4 $)

>  <Rbt.Library>
libRbt.so (2013.1, Build901 2013/11/27)

>  <Rbt.Parameter_File>
/export/apps/rDock/src/rDock_2013.1_src/data/scripts/dock_solv.prm

>  <Rbt.Receptor>
prm/pocket_docking_4.prm

>  <SCORE>
-22.0893

>  <SCORE.INTER>
-9.09912

>  <SCORE.INTER.CONST>
1

>  <SCORE.INTER.POLAR>
0

>  <SCORE.INTER.ROT>
12

>  <SCORE.INTER.SOLV>
8.31777

>  <SCORE.INTER.VDW>
-20.4387

>  <SCORE.INTER.norm>
-0.29352

>  <SCORE.INTRA>
-13.0432

>  <SCORE.INTRA.DIHEDRAL>
2.74952

>  <SCORE.INTRA.DIHEDRAL.0>
14.6094

>  <SCORE.INTRA.POLAR>
0

>  <SCORE.INTRA.POLAR.0>
0

>  <SCORE.INTRA.REPUL>
0

>  <SCORE.INTRA.REPUL.0>
0

>  <SCORE.INTRA.SOLV>
3.07043

>  <SCORE.INTRA.SOLV.lig_0>
-65.6478

>  <SCORE.INTRA.VDW>
-15.9531

>  <SCORE.INTRA.VDW.0>
9.35535

>  <SCORE.INTRA.norm>
-0.420747

>  <SCORE.RESTR>
0.0529886

>  <SCORE.RESTR.CAVITY>
0.0529886

>  <SCORE.RESTR.norm>
0.00170931

>  <SCORE.SYSTEM>
0

>  <SCORE.SYSTEM.CONST>
0

>  <SCORE.SYSTEM.DIHEDRAL>
0

>  <SCORE.SYSTEM.SOLV>
0

>  <SCORE.SYSTEM.norm>
0

>  <SCORE.heavy>
31

>  <SCORE.norm>
-0.712558

>  <RMSD>
6.574

$$$$
ligand
 OpenBabel11021811443D
libRbt.so/2013.1/901 2013/11/27
 31 32  0  0  0  0  0  0  0  0999 V2000
    7.7828   17.8097   54.3324 C   0  0  0  0  0  0  0  0  0  0  0  0
    8.1351   19.1480   53.6897 C   0  0  0  0  0  0  0  0  0  0  0  0
    8.3859   19.2247   52.2813 C   0  0  0  0  0  0  0  0  0  0  0  0
    8.7156   20.4686   51.6914 C   0  0  0  0  0  0  0  0  0  0  0  0
    8.7929   21.6413   52.4819 C   0  0  0  0  0  0  0  0  0  0  0  0
    8.5432   21.5855   53.8682 C   0  0  0  0  0  0  0  0  0  0  0  0
    8.2159   20.3589   54.4734 C   0  0  0  0  0  0  0  0  0  0  0  0
    8.5280   17.3206   55.1808 O   0  0  0  0  0  0  0  0  0  0  0  0
    4.8519   15.6359   44.6764 C   0  0  0  0  0  0  0  0  0  0  0  0
    4.0475   16.8271   51.1840 C   0  0  0  0  0  0  0  0  0  0  0  0
    1.3261   16.2819   54.3118 P   0  0  1  0  0  0  0  0  0  0  0  0
    4.5909   15.9729   47.0328 N   0  0  0  0  0  0  0  0  0  0  0  0
    1.8610   15.1464   55.0872 O   0  0  0  0  0  0  0  0  0  0  0  0
    6.6300   17.1349   53.9701 S   0  0  0  0  0  0  0  0  0  0  0  0
    7.3204   16.3664   50.7878 C   0  0  0  0  0  0  0  0  0  0  0  0
    5.2293   16.3679   45.8789 C   0  0  0  0  0  0  0  0  0  0  0  0
    0.6504   15.9008   53.0420 O   0  5  0  0  0  0  0  0  0  0  0  0
    6.4316   17.3889   50.7290 N   0  0  0  0  0  0  0  0  0  0  0  0
    6.1089   17.3183   45.8248 N   0  0  0  0  0  0  0  0  0  0  0  0
    0.5001   17.1517   55.1809 O   0  0  0  0  0  0  0  0  0  0  0  0
    5.3544   17.3374   51.7280 C   0  0  2  0  0  0  0  0  0  0  0  0
    6.4671   18.0038   46.9699 C   0  0  0  0  0  0  0  0  0  0  0  0
    7.3799   18.9740   46.8777 N   0  0  0  0  0  0  0  0  0  0  0  0
    5.4453   17.6985   53.1395 C   0  0  1  0  0  0  0  0  0  0  0  0
    5.8428   17.6396   48.2322 C   0  0  0  0  0  0  0  0  0  0  0  0
    8.4673   16.7411   50.6797 O   0  0  0  0  0  0  0  0  0  0  0  0
    4.4652   18.5671   53.8452 C   0  0  0  0  0  0  0  0  0  0  0  0
    4.9133   16.6207   48.1798 C   0  0  0  0  0  0  0  0  0  0  0  0
    3.3968   17.9576   54.6469 C   0  0  0  0  0  0  0  0  0  0  0  0
    6.2250   18.3223   49.5227 C   0  0  0  0  0  0  0  0  0  0  0  0
    2.5124   17.1824   53.8190 O   0  0  0  0  0  0  0  0  0  0  0  0
  1  2  1  0  0  0  0
  1  8  2  0  0  0  0
  1 14  1  0  0  0  0
  2  3  2  0  0  0  0
  2  7  1  0  0  0  0
  3  4  1  0  0  0  0
  4  5  2  0  0  0  0
  5  6  1  0  0  0  0
  6  7  2  0  0  0  0
  9 16  1  0  0  0  0
 10 21  1  0  0  0  0
 11 13  1  1  0  0  0
 11 17  1  0  0  0  0
 11 20  2  0  0  0  0
 11 31  1  0  0  0  0
 12 16  2  0  0  0  0
 12 28  1  0  0  0  0
 15 26  1  0  0  0  0
 15 18  1  0  0  0  0
 16 19  1  0  0  0  0
 18 30  1  0  0  0  0
 19 22  2  0  0  0  0
 21 18  1  1  0  0  0
 21 24  1  0  0  0  0
 22 23  1  0  0  0  0
 22 25  1  0  0  0  0
 24 14  1  1  0  0  0
 24 27  1  0  0  0  0
 25 28  2  0  0  0  0
 25 30  1  0  0  0  0
 27 29  1  0  0  0  0
 29 31  1  0  0  0  0
M  CHG  1  17  -1
M  END
>  <CHROM.1>
117.20560389,-12.62569517,101.56692449,-136.09395240,-101.01600867,58.28205224
130.73450853,-81.32894539,-135.58100198,-63.67019005,174.42789394,-66.04220896
5.45305708,17.57130134,51.66476090,-2.00464068,-0.44998284,-1.73767731

>  <Name>
ligand

>  <RI>
0

>  <Rbt.Current_Directory>
/home/itssahil/PROJECTS/Mol_Feturizer/New_Systems/rnas/2HOO

>  <Rbt.Executable>
rbdock ($Id: //depot/dev/client3/rdock/2013.1/src/exe/rbdock.cxx#4 $)

>  <Rbt.Library>
libRbt.so (2013.1, Build901 2013/11/27)

>  <Rbt.Parameter_File>
/export/apps/rDock/src/rDock_2013.1_src/data/scripts/dock_solv.prm

>  <Rbt.Receptor>
prm/pocket_docking_4.prm

>  <SCORE>
-26.3315

>  <SCORE.INTER>
-11.619

>  <SCORE.INTER.CONST>
1

>  <SCORE.INTER.POLAR>
0

>  <SCORE.INTER.ROT>
12

>  <SCORE.INTER.SOLV>
18.1848

>  <SCORE.INTER.VDW>
-25.4076

>  <SCORE.INTER.norm>
-0.374807

>  <SCORE.INTRA>
-14.7125

>  <SCORE.INTRA.DIHEDRAL>
-0.290559

>  <SCORE.INTRA.DIHEDRAL.0>
14.6094

>  <SCORE.INTRA.POLAR>
0

>  <SCORE.INTRA.POLAR.0>
0

>  <SCORE.INTRA.REPUL>
0

>  <SCORE.INTRA.REPUL.0>
0

>  <SCORE.INTRA.SOLV>
0.0847483

>  <SCORE.INTRA.SOLV.lig_0>
-65.6478

>  <SCORE.INTRA.VDW>
-14.6096

>  <SCORE.INTRA.VDW.0>
9.35535

>  <SCORE.INTRA.norm>
-0.474596

>  <SCORE.RESTR>
0

>  <SCORE.RESTR.CAVITY>
0

>  <SCORE.RESTR.norm>
0

>  <SCORE.SYSTEM>
0

>  <SCORE.SYSTEM.CONST>
0

>  <SCORE.SYSTEM.DIHEDRAL>
0

>  <SCORE.SYSTEM.SOLV>
0

>  <SCORE.SYSTEM.norm>
0

>  <SCORE.heavy>
31

>  <SCORE.norm>
-0.849403

>  <RMSD>
6.577

$$$$
ligand
 OpenBabel11021811443D
libRbt.so/2013.1/901 2013/11/27
 31 32  0  0  0  0  0  0  0  0999 V2000
    6.1400   15.7181   49.5592 C   0  0  0  0  0  0  0  0  0  0  0  0
    5.1720   16.8449   49.9075 C   0  0  0  0  0  0  0  0  0  0  0  0
    3.8312   16.5414   50.3104 C   0  0  0  0  0  0  0  0  0  0  0  0
    2.9368   17.5914   50.6290 C   0  0  0  0  0  0  0  0  0  0  0  0
    3.3590   18.9416   50.5596 C   0  0  0  0  0  0  0  0  0  0  0  0
    4.6765   19.2585   50.1709 C   0  0  0  0  0  0  0  0  0  0  0  0
    5.5796   18.2296   49.8486 C   0  0  0  0  0  0  0  0  0  0  0  0
    5.7483   14.5515   49.5538 O   0  0  0  0  0  0  0  0  0  0  0  0
    8.4895   24.8677   53.1315 C   0  0  0  0  0  0  0  0  0  0  0  0
   10.3516   17.6815   49.2524 C   0  0  0  0  0  0  0  0  0  0  0  0
    7.0754   18.5735   44.0370 P   0  0  1  0  0  0  0  0  0  0  0  0
    7.4983   23.2796   51.6383 N   0  0  0  0  0  0  0  0  0  0  0  0
    6.6072   18.2712   42.6709 O   0  0  0  0  0  0  0  0  0  0  0  0
    7.4605   15.9931   49.2490 S   0  0  0  0  0  0  0  0  0  0  0  0
    8.5279   20.4190   48.5656 C   0  0  0  0  0  0  0  0  0  0  0  0
    8.4272   23.5007   52.6300 C   0  0  0  0  0  0  0  0  0  0  0  0
    8.1234   19.6271   44.1132 O   0  5  0  0  0  0  0  0  0  0  0  0
    8.6393   19.4699   49.5278 N   0  0  0  0  0  0  0  0  0  0  0  0
    9.2087   22.5848   53.1099 N   0  0  0  0  0  0  0  0  0  0  0  0
    5.9207   18.8251   44.9301 O   0  0  0  0  0  0  0  0  0  0  0  0
    8.9267   18.1145   49.0368 C   0  0  2  0  0  0  0  0  0  0  0  0
    9.1491   21.2922   52.6252 C   0  0  0  0  0  0  0  0  0  0  0  0
    9.9722   20.3754   53.1399 N   0  0  0  0  0  0  0  0  0  0  0  0
    7.9886   17.1882   48.4100 C   0  0  1  0  0  0  0  0  0  0  0  0
    8.1982   20.9799   51.5696 C   0  0  0  0  0  0  0  0  0  0  0  0
    7.5305   20.2825   47.8918 O   0  0  0  0  0  0  0  0  0  0  0  0
    7.5095   17.3053   47.0065 C   0  0  0  0  0  0  0  0  0  0  0  0
    7.4069   22.0237   51.1349 C   0  0  0  0  0  0  0  0  0  0  0  0
    8.4723   17.2371   45.9001 C   0  0  0  0  0  0  0  0  0  0  0  0
    8.1172   19.5972   50.9701 C   0  0  0  0  0  0  0  0  0  0  0  0
    7.8014   17.3158   44.6303 O   0  0  0  0  0  0  0  0  0  0  0  0
  1  2  1  0  0  0  0
  1  8  2  0  0  0  0
  1 14  1  0  0  0  0
  2  3  2  0  0  0  0
  2  7  1  0  0  0  0
  3  4  1  0  0  0  0
  4  5  2  0  0  0  0
  5  6  1  0  0  0  0
  6  7  2  0  0  0  0
  9 16  1  0  0  0  0
 10 21  1  0  0  0  0
 11 13  1  6  0  0  0
 11 17  1  0  0  0  0
 11 20  2  0  0  0  0
 11 31  1  0  0  0  0
 12 16  2  0  0  0  0
 12 28  1  0  0  0  0
 15 26  1  0  0  0  0
 15 18  1  0  0  0  0
 16 19  1  0  0  0  0
 18 30  1  0  0  0  0
 19 22  2  0  0  0  0
 21 18  1  1  0  0  0
 21 24  1  0  0  0  0
 22 23  1  0  0  0  0
 22 25  1  0  0  0  0
 24 14  1  6  0  0  0
 24 27  1  0  0  0  0
 25 28  2  0  0  0  0
 25 30  1  0  0  0  0
 27 29  1  0  0  0  0
 29 31  1  0  0  0  0
M  CHG  1  17  -1
M  END
>  <CHROM.1>
3.96179277,-39.16495233,120.58864977,69.60763279,104.67579502,-34.88147932
74.26425700,-118.34141353,-109.11235175,177.64427672,69.15156743,175.67740475
7.31636976,18.95756906,48.86757741,1.89104972,-1.02483743,-1.87184666

>  <Name>
ligand

>  <RI>
0

>  <Rbt.Current_Directory>
/home/itssahil/PROJECTS/Mol_Feturizer/New_Systems/rnas/2HOO

>  <Rbt.Executable>
rbdock ($Id: //depot/dev/client3/rdock/2013.1/src/exe/rbdock.cxx#4 $)

>  <Rbt.Library>
libRbt.so (2013.1, Build901 2013/11/27)

>  <Rbt.Parameter_File>
/export/apps/rDock/src/rDock_2013.1_src/data/scripts/dock_solv.prm

>  <Rbt.Receptor>
prm/pocket_docking_8.prm

>  <SCORE>
-27.8024

>  <SCORE.INTER>
-13.9867

>  <SCORE.INTER.CONST>
1

>  <SCORE.INTER.POLAR>
0

>  <SCORE.INTER.ROT>
12

>  <SCORE.INTER.SOLV>
20.3646

>  <SCORE.INTER.VDW>
-27.7127

>  <SCORE.INTER.norm>
-0.451184

>  <SCORE.INTRA>
-13.8266

>  <SCORE.INTRA.DIHEDRAL>
-1.6312

>  <SCORE.INTRA.DIHEDRAL.0>
14.6094

>  <SCORE.INTRA.POLAR>
0

>  <SCORE.INTRA.POLAR.0>
0

>  <SCORE.INTRA.REPUL>
0

>  <SCORE.INTRA.REPUL.0>
0

>  <SCORE.INTRA.SOLV>
2.46716

>  <SCORE.INTRA.SOLV.lig_0>
-65.6478

>  <SCORE.INTRA.VDW>
-14.2445

>  <SCORE.INTRA.VDW.0>
9.35535

>  <SCORE.INTRA.norm>
-0.446018

>  <SCORE.RESTR>
0.010897

>  <SCORE.RESTR.CAVITY>
0.010897

>  <SCORE.RESTR.norm>
0.000351517

>  <SCORE.SYSTEM>
0

>  <SCORE.SYSTEM.CONST>
0

>  <SCORE.SYSTEM.DIHEDRAL>
0

>  <SCORE.SYSTEM.SOLV>
0

>  <SCORE.SYSTEM.norm>
0

>  <SCORE.heavy>
31

>  <SCORE.norm>
-0.89685

>  <RMSD>
6.586

$$$$
ligand
 OpenBabel11021811443D
libRbt.so/2013.1/901 2013/11/27
 31 32  0  0  0  0  0  0  0  0999 V2000
    8.3268   21.1629   53.6696 C   0  0  0  0  0  0  0  0  0  0  0  0
    9.7799   20.7083   53.7684 C   0  0  0  0  0  0  0  0  0  0  0  0
   10.7687   21.5796   54.3300 C   0  0  0  0  0  0  0  0  0  0  0  0
   12.1159   21.1535   54.4159 C   0  0  0  0  0  0  0  0  0  0  0  0
   12.4941   19.8680   53.9571 C   0  0  0  0  0  0  0  0  0  0  0  0
   11.5334   18.9951   53.4073 C   0  0  0  0  0  0  0  0  0  0  0  0
   10.1901   19.4006   53.3115 C   0  0  0  0  0  0  0  0  0  0  0  0
    8.0634   22.2955   53.2667 O   0  0  0  0  0  0  0  0  0  0  0  0
    6.3576   16.0039   45.4852 C   0  0  0  0  0  0  0  0  0  0  0  0
    7.1668   19.7490   50.9870 C   0  0  0  0  0  0  0  0  0  0  0  0
    1.4069   20.7537   53.8065 P   0  0  1  0  0  0  0  0  0  0  0  0
    6.5509   17.4352   47.3953 N   0  0  0  0  0  0  0  0  0  0  0  0
    1.1586   20.3019   52.4241 O   0  0  0  0  0  0  0  0  0  0  0  0
    7.2957   20.3131   54.0307 S   0  0  0  0  0  0  0  0  0  0  0  0
    3.9806   18.6995   51.0397 C   0  0  0  0  0  0  0  0  0  0  0  0
    6.2295   16.1815   46.9261 C   0  0  0  0  0  0  0  0  0  0  0  0
    0.3240   21.5927   54.3875 O   0  5  0  0  0  0  0  0  0  0  0  0
    5.2039   18.2885   51.4562 N   0  0  0  0  0  0  0  0  0  0  0  0
    5.8373   15.2028   47.6800 N   0  0  0  0  0  0  0  0  0  0  0  0
    1.7845   19.6041   54.6609 O   0  0  0  0  0  0  0  0  0  0  0  0
    6.0840   19.3552   51.9548 C   0  0  2  0  0  0  0  0  0  0  0  0
    5.7115   15.3800   49.0446 C   0  0  0  0  0  0  0  0  0  0  0  0
    5.3006   14.3511   49.7899 N   0  0  0  0  0  0  0  0  0  0  0  0
    5.9882   20.0481   53.2360 C   0  0  1  0  0  0  0  0  0  0  0  0
    6.0245   16.6800   49.6170 C   0  0  0  0  0  0  0  0  0  0  0  0
    3.1609   17.8078   51.0549 O   0  0  0  0  0  0  0  0  0  0  0  0
    4.7114   20.5108   53.8431 C   0  0  0  0  0  0  0  0  0  0  0  0
    6.4415   17.6514   48.7296 C   0  0  0  0  0  0  0  0  0  0  0  0
    3.8960   21.5147   53.1480 C   0  0  0  0  0  0  0  0  0  0  0  0
    5.8645   16.9465   51.0939 C   0  0  0  0  0  0  0  0  0  0  0  0
    2.6440   21.7181   53.8261 O   0  0  0  0  0  0  0  0  0  0  0  0
  1  2  1  0  0  0  0
  1  8  2  0  0  0  0
  1 14  1  0  0  0  0
  2  3  2  0  0  0  0
  2  7  1  0  0  0  0
  3  4  1  0  0  0  0
  4  5  2  0  0  0  0
  5  6  1  0  0  0  0
  6  7  2  0  0  0  0
  9 16  1  0  0  0  0
 10 21  1  0  0  0  0
 11 13  1  6  0  0  0
 11 17  1  0  0  0  0
 11 20  2  0  0  0  0
 11 31  1  0  0  0  0
 12 16  2  0  0  0  0
 12 28  1  0  0  0  0
 15 26  1  0  0  0  0
 15 18  1  0  0  0  0
 16 19  1  0  0  0  0
 18 30  1  0  0  0  0
 19 22  2  0  0  0  0
 21 18  1  6  0  0  0
 21 24  1  0  0  0  0
 22 23  1  0  0  0  0
 22 25  1  0  0  0  0
 24 14  1  1  0  0  0
 24 27  1  0  0  0  0
 25 28  2  0  0  0  0
 25 30  1  0  0  0  0
 27 29  1  0  0  0  0
 29 31  1  0  0  0  0
M  CHG  1  17  -1
M  END
>  <CHROM.1>
44.56137614,-134.04599187,67.42346816,-157.44607785,-104.06100047,57.04568517
-43.97984949,118.23609126,-136.14171877,173.89339373,-75.49006170,-45.05985575
5.85140915,19.21855948,51.97302396,-2.00156402,0.01343289,-2.26034822

>  <Name>
ligand

>  <RI>
0

>  <Rbt.Current_Directory>
/home/itssahil/PROJECTS/Mol_Feturizer/New_Systems/rnas/2HOO

>  <Rbt.Executable>
rbdock ($Id: //depot/dev/client3/rdock/2013.1/src/exe/rbdock.cxx#4 $)

>  <Rbt.Library>
libRbt.so (2013.1, Build901 2013/11/27)

>  <Rbt.Parameter_File>
/export/apps/rDock/src/rDock_2013.1_src/data/scripts/dock_solv.prm

>  <Rbt.Receptor>
prm/pocket_docking_2.prm

>  <SCORE>
-17.6633

>  <SCORE.INTER>
-7.79896

>  <SCORE.INTER.CONST>
1

>  <SCORE.INTER.POLAR>
0

>  <SCORE.INTER.ROT>
12

>  <SCORE.INTER.SOLV>
8.64316

>  <SCORE.INTER.VDW>
-19.6804

>  <SCORE.INTER.norm>
-0.251579

>  <SCORE.INTRA>
-11.386

>  <SCORE.INTRA.DIHEDRAL>
1.29051

>  <SCORE.INTRA.DIHEDRAL.0>
14.6094

>  <SCORE.INTRA.POLAR>
0

>  <SCORE.INTRA.POLAR.0>
0

>  <SCORE.INTRA.REPUL>
0

>  <SCORE.INTRA.REPUL.0>
0

>  <SCORE.INTRA.SOLV>
0.804817

>  <SCORE.INTRA.SOLV.lig_0>
-65.6478

>  <SCORE.INTRA.VDW>
-12.4337

>  <SCORE.INTRA.VDW.0>
9.35535

>  <SCORE.INTRA.norm>
-0.367292

>  <SCORE.RESTR>
1.52171

>  <SCORE.RESTR.CAVITY>
1.52171

>  <SCORE.RESTR.norm>
0.0490874

>  <SCORE.SYSTEM>
0

>  <SCORE.SYSTEM.CONST>
0

>  <SCORE.SYSTEM.DIHEDRAL>
0

>  <SCORE.SYSTEM.SOLV>
0

>  <SCORE.SYSTEM.norm>
0

>  <SCORE.heavy>
31

>  <SCORE.norm>
-0.569784

>  <RMSD>
6.608

$$$$
ligand
 OpenBabel11021811443D
libRbt.so/2013.1/901 2013/11/27
 31 32  0  0  0  0  0  0  0  0999 V2000
    7.0455   21.2782   51.8058 C   0  0  0  0  0  0  0  0  0  0  0  0
    8.2401   21.9827   52.4421 C   0  0  0  0  0  0  0  0  0  0  0  0
    8.3521   23.4093   52.3753 C   0  0  0  0  0  0  0  0  0  0  0  0
    9.4644   24.0567   52.9646 C   0  0  0  0  0  0  0  0  0  0  0  0
   10.4658   23.3055   53.6273 C   0  0  0  0  0  0  0  0  0  0  0  0
   10.3687   21.9015   53.7081 C   0  0  0  0  0  0  0  0  0  0  0  0
    9.2722   21.2394   53.1272 C   0  0  0  0  0  0  0  0  0  0  0  0
    7.1205   20.8657   50.6488 O   0  0  0  0  0  0  0  0  0  0  0  0
    5.8764   12.1741   49.4921 C   0  0  0  0  0  0  0  0  0  0  0  0
    5.0005   18.2511   53.2067 C   0  0  0  0  0  0  0  0  0  0  0  0
    0.7278   20.9554   54.2198 P   0  0  1  0  0  0  0  0  0  0  0  0
    4.3689   13.9668   49.9898 N   0  0  0  0  0  0  0  0  0  0  0  0
   -0.0021   19.7450   53.7968 O   0  0  0  0  0  0  0  0  0  0  0  0
    5.8720   21.0978   52.5170 S   0  0  0  0  0  0  0  0  0  0  0  0
    2.4522   18.0716   51.0805 C   0  0  0  0  0  0  0  0  0  0  0  0
    5.6181   13.6077   49.5362 C   0  0  0  0  0  0  0  0  0  0  0  0
    0.0134   22.2335   53.9548 O   0  5  0  0  0  0  0  0  0  0  0  0
    3.8054   18.1402   51.0236 N   0  0  0  0  0  0  0  0  0  0  0  0
    6.5269   14.4544   49.1657 N   0  0  0  0  0  0  0  0  0  0  0  0
    1.1833   20.8148   55.6223 O   0  0  0  0  0  0  0  0  0  0  0  0
    4.4293   19.0044   52.0360 C   0  0  2  0  0  0  0  0  0  0  0  0
    6.2777   15.8126   49.2165 C   0  0  0  0  0  0  0  0  0  0  0  0
    7.2386   16.6559   48.8312 N   0  0  0  0  0  0  0  0  0  0  0  0
    4.5573   20.4579   51.9941 C   0  0  1  0  0  0  0  0  0  0  0  0
    4.9828   16.2729   49.6930 C   0  0  0  0  0  0  0  0  0  0  0  0
    2.0579   17.4800   52.0613 O   0  0  0  0  0  0  0  0  0  0  0  0
    3.5005   21.3764   51.4917 C   0  0  0  0  0  0  0  0  0  0  0  0
    4.0831   15.2909   50.0548 C   0  0  0  0  0  0  0  0  0  0  0  0
    2.1111   21.1981   51.9316 C   0  0  0  0  0  0  0  0  0  0  0  0
    4.6679   17.7442   49.8120 C   0  0  0  0  0  0  0  0  0  0  0  0
    2.0347   21.1024   53.3647 O   0  0  0  0  0  0  0  0  0  0  0  0
  1  2  1  0  0  0  0
  1  8  2  0  0  0  0
  1 14  1  0  0  0  0
  2  3  2  0  0  0  0
  2  7  1  0  0  0  0
  3  4  1  0  0  0  0
  4  5  2  0  0  0  0
  5  6  1  0  0  0  0
  6  7  2  0  0  0  0
  9 16  1  0  0  0  0
 10 21  1  0  0  0  0
 11 13  1  6  0  0  0
 11 17  1  0  0  0  0
 11 20  2  0  0  0  0
 11 31  1  0  0  0  0
 12 16  2  0  0  0  0
 12 28  1  0  0  0  0
 15 26  1  0  0  0  0
 15 18  1  0  0  0  0
 16 19  1  0  0  0  0
 18 30  1  0  0  0  0
 19 22  2  0  0  0  0
 21 18  1  6  0  0  0
 21 24  1  0  0  0  0
 22 23  1  0  0  0  0
 22 25  1  0  0  0  0
 24 14  1  1  0  0  0
 24 27  1  0  0  0  0
 25 28  2  0  0  0  0
 25 30  1  0  0  0  0
 27 29  1  0  0  0  0
 29 31  1  0  0  0  0
M  CHG  1  17  -1
M  END
>  <CHROM.1>
92.66454895,177.26699467,84.68855036,-69.33825925,100.42668695,-83.22955227
37.61648289,-132.60707421,-142.84627123,50.40838615,177.85731502,57.97999449
4.75996775,19.28146865,51.92667747,-1.63688332,-0.21461376,-2.67450338

>  <Name>
ligand

>  <RI>
0

>  <Rbt.Current_Directory>
/home/itssahil/PROJECTS/Mol_Feturizer/New_Systems/rnas/2HOO

>  <Rbt.Executable>
rbdock ($Id: //depot/dev/client3/rdock/2013.1/src/exe/rbdock.cxx#4 $)

>  <Rbt.Library>
libRbt.so (2013.1, Build901 2013/11/27)

>  <Rbt.Parameter_File>
/export/apps/rDock/src/rDock_2013.1_src/data/scripts/dock_solv.prm

>  <Rbt.Receptor>
prm/pocket_docking_4.prm

>  <SCORE>
-30.4173

>  <SCORE.INTER>
-16.3247

>  <SCORE.INTER.CONST>
1

>  <SCORE.INTER.POLAR>
0

>  <SCORE.INTER.ROT>
12

>  <SCORE.INTER.SOLV>
8.95574

>  <SCORE.INTER.VDW>
-25.4684

>  <SCORE.INTER.norm>
-0.526602

>  <SCORE.INTRA>
-14.0927

>  <SCORE.INTRA.DIHEDRAL>
-1.06456

>  <SCORE.INTRA.DIHEDRAL.0>
14.6094

>  <SCORE.INTRA.POLAR>
0

>  <SCORE.INTRA.POLAR.0>
0

>  <SCORE.INTRA.REPUL>
0

>  <SCORE.INTRA.REPUL.0>
0

>  <SCORE.INTRA.SOLV>
-0.318736

>  <SCORE.INTRA.SOLV.lig_0>
-65.6478

>  <SCORE.INTRA.VDW>
-13.401

>  <SCORE.INTRA.VDW.0>
9.35535

>  <SCORE.INTRA.norm>
-0.454602

>  <SCORE.RESTR>
0

>  <SCORE.RESTR.CAVITY>
0

>  <SCORE.RESTR.norm>
0

>  <SCORE.SYSTEM>
0

>  <SCORE.SYSTEM.CONST>
0

>  <SCORE.SYSTEM.DIHEDRAL>
0

>  <SCORE.SYSTEM.SOLV>
0

>  <SCORE.SYSTEM.norm>
0

>  <SCORE.heavy>
31

>  <SCORE.norm>
-0.981204

>  <RMSD>
6.611

$$$$
ligand
 OpenBabel11021811443D
libRbt.so/2013.1/901 2013/11/27
 31 32  0  0  0  0  0  0  0  0999 V2000
    7.1171   16.9592   51.0983 C   0  0  0  0  0  0  0  0  0  0  0  0
    7.1899   17.8759   49.8807 C   0  0  0  0  0  0  0  0  0  0  0  0
    7.7397   19.1929   50.0048 C   0  0  0  0  0  0  0  0  0  0  0  0
    7.8014   20.0399   48.8723 C   0  0  0  0  0  0  0  0  0  0  0  0
    7.3299   19.5931   47.6136 C   0  0  0  0  0  0  0  0  0  0  0  0
    6.7914   18.2980   47.4717 C   0  0  0  0  0  0  0  0  0  0  0  0
    6.7197   17.4421   48.5854 C   0  0  0  0  0  0  0  0  0  0  0  0
    7.5792   15.8202   51.0382 O   0  0  0  0  0  0  0  0  0  0  0  0
    0.9284   20.2773   55.9542 C   0  0  0  0  0  0  0  0  0  0  0  0
    4.3159   19.2261   50.4010 C   0  0  0  0  0  0  0  0  0  0  0  0
    4.0523   22.1268   53.5604 P   0  0  1  0  0  0  0  0  0  0  0  0
    1.3604   20.1916   53.6004 N   0  0  0  0  0  0  0  0  0  0  0  0
    3.3919   22.4710   54.8340 O   0  0  0  0  0  0  0  0  0  0  0  0
    6.5334   17.3946   52.2753 S   0  0  0  0  0  0  0  0  0  0  0  0
    3.7204   15.8030   50.5121 C   0  0  0  0  0  0  0  0  0  0  0  0
    1.1131   19.4766   54.7505 C   0  0  0  0  0  0  0  0  0  0  0  0
    3.3039   22.5416   52.3431 O   0  5  0  0  0  0  0  0  0  0  0  0
    3.2266   17.0263   50.8260 N   0  0  0  0  0  0  0  0  0  0  0  0
    1.0420   18.1833   54.8002 N   0  0  0  0  0  0  0  0  0  0  0  0
    5.4600   22.5880   53.5724 O   0  0  0  0  0  0  0  0  0  0  0  0
    4.2260   18.0057   51.2766 C   0  0  2  0  0  0  0  0  0  0  0  0
    1.2248   17.4298   53.6564 C   0  0  0  0  0  0  0  0  0  0  0  0
    1.1489   16.0997   53.7455 N   0  0  0  0  0  0  0  0  0  0  0  0
    5.0805   17.9117   52.4564 C   0  0  1  0  0  0  0  0  0  0  0  0
    1.4990   18.1117   52.4012 C   0  0  0  0  0  0  0  0  0  0  0  0
    4.0674   15.7253   49.3541 O   0  0  0  0  0  0  0  0  0  0  0  0
    4.6467   18.2690   53.8337 C   0  0  0  0  0  0  0  0  0  0  0  0
    1.5454   19.4900   52.4546 C   0  0  0  0  0  0  0  0  0  0  0  0
    4.7837   19.6530   54.3046 C   0  0  0  0  0  0  0  0  0  0  0  0
    1.7506   17.3412   51.1280 C   0  0  0  0  0  0  0  0  0  0  0  0
    4.1210   20.5665   53.4129 O   0  0  0  0  0  0  0  0  0  0  0  0
  1  2  1  0  0  0  0
  1  8  2  0  0  0  0
  1 14  1  0  0  0  0
  2  3  2  0  0  0  0
  2  7  1  0  0  0  0
  3  4  1  0  0  0  0
  4  5  2  0  0  0  0
  5  6  1  0  0  0  0
  6  7  2  0  0  0  0
  9 16  1  0  0  0  0
 10 21  1  0  0  0  0
 11 13  1  1  0  0  0
 11 17  1  0  0  0  0
 11 20  2  0  0  0  0
 11 31  1  0  0  0  0
 12 16  2  0  0  0  0
 12 28  1  0  0  0  0
 15 26  1  0  0  0  0
 15 18  1  0  0  0  0
 16 19  1  0  0  0  0
 18 30  1  0  0  0  0
 19 22  2  0  0  0  0
 21 18  1  1  0  0  0
 21 24  1  0  0  0  0
 22 23  1  0  0  0  0
 22 25  1  0  0  0  0
 24 14  1  1  0  0  0
 24 27  1  0  0  0  0
 25 28  2  0  0  0  0
 25 30  1  0  0  0  0
 27 29  1  0  0  0  0
 29 31  1  0  0  0  0
M  CHG  1  17  -1
M  END
>  <CHROM.1>
-127.91404565,57.78291958,-2.28953507,-88.51321857,119.19796956,129.43938017
-83.63327000,92.63177218,-92.28290191,55.09406473,-179.34677874,-60.10288740
4.26468803,18.86699784,52.09113242,0.68087197,-0.59999557,-2.69631009

>  <Name>
ligand

>  <RI>
0

>  <Rbt.Current_Directory>
/home/itssahil/PROJECTS/Mol_Feturizer/New_Systems/rnas/2HOO

>  <Rbt.Executable>
rbdock ($Id: //depot/dev/client3/rdock/2013.1/src/exe/rbdock.cxx#4 $)

>  <Rbt.Library>
libRbt.so (2013.1, Build901 2013/11/27)

>  <Rbt.Parameter_File>
/export/apps/rDock/src/rDock_2013.1_src/data/scripts/dock_solv.prm

>  <Rbt.Receptor>
prm/pocket_docking_3.prm

>  <SCORE>
-21.7377

>  <SCORE.INTER>
-5.41951

>  <SCORE.INTER.CONST>
1

>  <SCORE.INTER.POLAR>
0

>  <SCORE.INTER.ROT>
12

>  <SCORE.INTER.SOLV>
10.302

>  <SCORE.INTER.VDW>
-18.647

>  <SCORE.INTER.norm>
-0.174823

>  <SCORE.INTRA>
-16.3237

>  <SCORE.INTRA.DIHEDRAL>
2.34188

>  <SCORE.INTRA.DIHEDRAL.0>
14.6094

>  <SCORE.INTRA.POLAR>
0

>  <SCORE.INTRA.POLAR.0>
0

>  <SCORE.INTRA.REPUL>
0

>  <SCORE.INTRA.REPUL.0>
0

>  <SCORE.INTRA.SOLV>
3.3758

>  <SCORE.INTRA.SOLV.lig_0>
-65.6478

>  <SCORE.INTRA.VDW>
-19.1826

>  <SCORE.INTRA.VDW.0>
9.35535

>  <SCORE.INTRA.norm>
-0.526572

>  <SCORE.RESTR>
0.00551052

>  <SCORE.RESTR.CAVITY>
0.00551052

>  <SCORE.RESTR.norm>
0.000177759

>  <SCORE.SYSTEM>
0

>  <SCORE.SYSTEM.CONST>
0

>  <SCORE.SYSTEM.DIHEDRAL>
0

>  <SCORE.SYSTEM.SOLV>
0

>  <SCORE.SYSTEM.norm>
0

>  <SCORE.heavy>
31

>  <SCORE.norm>
-0.701217

>  <RMSD>
6.618

$$$$
ligand
 OpenBabel11021811443D
libRbt.so/2013.1/901 2013/11/27
 31 32  0  0  0  0  0  0  0  0999 V2000
    8.4029   19.6778   50.7678 C   0  0  0  0  0  0  0  0  0  0  0  0
    8.7435   18.8282   49.5471 C   0  0  0  0  0  0  0  0  0  0  0  0
    9.8135   17.8777   49.6091 C   0  0  0  0  0  0  0  0  0  0  0  0
   10.1269   17.0948   48.4722 C   0  0  0  0  0  0  0  0  0  0  0  0
    9.3857   17.2383   47.2737 C   0  0  0  0  0  0  0  0  0  0  0  0
    8.3255   18.1643   47.1966 C   0  0  0  0  0  0  0  0  0  0  0  0
    7.9998   18.9527   48.3148 C   0  0  0  0  0  0  0  0  0  0  0  0
    9.0342   19.5311   51.8139 O   0  0  0  0  0  0  0  0  0  0  0  0
    0.5442   25.6327   55.9851 C   0  0  0  0  0  0  0  0  0  0  0  0
    5.5356   20.4579   53.7627 C   0  0  0  0  0  0  0  0  0  0  0  0
    3.2672   16.0618   50.2970 P   0  0  1  0  0  0  0  0  0  0  0  0
    2.3979   25.5400   54.4721 N   0  0  0  0  0  0  0  0  0  0  0  0
    2.4733   15.9847   51.5382 O   0  0  0  0  0  0  0  0  0  0  0  0
    7.3862   20.6155   50.7134 S   0  0  0  0  0  0  0  0  0  0  0  0
    6.1069   23.4813   52.6483 C   0  0  0  0  0  0  0  0  0  0  0  0
    1.2933   24.8925   54.9777 C   0  0  0  0  0  0  0  0  0  0  0  0
    4.5148   15.2509   50.3087 O   0  5  0  0  0  0  0  0  0  0  0  0
    5.1060   22.5751   52.5220 N   0  0  0  0  0  0  0  0  0  0  0  0
    0.9139   23.7090   54.6096 N   0  0  0  0  0  0  0  0  0  0  0  0
    2.4055   15.8004   49.1208 O   0  0  0  0  0  0  0  0  0  0  0  0
    5.5406   21.1732   52.4389 C   0  0  2  0  0  0  0  0  0  0  0  0
    1.6327   23.0099   53.6588 C   0  0  0  0  0  0  0  0  0  0  0  0
    1.2152   21.7913   53.3070 N   0  0  0  0  0  0  0  0  0  0  0  0
    5.9346   20.4439   51.2374 C   0  0  1  0  0  0  0  0  0  0  0  0
    2.8188   23.6232   53.0821 C   0  0  0  0  0  0  0  0  0  0  0  0
    6.4670   23.9273   51.5811 O   0  0  0  0  0  0  0  0  0  0  0  0
    5.0291   19.5495   50.4673 C   0  0  0  0  0  0  0  0  0  0  0  0
    3.1314   24.8887   53.5356 C   0  0  0  0  0  0  0  0  0  0  0  0
    4.6302   18.2547   51.0330 C   0  0  0  0  0  0  0  0  0  0  0  0
    3.6686   22.8915   52.0720 C   0  0  0  0  0  0  0  0  0  0  0  0
    3.8034   17.5242   50.1103 O   0  0  0  0  0  0  0  0  0  0  0  0
  1  2  1  0  0  0  0
  1  8  2  0  0  0  0
  1 14  1  0  0  0  0
  2  3  2  0  0  0  0
  2  7  1  0  0  0  0
  3  4  1  0  0  0  0
  4  5  2  0  0  0  0
  5  6  1  0  0  0  0
  6  7  2  0  0  0  0
  9 16  1  0  0  0  0
 10 21  1  0  0  0  0
 11 13  1  1  0  0  0
 11 17  1  0  0  0  0
 11 20  2  0  0  0  0
 11 31  1  0  0  0  0
 12 16  2  0  0  0  0
 12 28  1  0  0  0  0
 15 26  1  0  0  0  0
 15 18  1  0  0  0  0
 16 19  1  0  0  0  0
 18 30  1  0  0  0  0
 19 22  2  0  0  0  0
 21 18  1  6  0  0  0
 21 24  1  0  0  0  0
 22 23  1  0  0  0  0
 22 25  1  0  0  0  0
 24 14  1  6  0  0  0
 24 27  1  0  0  0  0
 25 28  2  0  0  0  0
 25 30  1  0  0  0  0
 27 29  1  0  0  0  0
 29 31  1  0  0  0  0
M  CHG  1  17  -1
M  END
>  <CHROM.1>
-1.16798696,99.35979287,108.19406685,93.47605985,94.66358081,-72.63519599
-99.05962897,109.15169892,-115.78408405,-177.55724759,175.05708242,58.07234682
5.02047048,20.25903028,51.46161675,-1.01676289,0.32251239,0.42453512

>  <Name>
ligand

>  <RI>
0

>  <Rbt.Current_Directory>
/home/itssahil/PROJECTS/Mol_Feturizer/New_Systems/rnas/2HOO

>  <Rbt.Executable>
rbdock ($Id: //depot/dev/client3/rdock/2013.1/src/exe/rbdock.cxx#4 $)

>  <Rbt.Library>
libRbt.so (2013.1, Build901 2013/11/27)

>  <Rbt.Parameter_File>
/export/apps/rDock/src/rDock_2013.1_src/data/scripts/dock_solv.prm

>  <Rbt.Receptor>
prm/pocket_docking_7.prm

>  <SCORE>
-24.6211

>  <SCORE.INTER>
-11.0338

>  <SCORE.INTER.CONST>
1

>  <SCORE.INTER.POLAR>
0

>  <SCORE.INTER.ROT>
12

>  <SCORE.INTER.SOLV>
15.0917

>  <SCORE.INTER.VDW>
-23.9864

>  <SCORE.INTER.norm>
-0.355928

>  <SCORE.INTRA>
-13.5873

>  <SCORE.INTRA.DIHEDRAL>
1.33385

>  <SCORE.INTRA.DIHEDRAL.0>
14.6094

>  <SCORE.INTRA.POLAR>
0

>  <SCORE.INTRA.POLAR.0>
0

>  <SCORE.INTRA.REPUL>
0

>  <SCORE.INTRA.REPUL.0>
0

>  <SCORE.INTRA.SOLV>
-0.255512

>  <SCORE.INTRA.SOLV.lig_0>
-65.6478

>  <SCORE.INTRA.VDW>
-14.1265

>  <SCORE.INTRA.VDW.0>
9.35535

>  <SCORE.INTRA.norm>
-0.438301

>  <SCORE.RESTR>
0

>  <SCORE.RESTR.CAVITY>
0

>  <SCORE.RESTR.norm>
0

>  <SCORE.SYSTEM>
0

>  <SCORE.SYSTEM.CONST>
0

>  <SCORE.SYSTEM.DIHEDRAL>
0

>  <SCORE.SYSTEM.SOLV>
0

>  <SCORE.SYSTEM.norm>
0

>  <SCORE.heavy>
31

>  <SCORE.norm>
-0.794228

>  <RMSD>
6.625

$$$$
ligand
 OpenBabel11021811443D
libRbt.so/2013.1/901 2013/11/27
 31 32  0  0  0  0  0  0  0  0999 V2000
    9.3764   22.5624   53.1555 C   0  0  0  0  0  0  0  0  0  0  0  0
    8.5850   23.8524   53.3493 C   0  0  0  0  0  0  0  0  0  0  0  0
    8.4990   24.8091   52.2866 C   0  0  0  0  0  0  0  0  0  0  0  0
    7.7661   26.0056   52.4736 C   0  0  0  0  0  0  0  0  0  0  0  0
    7.1097   26.2622   53.7022 C   0  0  0  0  0  0  0  0  0  0  0  0
    7.1784   25.3292   54.7567 C   0  0  0  0  0  0  0  0  0  0  0  0
    7.9032   24.1353   54.5912 C   0  0  0  0  0  0  0  0  0  0  0  0
   10.5678   22.5208   53.4610 O   0  0  0  0  0  0  0  0  0  0  0  0
    9.8439   16.4679   47.5834 C   0  0  0  0  0  0  0  0  0  0  0  0
    5.7016   19.8379   54.3339 C   0  0  0  0  0  0  0  0  0  0  0  0
    2.8702   23.8314   52.6048 P   0  0  1  0  0  0  0  0  0  0  0  0
    9.6567   17.4769   49.7470 N   0  0  0  0  0  0  0  0  0  0  0  0
    3.1029   25.0680   53.3752 O   0  0  0  0  0  0  0  0  0  0  0  0
    8.7681   21.4327   52.6363 S   0  0  0  0  0  0  0  0  0  0  0  0
    8.4504   18.2757   54.3173 C   0  0  0  0  0  0  0  0  0  0  0  0
    9.0643   16.6756   48.7971 C   0  0  0  0  0  0  0  0  0  0  0  0
    2.3002   22.7073   53.3957 O   0  5  0  0  0  0  0  0  0  0  0  0
    7.5650   18.5300   53.3221 N   0  0  0  0  0  0  0  0  0  0  0  0
    7.8981   16.1269   48.9351 N   0  0  0  0  0  0  0  0  0  0  0  0
    2.1054   24.1322   51.3724 O   0  0  0  0  0  0  0  0  0  0  0  0
    6.8874   19.8318   53.4075 C   0  0  2  0  0  0  0  0  0  0  0  0
    7.1613   16.3336   50.0857 C   0  0  0  0  0  0  0  0  0  0  0  0
    5.9620   15.7562   50.1917 N   0  0  0  0  0  0  0  0  0  0  0  0
    7.2619   21.0654   52.7228 C   0  0  1  0  0  0  0  0  0  0  0  0
    7.7154   17.1760   51.1341 C   0  0  0  0  0  0  0  0  0  0  0  0
    8.0416   17.4492   55.1028 O   0  0  0  0  0  0  0  0  0  0  0  0
    6.2898   22.0086   52.1077 C   0  0  0  0  0  0  0  0  0  0  0  0
    8.9669   17.7049   50.8922 C   0  0  0  0  0  0  0  0  0  0  0  0
    5.2422   22.6180   52.9364 C   0  0  0  0  0  0  0  0  0  0  0  0
    6.9395   17.4735   52.3940 C   0  0  0  0  0  0  0  0  0  0  0  0
    4.2448   23.2534   52.1177 O   0  0  0  0  0  0  0  0  0  0  0  0
  1  2  1  0  0  0  0
  1  8  2  0  0  0  0
  1 14  1  0  0  0  0
  2  3  2  0  0  0  0
  2  7  1  0  0  0  0
  3  4  1  0  0  0  0
  4  5  2  0  0  0  0
  5  6  1  0  0  0  0
  6  7  2  0  0  0  0
  9 16  1  0  0  0  0
 10 21  1  0  0  0  0
 11 13  1  1  0  0  0
 11 17  1  0  0  0  0
 11 20  2  0  0  0  0
 11 31  1  0  0  0  0
 12 16  2  0  0  0  0
 12 28  1  0  0  0  0
 15 26  1  0  0  0  0
 15 18  1  0  0  0  0
 16 19  1  0  0  0  0
 18 30  1  0  0  0  0
 19 22  2  0  0  0  0
 21 18  1  1  0  0  0
 21 24  1  0  0  0  0
 22 23  1  0  0  0  0
 22 25  1  0  0  0  0
 24 14  1  1  0  0  0
 24 27  1  0  0  0  0
 25 28  2  0  0  0  0
 25 30  1  0  0  0  0
 27 29  1  0  0  0  0
 29 31  1  0  0  0  0
M  CHG  1  17  -1
M  END
>  <CHROM.1>
91.10210507,-26.78684293,-119.04076316,107.27078080,-82.56313672,-89.30029451
137.46997997,-120.99153722,-171.87152490,-167.39098703,170.57087271,72.05033211
6.87776517,20.97708333,52.33707730,-1.98145484,0.13635693,-2.74631212

>  <Name>
ligand

>  <RI>
0

>  <Rbt.Current_Directory>
/home/itssahil/PROJECTS/Mol_Feturizer/New_Systems/rnas/2HOO

>  <Rbt.Executable>
rbdock ($Id: //depot/dev/client3/rdock/2013.1/src/exe/rbdock.cxx#4 $)

>  <Rbt.Library>
libRbt.so (2013.1, Build901 2013/11/27)

>  <Rbt.Parameter_File>
/export/apps/rDock/src/rDock_2013.1_src/data/scripts/dock_solv.prm

>  <Rbt.Receptor>
prm/pocket_docking_7.prm

>  <SCORE>
-30.2546

>  <SCORE.INTER>
-16.1977

>  <SCORE.INTER.CONST>
1

>  <SCORE.INTER.POLAR>
0

>  <SCORE.INTER.ROT>
12

>  <SCORE.INTER.SOLV>
17.2717

>  <SCORE.INTER.VDW>
-28.1557

>  <SCORE.INTER.norm>
-0.522507

>  <SCORE.INTRA>
-14.0744

>  <SCORE.INTRA.DIHEDRAL>
0.0925644

>  <SCORE.INTRA.DIHEDRAL.0>
14.6094

>  <SCORE.INTRA.POLAR>
0

>  <SCORE.INTRA.POLAR.0>
0

>  <SCORE.INTRA.REPUL>
0

>  <SCORE.INTRA.REPUL.0>
0

>  <SCORE.INTRA.SOLV>
-1.22193

>  <SCORE.INTRA.SOLV.lig_0>
-65.6478

>  <SCORE.INTRA.VDW>
-13.5097

>  <SCORE.INTRA.VDW.0>
9.35535

>  <SCORE.INTRA.norm>
-0.454012

>  <SCORE.RESTR>
0.0174653

>  <SCORE.RESTR.CAVITY>
0.0174653

>  <SCORE.RESTR.norm>
0.000563398

>  <SCORE.SYSTEM>
0

>  <SCORE.SYSTEM.CONST>
0

>  <SCORE.SYSTEM.DIHEDRAL>
0

>  <SCORE.SYSTEM.SOLV>
0

>  <SCORE.SYSTEM.norm>
0

>  <SCORE.heavy>
31

>  <SCORE.norm>
-0.975956

>  <RMSD>
6.642

$$$$
ligand
 OpenBabel11021811443D
libRbt.so/2013.1/901 2013/11/27
 31 32  0  0  0  0  0  0  0  0999 V2000
    3.2163   16.9651   50.0071 C   0  0  0  0  0  0  0  0  0  0  0  0
    3.7012   15.6593   49.3842 C   0  0  0  0  0  0  0  0  0  0  0  0
    4.3450   14.6711   50.1973 C   0  0  0  0  0  0  0  0  0  0  0  0
    4.7958   13.4631   49.6130 C   0  0  0  0  0  0  0  0  0  0  0  0
    4.6090   13.2195   48.2303 C   0  0  0  0  0  0  0  0  0  0  0  0
    3.9720   14.1781   47.4163 C   0  0  0  0  0  0  0  0  0  0  0  0
    3.5187   15.3854   47.9776 C   0  0  0  0  0  0  0  0  0  0  0  0
    2.0323   17.0957   50.3163 O   0  0  0  0  0  0  0  0  0  0  0  0
    1.9380   23.5938   50.7597 C   0  0  0  0  0  0  0  0  0  0  0  0
    6.6590   17.2268   52.3877 C   0  0  0  0  0  0  0  0  0  0  0  0
    9.6265   17.4189   48.8031 P   0  0  1  0  0  0  0  0  0  0  0  0
    3.0608   21.4916   50.9928 N   0  0  0  0  0  0  0  0  0  0  0  0
   10.6001   17.7744   49.8532 O   0  0  0  0  0  0  0  0  0  0  0  0
    4.0959   18.0105   50.2285 S   0  0  0  0  0  0  0  0  0  0  0  0
    7.8653   20.1018   50.8137 C   0  0  0  0  0  0  0  0  0  0  0  0
    3.0472   22.8296   51.3163 C   0  0  0  0  0  0  0  0  0  0  0  0
    8.9843   18.5829   48.1346 O   0  5  0  0  0  0  0  0  0  0  0  0
    6.9727   19.6017   51.7038 N   0  0  0  0  0  0  0  0  0  0  0  0
    3.9389   23.4058   52.0598 N   0  0  0  0  0  0  0  0  0  0  0  0
   10.2265   16.4520   47.8548 O   0  0  0  0  0  0  0  0  0  0  0  0
    6.4096   18.2900   51.3525 C   0  0  2  0  0  0  0  0  0  0  0  0
    4.9917   22.6768   52.5789 C   0  0  0  0  0  0  0  0  0  0  0  0
    5.8942   23.3040   53.3371 N   0  0  0  0  0  0  0  0  0  0  0  0
    5.6459   17.9523   50.1553 C   0  0  1  0  0  0  0  0  0  0  0  0
    5.0815   21.2570   52.2754 C   0  0  0  0  0  0  0  0  0  0  0  0
    7.3375   20.7698   49.9520 O   0  0  0  0  0  0  0  0  0  0  0  0
    6.2561   17.5409   48.8625 C   0  0  0  0  0  0  0  0  0  0  0  0
    4.0774   20.7394   51.4825 C   0  0  0  0  0  0  0  0  0  0  0  0
    7.1517   16.3783   48.8171 C   0  0  0  0  0  0  0  0  0  0  0  0
    6.2314   20.4183   52.7774 C   0  0  0  0  0  0  0  0  0  0  0  0
    8.4083   16.6731   49.4516 O   0  0  0  0  0  0  0  0  0  0  0  0
  1  2  1  0  0  0  0
  1  8  2  0  0  0  0
  1 14  1  0  0  0  0
  2  3  2  0  0  0  0
  2  7  1  0  0  0  0
  3  4  1  0  0  0  0
  4  5  2  0  0  0  0
  5  6  1  0  0  0  0
  6  7  2  0  0  0  0
  9 16  1  0  0  0  0
 10 21  1  0  0  0  0
 11 13  1  1  0  0  0
 11 17  1  0  0  0  0
 11 20  2  0  0  0  0
 11 31  1  0  0  0  0
 12 16  2  0  0  0  0
 12 28  1  0  0  0  0
 15 26  1  0  0  0  0
 15 18  1  0  0  0  0
 16 19  1  0  0  0  0
 18 30  1  0  0  0  0
 19 22  2  0  0  0  0
 21 18  1  1  0  0  0
 21 24  1  0  0  0  0
 22 23  1  0  0  0  0
 22 25  1  0  0  0  0
 24 14  1  1  0  0  0
 24 27  1  0  0  0  0
 25 28  2  0  0  0  0
 25 30  1  0  0  0  0
 27 29  1  0  0  0  0
 29 31  1  0  0  0  0
M  CHG  1  17  -1
M  END
>  <CHROM.1>
-98.64305032,-12.21105902,-120.16137409,89.48469678,121.42530754,76.59241952
84.62106445,-122.26661238,-127.50670723,-71.39597879,-82.21506030,168.01657034
5.84669146,18.47793926,50.22451299,1.19935477,-0.10697531,-2.74216278

>  <Name>
ligand

>  <RI>
0

>  <Rbt.Current_Directory>
/home/itssahil/PROJECTS/Mol_Feturizer/New_Systems/rnas/2HOO

>  <Rbt.Executable>
rbdock ($Id: //depot/dev/client3/rdock/2013.1/src/exe/rbdock.cxx#4 $)

>  <Rbt.Library>
libRbt.so (2013.1, Build901 2013/11/27)

>  <Rbt.Parameter_File>
/export/apps/rDock/src/rDock_2013.1_src/data/scripts/dock_solv.prm

>  <Rbt.Receptor>
prm/pocket_docking_5.prm

>  <SCORE>
-30.8859

>  <SCORE.INTER>
-15.6589

>  <SCORE.INTER.CONST>
1

>  <SCORE.INTER.POLAR>
0

>  <SCORE.INTER.ROT>
12

>  <SCORE.INTER.SOLV>
18.9622

>  <SCORE.INTER.VDW>
-28.36

>  <SCORE.INTER.norm>
-0.505126

>  <SCORE.INTRA>
-15.227

>  <SCORE.INTRA.DIHEDRAL>
-0.453104

>  <SCORE.INTRA.DIHEDRAL.0>
14.6094

>  <SCORE.INTRA.POLAR>
0

>  <SCORE.INTRA.POLAR.0>
0

>  <SCORE.INTRA.REPUL>
0

>  <SCORE.INTRA.REPUL.0>
0

>  <SCORE.INTRA.SOLV>
3.77431

>  <SCORE.INTRA.SOLV.lig_0>
-65.6478

>  <SCORE.INTRA.VDW>
-16.8876

>  <SCORE.INTRA.VDW.0>
9.35535

>  <SCORE.INTRA.norm>
-0.491193

>  <SCORE.RESTR>
0

>  <SCORE.RESTR.CAVITY>
0

>  <SCORE.RESTR.norm>
0

>  <SCORE.SYSTEM>
0

>  <SCORE.SYSTEM.CONST>
0

>  <SCORE.SYSTEM.DIHEDRAL>
0

>  <SCORE.SYSTEM.SOLV>
0

>  <SCORE.SYSTEM.norm>
0

>  <SCORE.heavy>
31

>  <SCORE.norm>
-0.996319

>  <RMSD>
6.649

$$$$
ligand
 OpenBabel11021811443D
libRbt.so/2013.1/901 2013/11/27
 31 32  0  0  0  0  0  0  0  0999 V2000
    0.7187   20.5460   54.8101 C   0  0  0  0  0  0  0  0  0  0  0  0
    1.7042   20.7820   55.9508 C   0  0  0  0  0  0  0  0  0  0  0  0
    3.1041   20.9112   55.6757 C   0  0  0  0  0  0  0  0  0  0  0  0
    4.0139   21.1266   56.7385 C   0  0  0  0  0  0  0  0  0  0  0  0
    3.5503   21.2228   58.0735 C   0  0  0  0  0  0  0  0  0  0  0  0
    2.1756   21.1043   58.3621 C   0  0  0  0  0  0  0  0  0  0  0  0
    1.2560   20.8882   57.3201 C   0  0  0  0  0  0  0  0  0  0  0  0
    0.1553   21.5017   54.2775 O   0  0  0  0  0  0  0  0  0  0  0  0
    8.3007   19.9514   48.5718 C   0  0  0  0  0  0  0  0  0  0  0  0
    2.1908   18.6496   51.4673 C   0  0  0  0  0  0  0  0  0  0  0  0
    1.8704   14.6152   51.2482 P   0  0  1  0  0  0  0  0  0  0  0  0
    6.1734   19.3742   49.5076 N   0  0  0  0  0  0  0  0  0  0  0  0
    0.5889   14.7582   50.5312 O   0  0  0  0  0  0  0  0  0  0  0  0
    0.4480   19.2635   54.3656 S   0  0  0  0  0  0  0  0  0  0  0  0
    4.6949   18.0340   53.6893 C   0  0  0  0  0  0  0  0  0  0  0  0
    7.3262   20.1144   49.6431 C   0  0  0  0  0  0  0  0  0  0  0  0
    2.0517   13.3091   51.9375 O   0  5  0  0  0  0  0  0  0  0  0  0
    3.8895   19.0322   53.2490 N   0  0  0  0  0  0  0  0  0  0  0  0
    7.5649   20.9105   50.6377 N   0  0  0  0  0  0  0  0  0  0  0  0
    2.9984   14.9728   50.3570 O   0  0  0  0  0  0  0  0  0  0  0  0
    2.5104   18.6295   52.9376 C   0  0  2  0  0  0  0  0  0  0  0  0
    6.6395   21.0553   51.6536 C   0  0  0  0  0  0  0  0  0  0  0  0
    6.9207   21.8807   52.6648 N   0  0  0  0  0  0  0  0  0  0  0  0
    1.4814   18.2094   53.8839 C   0  0  1  0  0  0  0  0  0  0  0  0
    5.3983   20.2997   51.5875 C   0  0  0  0  0  0  0  0  0  0  0  0
    5.6150   18.4426   54.3631 O   0  0  0  0  0  0  0  0  0  0  0  0
    1.3617   16.8318   54.4321 C   0  0  0  0  0  0  0  0  0  0  0  0
    5.2382   19.4875   50.4831 C   0  0  0  0  0  0  0  0  0  0  0  0
    1.0110   15.7203   53.5391 C   0  0  0  0  0  0  0  0  0  0  0  0
    4.3691   20.3829   52.6883 C   0  0  0  0  0  0  0  0  0  0  0  0
    1.9246   15.6444   52.4308 O   0  0  0  0  0  0  0  0  0  0  0  0
  1  2  1  0  0  0  0
  1  8  2  0  0  0  0
  1 14  1  0  0  0  0
  2  3  2  0  0  0  0
  2  7  1  0  0  0  0
  3  4  1  0  0  0  0
  4  5  2  0  0  0  0
  5  6  1  0  0  0  0
  6  7  2  0  0  0  0
  9 16  1  0  0  0  0
 10 21  1  0  0  0  0
 11 13  1  6  0  0  0
 11 17  1  0  0  0  0
 11 20  2  0  0  0  0
 11 31  1  0  0  0  0
 12 16  2  0  0  0  0
 12 28  1  0  0  0  0
 15 26  1  0  0  0  0
 15 18  1  0  0  0  0
 16 19  1  0  0  0  0
 18 30  1  0  0  0  0
 19 22  2  0  0  0  0
 21 18  1  6  0  0  0
 21 24  1  0  0  0  0
 22 23  1  0  0  0  0
 22 25  1  0  0  0  0
 24 14  1  1  0  0  0
 24 27  1  0  0  0  0
 25 28  2  0  0  0  0
 25 30  1  0  0  0  0
 27 29  1  0  0  0  0
 29 31  1  0  0  0  0
M  CHG  1  17  -1
M  END
>  <CHROM.1>
-93.35333221,-54.72832213,-47.02632606,-155.34385927,-109.92163123,51.55054173
-84.11496445,114.12950191,-128.65275165,55.16718518,-178.71720191,59.95829405
3.25115223,18.66370372,53.00532678,2.12271744,0.64621633,0.73748077

>  <Name>
ligand

>  <RI>
0

>  <Rbt.Current_Directory>
/home/itssahil/PROJECTS/Mol_Feturizer/New_Systems/rnas/2HOO

>  <Rbt.Executable>
rbdock ($Id: //depot/dev/client3/rdock/2013.1/src/exe/rbdock.cxx#4 $)

>  <Rbt.Library>
libRbt.so (2013.1, Build901 2013/11/27)

>  <Rbt.Parameter_File>
/export/apps/rDock/src/rDock_2013.1_src/data/scripts/dock_solv.prm

>  <Rbt.Receptor>
prm/pocket_docking_6.prm

>  <SCORE>
-26.0126

>  <SCORE.INTER>
-11.8796

>  <SCORE.INTER.CONST>
1

>  <SCORE.INTER.POLAR>
0

>  <SCORE.INTER.ROT>
12

>  <SCORE.INTER.SOLV>
17.8846

>  <SCORE.INTER.VDW>
-25.4812

>  <SCORE.INTER.norm>
-0.383213

>  <SCORE.INTRA>
-14.133

>  <SCORE.INTRA.DIHEDRAL>
0.544159

>  <SCORE.INTRA.DIHEDRAL.0>
14.6094

>  <SCORE.INTRA.POLAR>
0

>  <SCORE.INTRA.POLAR.0>
0

>  <SCORE.INTRA.REPUL>
0

>  <SCORE.INTRA.REPUL.0>
0

>  <SCORE.INTRA.SOLV>
0.662914

>  <SCORE.INTRA.SOLV.lig_0>
-65.6478

>  <SCORE.INTRA.VDW>
-14.7366

>  <SCORE.INTRA.VDW.0>
9.35535

>  <SCORE.INTRA.norm>
-0.455905

>  <SCORE.RESTR>
0

>  <SCORE.RESTR.CAVITY>
0

>  <SCORE.RESTR.norm>
0

>  <SCORE.SYSTEM>
0

>  <SCORE.SYSTEM.CONST>
0

>  <SCORE.SYSTEM.DIHEDRAL>
0

>  <SCORE.SYSTEM.SOLV>
0

>  <SCORE.SYSTEM.norm>
0

>  <SCORE.heavy>
31

>  <SCORE.norm>
-0.839117

>  <RMSD>
6.653

$$$$
ligand
 OpenBabel11021811443D
libRbt.so/2013.1/901 2013/11/27
 31 32  0  0  0  0  0  0  0  0999 V2000
    3.0483   18.5167   54.6033 C   0  0  0  0  0  0  0  0  0  0  0  0
    1.9438   17.4681   54.6962 C   0  0  0  0  0  0  0  0  0  0  0  0
    2.0024   16.4500   55.7022 C   0  0  0  0  0  0  0  0  0  0  0  0
    0.9764   15.4780   55.7811 C   0  0  0  0  0  0  0  0  0  0  0  0
   -0.1134   15.5076   54.8769 C   0  0  0  0  0  0  0  0  0  0  0  0
   -0.1905   16.5058   53.8844 C   0  0  0  0  0  0  0  0  0  0  0  0
    0.8199   17.4794   53.7885 C   0  0  0  0  0  0  0  0  0  0  0  0
    2.7632   19.7135   54.6315 O   0  0  0  0  0  0  0  0  0  0  0  0
    9.2050   14.6134   46.1234 C   0  0  0  0  0  0  0  0  0  0  0  0
    7.1667   16.8113   53.7828 C   0  0  0  0  0  0  0  0  0  0  0  0
    7.2676   23.4070   52.6504 P   0  0  1  0  0  0  0  0  0  0  0  0
    7.8174   15.0065   48.0350 N   0  0  0  0  0  0  0  0  0  0  0  0
    8.4523   22.9863   51.8783 O   0  0  0  0  0  0  0  0  0  0  0  0
    4.3740   18.1364   54.4858 S   0  0  0  0  0  0  0  0  0  0  0  0
    5.4129   17.2395   50.6666 C   0  0  0  0  0  0  0  0  0  0  0  0
    8.9273   15.3970   47.3204 C   0  0  0  0  0  0  0  0  0  0  0  0
    7.5335   23.6913   54.0865 O   0  5  0  0  0  0  0  0  0  0  0  0
    6.5341   17.3126   51.4260 N   0  0  0  0  0  0  0  0  0  0  0  0
    9.6956   16.3857   47.6556 N   0  0  0  0  0  0  0  0  0  0  0  0
    6.5657   24.5086   51.9517 O   0  0  0  0  0  0  0  0  0  0  0  0
    6.3069   17.6161   52.8463 C   0  0  2  0  0  0  0  0  0  0  0  0
    9.4305   17.1203   48.7956 C   0  0  0  0  0  0  0  0  0  0  0  0
   10.2457   18.1291   49.1127 N   0  0  0  0  0  0  0  0  0  0  0  0
    5.3810   18.6003   53.3987 C   0  0  1  0  0  0  0  0  0  0  0  0
    8.2791   16.7642   49.6100 C   0  0  0  0  0  0  0  0  0  0  0  0
    4.7277   16.2790   50.9414 O   0  0  0  0  0  0  0  0  0  0  0  0
    5.3278   20.0263   52.9787 C   0  0  0  0  0  0  0  0  0  0  0  0
    7.5211   15.7018   49.1610 C   0  0  0  0  0  0  0  0  0  0  0  0
    6.5045   20.8847   53.1642 C   0  0  0  0  0  0  0  0  0  0  0  0
    7.9639   17.5016   50.8886 C   0  0  0  0  0  0  0  0  0  0  0  0
    6.2387   22.2244   52.7135 O   0  0  0  0  0  0  0  0  0  0  0  0
  1  2  1  0  0  0  0
  1  8  2  0  0  0  0
  1 14  1  0  0  0  0
  2  3  2  0  0  0  0
  2  7  1  0  0  0  0
  3  4  1  0  0  0  0
  4  5  2  0  0  0  0
  5  6  1  0  0  0  0
  6  7  2  0  0  0  0
  9 16  1  0  0  0  0
 10 21  1  0  0  0  0
 11 13  1  6  0  0  0
 11 17  1  0  0  0  0
 11 20  2  0  0  0  0
 11 31  1  0  0  0  0
 12 16  2  0  0  0  0
 12 28  1  0  0  0  0
 15 26  1  0  0  0  0
 15 18  1  0  0  0  0
 16 19  1  0  0  0  0
 18 30  1  0  0  0  0
 19 22  2  0  0  0  0
 21 18  1  6  0  0  0
 21 24  1  0  0  0  0
 22 23  1  0  0  0  0
 22 25  1  0  0  0  0
 24 14  1  6  0  0  0
 24 27  1  0  0  0  0
 25 28  2  0  0  0  0
 25 30  1  0  0  0  0
 27 29  1  0  0  0  0
 29 31  1  0  0  0  0
M  CHG  1  17  -1
M  END
>  <CHROM.1>
-125.39796564,126.73758435,-140.06479451,-68.57091094,138.54781650,-38.37738923
-53.55169140,119.31333859,162.96507545,-179.14534969,-175.42086654,53.86612922
5.85613653,18.52174504,52.08785972,2.72555614,0.65818184,0.43454302

>  <Name>
ligand

>  <RI>
0

>  <Rbt.Current_Directory>
/home/itssahil/PROJECTS/Mol_Feturizer/New_Systems/rnas/2HOO

>  <Rbt.Executable>
rbdock ($Id: //depot/dev/client3/rdock/2013.1/src/exe/rbdock.cxx#4 $)

>  <Rbt.Library>
libRbt.so (2013.1, Build901 2013/11/27)

>  <Rbt.Parameter_File>
/export/apps/rDock/src/rDock_2013.1_src/data/scripts/dock_solv.prm

>  <Rbt.Receptor>
prm/pocket_docking_5.prm

>  <SCORE>
-24.3047

>  <SCORE.INTER>
-12.238

>  <SCORE.INTER.CONST>
1

>  <SCORE.INTER.POLAR>
0

>  <SCORE.INTER.ROT>
12

>  <SCORE.INTER.SOLV>
23.7629

>  <SCORE.INTER.VDW>
-27.6796

>  <SCORE.INTER.norm>
-0.394773

>  <SCORE.INTRA>
-12.0668

>  <SCORE.INTRA.DIHEDRAL>
-0.101167

>  <SCORE.INTRA.DIHEDRAL.0>
14.6094

>  <SCORE.INTRA.POLAR>
0

>  <SCORE.INTRA.POLAR.0>
0

>  <SCORE.INTRA.REPUL>
0

>  <SCORE.INTRA.REPUL.0>
0

>  <SCORE.INTRA.SOLV>
-1.00002

>  <SCORE.INTRA.SOLV.lig_0>
-65.6478

>  <SCORE.INTRA.VDW>
-11.5162

>  <SCORE.INTRA.VDW.0>
9.35535

>  <SCORE.INTRA.norm>
-0.389251

>  <SCORE.RESTR>
0

>  <SCORE.RESTR.CAVITY>
0

>  <SCORE.RESTR.norm>
0

>  <SCORE.SYSTEM>
0

>  <SCORE.SYSTEM.CONST>
0

>  <SCORE.SYSTEM.DIHEDRAL>
0

>  <SCORE.SYSTEM.SOLV>
0

>  <SCORE.SYSTEM.norm>
0

>  <SCORE.heavy>
31

>  <SCORE.norm>
-0.784023

>  <RMSD>
6.657

$$$$
ligand
 OpenBabel11021811443D
libRbt.so/2013.1/901 2013/11/27
 31 32  0  0  0  0  0  0  0  0999 V2000
    1.9084   16.0602   51.0649 C   0  0  0  0  0  0  0  0  0  0  0  0
    1.7340   15.2976   49.7549 C   0  0  0  0  0  0  0  0  0  0  0  0
    0.5249   14.5723   49.5013 C   0  0  0  0  0  0  0  0  0  0  0  0
    0.3704   13.8640   48.2855 C   0  0  0  0  0  0  0  0  0  0  0  0
    1.3999   13.8719   47.3127 C   0  0  0  0  0  0  0  0  0  0  0  0
    2.5938   14.5852   47.5428 C   0  0  0  0  0  0  0  0  0  0  0  0
    2.7673   15.2937   48.7453 C   0  0  0  0  0  0  0  0  0  0  0  0
    1.8543   15.4593   52.1375 O   0  0  0  0  0  0  0  0  0  0  0  0
    3.8806   21.6938   59.0142 C   0  0  0  0  0  0  0  0  0  0  0  0
    4.8897   18.2991   53.2098 C   0  0  0  0  0  0  0  0  0  0  0  0
    7.3443   19.1339   50.2833 P   0  0  1  0  0  0  0  0  0  0  0  0
    4.3947   21.0966   56.7529 N   0  0  0  0  0  0  0  0  0  0  0  0
    6.4245   20.2759   50.4468 O   0  0  0  0  0  0  0  0  0  0  0  0
    2.1265   17.4270   51.0618 S   0  0  0  0  0  0  0  0  0  0  0  0
    3.6925   21.2414   51.8648 C   0  0  0  0  0  0  0  0  0  0  0  0
    3.4081   21.3385   57.6820 C   0  0  0  0  0  0  0  0  0  0  0  0
    7.7862   18.8903   48.8835 O   0  5  0  0  0  0  0  0  0  0  0  0
    3.3785   20.2092   52.6864 N   0  0  0  0  0  0  0  0  0  0  0  0
    2.1390   21.2658   57.4289 N   0  0  0  0  0  0  0  0  0  0  0  0
    8.4657   19.2378   51.2456 O   0  0  0  0  0  0  0  0  0  0  0  0
    3.8861   18.8967   52.2612 C   0  0  2  0  0  0  0  0  0  0  0  0
    1.6979   20.9218   56.1654 C   0  0  0  0  0  0  0  0  0  0  0  0
    0.3833   20.8522   55.9417 N   0  0  0  0  0  0  0  0  0  0  0  0
    3.5013   18.1488   51.0682 C   0  0  1  0  0  0  0  0  0  0  0  0
    2.6798   20.6423   55.1293 C   0  0  0  0  0  0  0  0  0  0  0  0
    4.2213   22.1589   52.4529 O   0  0  0  0  0  0  0  0  0  0  0  0
    4.3489   18.0197   49.8525 C   0  0  0  0  0  0  0  0  0  0  0  0
    4.0045   20.7562   55.4995 C   0  0  0  0  0  0  0  0  0  0  0  0
    5.5501   17.1762   49.8883 C   0  0  0  0  0  0  0  0  0  0  0  0
    2.2593   20.2195   53.7429 C   0  0  0  0  0  0  0  0  0  0  0  0
    6.5962   17.8046   50.6494 O   0  0  0  0  0  0  0  0  0  0  0  0
  1  2  1  0  0  0  0
  1  8  2  0  0  0  0
  1 14  1  0  0  0  0
  2  3  2  0  0  0  0
  2  7  1  0  0  0  0
  3  4  1  0  0  0  0
  4  5  2  0  0  0  0
  5  6  1  0  0  0  0
  6  7  2  0  0  0  0
  9 16  1  0  0  0  0
 10 21  1  0  0  0  0
 11 13  1  1  0  0  0
 11 17  1  0  0  0  0
 11 20  2  0  0  0  0
 11 31  1  0  0  0  0
 12 16  2  0  0  0  0
 12 28  1  0  0  0  0
 15 26  1  0  0  0  0
 15 18  1  0  0  0  0
 16 19  1  0  0  0  0
 18 30  1  0  0  0  0
 19 22  2  0  0  0  0
 21 18  1  1  0  0  0
 21 24  1  0  0  0  0
 22 23  1  0  0  0  0
 22 25  1  0  0  0  0
 24 14  1  1  0  0  0
 24 27  1  0  0  0  0
 25 28  2  0  0  0  0
 25 30  1  0  0  0  0
 27 29  1  0  0  0  0
 29 31  1  0  0  0  0
M  CHG  1  17  -1
M  END
>  <CHROM.1>
59.51150915,-92.66189849,-111.76876148,-126.99348419,115.66360569,-92.32668526
103.31437637,-107.26887139,169.21474369,-73.30648891,-65.28617780,70.43033999
3.77262167,18.60793598,52.08513789,1.59274363,-0.44266093,-2.20694018

>  <Name>
ligand

>  <RI>
0

>  <Rbt.Current_Directory>
/home/itssahil/PROJECTS/Mol_Feturizer/New_Systems/rnas/2HOO

>  <Rbt.Executable>
rbdock ($Id: //depot/dev/client3/rdock/2013.1/src/exe/rbdock.cxx#4 $)

>  <Rbt.Library>
libRbt.so (2013.1, Build901 2013/11/27)

>  <Rbt.Parameter_File>
/export/apps/rDock/src/rDock_2013.1_src/data/scripts/dock_solv.prm

>  <Rbt.Receptor>
prm/pocket_docking_6.prm

>  <SCORE>
-25.4815

>  <SCORE.INTER>
-11.7192

>  <SCORE.INTER.CONST>
1

>  <SCORE.INTER.POLAR>
0

>  <SCORE.INTER.ROT>
12

>  <SCORE.INTER.SOLV>
10.121

>  <SCORE.INTER.VDW>
-22.7865

>  <SCORE.INTER.norm>
-0.378038

>  <SCORE.INTRA>
-13.7623

>  <SCORE.INTRA.DIHEDRAL>
3.16306

>  <SCORE.INTRA.DIHEDRAL.0>
14.6094

>  <SCORE.INTRA.POLAR>
0

>  <SCORE.INTRA.POLAR.0>
0

>  <SCORE.INTRA.REPUL>
0

>  <SCORE.INTRA.REPUL.0>
0

>  <SCORE.INTRA.SOLV>
0.671482

>  <SCORE.INTRA.SOLV.lig_0>
-65.6478

>  <SCORE.INTRA.VDW>
-15.6796

>  <SCORE.INTRA.VDW.0>
9.35535

>  <SCORE.INTRA.norm>
-0.443945

>  <SCORE.RESTR>
0

>  <SCORE.RESTR.CAVITY>
0

>  <SCORE.RESTR.norm>
0

>  <SCORE.SYSTEM>
0

>  <SCORE.SYSTEM.CONST>
0

>  <SCORE.SYSTEM.DIHEDRAL>
0

>  <SCORE.SYSTEM.SOLV>
0

>  <SCORE.SYSTEM.norm>
0

>  <SCORE.heavy>
31

>  <SCORE.norm>
-0.821983

>  <RMSD>
6.659

$$$$
ligand
 OpenBabel11021811443D
libRbt.so/2013.1/901 2013/11/27
 31 32  0  0  0  0  0  0  0  0999 V2000
    2.7849   18.2741   52.1468 C   0  0  0  0  0  0  0  0  0  0  0  0
    2.3967   17.3400   53.2891 C   0  0  0  0  0  0  0  0  0  0  0  0
    1.5076   16.2427   53.0493 C   0  0  0  0  0  0  0  0  0  0  0  0
    1.1485   15.3815   54.1138 C   0  0  0  0  0  0  0  0  0  0  0  0
    1.6673   15.5916   55.4150 C   0  0  0  0  0  0  0  0  0  0  0  0
    2.5483   16.6626   55.6678 C   0  0  0  0  0  0  0  0  0  0  0  0
    2.9157   17.5304   54.6238 C   0  0  0  0  0  0  0  0  0  0  0  0
    1.9203   18.9365   51.5741 O   0  0  0  0  0  0  0  0  0  0  0  0
    7.1561   19.4772   44.9614 C   0  0  0  0  0  0  0  0  0  0  0  0
    6.9954   17.0716   53.5335 C   0  0  0  0  0  0  0  0  0  0  0  0
    8.3098   22.1365   53.1816 P   0  0  1  0  0  0  0  0  0  0  0  0
    6.7389   19.5820   47.3171 N   0  0  0  0  0  0  0  0  0  0  0  0
    8.2049   22.5789   51.7780 O   0  0  0  0  0  0  0  0  0  0  0  0
    4.1044   18.3851   51.7437 S   0  0  0  0  0  0  0  0  0  0  0  0
    8.6445   18.8345   51.6063 C   0  0  0  0  0  0  0  0  0  0  0  0
    7.2401   18.8417   46.2702 C   0  0  0  0  0  0  0  0  0  0  0  0
    9.5871   21.4532   53.5216 O   0  5  0  0  0  0  0  0  0  0  0  0
    7.5110   18.1386   51.3422 N   0  0  0  0  0  0  0  0  0  0  0  0
    7.7576   17.6603   46.3989 N   0  0  0  0  0  0  0  0  0  0  0  0
    7.9771   23.2530   54.0966 O   0  0  0  0  0  0  0  0  0  0  0  0
    6.5654   18.0378   52.4632 C   0  0  2  0  0  0  0  0  0  0  0  0
    7.8279   17.0607   47.6418 C   0  0  0  0  0  0  0  0  0  0  0  0
    8.3634   15.8411   47.7363 N   0  0  0  0  0  0  0  0  0  0  0  0
    5.3174   18.7762   52.6307 C   0  0  1  0  0  0  0  0  0  0  0  0
    7.3112   17.7759   48.7982 C   0  0  0  0  0  0  0  0  0  0  0  0
    8.7351   19.8439   50.9427 O   0  0  0  0  0  0  0  0  0  0  0  0
    5.1305   19.8954   53.5927 C   0  0  0  0  0  0  0  0  0  0  0  0
    6.7891   19.0301   48.5548 C   0  0  0  0  0  0  0  0  0  0  0  0
    5.8088   21.1767   53.3603 C   0  0  0  0  0  0  0  0  0  0  0  0
    7.3207   17.1550   50.1738 C   0  0  0  0  0  0  0  0  0  0  0  0
    7.2358   21.0278   53.4612 O   0  0  0  0  0  0  0  0  0  0  0  0
  1  2  1  0  0  0  0
  1  8  2  0  0  0  0
  1 14  1  0  0  0  0
  2  3  2  0  0  0  0
  2  7  1  0  0  0  0
  3  4  1  0  0  0  0
  4  5  2  0  0  0  0
  5  6  1  0  0  0  0
  6  7  2  0  0  0  0
  9 16  1  0  0  0  0
 10 21  1  0  0  0  0
 11 13  1  6  0  0  0
 11 17  1  0  0  0  0
 11 20  2  0  0  0  0
 11 31  1  0  0  0  0
 12 16  2  0  0  0  0
 12 28  1  0  0  0  0
 15 26  1  0  0  0  0
 15 18  1  0  0  0  0
 16 19  1  0  0  0  0
 18 30  1  0  0  0  0
 19 22  2  0  0  0  0
 21 18  1  1  0  0  0
 21 24  1  0  0  0  0
 22 23  1  0  0  0  0
 22 25  1  0  0  0  0
 24 14  1  6  0  0  0
 24 27  1  0  0  0  0
 25 28  2  0  0  0  0
 25 30  1  0  0  0  0
 27 29  1  0  0  0  0
 29 31  1  0  0  0  0
M  CHG  1  17  -1
M  END
>  <CHROM.1>
61.99250950,-56.56483948,137.96220579,-115.51570104,-74.70145010,-67.86863700
-107.91107954,-109.84599179,147.48344514,-65.66975148,175.45467094,-61.18169380
6.06865345,18.92643078,51.52537915,2.61503886,0.66998286,1.10302438

>  <Name>
ligand

>  <RI>
0

>  <Rbt.Current_Directory>
/home/itssahil/PROJECTS/Mol_Feturizer/New_Systems/rnas/2HOO

>  <Rbt.Executable>
rbdock ($Id: //depot/dev/client3/rdock/2013.1/src/exe/rbdock.cxx#4 $)

>  <Rbt.Library>
libRbt.so (2013.1, Build901 2013/11/27)

>  <Rbt.Parameter_File>
/export/apps/rDock/src/rDock_2013.1_src/data/scripts/dock_solv.prm

>  <Rbt.Receptor>
prm/blind_docking_60.prm

>  <SCORE>
-25.3768

>  <SCORE.INTER>
-11.0316

>  <SCORE.INTER.CONST>
1

>  <SCORE.INTER.POLAR>
0

>  <SCORE.INTER.ROT>
12

>  <SCORE.INTER.SOLV>
12.5269

>  <SCORE.INTER.VDW>
-23.13

>  <SCORE.INTER.norm>
-0.355857

>  <SCORE.INTRA>
-14.3453

>  <SCORE.INTRA.DIHEDRAL>
1.28124

>  <SCORE.INTRA.DIHEDRAL.0>
14.6094

>  <SCORE.INTRA.POLAR>
0

>  <SCORE.INTRA.POLAR.0>
0

>  <SCORE.INTRA.REPUL>
0

>  <SCORE.INTRA.REPUL.0>
0

>  <SCORE.INTRA.SOLV>
1.60314

>  <SCORE.INTRA.SOLV.lig_0>
-65.6478

>  <SCORE.INTRA.VDW>
-15.7875

>  <SCORE.INTRA.VDW.0>
9.35535

>  <SCORE.INTRA.norm>
-0.462751

>  <SCORE.RESTR>
0

>  <SCORE.RESTR.CAVITY>
0

>  <SCORE.RESTR.norm>
0

>  <SCORE.SYSTEM>
0

>  <SCORE.SYSTEM.CONST>
0

>  <SCORE.SYSTEM.DIHEDRAL>
0

>  <SCORE.SYSTEM.SOLV>
0

>  <SCORE.SYSTEM.norm>
0

>  <SCORE.heavy>
31

>  <SCORE.norm>
-0.818608

>  <RMSD>
6.686

$$$$
ligand
 OpenBabel11021811443D
libRbt.so/2013.1/901 2013/11/27
 31 32  0  0  0  0  0  0  0  0999 V2000
    6.7597   19.5626   50.0831 C   0  0  0  0  0  0  0  0  0  0  0  0
    7.9866   18.8150   49.5693 C   0  0  0  0  0  0  0  0  0  0  0  0
    8.9344   18.2686   50.4941 C   0  0  0  0  0  0  0  0  0  0  0  0
   10.0725   17.5790   50.0113 C   0  0  0  0  0  0  0  0  0  0  0  0
   10.2788   17.4180   48.6193 C   0  0  0  0  0  0  0  0  0  0  0  0
    9.3533   17.9437   47.6950 C   0  0  0  0  0  0  0  0  0  0  0  0
    8.2173   18.6337   48.1548 C   0  0  0  0  0  0  0  0  0  0  0  0
    6.8761   20.7070   50.5203 O   0  0  0  0  0  0  0  0  0  0  0  0
    2.7249   25.9264   54.7295 C   0  0  0  0  0  0  0  0  0  0  0  0
    2.2828   17.8061   50.9604 C   0  0  0  0  0  0  0  0  0  0  0  0
    8.3149   19.1859   54.1828 P   0  0  1  0  0  0  0  0  0  0  0  0
    1.9577   24.5845   52.9005 N   0  0  0  0  0  0  0  0  0  0  0  0
    7.9674   18.6895   55.5281 O   0  0  0  0  0  0  0  0  0  0  0  0
    5.5110   18.9658   50.0646 S   0  0  0  0  0  0  0  0  0  0  0  0
    2.6011   19.7336   53.5010 C   0  0  0  0  0  0  0  0  0  0  0  0
    2.8478   24.7051   53.9438 C   0  0  0  0  0  0  0  0  0  0  0  0
    8.0472   20.6339   53.9690 O   0  5  0  0  0  0  0  0  0  0  0  0
    2.8670   19.8977   52.1814 N   0  0  0  0  0  0  0  0  0  0  0  0
    3.7455   23.8177   54.2383 N   0  0  0  0  0  0  0  0  0  0  0  0
    9.6961   18.7836   53.8295 O   0  0  0  0  0  0  0  0  0  0  0  0
    3.3698   18.7001   51.4928 C   0  0  2  0  0  0  0  0  0  0  0  0
    3.8610   22.6650   53.4851 C   0  0  0  0  0  0  0  0  0  0  0  0
    4.8000   21.7748   53.8146 N   0  0  0  0  0  0  0  0  0  0  0  0
    4.7652   18.3334   51.2709 C   0  0  1  0  0  0  0  0  0  0  0  0
    2.9615   22.4673   52.3592 C   0  0  0  0  0  0  0  0  0  0  0  0
    1.6631   18.9926   53.6971 O   0  0  0  0  0  0  0  0  0  0  0  0
    5.5242   17.3778   52.1216 C   0  0  0  0  0  0  0  0  0  0  0  0
    2.0367   23.4672   52.1360 C   0  0  0  0  0  0  0  0  0  0  0  0
    6.1357   17.8433   53.3727 C   0  0  0  0  0  0  0  0  0  0  0  0
    3.0681   21.2496   51.4739 C   0  0  0  0  0  0  0  0  0  0  0  0
    7.3901   18.4991   53.1180 O   0  0  0  0  0  0  0  0  0  0  0  0
  1  2  1  0  0  0  0
  1  8  2  0  0  0  0
  1 14  1  0  0  0  0
  2  3  2  0  0  0  0
  2  7  1  0  0  0  0
  3  4  1  0  0  0  0
  4  5  2  0  0  0  0
  5  6  1  0  0  0  0
  6  7  2  0  0  0  0
  9 16  1  0  0  0  0
 10 21  1  0  0  0  0
 11 13  1  1  0  0  0
 11 17  1  0  0  0  0
 11 20  2  0  0  0  0
 11 31  1  0  0  0  0
 12 16  2  0  0  0  0
 12 28  1  0  0  0  0
 15 26  1  0  0  0  0
 15 18  1  0  0  0  0
 16 19  1  0  0  0  0
 18 30  1  0  0  0  0
 19 22  2  0  0  0  0
 21 18  1  6  0  0  0
 21 24  1  0  0  0  0
 22 23  1  0  0  0  0
 22 25  1  0  0  0  0
 24 14  1  6  0  0  0
 24 27  1  0  0  0  0
 25 28  2  0  0  0  0
 25 30  1  0  0  0  0
 27 29  1  0  0  0  0
 29 31  1  0  0  0  0
M  CHG  1  17  -1
M  END
>  <CHROM.1>
75.50331568,101.98907158,131.57310466,-67.47875225,87.22531429,0.42960711
96.16695104,97.77325165,60.55477205,-81.04703153,177.19954096,18.93402516
5.64333553,20.01351750,52.16209011,0.66419709,0.37591930,-2.18847857

>  <Name>
ligand

>  <RI>
0

>  <Rbt.Current_Directory>
/home/itssahil/PROJECTS/Mol_Feturizer/New_Systems/rnas/2HOO

>  <Rbt.Executable>
rbdock ($Id: //depot/dev/client3/rdock/2013.1/src/exe/rbdock.cxx#4 $)

>  <Rbt.Library>
libRbt.so (2013.1, Build901 2013/11/27)

>  <Rbt.Parameter_File>
/export/apps/rDock/src/rDock_2013.1_src/data/scripts/dock_solv.prm

>  <Rbt.Receptor>
prm/pocket_docking_6.prm

>  <SCORE>
-21.5145

>  <SCORE.INTER>
-12.0934

>  <SCORE.INTER.CONST>
1

>  <SCORE.INTER.POLAR>
0

>  <SCORE.INTER.ROT>
12

>  <SCORE.INTER.SOLV>
13.4892

>  <SCORE.INTER.VDW>
-24.1586

>  <SCORE.INTER.norm>
-0.390108

>  <SCORE.INTRA>
-9.42245

>  <SCORE.INTRA.DIHEDRAL>
5.70561

>  <SCORE.INTRA.DIHEDRAL.0>
14.6094

>  <SCORE.INTRA.POLAR>
0

>  <SCORE.INTRA.POLAR.0>
0

>  <SCORE.INTRA.REPUL>
0

>  <SCORE.INTRA.REPUL.0>
0

>  <SCORE.INTRA.SOLV>
6.56806

>  <SCORE.INTRA.SOLV.lig_0>
-65.6478

>  <SCORE.INTRA.VDW>
-15.5593

>  <SCORE.INTRA.VDW.0>
9.35535

>  <SCORE.INTRA.norm>
-0.30395

>  <SCORE.RESTR>
0.00136079

>  <SCORE.RESTR.CAVITY>
0.00136079

>  <SCORE.RESTR.norm>
4.38965e-05

>  <SCORE.SYSTEM>
0

>  <SCORE.SYSTEM.CONST>
0

>  <SCORE.SYSTEM.DIHEDRAL>
0

>  <SCORE.SYSTEM.SOLV>
0

>  <SCORE.SYSTEM.norm>
0

>  <SCORE.heavy>
31

>  <SCORE.norm>
-0.694015

>  <RMSD>
6.703

$$$$
ligand
 OpenBabel11021811443D
libRbt.so/2013.1/901 2013/11/27
 31 32  0  0  0  0  0  0  0  0999 V2000
   10.1360   19.9233   53.8434 C   0  0  0  0  0  0  0  0  0  0  0  0
   11.5555   19.5785   54.2842 C   0  0  0  0  0  0  0  0  0  0  0  0
   12.0343   18.2327   54.1766 C   0  0  0  0  0  0  0  0  0  0  0  0
   13.3510   17.9184   54.5904 C   0  0  0  0  0  0  0  0  0  0  0  0
   14.2033   18.9263   55.1041 C   0  0  0  0  0  0  0  0  0  0  0  0
   13.7509   20.2572   55.2114 C   0  0  0  0  0  0  0  0  0  0  0  0
   12.4454   20.5893   54.8074 C   0  0  0  0  0  0  0  0  0  0  0  0
    9.9099   20.9962   53.2845 O   0  0  0  0  0  0  0  0  0  0  0  0
    7.1469   14.1614   46.7643 C   0  0  0  0  0  0  0  0  0  0  0  0
    5.5544   17.8687   53.5560 C   0  0  0  0  0  0  0  0  0  0  0  0
    3.9858   22.0362   53.2228 P   0  0  1  0  0  0  0  0  0  0  0  0
    7.1654   14.6604   49.1064 N   0  0  0  0  0  0  0  0  0  0  0  0
    3.0466   21.2342   52.4157 O   0  0  0  0  0  0  0  0  0  0  0  0
    9.0939   19.0403   54.0667 S   0  0  0  0  0  0  0  0  0  0  0  0
    6.2711   19.4957   50.8809 C   0  0  0  0  0  0  0  0  0  0  0  0
    7.3999   15.1220   47.8308 C   0  0  0  0  0  0  0  0  0  0  0  0
    4.7202   23.0820   52.4606 O   0  5  0  0  0  0  0  0  0  0  0  0
    6.9391   18.5640   51.6052 N   0  0  0  0  0  0  0  0  0  0  0  0
    7.8161   16.3186   47.5569 N   0  0  0  0  0  0  0  0  0  0  0  0
    3.3068   22.5562   54.4323 O   0  0  0  0  0  0  0  0  0  0  0  0
    6.7431   18.6465   53.0598 C   0  0  2  0  0  0  0  0  0  0  0  0
    8.0605   17.2223   48.5733 C   0  0  0  0  0  0  0  0  0  0  0  0
    8.4926   18.4448   48.2546 N   0  0  0  0  0  0  0  0  0  0  0  0
    7.5758   19.3636   54.0207 C   0  0  1  0  0  0  0  0  0  0  0  0
    7.8445   16.8073   49.9506 C   0  0  0  0  0  0  0  0  0  0  0  0
    5.6256   19.0080   49.9792 O   0  0  0  0  0  0  0  0  0  0  0  0
    7.0627   20.3827   54.9751 C   0  0  0  0  0  0  0  0  0  0  0  0
    7.3925   15.5162   50.1336 C   0  0  0  0  0  0  0  0  0  0  0  0
    6.3097   21.5383   54.4717 C   0  0  0  0  0  0  0  0  0  0  0  0
    8.1355   17.7352   51.1048 C   0  0  0  0  0  0  0  0  0  0  0  0
    5.1398   21.1140   53.7506 O   0  0  0  0  0  0  0  0  0  0  0  0
  1  2  1  0  0  0  0
  1  8  2  0  0  0  0
  1 14  1  0  0  0  0
  2  3  2  0  0  0  0
  2  7  1  0  0  0  0
  3  4  1  0  0  0  0
  4  5  2  0  0  0  0
  5  6  1  0  0  0  0
  6  7  2  0  0  0  0
  9 16  1  0  0  0  0
 10 21  1  0  0  0  0
 11 13  1  6  0  0  0
 11 17  1  0  0  0  0
 11 20  2  0  0  0  0
 11 31  1  0  0  0  0
 12 16  2  0  0  0  0
 12 28  1  0  0  0  0
 15 26  1  0  0  0  0
 15 18  1  0  0  0  0
 16 19  1  0  0  0  0
 18 30  1  0  0  0  0
 19 22  2  0  0  0  0
 21 18  1  1  0  0  0
 21 24  1  0  0  0  0
 22 23  1  0  0  0  0
 22 25  1  0  0  0  0
 24 14  1  1  0  0  0
 24 27  1  0  0  0  0
 25 28  2  0  0  0  0
 25 30  1  0  0  0  0
 27 29  1  0  0  0  0
 29 31  1  0  0  0  0
M  CHG  1  17  -1
M  END
>  <CHROM.1>
-142.65943524,163.26614557,119.99820793,-128.91649616,88.01745326,-63.36332416
123.43689919,125.44109617,93.43036844,58.78565091,171.49472433,174.12106959
7.69572783,19.11878524,52.26908357,-1.46317538,0.31850845,-2.30146692

>  <Name>
ligand

>  <RI>
0

>  <Rbt.Current_Directory>
/home/itssahil/PROJECTS/Mol_Feturizer/New_Systems/rnas/2HOO

>  <Rbt.Executable>
rbdock ($Id: //depot/dev/client3/rdock/2013.1/src/exe/rbdock.cxx#4 $)

>  <Rbt.Library>
libRbt.so (2013.1, Build901 2013/11/27)

>  <Rbt.Parameter_File>
/export/apps/rDock/src/rDock_2013.1_src/data/scripts/dock_solv.prm

>  <Rbt.Receptor>
prm/pocket_docking_3.prm

>  <SCORE>
-32.8589

>  <SCORE.INTER>
-19.1651

>  <SCORE.INTER.CONST>
1

>  <SCORE.INTER.POLAR>
0

>  <SCORE.INTER.ROT>
12

>  <SCORE.INTER.SOLV>
12.394

>  <SCORE.INTER.VDW>
-28.5081

>  <SCORE.INTER.norm>
-0.618229

>  <SCORE.INTRA>
-13.7494

>  <SCORE.INTRA.DIHEDRAL>
-1.9128

>  <SCORE.INTRA.DIHEDRAL.0>
14.6094

>  <SCORE.INTRA.POLAR>
0

>  <SCORE.INTRA.POLAR.0>
0

>  <SCORE.INTRA.REPUL>
0

>  <SCORE.INTRA.REPUL.0>
0

>  <SCORE.INTRA.SOLV>
3.65103

>  <SCORE.INTRA.SOLV.lig_0>
-65.6478

>  <SCORE.INTRA.VDW>
-14.6186

>  <SCORE.INTRA.VDW.0>
9.35535

>  <SCORE.INTRA.norm>
-0.443531

>  <SCORE.RESTR>
0.0556081

>  <SCORE.RESTR.CAVITY>
0.0556081

>  <SCORE.RESTR.norm>
0.00179381

>  <SCORE.SYSTEM>
0

>  <SCORE.SYSTEM.CONST>
0

>  <SCORE.SYSTEM.DIHEDRAL>
0

>  <SCORE.SYSTEM.SOLV>
0

>  <SCORE.SYSTEM.norm>
0

>  <SCORE.heavy>
31

>  <SCORE.norm>
-1.05997

>  <RMSD>
6.712

$$$$
ligand
 OpenBabel11021811443D
libRbt.so/2013.1/901 2013/11/27
 31 32  0  0  0  0  0  0  0  0999 V2000
    4.1506   18.1715   51.0030 C   0  0  0  0  0  0  0  0  0  0  0  0
    5.2288   17.7128   51.9804 C   0  0  0  0  0  0  0  0  0  0  0  0
    6.4594   17.1683   51.4891 C   0  0  0  0  0  0  0  0  0  0  0  0
    7.4544   16.7414   52.4009 C   0  0  0  0  0  0  0  0  0  0  0  0
    7.2465   16.8549   53.7974 C   0  0  0  0  0  0  0  0  0  0  0  0
    6.0442   17.3940   54.2985 C   0  0  0  0  0  0  0  0  0  0  0  0
    5.0425   17.8220   53.4089 C   0  0  0  0  0  0  0  0  0  0  0  0
    3.4550   17.3397   50.4210 O   0  0  0  0  0  0  0  0  0  0  0  0
    4.5421   22.8282   58.8352 C   0  0  0  0  0  0  0  0  0  0  0  0
    2.9769   22.8039   52.4386 C   0  0  0  0  0  0  0  0  0  0  0  0
    8.2548   22.7270   53.0938 P   0  0  1  0  0  0  0  0  0  0  0  0
    4.8616   21.6259   56.7891 N   0  0  0  0  0  0  0  0  0  0  0  0
    9.7180   22.7297   52.9047 O   0  0  0  0  0  0  0  0  0  0  0  0
    3.9451   19.5186   50.7605 S   0  0  0  0  0  0  0  0  0  0  0  0
    0.8824   20.4618   52.5394 C   0  0  0  0  0  0  0  0  0  0  0  0
    3.9620   22.0810   57.7265 C   0  0  0  0  0  0  0  0  0  0  0  0
    7.8008   23.2286   54.4191 O   0  5  0  0  0  0  0  0  0  0  0  0
    2.0591   20.6151   53.1957 N   0  0  0  0  0  0  0  0  0  0  0  0
    2.6831   21.8799   57.6629 N   0  0  0  0  0  0  0  0  0  0  0  0
    7.5896   23.3953   51.9513 O   0  0  0  0  0  0  0  0  0  0  0  0
    3.1117   21.3053   52.4363 C   0  0  2  0  0  0  0  0  0  0  0  0
    2.1404   21.1649   56.6124 C   0  0  0  0  0  0  0  0  0  0  0  0
    0.8193   20.9732   56.5815 N   0  0  0  0  0  0  0  0  0  0  0  0
    4.2354   20.6930   51.7340 C   0  0  1  0  0  0  0  0  0  0  0  0
    3.0271   20.6427   55.5844 C   0  0  0  0  0  0  0  0  0  0  0  0
    0.6871   19.3162   52.1976 O   0  0  0  0  0  0  0  0  0  0  0  0
    5.6531   21.1129   51.8980 C   0  0  0  0  0  0  0  0  0  0  0  0
    4.3701   20.9195   55.7409 C   0  0  0  0  0  0  0  0  0  0  0  0
    6.3556   20.8303   53.1559 C   0  0  0  0  0  0  0  0  0  0  0  0
    2.4982   19.8175   54.4367 C   0  0  0  0  0  0  0  0  0  0  0  0
    7.7296   21.2489   53.0817 O   0  0  0  0  0  0  0  0  0  0  0  0
  1  2  1  0  0  0  0
  1  8  2  0  0  0  0
  1 14  1  0  0  0  0
  2  3  2  0  0  0  0
  2  7  1  0  0  0  0
  3  4  1  0  0  0  0
  4  5  2  0  0  0  0
  5  6  1  0  0  0  0
  6  7  2  0  0  0  0
  9 16  1  0  0  0  0
 10 21  1  0  0  0  0
 11 13  1  6  0  0  0
 11 17  1  0  0  0  0
 11 20  2  0  0  0  0
 11 31  1  0  0  0  0
 12 16  2  0  0  0  0
 12 28  1  0  0  0  0
 15 26  1  0  0  0  0
 15 18  1  0  0  0  0
 16 19  1  0  0  0  0
 18 30  1  0  0  0  0
 19 22  2  0  0  0  0
 21 18  1  1  0  0  0
 21 24  1  0  0  0  0
 22 23  1  0  0  0  0
 22 25  1  0  0  0  0
 24 14  1  1  0  0  0
 24 27  1  0  0  0  0
 25 28  2  0  0  0  0
 25 30  1  0  0  0  0
 27 29  1  0  0  0  0
 29 31  1  0  0  0  0
M  CHG  1  17  -1
M  END
>  <CHROM.1>
75.79420790,-27.48678501,-102.62008307,107.46529973,80.61068615,-131.22191979
-131.18844207,-109.11635153,88.98630440,176.78546896,72.46602714,-176.03525419
4.80307138,20.51876641,53.52792403,0.68447212,-0.31696412,-2.24620390

>  <Name>
ligand

>  <RI>
0

>  <Rbt.Current_Directory>
/home/itssahil/PROJECTS/Mol_Feturizer/New_Systems/rnas/2HOO

>  <Rbt.Executable>
rbdock ($Id: //depot/dev/client3/rdock/2013.1/src/exe/rbdock.cxx#4 $)

>  <Rbt.Library>
libRbt.so (2013.1, Build901 2013/11/27)

>  <Rbt.Parameter_File>
/export/apps/rDock/src/rDock_2013.1_src/data/scripts/dock_solv.prm

>  <Rbt.Receptor>
prm/pocket_docking_7.prm

>  <SCORE>
-25.2237

>  <SCORE.INTER>
-9.99355

>  <SCORE.INTER.CONST>
1

>  <SCORE.INTER.POLAR>
0

>  <SCORE.INTER.ROT>
12

>  <SCORE.INTER.SOLV>
13.1414

>  <SCORE.INTER.VDW>
-22.6428

>  <SCORE.INTER.norm>
-0.322373

>  <SCORE.INTRA>
-15.2301

>  <SCORE.INTRA.DIHEDRAL>
-0.692569

>  <SCORE.INTRA.DIHEDRAL.0>
14.6094

>  <SCORE.INTRA.POLAR>
0

>  <SCORE.INTRA.POLAR.0>
0

>  <SCORE.INTRA.REPUL>
0

>  <SCORE.INTRA.REPUL.0>
0

>  <SCORE.INTRA.SOLV>
2.70545

>  <SCORE.INTRA.SOLV.lig_0>
-65.6478

>  <SCORE.INTRA.VDW>
-16.2366

>  <SCORE.INTRA.VDW.0>
9.35535

>  <SCORE.INTRA.norm>
-0.491294

>  <SCORE.RESTR>
0

>  <SCORE.RESTR.CAVITY>
0

>  <SCORE.RESTR.norm>
0

>  <SCORE.SYSTEM>
0

>  <SCORE.SYSTEM.CONST>
0

>  <SCORE.SYSTEM.DIHEDRAL>
0

>  <SCORE.SYSTEM.SOLV>
0

>  <SCORE.SYSTEM.norm>
0

>  <SCORE.heavy>
31

>  <SCORE.norm>
-0.813667

>  <RMSD>
6.720

$$$$
ligand
 OpenBabel11021811443D
libRbt.so/2013.1/901 2013/11/27
 31 32  0  0  0  0  0  0  0  0999 V2000
    4.6383   17.9876   51.4051 C   0  0  0  0  0  0  0  0  0  0  0  0
    3.5188   17.0630   50.9362 C   0  0  0  0  0  0  0  0  0  0  0  0
    3.5577   16.4975   49.6206 C   0  0  0  0  0  0  0  0  0  0  0  0
    2.5144   15.6431   49.1901 C   0  0  0  0  0  0  0  0  0  0  0  0
    1.4340   15.3362   50.0531 C   0  0  0  0  0  0  0  0  0  0  0  0
    1.3825   15.8787   51.3532 C   0  0  0  0  0  0  0  0  0  0  0  0
    2.4085   16.7312   51.7989 C   0  0  0  0  0  0  0  0  0  0  0  0
    5.5279   17.5535   52.1363 O   0  0  0  0  0  0  0  0  0  0  0  0
    1.5465   15.9222   55.4043 C   0  0  0  0  0  0  0  0  0  0  0  0
    4.1165   22.4317   52.3161 C   0  0  0  0  0  0  0  0  0  0  0  0
    7.1635   18.7088   47.6391 P   0  0  1  0  0  0  0  0  0  0  0  0
    3.3672   17.3353   54.7542 N   0  0  0  0  0  0  0  0  0  0  0  0
    6.1962   17.5963   47.6988 O   0  0  0  0  0  0  0  0  0  0  0  0
    4.6652   19.3160   51.0173 S   0  0  0  0  0  0  0  0  0  0  0  0
    6.4934   21.4180   54.5354 C   0  0  0  0  0  0  0  0  0  0  0  0
    2.1293   17.2570   55.3514 C   0  0  0  0  0  0  0  0  0  0  0  0
    8.5836   18.3048   47.8236 O   0  5  0  0  0  0  0  0  0  0  0  0
    5.2346   21.1295   54.1218 N   0  0  0  0  0  0  0  0  0  0  0  0
    1.4950   18.2746   55.8435 N   0  0  0  0  0  0  0  0  0  0  0  0
    6.9353   19.5210   46.4215 O   0  0  0  0  0  0  0  0  0  0  0  0
    5.0048   21.2719   52.6768 C   0  0  2  0  0  0  0  0  0  0  0  0
    2.0503   19.5385   55.7840 C   0  0  0  0  0  0  0  0  0  0  0  0
    1.3667   20.5644   56.2970 N   0  0  0  0  0  0  0  0  0  0  0  0
    5.5565   20.4399   51.6118 C   0  0  1  0  0  0  0  0  0  0  0  0
    3.3537   19.7056   55.1602 C   0  0  0  0  0  0  0  0  0  0  0  0
    6.9449   20.5712   55.2748 O   0  0  0  0  0  0  0  0  0  0  0  0
    6.9303   20.5888   51.0610 C   0  0  0  0  0  0  0  0  0  0  0  0
    3.9482   18.5582   54.6756 C   0  0  0  0  0  0  0  0  0  0  0  0
    7.4725   19.5577   50.1673 C   0  0  0  0  0  0  0  0  0  0  0  0
    3.9912   21.0671   55.0267 C   0  0  0  0  0  0  0  0  0  0  0  0
    6.9173   19.6799   48.8462 O   0  0  0  0  0  0  0  0  0  0  0  0
  1  2  1  0  0  0  0
  1  8  2  0  0  0  0
  1 14  1  0  0  0  0
  2  3  2  0  0  0  0
  2  7  1  0  0  0  0
  3  4  1  0  0  0  0
  4  5  2  0  0  0  0
  5  6  1  0  0  0  0
  6  7  2  0  0  0  0
  9 16  1  0  0  0  0
 10 21  1  0  0  0  0
 11 13  1  1  0  0  0
 11 17  1  0  0  0  0
 11 20  2  0  0  0  0
 11 31  1  0  0  0  0
 12 16  2  0  0  0  0
 12 28  1  0  0  0  0
 15 26  1  0  0  0  0
 15 18  1  0  0  0  0
 16 19  1  0  0  0  0
 18 30  1  0  0  0  0
 19 22  2  0  0  0  0
 21 18  1  6  0  0  0
 21 24  1  0  0  0  0
 22 23  1  0  0  0  0
 22 25  1  0  0  0  0
 24 14  1  1  0  0  0
 24 27  1  0  0  0  0
 25 28  2  0  0  0  0
 25 30  1  0  0  0  0
 27 29  1  0  0  0  0
 29 31  1  0  0  0  0
M  CHG  1  17  -1
M  END
>  <CHROM.1>
-100.49036636,167.30696330,-94.14991075,-132.33855689,-110.20769490,-114.74504578
-82.19819424,-10.37031759,-169.04972069,76.81625204,-175.29683119,86.54759829
4.64303802,18.84288760,51.85583428,0.83711304,-0.73191862,-2.14201463

>  <Name>
ligand

>  <RI>
0

>  <Rbt.Current_Directory>
/home/itssahil/PROJECTS/Mol_Feturizer/New_Systems/rnas/2HOO

>  <Rbt.Executable>
rbdock ($Id: //depot/dev/client3/rdock/2013.1/src/exe/rbdock.cxx#4 $)

>  <Rbt.Library>
libRbt.so (2013.1, Build901 2013/11/27)

>  <Rbt.Parameter_File>
/export/apps/rDock/src/rDock_2013.1_src/data/scripts/dock_solv.prm

>  <Rbt.Receptor>
prm/pocket_docking_4.prm

>  <SCORE>
-26.3649

>  <SCORE.INTER>
-12.4819

>  <SCORE.INTER.CONST>
1

>  <SCORE.INTER.POLAR>
0

>  <SCORE.INTER.ROT>
12

>  <SCORE.INTER.SOLV>
12.9198

>  <SCORE.INTER.VDW>
-24.2278

>  <SCORE.INTER.norm>
-0.402641

>  <SCORE.INTRA>
-13.883

>  <SCORE.INTRA.DIHEDRAL>
0.570178

>  <SCORE.INTRA.DIHEDRAL.0>
14.6094

>  <SCORE.INTRA.POLAR>
0

>  <SCORE.INTRA.POLAR.0>
0

>  <SCORE.INTRA.REPUL>
0

>  <SCORE.INTRA.REPUL.0>
0

>  <SCORE.INTRA.SOLV>
-0.100443

>  <SCORE.INTRA.SOLV.lig_0>
-65.6478

>  <SCORE.INTRA.VDW>
-14.1179

>  <SCORE.INTRA.VDW.0>
9.35535

>  <SCORE.INTRA.norm>
-0.447839

>  <SCORE.RESTR>
0

>  <SCORE.RESTR.CAVITY>
0

>  <SCORE.RESTR.norm>
0

>  <SCORE.SYSTEM>
0

>  <SCORE.SYSTEM.CONST>
0

>  <SCORE.SYSTEM.DIHEDRAL>
0

>  <SCORE.SYSTEM.SOLV>
0

>  <SCORE.SYSTEM.norm>
0

>  <SCORE.heavy>
31

>  <SCORE.norm>
-0.85048

>  <RMSD>
6.723

$$$$
ligand
 OpenBabel11021811443D
libRbt.so/2013.1/901 2013/11/27
 31 32  0  0  0  0  0  0  0  0999 V2000
    4.3346   18.4188   51.0055 C   0  0  0  0  0  0  0  0  0  0  0  0
    5.8462   18.3372   50.8148 C   0  0  0  0  0  0  0  0  0  0  0  0
    6.5298   17.0946   51.0166 C   0  0  0  0  0  0  0  0  0  0  0  0
    7.9328   17.0260   50.8414 C   0  0  0  0  0  0  0  0  0  0  0  0
    8.6670   18.1759   50.4605 C   0  0  0  0  0  0  0  0  0  0  0  0
    8.0099   19.4055   50.2517 C   0  0  0  0  0  0  0  0  0  0  0  0
    6.6168   19.4945   50.4225 C   0  0  0  0  0  0  0  0  0  0  0  0
    3.6781   19.2398   50.3657 O   0  0  0  0  0  0  0  0  0  0  0  0
    5.3279   22.1379   56.5385 C   0  0  0  0  0  0  0  0  0  0  0  0
    0.8886   15.8086   53.5687 C   0  0  0  0  0  0  0  0  0  0  0  0
    4.1478   14.6753   49.1478 P   0  0  1  0  0  0  0  0  0  0  0  0
    4.4739   20.3751   55.1610 N   0  0  0  0  0  0  0  0  0  0  0  0
    4.5259   16.1004   49.0944 O   0  0  0  0  0  0  0  0  0  0  0  0
    3.6893   17.5772   51.8950 S   0  0  0  0  0  0  0  0  0  0  0  0
   -0.0650   18.9906   52.9924 C   0  0  0  0  0  0  0  0  0  0  0  0
    4.2384   21.2244   56.2185 C   0  0  0  0  0  0  0  0  0  0  0  0
    3.4969   14.1607   47.9126 O   0  5  0  0  0  0  0  0  0  0  0  0
    0.8982   18.2986   53.6498 N   0  0  0  0  0  0  0  0  0  0  0  0
    3.1393   21.2409   56.9054 N   0  0  0  0  0  0  0  0  0  0  0  0
    5.2994   13.8562   49.5921 O   0  0  0  0  0  0  0  0  0  0  0  0
    1.3814   17.0936   52.9602 C   0  0  2  0  0  0  0  0  0  0  0  0
    2.1128   20.3674   56.6011 C   0  0  0  0  0  0  0  0  0  0  0  0
    0.9966   20.4094   57.3326 N   0  0  0  0  0  0  0  0  0  0  0  0
    2.2373   17.0393   51.7790 C   0  0  1  0  0  0  0  0  0  0  0  0
    2.2881   19.4317   55.5012 C   0  0  0  0  0  0  0  0  0  0  0  0
    0.2100   20.1636   52.8663 O   0  0  0  0  0  0  0  0  0  0  0  0
    1.8058   16.5106   50.4572 C   0  0  0  0  0  0  0  0  0  0  0  0
    3.4913   19.5015   54.8287 C   0  0  0  0  0  0  0  0  0  0  0  0
    1.7270   15.0601   50.2433 C   0  0  0  0  0  0  0  0  0  0  0  0
    1.2203   18.4248   55.1496 C   0  0  0  0  0  0  0  0  0  0  0  0
    3.0387   14.4700   50.2381 O   0  0  0  0  0  0  0  0  0  0  0  0
  1  2  1  0  0  0  0
  1  8  2  0  0  0  0
  1 14  1  0  0  0  0
  2  3  2  0  0  0  0
  2  7  1  0  0  0  0
  3  4  1  0  0  0  0
  4  5  2  0  0  0  0
  5  6  1  0  0  0  0
  6  7  2  0  0  0  0
  9 16  1  0  0  0  0
 10 21  1  0  0  0  0
 11 13  1  6  0  0  0
 11 17  1  0  0  0  0
 11 20  2  0  0  0  0
 11 31  1  0  0  0  0
 12 16  2  0  0  0  0
 12 28  1  0  0  0  0
 15 26  1  0  0  0  0
 15 18  1  0  0  0  0
 16 19  1  0  0  0  0
 18 30  1  0  0  0  0
 19 22  2  0  0  0  0
 21 18  1  6  0  0  0
 21 24  1  0  0  0  0
 22 23  1  0  0  0  0
 22 25  1  0  0  0  0
 24 14  1  6  0  0  0
 24 27  1  0  0  0  0
 25 28  2  0  0  0  0
 25 30  1  0  0  0  0
 27 29  1  0  0  0  0
 29 31  1  0  0  0  0
M  CHG  1  17  -1
M  END
>  <CHROM.1>
-151.08478263,-149.43629099,-133.63965839,-127.37116622,-105.99262595,-92.02796109
-116.29232151,103.10184669,134.52281310,-68.85670403,-68.31218790,61.68234930
3.55186633,17.84423054,52.24611830,-1.29655607,0.33080994,0.82354273

>  <Name>
ligand

>  <RI>
0

>  <Rbt.Current_Directory>
/home/itssahil/PROJECTS/Mol_Feturizer/New_Systems/rnas/2HOO

>  <Rbt.Executable>
rbdock ($Id: //depot/dev/client3/rdock/2013.1/src/exe/rbdock.cxx#4 $)

>  <Rbt.Library>
libRbt.so (2013.1, Build901 2013/11/27)

>  <Rbt.Parameter_File>
/export/apps/rDock/src/rDock_2013.1_src/data/scripts/dock_solv.prm

>  <Rbt.Receptor>
prm/pocket_docking_6.prm

>  <SCORE>
-25.5143

>  <SCORE.INTER>
-10.9543

>  <SCORE.INTER.CONST>
1

>  <SCORE.INTER.POLAR>
0

>  <SCORE.INTER.ROT>
12

>  <SCORE.INTER.SOLV>
14.2142

>  <SCORE.INTER.VDW>
-23.6409

>  <SCORE.INTER.norm>
-0.353365

>  <SCORE.INTRA>
-14.56

>  <SCORE.INTRA.DIHEDRAL>
0.308651

>  <SCORE.INTRA.DIHEDRAL.0>
14.6094

>  <SCORE.INTRA.POLAR>
0

>  <SCORE.INTRA.POLAR.0>
0

>  <SCORE.INTRA.REPUL>
0

>  <SCORE.INTRA.REPUL.0>
0

>  <SCORE.INTRA.SOLV>
0.53288

>  <SCORE.INTRA.SOLV.lig_0>
-65.6478

>  <SCORE.INTRA.VDW>
-14.9807

>  <SCORE.INTRA.VDW.0>
9.35535

>  <SCORE.INTRA.norm>
-0.469676

>  <SCORE.RESTR>
0

>  <SCORE.RESTR.CAVITY>
0

>  <SCORE.RESTR.norm>
0

>  <SCORE.SYSTEM>
0

>  <SCORE.SYSTEM.CONST>
0

>  <SCORE.SYSTEM.DIHEDRAL>
0

>  <SCORE.SYSTEM.SOLV>
0

>  <SCORE.SYSTEM.norm>
0

>  <SCORE.heavy>
31

>  <SCORE.norm>
-0.823041

>  <RMSD>
6.741

$$$$
ligand
 OpenBabel11021811443D
libRbt.so/2013.1/901 2013/11/27
 31 32  0  0  0  0  0  0  0  0999 V2000
    5.6864   23.7408   52.9232 C   0  0  0  0  0  0  0  0  0  0  0  0
    6.6820   22.5977   52.7496 C   0  0  0  0  0  0  0  0  0  0  0  0
    7.2663   22.3423   51.4668 C   0  0  0  0  0  0  0  0  0  0  0  0
    8.1867   21.2782   51.3114 C   0  0  0  0  0  0  0  0  0  0  0  0
    8.5412   20.4668   52.4169 C   0  0  0  0  0  0  0  0  0  0  0  0
    7.9809   20.7075   53.6878 C   0  0  0  0  0  0  0  0  0  0  0  0
    7.0630   21.7587   53.8623 C   0  0  0  0  0  0  0  0  0  0  0  0
    5.9749   24.7044   53.6323 O   0  0  0  0  0  0  0  0  0  0  0  0
    2.5271   15.3225   49.2291 C   0  0  0  0  0  0  0  0  0  0  0  0
    1.5125   21.2192   52.2634 C   0  0  0  0  0  0  0  0  0  0  0  0
   -1.4973   25.1881   53.9719 P   0  0  1  0  0  0  0  0  0  0  0  0
    2.2193   17.3876   50.4017 N   0  0  0  0  0  0  0  0  0  0  0  0
   -1.7630   25.8819   52.6972 O   0  0  0  0  0  0  0  0  0  0  0  0
    4.4558   23.7067   52.2907 S   0  0  0  0  0  0  0  0  0  0  0  0
    3.7361   19.8716   53.9637 C   0  0  0  0  0  0  0  0  0  0  0  0
    3.1098   16.5357   49.7882 C   0  0  0  0  0  0  0  0  0  0  0  0
   -1.7481   26.0089   55.1874 O   0  5  0  0  0  0  0  0  0  0  0  0
    3.8566   20.5793   52.8132 N   0  0  0  0  0  0  0  0  0  0  0  0
    4.3828   16.7612   49.6941 N   0  0  0  0  0  0  0  0  0  0  0  0
   -2.1855   23.8765   53.9942 O   0  0  0  0  0  0  0  0  0  0  0  0
    2.8922   21.6770   52.6521 C   0  0  2  0  0  0  0  0  0  0  0  0
    4.9298   17.9102   50.2324 C   0  0  0  0  0  0  0  0  0  0  0  0
    6.2456   18.1076   50.1207 N   0  0  0  0  0  0  0  0  0  0  0  0
    3.1397   23.1019   52.8504 C   0  0  1  0  0  0  0  0  0  0  0  0
    4.0547   18.8575   50.9053 C   0  0  0  0  0  0  0  0  0  0  0  0
    4.6787   20.0308   54.7078 O   0  0  0  0  0  0  0  0  0  0  0  0
    2.2149   24.0192   53.5688 C   0  0  0  0  0  0  0  0  0  0  0  0
    2.7151   18.5278   50.9432 C   0  0  0  0  0  0  0  0  0  0  0  0
    0.8296   24.1670   53.1053 C   0  0  0  0  0  0  0  0  0  0  0  0
    4.6000   20.1082   51.5505 C   0  0  0  0  0  0  0  0  0  0  0  0
    0.0335   24.8631   54.0802 O   0  0  0  0  0  0  0  0  0  0  0  0
  1  2  1  0  0  0  0
  1  8  2  0  0  0  0
  1 14  1  0  0  0  0
  2  3  2  0  0  0  0
  2  7  1  0  0  0  0
  3  4  1  0  0  0  0
  4  5  2  0  0  0  0
  5  6  1  0  0  0  0
  6  7  2  0  0  0  0
  9 16  1  0  0  0  0
 10 21  1  0  0  0  0
 11 13  1  6  0  0  0
 11 17  1  0  0  0  0
 11 20  2  0  0  0  0
 11 31  1  0  0  0  0
 12 16  2  0  0  0  0
 12 28  1  0  0  0  0
 15 26  1  0  0  0  0
 15 18  1  0  0  0  0
 16 19  1  0  0  0  0
 18 30  1  0  0  0  0
 19 22  2  0  0  0  0
 21 18  1  1  0  0  0
 21 24  1  0  0  0  0
 22 23  1  0  0  0  0
 22 25  1  0  0  0  0
 24 14  1  1  0  0  0
 24 27  1  0  0  0  0
 25 28  2  0  0  0  0
 25 30  1  0  0  0  0
 27 29  1  0  0  0  0
 29 31  1  0  0  0  0
M  CHG  1  17  -1
M  END
>  <CHROM.1>
-114.39581344,89.76636848,-86.14995061,-112.26813732,-76.61174913,61.53767323
-137.99924231,122.85808062,-146.87200789,167.82053809,-178.53041008,-53.07319283
3.27498380,21.66854424,52.47366738,-0.85750139,-0.02647336,0.43833709

>  <Name>
ligand

>  <RI>
0

>  <Rbt.Current_Directory>
/home/itssahil/PROJECTS/Mol_Feturizer/New_Systems/rnas/2HOO

>  <Rbt.Executable>
rbdock ($Id: //depot/dev/client3/rdock/2013.1/src/exe/rbdock.cxx#4 $)

>  <Rbt.Library>
libRbt.so (2013.1, Build901 2013/11/27)

>  <Rbt.Parameter_File>
/export/apps/rDock/src/rDock_2013.1_src/data/scripts/dock_solv.prm

>  <Rbt.Receptor>
prm/pocket_docking_8.prm

>  <SCORE>
-25.3417

>  <SCORE.INTER>
-12.1038

>  <SCORE.INTER.CONST>
1

>  <SCORE.INTER.POLAR>
0

>  <SCORE.INTER.ROT>
12

>  <SCORE.INTER.SOLV>
14.2569

>  <SCORE.INTER.VDW>
-24.4215

>  <SCORE.INTER.norm>
-0.390444

>  <SCORE.INTRA>
-13.2379

>  <SCORE.INTRA.DIHEDRAL>
2.96826

>  <SCORE.INTRA.DIHEDRAL.0>
14.6094

>  <SCORE.INTRA.POLAR>
0

>  <SCORE.INTRA.POLAR.0>
0

>  <SCORE.INTRA.REPUL>
0

>  <SCORE.INTRA.REPUL.0>
0

>  <SCORE.INTRA.SOLV>
-0.800815

>  <SCORE.INTRA.SOLV.lig_0>
-65.6478

>  <SCORE.INTRA.VDW>
-14.3217

>  <SCORE.INTRA.VDW.0>
9.35535

>  <SCORE.INTRA.norm>
-0.42703

>  <SCORE.RESTR>
0

>  <SCORE.RESTR.CAVITY>
0

>  <SCORE.RESTR.norm>
0

>  <SCORE.SYSTEM>
0

>  <SCORE.SYSTEM.CONST>
0

>  <SCORE.SYSTEM.DIHEDRAL>
0

>  <SCORE.SYSTEM.SOLV>
0

>  <SCORE.SYSTEM.norm>
0

>  <SCORE.heavy>
31

>  <SCORE.norm>
-0.817475

>  <RMSD>
6.766

$$$$
ligand
 OpenBabel11021811443D
libRbt.so/2013.1/901 2013/11/27
 31 32  0  0  0  0  0  0  0  0999 V2000
    3.0367   18.3319   51.3519 C   0  0  0  0  0  0  0  0  0  0  0  0
    1.7732   18.9846   51.9046 C   0  0  0  0  0  0  0  0  0  0  0  0
    0.5829   18.2079   52.0839 C   0  0  0  0  0  0  0  0  0  0  0  0
   -0.5872   18.8199   52.5939 C   0  0  0  0  0  0  0  0  0  0  0  0
   -0.5893   20.1944   52.9359 C   0  0  0  0  0  0  0  0  0  0  0  0
    0.5747   20.9725   52.7718 C   0  0  0  0  0  0  0  0  0  0  0  0
    1.7469   20.3834   52.2648 C   0  0  0  0  0  0  0  0  0  0  0  0
    3.1673   17.1091   51.3985 O   0  0  0  0  0  0  0  0  0  0  0  0
    1.6340   17.3074   55.6040 C   0  0  0  0  0  0  0  0  0  0  0  0
    7.5654   20.4881   50.6461 C   0  0  0  0  0  0  0  0  0  0  0  0
    5.7237   14.1333   48.9850 P   0  0  1  0  0  0  0  0  0  0  0  0
    3.8352   17.4292   54.6690 N   0  0  0  0  0  0  0  0  0  0  0  0
    4.3399   13.7855   49.3606 O   0  0  0  0  0  0  0  0  0  0  0  0
    4.0439   19.1023   50.7970 S   0  0  0  0  0  0  0  0  0  0  0  0
    5.4416   22.1082   52.3331 C   0  0  0  0  0  0  0  0  0  0  0  0
    2.7837   18.1202   55.2277 C   0  0  0  0  0  0  0  0  0  0  0  0
    6.7419   13.1161   49.3627 O   0  5  0  0  0  0  0  0  0  0  0  0
    6.0935   20.9499   52.6023 N   0  0  0  0  0  0  0  0  0  0  0  0
    2.7786   19.4017   55.4218 N   0  0  0  0  0  0  0  0  0  0  0  0
    5.7838   14.5256   47.5579 O   0  0  0  0  0  0  0  0  0  0  0  0
    6.3477   20.0917   51.4361 C   0  0  2  0  0  0  0  0  0  0  0  0
    3.8693   20.1673   55.0565 C   0  0  0  0  0  0  0  0  0  0  0  0
    3.8275   21.4852   55.2671 N   0  0  0  0  0  0  0  0  0  0  0  0
    5.5719   18.9299   51.0128 C   0  0  1  0  0  0  0  0  0  0  0  0
    5.0180   19.5117   54.4511 C   0  0  0  0  0  0  0  0  0  0  0  0
    6.0238   23.0796   52.7630 O   0  0  0  0  0  0  0  0  0  0  0  0
    6.1482   17.5777   50.7838 C   0  0  0  0  0  0  0  0  0  0  0  0
    4.9263   18.1433   54.2965 C   0  0  0  0  0  0  0  0  0  0  0  0
    5.5543   16.6945   49.7724 C   0  0  0  0  0  0  0  0  0  0  0  0
    6.2200   20.3003   53.9918 C   0  0  0  0  0  0  0  0  0  0  0  0
    6.1805   15.3998   49.7902 O   0  0  0  0  0  0  0  0  0  0  0  0
  1  2  1  0  0  0  0
  1  8  2  0  0  0  0
  1 14  1  0  0  0  0
  2  3  2  0  0  0  0
  2  7  1  0  0  0  0
  3  4  1  0  0  0  0
  4  5  2  0  0  0  0
  5  6  1  0  0  0  0
  6  7  2  0  0  0  0
  9 16  1  0  0  0  0
 10 21  1  0  0  0  0
 11 13  1  1  0  0  0
 11 17  1  0  0  0  0
 11 20  2  0  0  0  0
 11 31  1  0  0  0  0
 12 16  2  0  0  0  0
 12 28  1  0  0  0  0
 15 26  1  0  0  0  0
 15 18  1  0  0  0  0
 16 19  1  0  0  0  0
 18 30  1  0  0  0  0
 19 22  2  0  0  0  0
 21 18  1  1  0  0  0
 21 24  1  0  0  0  0
 22 23  1  0  0  0  0
 22 25  1  0  0  0  0
 24 14  1  1  0  0  0
 24 27  1  0  0  0  0
 25 28  2  0  0  0  0
 25 30  1  0  0  0  0
 27 29  1  0  0  0  0
 29 31  1  0  0  0  0
M  CHG  1  17  -1
M  END
>  <CHROM.1>
-19.73150538,137.36299584,-127.50237480,-127.04652617,82.29742770,80.21726955
-127.01915907,31.70909645,-82.32533995,-174.94950684,172.39530189,-59.02809874
4.25214091,18.30429153,51.94043006,1.94968709,0.40419823,0.53918177

>  <Name>
ligand

>  <RI>
0

>  <Rbt.Current_Directory>
/home/itssahil/PROJECTS/Mol_Feturizer/New_Systems/rnas/2HOO

>  <Rbt.Executable>
rbdock ($Id: //depot/dev/client3/rdock/2013.1/src/exe/rbdock.cxx#4 $)

>  <Rbt.Library>
libRbt.so (2013.1, Build901 2013/11/27)

>  <Rbt.Parameter_File>
/export/apps/rDock/src/rDock_2013.1_src/data/scripts/dock_solv.prm

>  <Rbt.Receptor>
prm/pocket_docking_3.prm

>  <SCORE>
-27.0838

>  <SCORE.INTER>
-12.3938

>  <SCORE.INTER.CONST>
1

>  <SCORE.INTER.POLAR>
0

>  <SCORE.INTER.ROT>
12

>  <SCORE.INTER.SOLV>
11.1259

>  <SCORE.INTER.VDW>
-23.5712

>  <SCORE.INTER.norm>
-0.399801

>  <SCORE.INTRA>
-14.694

>  <SCORE.INTRA.DIHEDRAL>
0.435875

>  <SCORE.INTRA.DIHEDRAL.0>
14.6094

>  <SCORE.INTRA.POLAR>
0

>  <SCORE.INTRA.POLAR.0>
0

>  <SCORE.INTRA.REPUL>
0

>  <SCORE.INTRA.REPUL.0>
0

>  <SCORE.INTRA.SOLV>
2.48969

>  <SCORE.INTRA.SOLV.lig_0>
-65.6478

>  <SCORE.INTRA.VDW>
-16.1568

>  <SCORE.INTRA.VDW.0>
9.35535

>  <SCORE.INTRA.norm>
-0.473999

>  <SCORE.RESTR>
0.0040061

>  <SCORE.RESTR.CAVITY>
0.0040061

>  <SCORE.RESTR.norm>
0.000129229

>  <SCORE.SYSTEM>
0

>  <SCORE.SYSTEM.CONST>
0

>  <SCORE.SYSTEM.DIHEDRAL>
0

>  <SCORE.SYSTEM.SOLV>
0

>  <SCORE.SYSTEM.norm>
0

>  <SCORE.heavy>
31

>  <SCORE.norm>
-0.873671

>  <RMSD>
6.769

$$$$
ligand
 OpenBabel11021811443D
libRbt.so/2013.1/901 2013/11/27
 31 32  0  0  0  0  0  0  0  0999 V2000
    3.3513   18.7152   50.7277 C   0  0  0  0  0  0  0  0  0  0  0  0
    3.5879   17.2752   50.2823 C   0  0  0  0  0  0  0  0  0  0  0  0
    4.9218   16.8006   50.0638 C   0  0  0  0  0  0  0  0  0  0  0  0
    5.1346   15.4646   49.6474 C   0  0  0  0  0  0  0  0  0  0  0  0
    4.0385   14.5891   49.4515 C   0  0  0  0  0  0  0  0  0  0  0  0
    2.7196   15.0372   49.6677 C   0  0  0  0  0  0  0  0  0  0  0  0
    2.4871   16.3617   50.0798 C   0  0  0  0  0  0  0  0  0  0  0  0
    4.1191   19.6051   50.3628 O   0  0  0  0  0  0  0  0  0  0  0  0
   -0.7931   25.2538   55.1461 C   0  0  0  0  0  0  0  0  0  0  0  0
    4.0425   21.9786   52.1581 C   0  0  0  0  0  0  0  0  0  0  0  0
    0.9671   24.1534   50.3312 P   0  0  1  0  0  0  0  0  0  0  0  0
    1.3358   24.5629   54.2946 N   0  0  0  0  0  0  0  0  0  0  0  0
    1.7138   25.0872   51.1957 O   0  0  0  0  0  0  0  0  0  0  0  0
    2.2789   19.0346   51.5424 S   0  0  0  0  0  0  0  0  0  0  0  0
    4.6314   19.6093   54.3647 C   0  0  0  0  0  0  0  0  0  0  0  0
    0.3435   24.3448   55.2235 C   0  0  0  0  0  0  0  0  0  0  0  0
   -0.4929   24.4262   50.2411 O   0  5  0  0  0  0  0  0  0  0  0  0
    3.8299   20.7003   54.2858 N   0  0  0  0  0  0  0  0  0  0  0  0
    0.3806   23.4085   56.1191 N   0  0  0  0  0  0  0  0  0  0  0  0
    1.6278   24.0388   49.0104 O   0  0  0  0  0  0  0  0  0  0  0  0
    3.2659   20.9651   52.9543 C   0  0  2  0  0  0  0  0  0  0  0  0
    1.4643   22.5543   56.1913 C   0  0  0  0  0  0  0  0  0  0  0  0
    1.4708   21.6040   57.1294 N   0  0  0  0  0  0  0  0  0  0  0  0
    2.0882   20.3422   52.3578 C   0  0  1  0  0  0  0  0  0  0  0  0
    2.5590   22.7254   55.2489 C   0  0  0  0  0  0  0  0  0  0  0  0
    4.0064   18.5717   54.3491 O   0  0  0  0  0  0  0  0  0  0  0  0
    0.7081   20.8860   52.4683 C   0  0  0  0  0  0  0  0  0  0  0  0
    2.4176   23.7459   54.3305 C   0  0  0  0  0  0  0  0  0  0  0  0
    0.4652   22.3126   52.2200 C   0  0  0  0  0  0  0  0  0  0  0  0
    3.7882   21.8516   55.3065 C   0  0  0  0  0  0  0  0  0  0  0  0
    1.0154   22.7141   50.9533 O   0  0  0  0  0  0  0  0  0  0  0  0
  1  2  1  0  0  0  0
  1  8  2  0  0  0  0
  1 14  1  0  0  0  0
  2  3  2  0  0  0  0
  2  7  1  0  0  0  0
  3  4  1  0  0  0  0
  4  5  2  0  0  0  0
  5  6  1  0  0  0  0
  6  7  2  0  0  0  0
  9 16  1  0  0  0  0
 10 21  1  0  0  0  0
 11 13  1  1  0  0  0
 11 17  1  0  0  0  0
 11 20  2  0  0  0  0
 11 31  1  0  0  0  0
 12 16  2  0  0  0  0
 12 28  1  0  0  0  0
 15 26  1  0  0  0  0
 15 18  1  0  0  0  0
 16 19  1  0  0  0  0
 18 30  1  0  0  0  0
 19 22  2  0  0  0  0
 21 18  1  6  0  0  0
 21 24  1  0  0  0  0
 22 23  1  0  0  0  0
 22 25  1  0  0  0  0
 24 14  1  6  0  0  0
 24 27  1  0  0  0  0
 25 28  2  0  0  0  0
 25 30  1  0  0  0  0
 27 29  1  0  0  0  0
 29 31  1  0  0  0  0
M  CHG  1  17  -1
M  END
>  <CHROM.1>
31.82052740,163.85476789,-36.01069175,-74.88526442,-96.70764352,-162.11301600
89.58809877,-132.55365260,100.34613464,52.34849172,-179.81684022,63.11041564
2.27019371,21.12118304,52.38325933,0.63483966,1.12934759,-1.83471044

>  <Name>
ligand

>  <RI>
0

>  <Rbt.Current_Directory>
/home/itssahil/PROJECTS/Mol_Feturizer/New_Systems/rnas/2HOO

>  <Rbt.Executable>
rbdock ($Id: //depot/dev/client3/rdock/2013.1/src/exe/rbdock.cxx#4 $)

>  <Rbt.Library>
libRbt.so (2013.1, Build901 2013/11/27)

>  <Rbt.Parameter_File>
/export/apps/rDock/src/rDock_2013.1_src/data/scripts/dock_solv.prm

>  <Rbt.Receptor>
prm/pocket_docking_7.prm

>  <SCORE>
-24.126

>  <SCORE.INTER>
-8.5564

>  <SCORE.INTER.CONST>
1

>  <SCORE.INTER.POLAR>
0

>  <SCORE.INTER.ROT>
12

>  <SCORE.INTER.SOLV>
16.4371

>  <SCORE.INTER.VDW>
-22.7833

>  <SCORE.INTER.norm>
-0.276013

>  <SCORE.INTRA>
-15.585

>  <SCORE.INTRA.DIHEDRAL>
-1.37489

>  <SCORE.INTRA.DIHEDRAL.0>
14.6094

>  <SCORE.INTRA.POLAR>
0

>  <SCORE.INTRA.POLAR.0>
0

>  <SCORE.INTRA.REPUL>
0

>  <SCORE.INTRA.REPUL.0>
0

>  <SCORE.INTRA.SOLV>
1.10471

>  <SCORE.INTRA.SOLV.lig_0>
-65.6478

>  <SCORE.INTRA.VDW>
-15.4499

>  <SCORE.INTRA.VDW.0>
9.35535

>  <SCORE.INTRA.norm>
-0.502743

>  <SCORE.RESTR>
0.0154134

>  <SCORE.RESTR.CAVITY>
0.0154134

>  <SCORE.RESTR.norm>
0.000497206

>  <SCORE.SYSTEM>
0

>  <SCORE.SYSTEM.CONST>
0

>  <SCORE.SYSTEM.DIHEDRAL>
0

>  <SCORE.SYSTEM.SOLV>
0

>  <SCORE.SYSTEM.norm>
0

>  <SCORE.heavy>
31

>  <SCORE.norm>
-0.778258

>  <RMSD>
6.786

$$$$
ligand
 OpenBabel11021811443D
libRbt.so/2013.1/901 2013/11/27
 31 32  0  0  0  0  0  0  0  0999 V2000
    2.8629   17.9788   50.8983 C   0  0  0  0  0  0  0  0  0  0  0  0
    2.4376   16.6019   51.3996 C   0  0  0  0  0  0  0  0  0  0  0  0
    2.8812   15.4213   50.7202 C   0  0  0  0  0  0  0  0  0  0  0  0
    2.4805   14.1468   51.1880 C   0  0  0  0  0  0  0  0  0  0  0  0
    1.6490   14.0282   52.3285 C   0  0  0  0  0  0  0  0  0  0  0  0
    1.2079   15.1789   53.0131 C   0  0  0  0  0  0  0  0  0  0  0  0
    1.5936   16.4543   52.5628 C   0  0  0  0  0  0  0  0  0  0  0  0
    2.1064   18.9406   51.0286 O   0  0  0  0  0  0  0  0  0  0  0  0
    4.3876   12.7779   46.5735 C   0  0  0  0  0  0  0  0  0  0  0  0
    6.9356   17.3210   52.4112 C   0  0  0  0  0  0  0  0  0  0  0  0
    6.1460   22.8458   53.0925 P   0  0  1  0  0  0  0  0  0  0  0  0
    4.8595   13.8886   48.6418 N   0  0  0  0  0  0  0  0  0  0  0  0
    7.1014   22.4188   54.1325 O   0  0  0  0  0  0  0  0  0  0  0  0
    4.0950   18.1601   50.2944 S   0  0  0  0  0  0  0  0  0  0  0  0
    8.1583   18.4616   49.4067 C   0  0  0  0  0  0  0  0  0  0  0  0
    5.2882   13.6073   47.3642 C   0  0  0  0  0  0  0  0  0  0  0  0
    5.4901   24.1555   53.3545 O   0  5  0  0  0  0  0  0  0  0  0  0
    7.4507   17.4555   49.9775 N   0  0  0  0  0  0  0  0  0  0  0  0
    6.4063   14.0311   46.8638 N   0  0  0  0  0  0  0  0  0  0  0  0
    6.7736   22.7584   51.7536 O   0  0  0  0  0  0  0  0  0  0  0  0
    6.5481   17.8653   51.0629 C   0  0  2  0  0  0  0  0  0  0  0  0
    7.2587   14.8114   47.6214 C   0  0  0  0  0  0  0  0  0  0  0  0
    8.4041   15.2266   47.0750 N   0  0  0  0  0  0  0  0  0  0  0  0
    5.3786   18.7322   50.9548 C   0  0  1  0  0  0  0  0  0  0  0  0
    6.8806   15.1458   48.9856 C   0  0  0  0  0  0  0  0  0  0  0  0
    7.4855   19.1367   48.6590 O   0  0  0  0  0  0  0  0  0  0  0  0
    5.3363   20.1422   51.4272 C   0  0  0  0  0  0  0  0  0  0  0  0
    5.6667   14.6524   49.4191 C   0  0  0  0  0  0  0  0  0  0  0  0
    5.0015   20.4317   52.8271 C   0  0  0  0  0  0  0  0  0  0  0  0
    7.7898   15.9577   49.8755 C   0  0  0  0  0  0  0  0  0  0  0  0
    4.9344   21.8500   53.0562 O   0  0  0  0  0  0  0  0  0  0  0  0
  1  2  1  0  0  0  0
  1  8  2  0  0  0  0
  1 14  1  0  0  0  0
  2  3  2  0  0  0  0
  2  7  1  0  0  0  0
  3  4  1  0  0  0  0
  4  5  2  0  0  0  0
  5  6  1  0  0  0  0
  6  7  2  0  0  0  0
  9 16  1  0  0  0  0
 10 21  1  0  0  0  0
 11 13  1  1  0  0  0
 11 17  1  0  0  0  0
 11 20  2  0  0  0  0
 11 31  1  0  0  0  0
 12 16  2  0  0  0  0
 12 28  1  0  0  0  0
 15 26  1  0  0  0  0
 15 18  1  0  0  0  0
 16 19  1  0  0  0  0
 18 30  1  0  0  0  0
 19 22  2  0  0  0  0
 21 18  1  1  0  0  0
 21 24  1  0  0  0  0
 22 23  1  0  0  0  0
 22 25  1  0  0  0  0
 24 14  1  6  0  0  0
 24 27  1  0  0  0  0
 25 28  2  0  0  0  0
 25 30  1  0  0  0  0
 27 29  1  0  0  0  0
 29 31  1  0  0  0  0
M  CHG  1  17  -1
M  END
>  <CHROM.1>
147.80500049,-99.87188634,116.88827864,-75.92026140,-114.24278627,-107.09488589
-107.35153312,94.54952020,98.92107584,-176.43860430,-71.32183427,-58.11134902
5.26981915,17.86236543,50.69529678,1.47757350,0.49633606,0.53591953

>  <Name>
ligand

>  <RI>
0

>  <Rbt.Current_Directory>
/home/itssahil/PROJECTS/Mol_Feturizer/New_Systems/rnas/2HOO

>  <Rbt.Executable>
rbdock ($Id: //depot/dev/client3/rdock/2013.1/src/exe/rbdock.cxx#4 $)

>  <Rbt.Library>
libRbt.so (2013.1, Build901 2013/11/27)

>  <Rbt.Parameter_File>
/export/apps/rDock/src/rDock_2013.1_src/data/scripts/dock_solv.prm

>  <Rbt.Receptor>
prm/pocket_docking_5.prm

>  <SCORE>
-22.4028

>  <SCORE.INTER>
-11.3135

>  <SCORE.INTER.CONST>
1

>  <SCORE.INTER.POLAR>
0

>  <SCORE.INTER.ROT>
12

>  <SCORE.INTER.SOLV>
13.1528

>  <SCORE.INTER.VDW>
-23.5266

>  <SCORE.INTER.norm>
-0.364953

>  <SCORE.INTRA>
-11.0893

>  <SCORE.INTRA.DIHEDRAL>
3.80585

>  <SCORE.INTRA.DIHEDRAL.0>
14.6094

>  <SCORE.INTRA.POLAR>
0

>  <SCORE.INTRA.POLAR.0>
0

>  <SCORE.INTRA.REPUL>
0

>  <SCORE.INTRA.REPUL.0>
0

>  <SCORE.INTRA.SOLV>
1.66892

>  <SCORE.INTRA.SOLV.lig_0>
-65.6478

>  <SCORE.INTRA.VDW>
-13.8267

>  <SCORE.INTRA.VDW.0>
9.35535

>  <SCORE.INTRA.norm>
-0.357719

>  <SCORE.RESTR>
0

>  <SCORE.RESTR.CAVITY>
0

>  <SCORE.RESTR.norm>
0

>  <SCORE.SYSTEM>
0

>  <SCORE.SYSTEM.CONST>
0

>  <SCORE.SYSTEM.DIHEDRAL>
0

>  <SCORE.SYSTEM.SOLV>
0

>  <SCORE.SYSTEM.norm>
0

>  <SCORE.heavy>
31

>  <SCORE.norm>
-0.722672

>  <RMSD>
6.791

$$$$
ligand
 OpenBabel11021811443D
libRbt.so/2013.1/901 2013/11/27
 31 32  0  0  0  0  0  0  0  0999 V2000
    8.1133   18.7111   53.3564 C   0  0  0  0  0  0  0  0  0  0  0  0
    8.8046   20.0678   53.4527 C   0  0  0  0  0  0  0  0  0  0  0  0
    8.0255   21.2680   53.5208 C   0  0  0  0  0  0  0  0  0  0  0  0
    8.6728   22.5240   53.6066 C   0  0  0  0  0  0  0  0  0  0  0  0
   10.0867   22.6040   53.6331 C   0  0  0  0  0  0  0  0  0  0  0  0
   10.8691   21.4329   53.5732 C   0  0  0  0  0  0  0  0  0  0  0  0
   10.2449   20.1757   53.4857 C   0  0  0  0  0  0  0  0  0  0  0  0
    8.2207   17.9002   54.2758 O   0  0  0  0  0  0  0  0  0  0  0  0
    1.9103   16.5995   52.1279 C   0  0  0  0  0  0  0  0  0  0  0  0
    8.5963   19.9537   49.0961 C   0  0  0  0  0  0  0  0  0  0  0  0
    2.8313   21.7162   52.8994 P   0  0  1  0  0  0  0  0  0  0  0  0
    3.1304   18.0632   50.6776 N   0  0  0  0  0  0  0  0  0  0  0  0
    2.2414   20.3999   53.2093 O   0  0  0  0  0  0  0  0  0  0  0  0
    7.3639   18.3787   52.2411 S   0  0  0  0  0  0  0  0  0  0  0  0
    8.3765   16.7715   49.1284 C   0  0  0  0  0  0  0  0  0  0  0  0
    2.9724   16.7784   51.1461 C   0  0  0  0  0  0  0  0  0  0  0  0
    2.0823   22.5071   51.8858 O   0  5  0  0  0  0  0  0  0  0  0  0
    7.4519   17.7461   48.9432 N   0  0  0  0  0  0  0  0  0  0  0  0
    3.6965   15.7728   50.7657 N   0  0  0  0  0  0  0  0  0  0  0  0
    3.0999   22.4641   54.1496 O   0  0  0  0  0  0  0  0  0  0  0  0
    7.6620   18.9645   49.7385 C   0  0  2  0  0  0  0  0  0  0  0  0
    4.7064   15.9507   49.8395 C   0  0  0  0  0  0  0  0  0  0  0  0
    5.4352   14.8933   49.4740 N   0  0  0  0  0  0  0  0  0  0  0  0
    7.0533   19.2920   51.0243 C   0  0  1  0  0  0  0  0  0  0  0  0
    4.9422   17.2819   49.3027 C   0  0  0  0  0  0  0  0  0  0  0  0
    8.5816   16.1287   48.1223 O   0  0  0  0  0  0  0  0  0  0  0  0
    6.1384   20.4435   51.2472 C   0  0  0  0  0  0  0  0  0  0  0  0
    4.1108   18.2812   49.7663 C   0  0  0  0  0  0  0  0  0  0  0  0
    4.9369   20.2699   52.0732 C   0  0  0  0  0  0  0  0  0  0  0  0
    6.0582   17.5463   48.3216 C   0  0  0  0  0  0  0  0  0  0  0  0
    4.2307   21.5142   52.2199 O   0  0  0  0  0  0  0  0  0  0  0  0
  1  2  1  0  0  0  0
  1  8  2  0  0  0  0
  1 14  1  0  0  0  0
  2  3  2  0  0  0  0
  2  7  1  0  0  0  0
  3  4  1  0  0  0  0
  4  5  2  0  0  0  0
  5  6  1  0  0  0  0
  6  7  2  0  0  0  0
  9 16  1  0  0  0  0
 10 21  1  0  0  0  0
 11 13  1  1  0  0  0
 11 17  1  0  0  0  0
 11 20  2  0  0  0  0
 11 31  1  0  0  0  0
 12 16  2  0  0  0  0
 12 28  1  0  0  0  0
 15 26  1  0  0  0  0
 15 18  1  0  0  0  0
 16 19  1  0  0  0  0
 18 30  1  0  0  0  0
 19 22  2  0  0  0  0
 21 18  1  6  0  0  0
 21 24  1  0  0  0  0
 22 23  1  0  0  0  0
 22 25  1  0  0  0  0
 24 14  1  6  0  0  0
 24 27  1  0  0  0  0
 25 28  2  0  0  0  0
 25 30  1  0  0  0  0
 27 29  1  0  0  0  0
 29 31  1  0  0  0  0
M  CHG  1  17  -1
M  END
>  <CHROM.1>
-114.73495656,-3.56873956,111.08122188,-147.10302446,85.61162160,93.15923800
-118.40368271,-41.70410027,-82.02703126,176.98169282,173.25786935,-7.90785792
5.96883388,19.17937014,51.56097583,-1.51995410,-0.00050253,-2.49693853

>  <Name>
ligand

>  <RI>
0

>  <Rbt.Current_Directory>
/home/itssahil/PROJECTS/Mol_Feturizer/New_Systems/rnas/2HOO

>  <Rbt.Executable>
rbdock ($Id: //depot/dev/client3/rdock/2013.1/src/exe/rbdock.cxx#4 $)

>  <Rbt.Library>
libRbt.so (2013.1, Build901 2013/11/27)

>  <Rbt.Parameter_File>
/export/apps/rDock/src/rDock_2013.1_src/data/scripts/dock_solv.prm

>  <Rbt.Receptor>
prm/pocket_docking_3.prm

>  <SCORE>
-24.9771

>  <SCORE.INTER>
-10.6171

>  <SCORE.INTER.CONST>
1

>  <SCORE.INTER.POLAR>
0

>  <SCORE.INTER.ROT>
12

>  <SCORE.INTER.SOLV>
9.28061

>  <SCORE.INTER.VDW>
-21.7716

>  <SCORE.INTER.norm>
-0.342488

>  <SCORE.INTRA>
-14.3883

>  <SCORE.INTRA.DIHEDRAL>
1.00903

>  <SCORE.INTRA.DIHEDRAL.0>
14.6094

>  <SCORE.INTRA.POLAR>
0

>  <SCORE.INTRA.POLAR.0>
0

>  <SCORE.INTRA.REPUL>
0

>  <SCORE.INTRA.REPUL.0>
0

>  <SCORE.INTRA.SOLV>
1.06425

>  <SCORE.INTRA.SOLV.lig_0>
-65.6478

>  <SCORE.INTRA.VDW>
-15.425

>  <SCORE.INTRA.VDW.0>
9.35535

>  <SCORE.INTRA.norm>
-0.464139

>  <SCORE.RESTR>
0.0283776

>  <SCORE.RESTR.CAVITY>
0.0283776

>  <SCORE.RESTR.norm>
0.000915405

>  <SCORE.SYSTEM>
0

>  <SCORE.SYSTEM.CONST>
0

>  <SCORE.SYSTEM.DIHEDRAL>
0

>  <SCORE.SYSTEM.SOLV>
0

>  <SCORE.SYSTEM.norm>
0

>  <SCORE.heavy>
31

>  <SCORE.norm>
-0.805712

>  <RMSD>
6.796

$$$$
ligand
 OpenBabel11021811443D
libRbt.so/2013.1/901 2013/11/27
 31 32  0  0  0  0  0  0  0  0999 V2000
    4.7666   20.9848   52.9674 C   0  0  0  0  0  0  0  0  0  0  0  0
    5.2970   22.2049   53.7146 C   0  0  0  0  0  0  0  0  0  0  0  0
    5.5488   23.4260   53.0091 C   0  0  0  0  0  0  0  0  0  0  0  0
    6.0440   24.5534   53.7072 C   0  0  0  0  0  0  0  0  0  0  0  0
    6.2866   24.4867   55.1011 C   0  0  0  0  0  0  0  0  0  0  0  0
    6.0387   23.2951   55.8125 C   0  0  0  0  0  0  0  0  0  0  0  0
    5.5483   22.1635   55.1366 C   0  0  0  0  0  0  0  0  0  0  0  0
    4.2809   21.1155   51.8443 O   0  0  0  0  0  0  0  0  0  0  0  0
    6.4699   18.6080   44.9958 C   0  0  0  0  0  0  0  0  0  0  0  0
    7.0161   17.2511   53.8485 C   0  0  0  0  0  0  0  0  0  0  0  0
    4.0532   14.8040   49.7241 P   0  0  1  0  0  0  0  0  0  0  0  0
    5.9881   17.9424   47.2451 N   0  0  0  0  0  0  0  0  0  0  0  0
    4.4251   13.4529   50.1856 O   0  0  0  0  0  0  0  0  0  0  0  0
    4.8240   19.7264   53.5409 S   0  0  0  0  0  0  0  0  0  0  0  0
    7.2721   16.4875   50.9039 C   0  0  0  0  0  0  0  0  0  0  0  0
    6.7122   18.7762   46.4231 C   0  0  0  0  0  0  0  0  0  0  0  0
    4.9759   15.3889   48.7137 O   0  5  0  0  0  0  0  0  0  0  0  0
    7.1043   17.7358   51.4065 N   0  0  0  0  0  0  0  0  0  0  0  0
    7.5586   19.6603   46.8497 N   0  0  0  0  0  0  0  0  0  0  0  0
    2.6316   14.8301   49.3087 O   0  0  0  0  0  0  0  0  0  0  0  0
    6.3112   17.8094   52.6420 C   0  0  2  0  0  0  0  0  0  0  0  0
    7.7886   19.8099   48.2040 C   0  0  0  0  0  0  0  0  0  0  0  0
    8.6706   20.7276   48.6074 N   0  0  0  0  0  0  0  0  0  0  0  0
    4.9731   18.3719   52.7966 C   0  0  1  0  0  0  0  0  0  0  0  0
    7.0678   18.9593   49.1381 C   0  0  0  0  0  0  0  0  0  0  0  0
    8.3913   16.3049   50.4779 O   0  0  0  0  0  0  0  0  0  0  0  0
    3.7309   17.7243   52.2961 C   0  0  0  0  0  0  0  0  0  0  0  0
    6.1837   18.0570   48.5822 C   0  0  0  0  0  0  0  0  0  0  0  0
    3.6941   17.1728   50.9359 C   0  0  0  0  0  0  0  0  0  0  0  0
    7.3089   19.0462   50.6255 C   0  0  0  0  0  0  0  0  0  0  0  0
    4.1616   15.8126   50.9207 O   0  0  0  0  0  0  0  0  0  0  0  0
  1  2  1  0  0  0  0
  1  8  2  0  0  0  0
  1 14  1  0  0  0  0
  2  3  2  0  0  0  0
  2  7  1  0  0  0  0
  3  4  1  0  0  0  0
  4  5  2  0  0  0  0
  5  6  1  0  0  0  0
  6  7  2  0  0  0  0
  9 16  1  0  0  0  0
 10 21  1  0  0  0  0
 11 13  1  1  0  0  0
 11 17  1  0  0  0  0
 11 20  2  0  0  0  0
 11 31  1  0  0  0  0
 12 16  2  0  0  0  0
 12 28  1  0  0  0  0
 15 26  1  0  0  0  0
 15 18  1  0  0  0  0
 16 19  1  0  0  0  0
 18 30  1  0  0  0  0
 19 22  2  0  0  0  0
 21 18  1  1  0  0  0
 21 24  1  0  0  0  0
 22 23  1  0  0  0  0
 22 25  1  0  0  0  0
 24 14  1  1  0  0  0
 24 27  1  0  0  0  0
 25 28  2  0  0  0  0
 25 30  1  0  0  0  0
 27 29  1  0  0  0  0
 29 31  1  0  0  0  0
M  CHG  1  17  -1
M  END
>  <CHROM.1>
-15.89053197,-149.49101495,94.90118076,-139.81163749,70.75446553,28.40800531
71.23480377,134.56940126,-149.73067796,87.64998436,169.05149390,-169.87661938
5.70148061,18.60742122,50.93094289,1.46589555,1.06040573,0.78433174

>  <Name>
ligand

>  <RI>
0

>  <Rbt.Current_Directory>
/home/itssahil/PROJECTS/Mol_Feturizer/New_Systems/rnas/2HOO

>  <Rbt.Executable>
rbdock ($Id: //depot/dev/client3/rdock/2013.1/src/exe/rbdock.cxx#4 $)

>  <Rbt.Library>
libRbt.so (2013.1, Build901 2013/11/27)

>  <Rbt.Parameter_File>
/export/apps/rDock/src/rDock_2013.1_src/data/scripts/dock_solv.prm

>  <Rbt.Receptor>
prm/pocket_docking_4.prm

>  <SCORE>
-18.8159

>  <SCORE.INTER>
-7.052

>  <SCORE.INTER.CONST>
1

>  <SCORE.INTER.POLAR>
0

>  <SCORE.INTER.ROT>
12

>  <SCORE.INTER.SOLV>
20.7284

>  <SCORE.INTER.VDW>
-23.2108

>  <SCORE.INTER.norm>
-0.227484

>  <SCORE.INTRA>
-11.7754

>  <SCORE.INTRA.DIHEDRAL>
2.54296

>  <SCORE.INTRA.DIHEDRAL.0>
14.6094

>  <SCORE.INTRA.POLAR>
0

>  <SCORE.INTRA.POLAR.0>
0

>  <SCORE.INTRA.REPUL>
0

>  <SCORE.INTRA.REPUL.0>
0

>  <SCORE.INTRA.SOLV>
2.09488

>  <SCORE.INTRA.SOLV.lig_0>
-65.6478

>  <SCORE.INTRA.VDW>
-14.0943

>  <SCORE.INTRA.VDW.0>
9.35535

>  <SCORE.INTRA.norm>
-0.379851

>  <SCORE.RESTR>
0.0114565

>  <SCORE.RESTR.CAVITY>
0.0114565

>  <SCORE.RESTR.norm>
0.000369563

>  <SCORE.SYSTEM>
0

>  <SCORE.SYSTEM.CONST>
0

>  <SCORE.SYSTEM.DIHEDRAL>
0

>  <SCORE.SYSTEM.SOLV>
0

>  <SCORE.SYSTEM.norm>
0

>  <SCORE.heavy>
31

>  <SCORE.norm>
-0.606965

>  <RMSD>
6.804

$$$$
ligand
 OpenBabel11021811443D
libRbt.so/2013.1/901 2013/11/27
 31 32  0  0  0  0  0  0  0  0999 V2000
    3.6871   18.9752   50.8757 C   0  0  0  0  0  0  0  0  0  0  0  0
    2.2870   18.4689   51.2093 C   0  0  0  0  0  0  0  0  0  0  0  0
    1.8465   17.1976   50.7174 C   0  0  0  0  0  0  0  0  0  0  0  0
    0.5452   16.7348   51.0274 C   0  0  0  0  0  0  0  0  0  0  0  0
   -0.3243   17.5162   51.8273 C   0  0  0  0  0  0  0  0  0  0  0  0
    0.0945   18.7668   52.3249 C   0  0  0  0  0  0  0  0  0  0  0  0
    1.3831   19.2450   52.0265 C   0  0  0  0  0  0  0  0  0  0  0  0
    3.8469   20.1351   50.4969 O   0  0  0  0  0  0  0  0  0  0  0  0
    3.7142   21.7289   58.1597 C   0  0  0  0  0  0  0  0  0  0  0  0
    7.6763   20.5904   50.3541 C   0  0  0  0  0  0  0  0  0  0  0  0
    9.6614   16.7255   48.1154 P   0  0  1  0  0  0  0  0  0  0  0  0
    4.0655   20.5566   56.1015 N   0  0  0  0  0  0  0  0  0  0  0  0
   10.6580   17.5252   48.8531 O   0  0  0  0  0  0  0  0  0  0  0  0
    4.7855   18.1412   50.9933 S   0  0  0  0  0  0  0  0  0  0  0  0
    7.7080   19.5183   53.4460 C   0  0  0  0  0  0  0  0  0  0  0  0
    4.3366   21.6846   56.8426 C   0  0  0  0  0  0  0  0  0  0  0  0
    8.7247   17.5230   47.2783 O   0  5  0  0  0  0  0  0  0  0  0  0
    6.7901   20.0906   52.6281 N   0  0  0  0  0  0  0  0  0  0  0  0
    5.0867   22.6592   56.4334 N   0  0  0  0  0  0  0  0  0  0  0  0
   10.3303   15.6322   47.3728 O   0  0  0  0  0  0  0  0  0  0  0  0
    6.8601   19.6705   51.2211 C   0  0  2  0  0  0  0  0  0  0  0  0
    5.6683   22.6138   55.1807 C   0  0  0  0  0  0  0  0  0  0  0  0
    6.4315   23.6375   54.7903 N   0  0  0  0  0  0  0  0  0  0  0  0
    6.2551   18.4826   50.6264 C   0  0  1  0  0  0  0  0  0  0  0  0
    5.4229   21.4577   54.3327 C   0  0  0  0  0  0  0  0  0  0  0  0
    8.7179   20.1798   53.5456 O   0  0  0  0  0  0  0  0  0  0  0  0
    6.9606   17.5623   49.6945 C   0  0  0  0  0  0  0  0  0  0  0  0
    4.6175   20.4718   54.8656 C   0  0  0  0  0  0  0  0  0  0  0  0
    7.9856   16.6470   50.2116 C   0  0  0  0  0  0  0  0  0  0  0  0
    5.9949   21.3713   52.9387 C   0  0  0  0  0  0  0  0  0  0  0  0
    8.7020   16.0176   49.1349 O   0  0  0  0  0  0  0  0  0  0  0  0
  1  2  1  0  0  0  0
  1  8  2  0  0  0  0
  1 14  1  0  0  0  0
  2  3  2  0  0  0  0
  2  7  1  0  0  0  0
  3  4  1  0  0  0  0
  4  5  2  0  0  0  0
  5  6  1  0  0  0  0
  6  7  2  0  0  0  0
  9 16  1  0  0  0  0
 10 21  1  0  0  0  0
 11 13  1  1  0  0  0
 11 17  1  0  0  0  0
 11 20  2  0  0  0  0
 11 31  1  0  0  0  0
 12 16  2  0  0  0  0
 12 28  1  0  0  0  0
 15 26  1  0  0  0  0
 15 18  1  0  0  0  0
 16 19  1  0  0  0  0
 18 30  1  0  0  0  0
 19 22  2  0  0  0  0
 21 18  1  1  0  0  0
 21 24  1  0  0  0  0
 22 23  1  0  0  0  0
 22 25  1  0  0  0  0
 24 14  1  1  0  0  0
 24 27  1  0  0  0  0
 25 28  2  0  0  0  0
 25 30  1  0  0  0  0
 27 29  1  0  0  0  0
 29 31  1  0  0  0  0
M  CHG  1  17  -1
M  END
>  <CHROM.1>
133.95608487,176.70780938,54.32384958,92.22122788,-94.67545780,-44.46698729
-135.96876392,-105.96366463,127.38607728,-170.01911405,66.89287763,51.48315909
5.83523759,19.10325879,51.77463043,2.18324952,0.14105494,0.90866057

>  <Name>
ligand

>  <RI>
0

>  <Rbt.Current_Directory>
/home/itssahil/PROJECTS/Mol_Feturizer/New_Systems/rnas/2HOO

>  <Rbt.Executable>
rbdock ($Id: //depot/dev/client3/rdock/2013.1/src/exe/rbdock.cxx#4 $)

>  <Rbt.Library>
libRbt.so (2013.1, Build901 2013/11/27)

>  <Rbt.Parameter_File>
/export/apps/rDock/src/rDock_2013.1_src/data/scripts/dock_solv.prm

>  <Rbt.Receptor>
prm/pocket_docking_7.prm

>  <SCORE>
-26.0158

>  <SCORE.INTER>
-12.6265

>  <SCORE.INTER.CONST>
1

>  <SCORE.INTER.POLAR>
0

>  <SCORE.INTER.ROT>
12

>  <SCORE.INTER.SOLV>
19.3028

>  <SCORE.INTER.VDW>
-26.452

>  <SCORE.INTER.norm>
-0.407307

>  <SCORE.INTRA>
-13.3893

>  <SCORE.INTRA.DIHEDRAL>
-1.4966

>  <SCORE.INTRA.DIHEDRAL.0>
14.6094

>  <SCORE.INTRA.POLAR>
0

>  <SCORE.INTRA.POLAR.0>
0

>  <SCORE.INTRA.REPUL>
0

>  <SCORE.INTRA.REPUL.0>
0

>  <SCORE.INTRA.SOLV>
1.42403

>  <SCORE.INTRA.SOLV.lig_0>
-65.6478

>  <SCORE.INTRA.VDW>
-13.353

>  <SCORE.INTRA.VDW.0>
9.35535

>  <SCORE.INTRA.norm>
-0.431912

>  <SCORE.RESTR>
0

>  <SCORE.RESTR.CAVITY>
0

>  <SCORE.RESTR.norm>
0

>  <SCORE.SYSTEM>
0

>  <SCORE.SYSTEM.CONST>
0

>  <SCORE.SYSTEM.DIHEDRAL>
0

>  <SCORE.SYSTEM.SOLV>
0

>  <SCORE.SYSTEM.norm>
0

>  <SCORE.heavy>
31

>  <SCORE.norm>
-0.83922

>  <RMSD>
6.806

$$$$
ligand
 OpenBabel11021811443D
libRbt.so/2013.1/901 2013/11/27
 31 32  0  0  0  0  0  0  0  0999 V2000
    2.7058   18.4924   51.1749 C   0  0  0  0  0  0  0  0  0  0  0  0
    2.0805   17.2212   51.7414 C   0  0  0  0  0  0  0  0  0  0  0  0
    1.8925   17.0811   53.1547 C   0  0  0  0  0  0  0  0  0  0  0  0
    1.3149   15.8979   53.6745 C   0  0  0  0  0  0  0  0  0  0  0  0
    0.9139   14.8523   52.8073 C   0  0  0  0  0  0  0  0  0  0  0  0
    1.0857   14.9755   51.4135 C   0  0  0  0  0  0  0  0  0  0  0  0
    1.6594   16.1424   50.8777 C   0  0  0  0  0  0  0  0  0  0  0  0
    2.0836   19.5535   51.2146 O   0  0  0  0  0  0  0  0  0  0  0  0
    2.3978   23.5438   52.2610 C   0  0  0  0  0  0  0  0  0  0  0  0
    7.6244   17.6643   50.9933 C   0  0  0  0  0  0  0  0  0  0  0  0
    5.9140   13.3469   47.7179 P   0  0  1  0  0  0  0  0  0  0  0  0
    3.2123   21.3601   52.8109 N   0  0  0  0  0  0  0  0  0  0  0  0
    5.2474   13.7655   46.4701 O   0  0  0  0  0  0  0  0  0  0  0  0
    3.9702   18.4666   50.6126 S   0  0  0  0  0  0  0  0  0  0  0  0
    6.3457   17.4813   53.9793 C   0  0  0  0  0  0  0  0  0  0  0  0
    3.5337   22.6578   52.4825 C   0  0  0  0  0  0  0  0  0  0  0  0
    5.6265   11.9475   48.1339 O   0  5  0  0  0  0  0  0  0  0  0  0
    6.3067   18.3944   52.9775 N   0  0  0  0  0  0  0  0  0  0  0  0
    4.7472   23.0986   52.3689 N   0  0  0  0  0  0  0  0  0  0  0  0
    7.3610   13.6573   47.6545 O   0  0  0  0  0  0  0  0  0  0  0  0
    6.2667   17.8303   51.6206 C   0  0  2  0  0  0  0  0  0  0  0  0
    5.8196   22.2515   52.5736 C   0  0  0  0  0  0  0  0  0  0  0  0
    7.0559   22.7388   52.4438 N   0  0  0  0  0  0  0  0  0  0  0  0
    5.0826   17.4154   50.8746 C   0  0  1  0  0  0  0  0  0  0  0  0
    5.5625   20.8614   52.9161 C   0  0  0  0  0  0  0  0  0  0  0  0
    5.3127   17.4400   54.6107 O   0  0  0  0  0  0  0  0  0  0  0  0
    4.8615   16.0393   50.3546 C   0  0  0  0  0  0  0  0  0  0  0  0
    4.2359   20.4955   53.0208 C   0  0  0  0  0  0  0  0  0  0  0  0
    5.5796   15.5896   49.1554 C   0  0  0  0  0  0  0  0  0  0  0  0
    6.6918   19.8787   53.1087 C   0  0  0  0  0  0  0  0  0  0  0  0
    5.3540   14.1893   48.9169 O   0  0  0  0  0  0  0  0  0  0  0  0
  1  2  1  0  0  0  0
  1  8  2  0  0  0  0
  1 14  1  0  0  0  0
  2  3  2  0  0  0  0
  2  7  1  0  0  0  0
  3  4  1  0  0  0  0
  4  5  2  0  0  0  0
  5  6  1  0  0  0  0
  6  7  2  0  0  0  0
  9 16  1  0  0  0  0
 10 21  1  0  0  0  0
 11 13  1  6  0  0  0
 11 17  1  0  0  0  0
 11 20  2  0  0  0  0
 11 31  1  0  0  0  0
 12 16  2  0  0  0  0
 12 28  1  0  0  0  0
 15 26  1  0  0  0  0
 15 18  1  0  0  0  0
 16 19  1  0  0  0  0
 18 30  1  0  0  0  0
 19 22  2  0  0  0  0
 21 18  1  1  0  0  0
 21 24  1  0  0  0  0
 22 23  1  0  0  0  0
 22 25  1  0  0  0  0
 24 14  1  1  0  0  0
 24 27  1  0  0  0  0
 25 28  2  0  0  0  0
 25 30  1  0  0  0  0
 27 29  1  0  0  0  0
 29 31  1  0  0  0  0
M  CHG  1  17  -1
M  END
>  <CHROM.1>
-69.35737106,-22.18537290,-110.24136094,-109.71700886,-92.54865660,-114.50450659
-123.06052634,104.37062877,-159.48833789,172.89287536,178.27765668,-69.74943975
4.57696838,17.65932264,51.16183737,1.69161662,0.35581057,0.46934929

>  <Name>
ligand

>  <RI>
0

>  <Rbt.Current_Directory>
/home/itssahil/PROJECTS/Mol_Feturizer/New_Systems/rnas/2HOO

>  <Rbt.Executable>
rbdock ($Id: //depot/dev/client3/rdock/2013.1/src/exe/rbdock.cxx#4 $)

>  <Rbt.Library>
libRbt.so (2013.1, Build901 2013/11/27)

>  <Rbt.Parameter_File>
/export/apps/rDock/src/rDock_2013.1_src/data/scripts/dock_solv.prm

>  <Rbt.Receptor>
prm/pocket_docking_4.prm

>  <SCORE>
-24.6361

>  <SCORE.INTER>
-8.63237

>  <SCORE.INTER.CONST>
1

>  <SCORE.INTER.POLAR>
0

>  <SCORE.INTER.ROT>
12

>  <SCORE.INTER.SOLV>
13.2908

>  <SCORE.INTER.VDW>
-21.7852

>  <SCORE.INTER.norm>
-0.278464

>  <SCORE.INTRA>
-16.0043

>  <SCORE.INTRA.DIHEDRAL>
0.00439316

>  <SCORE.INTRA.DIHEDRAL.0>
14.6094

>  <SCORE.INTRA.POLAR>
0

>  <SCORE.INTRA.POLAR.0>
0

>  <SCORE.INTRA.REPUL>
0

>  <SCORE.INTRA.REPUL.0>
0

>  <SCORE.INTRA.SOLV>
-0.843964

>  <SCORE.INTRA.SOLV.lig_0>
-65.6478

>  <SCORE.INTRA.VDW>
-15.5845

>  <SCORE.INTRA.VDW.0>
9.35535

>  <SCORE.INTRA.norm>
-0.516267

>  <SCORE.RESTR>
0.000560815

>  <SCORE.RESTR.CAVITY>
0.000560815

>  <SCORE.RESTR.norm>
1.80908e-05

>  <SCORE.SYSTEM>
0

>  <SCORE.SYSTEM.CONST>
0

>  <SCORE.SYSTEM.DIHEDRAL>
0

>  <SCORE.SYSTEM.SOLV>
0

>  <SCORE.SYSTEM.norm>
0

>  <SCORE.heavy>
31

>  <SCORE.norm>
-0.794712

>  <RMSD>
6.820

$$$$
ligand
 OpenBabel11021811443D
libRbt.so/2013.1/901 2013/11/27
 31 32  0  0  0  0  0  0  0  0999 V2000
    2.2791   18.0484   51.2835 C   0  0  0  0  0  0  0  0  0  0  0  0
    1.9158   18.2273   52.7546 C   0  0  0  0  0  0  0  0  0  0  0  0
    2.7683   17.6944   53.7751 C   0  0  0  0  0  0  0  0  0  0  0  0
    2.4241   17.8606   55.1381 C   0  0  0  0  0  0  0  0  0  0  0  0
    1.2456   18.5568   55.5024 C   0  0  0  0  0  0  0  0  0  0  0  0
    0.3983   19.0932   54.5117 C   0  0  0  0  0  0  0  0  0  0  0  0
    0.7218   18.9370   53.1519 C   0  0  0  0  0  0  0  0  0  0  0  0
    1.6324   17.2720   50.5810 O   0  0  0  0  0  0  0  0  0  0  0  0
    4.1223   21.9427   59.2712 C   0  0  0  0  0  0  0  0  0  0  0  0
    6.7380   20.1760   51.3027 C   0  0  0  0  0  0  0  0  0  0  0  0
    7.5387   19.0446   47.4231 P   0  0  1  0  0  0  0  0  0  0  0  0
    3.4451   20.8271   57.2634 N   0  0  0  0  0  0  0  0  0  0  0  0
    8.4186   19.9644   48.1692 O   0  0  0  0  0  0  0  0  0  0  0  0
    3.3334   18.7513   50.7267 S   0  0  0  0  0  0  0  0  0  0  0  0
    6.0078   18.7815   54.1135 C   0  0  0  0  0  0  0  0  0  0  0  0
    4.3227   21.7135   57.8459 C   0  0  0  0  0  0  0  0  0  0  0  0
    6.7216   19.6936   46.3624 O   0  5  0  0  0  0  0  0  0  0  0  0
    5.3302   19.6070   53.2778 N   0  0  0  0  0  0  0  0  0  0  0  0
    5.2726   22.3209   57.2064 N   0  0  0  0  0  0  0  0  0  0  0  0
    8.3109   17.8764   46.9401 O   0  0  0  0  0  0  0  0  0  0  0  0
    5.5784   19.3857   51.8458 C   0  0  2  0  0  0  0  0  0  0  0  0
    5.4528   22.1041   55.8536 C   0  0  0  0  0  0  0  0  0  0  0  0
    6.4386   22.7502   55.2262 N   0  0  0  0  0  0  0  0  0  0  0  0
    4.8472   18.4907   50.9541 C   0  0  1  0  0  0  0  0  0  0  0  0
    4.5598   21.1868   55.1630 C   0  0  0  0  0  0  0  0  0  0  0  0
    5.6115   17.6381   54.0591 O   0  0  0  0  0  0  0  0  0  0  0  0
    5.4559   17.3290   50.2520 C   0  0  0  0  0  0  0  0  0  0  0  0
    3.5877   20.5855   55.9365 C   0  0  0  0  0  0  0  0  0  0  0  0
    6.6743   17.5167   49.4544 C   0  0  0  0  0  0  0  0  0  0  0  0
    4.6798   20.9431   53.6784 C   0  0  0  0  0  0  0  0  0  0  0  0
    6.4522   18.4606   48.3922 O   0  0  0  0  0  0  0  0  0  0  0  0
  1  2  1  0  0  0  0
  1  8  2  0  0  0  0
  1 14  1  0  0  0  0
  2  3  2  0  0  0  0
  2  7  1  0  0  0  0
  3  4  1  0  0  0  0
  4  5  2  0  0  0  0
  5  6  1  0  0  0  0
  6  7  2  0  0  0  0
  9 16  1  0  0  0  0
 10 21  1  0  0  0  0
 11 13  1  1  0  0  0
 11 17  1  0  0  0  0
 11 20  2  0  0  0  0
 11 31  1  0  0  0  0
 12 16  2  0  0  0  0
 12 28  1  0  0  0  0
 15 26  1  0  0  0  0
 15 18  1  0  0  0  0
 16 19  1  0  0  0  0
 18 30  1  0  0  0  0
 19 22  2  0  0  0  0
 21 18  1  1  0  0  0
 21 24  1  0  0  0  0
 22 23  1  0  0  0  0
 22 25  1  0  0  0  0
 24 14  1  1  0  0  0
 24 27  1  0  0  0  0
 25 28  2  0  0  0  0
 25 30  1  0  0  0  0
 27 29  1  0  0  0  0
 29 31  1  0  0  0  0
M  CHG  1  17  -1
M  END
>  <CHROM.1>
108.21144448,73.61268373,-103.36042795,-69.46818188,-89.04855222,-13.00805080
-119.53618817,128.47063304,104.11134117,-60.11069866,172.94579394,-70.44936142
4.78277161,19.38622624,52.37158449,1.16878960,-0.47502016,-1.99738770

>  <Name>
ligand

>  <RI>
0

>  <Rbt.Current_Directory>
/home/itssahil/PROJECTS/Mol_Feturizer/New_Systems/rnas/2HOO

>  <Rbt.Executable>
rbdock ($Id: //depot/dev/client3/rdock/2013.1/src/exe/rbdock.cxx#4 $)

>  <Rbt.Library>
libRbt.so (2013.1, Build901 2013/11/27)

>  <Rbt.Parameter_File>
/export/apps/rDock/src/rDock_2013.1_src/data/scripts/dock_solv.prm

>  <Rbt.Receptor>
prm/pocket_docking_6.prm

>  <SCORE>
-22.8206

>  <SCORE.INTER>
-8.60477

>  <SCORE.INTER.CONST>
1

>  <SCORE.INTER.POLAR>
0

>  <SCORE.INTER.ROT>
12

>  <SCORE.INTER.SOLV>
16.1766

>  <SCORE.INTER.VDW>
-22.7287

>  <SCORE.INTER.norm>
-0.277573

>  <SCORE.INTRA>
-14.2176

>  <SCORE.INTRA.DIHEDRAL>
2.02812

>  <SCORE.INTRA.DIHEDRAL.0>
14.6094

>  <SCORE.INTRA.POLAR>
0

>  <SCORE.INTRA.POLAR.0>
0

>  <SCORE.INTRA.REPUL>
0

>  <SCORE.INTRA.REPUL.0>
0

>  <SCORE.INTRA.SOLV>
0.861521

>  <SCORE.INTRA.SOLV.lig_0>
-65.6478

>  <SCORE.INTRA.VDW>
-15.6624

>  <SCORE.INTRA.VDW.0>
9.35535

>  <SCORE.INTRA.norm>
-0.458631

>  <SCORE.RESTR>
0.00176706

>  <SCORE.RESTR.CAVITY>
0.00176706

>  <SCORE.RESTR.norm>
5.70019e-05

>  <SCORE.SYSTEM>
0

>  <SCORE.SYSTEM.CONST>
0

>  <SCORE.SYSTEM.DIHEDRAL>
0

>  <SCORE.SYSTEM.SOLV>
0

>  <SCORE.SYSTEM.norm>
0

>  <SCORE.heavy>
31

>  <SCORE.norm>
-0.736147

>  <RMSD>
6.826

$$$$
ligand
 OpenBabel11021811443D
libRbt.so/2013.1/901 2013/11/27
 31 32  0  0  0  0  0  0  0  0999 V2000
    3.2054   17.8981   51.6062 C   0  0  0  0  0  0  0  0  0  0  0  0
    2.4203   16.6396   51.2488 C   0  0  0  0  0  0  0  0  0  0  0  0
    2.4346   16.1410   49.9060 C   0  0  0  0  0  0  0  0  0  0  0  0
    1.7014   14.9748   49.5798 C   0  0  0  0  0  0  0  0  0  0  0  0
    0.9582   14.2914   50.5732 C   0  0  0  0  0  0  0  0  0  0  0  0
    0.9377   14.7643   51.9011 C   0  0  0  0  0  0  0  0  0  0  0  0
    1.6581   15.9223   52.2447 C   0  0  0  0  0  0  0  0  0  0  0  0
    4.1720   17.8246   52.3644 O   0  0  0  0  0  0  0  0  0  0  0  0
    4.7383   22.6666   58.1226 C   0  0  0  0  0  0  0  0  0  0  0  0
    1.1765   22.1296   52.9347 C   0  0  0  0  0  0  0  0  0  0  0  0
    6.9395   23.4040   53.0954 P   0  0  1  0  0  0  0  0  0  0  0  0
    4.5629   21.3178   56.1517 N   0  0  0  0  0  0  0  0  0  0  0  0
    7.6962   22.3453   53.7906 O   0  0  0  0  0  0  0  0  0  0  0  0
    2.8413   19.1282   51.0866 S   0  0  0  0  0  0  0  0  0  0  0  0
   -0.1385   19.2351   53.0880 C   0  0  0  0  0  0  0  0  0  0  0  0
    3.9404   21.7736   57.2918 C   0  0  0  0  0  0  0  0  0  0  0  0
    6.1830   24.3166   53.9948 O   0  5  0  0  0  0  0  0  0  0  0  0
    1.0081   19.7374   53.6095 N   0  0  0  0  0  0  0  0  0  0  0  0
    2.7323   21.4544   57.6363 N   0  0  0  0  0  0  0  0  0  0  0  0
    7.8168   24.1152   52.1368 O   0  0  0  0  0  0  0  0  0  0  0  0
    1.6954   20.7271   52.7675 C   0  0  2  0  0  0  0  0  0  0  0  0
    1.9838   20.6019   56.8474 C   0  0  0  0  0  0  0  0  0  0  0  0
    0.7445   20.2913   57.2354 N   0  0  0  0  0  0  0  0  0  0  0  0
    2.8002   20.4823   51.8454 C   0  0  1  0  0  0  0  0  0  0  0  0
    2.5745   20.0702   55.6292 C   0  0  0  0  0  0  0  0  0  0  0  0
    0.0639   18.3404   52.2968 O   0  0  0  0  0  0  0  0  0  0  0  0
    3.9053   21.4449   51.5902 C   0  0  0  0  0  0  0  0  0  0  0  0
    3.8627   20.4787   55.3488 C   0  0  0  0  0  0  0  0  0  0  0  0
    4.7971   21.8379   52.6883 C   0  0  0  0  0  0  0  0  0  0  0  0
    1.8222   19.1011   54.7502 C   0  0  0  0  0  0  0  0  0  0  0  0
    5.8072   22.7521   52.2272 O   0  0  0  0  0  0  0  0  0  0  0  0
  1  2  1  0  0  0  0
  1  8  2  0  0  0  0
  1 14  1  0  0  0  0
  2  3  2  0  0  0  0
  2  7  1  0  0  0  0
  3  4  1  0  0  0  0
  4  5  2  0  0  0  0
  5  6  1  0  0  0  0
  6  7  2  0  0  0  0
  9 16  1  0  0  0  0
 10 21  1  0  0  0  0
 11 13  1  1  0  0  0
 11 17  1  0  0  0  0
 11 20  2  0  0  0  0
 11 31  1  0  0  0  0
 12 16  2  0  0  0  0
 12 28  1  0  0  0  0
 15 26  1  0  0  0  0
 15 18  1  0  0  0  0
 16 19  1  0  0  0  0
 18 30  1  0  0  0  0
 19 22  2  0  0  0  0
 21 18  1  1  0  0  0
 21 24  1  0  0  0  0
 22 23  1  0  0  0  0
 22 25  1  0  0  0  0
 24 14  1  1  0  0  0
 24 27  1  0  0  0  0
 25 28  2  0  0  0  0
 25 30  1  0  0  0  0
 27 29  1  0  0  0  0
 29 31  1  0  0  0  0
M  CHG  1  17  -1
M  END
>  <CHROM.1>
-113.46827709,138.36182665,-75.77540512,81.91046291,84.84290516,-149.51849542
-147.04282837,-117.37232701,92.32101184,178.94147918,179.71617040,54.14484118
3.35687433,20.14098399,53.32491023,-2.34076000,0.71416073,1.01344614

>  <Name>
ligand

>  <RI>
0

>  <Rbt.Current_Directory>
/home/itssahil/PROJECTS/Mol_Feturizer/New_Systems/rnas/2HOO

>  <Rbt.Executable>
rbdock ($Id: //depot/dev/client3/rdock/2013.1/src/exe/rbdock.cxx#4 $)

>  <Rbt.Library>
libRbt.so (2013.1, Build901 2013/11/27)

>  <Rbt.Parameter_File>
/export/apps/rDock/src/rDock_2013.1_src/data/scripts/dock_solv.prm

>  <Rbt.Receptor>
prm/pocket_docking_8.prm

>  <SCORE>
-25.3698

>  <SCORE.INTER>
-9.7039

>  <SCORE.INTER.CONST>
1

>  <SCORE.INTER.POLAR>
0

>  <SCORE.INTER.ROT>
12

>  <SCORE.INTER.SOLV>
12.6396

>  <SCORE.INTER.VDW>
-22.2825

>  <SCORE.INTER.norm>
-0.313029

>  <SCORE.INTRA>
-15.6659

>  <SCORE.INTRA.DIHEDRAL>
-1.06052

>  <SCORE.INTRA.DIHEDRAL.0>
14.6094

>  <SCORE.INTRA.POLAR>
0

>  <SCORE.INTRA.POLAR.0>
0

>  <SCORE.INTRA.REPUL>
0

>  <SCORE.INTRA.REPUL.0>
0

>  <SCORE.INTRA.SOLV>
1.61538

>  <SCORE.INTRA.SOLV.lig_0>
-65.6478

>  <SCORE.INTRA.VDW>
-15.9433

>  <SCORE.INTRA.VDW.0>
9.35535

>  <SCORE.INTRA.norm>
-0.505352

>  <SCORE.RESTR>
0

>  <SCORE.RESTR.CAVITY>
0

>  <SCORE.RESTR.norm>
0

>  <SCORE.SYSTEM>
0

>  <SCORE.SYSTEM.CONST>
0

>  <SCORE.SYSTEM.DIHEDRAL>
0

>  <SCORE.SYSTEM.SOLV>
0

>  <SCORE.SYSTEM.norm>
0

>  <SCORE.heavy>
31

>  <SCORE.norm>
-0.818381

>  <RMSD>
6.834

$$$$
ligand
 OpenBabel11021811443D
libRbt.so/2013.1/901 2013/11/27
 31 32  0  0  0  0  0  0  0  0999 V2000
   10.0669   20.0346   53.9476 C   0  0  0  0  0  0  0  0  0  0  0  0
   11.4962   19.6129   54.2749 C   0  0  0  0  0  0  0  0  0  0  0  0
   12.4607   20.5934   54.6757 C   0  0  0  0  0  0  0  0  0  0  0  0
   13.7861   20.1964   54.9748 C   0  0  0  0  0  0  0  0  0  0  0  0
   14.1658   18.8346   54.8880 C   0  0  0  0  0  0  0  0  0  0  0  0
   13.2283   17.8554   54.5012 C   0  0  0  0  0  0  0  0  0  0  0  0
   11.9070   18.2300   54.1981 C   0  0  0  0  0  0  0  0  0  0  0  0
    9.1198   19.3609   54.3518 O   0  0  0  0  0  0  0  0  0  0  0  0
    6.6665   13.7474   47.8579 C   0  0  0  0  0  0  0  0  0  0  0  0
    7.9159   20.6826   49.8781 C   0  0  0  0  0  0  0  0  0  0  0  0
    5.0425   22.1546   54.8975 P   0  0  1  0  0  0  0  0  0  0  0  0
    7.1308   14.8731   49.9198 N   0  0  0  0  0  0  0  0  0  0  0  0
    4.1781   23.3232   54.6450 O   0  0  0  0  0  0  0  0  0  0  0  0
    9.8211   21.1709   53.1964 S   0  0  0  0  0  0  0  0  0  0  0  0
    7.0858   18.5023   52.2553 C   0  0  0  0  0  0  0  0  0  0  0  0
    7.3059   14.8565   48.5544 C   0  0  0  0  0  0  0  0  0  0  0  0
    5.8406   22.2341   56.1508 O   0  5  0  0  0  0  0  0  0  0  0  0
    8.2002   18.8952   51.5900 N   0  0  0  0  0  0  0  0  0  0  0  0
    7.9839   15.7454   47.8986 N   0  0  0  0  0  0  0  0  0  0  0  0
    4.2597   20.9028   54.7757 O   0  0  0  0  0  0  0  0  0  0  0  0
    8.2770   20.3336   51.2966 C   0  0  2  0  0  0  0  0  0  0  0  0
    8.5933   16.7907   48.5660 C   0  0  0  0  0  0  0  0  0  0  0  0
    9.2874   17.6856   47.8588 N   0  0  0  0  0  0  0  0  0  0  0  0
    8.6330   21.4031   52.2240 C   0  0  1  0  0  0  0  0  0  0  0  0
    8.4618   16.8739   50.0123 C   0  0  0  0  0  0  0  0  0  0  0  0
    6.1572   18.2737   51.5117 O   0  0  0  0  0  0  0  0  0  0  0  0
    7.9213   22.7066   52.3102 C   0  0  0  0  0  0  0  0  0  0  0  0
    7.7123   15.8830   50.6133 C   0  0  0  0  0  0  0  0  0  0  0  0
    7.1700   23.0474   53.5247 C   0  0  0  0  0  0  0  0  0  0  0  0
    9.1407   17.9673   50.8005 C   0  0  0  0  0  0  0  0  0  0  0  0
    6.1461   22.0717   53.7858 O   0  0  0  0  0  0  0  0  0  0  0  0
  1  2  1  0  0  0  0
  1  8  2  0  0  0  0
  1 14  1  0  0  0  0
  2  3  2  0  0  0  0
  2  7  1  0  0  0  0
  3  4  1  0  0  0  0
  4  5  2  0  0  0  0
  5  6  1  0  0  0  0
  6  7  2  0  0  0  0
  9 16  1  0  0  0  0
 10 21  1  0  0  0  0
 11 13  1  6  0  0  0
 11 17  1  0  0  0  0
 11 20  2  0  0  0  0
 11 31  1  0  0  0  0
 12 16  2  0  0  0  0
 12 28  1  0  0  0  0
 15 26  1  0  0  0  0
 15 18  1  0  0  0  0
 16 19  1  0  0  0  0
 18 30  1  0  0  0  0
 19 22  2  0  0  0  0
 21 18  1  1  0  0  0
 21 24  1  0  0  0  0
 22 23  1  0  0  0  0
 22 25  1  0  0  0  0
 24 14  1  1  0  0  0
 24 27  1  0  0  0  0
 25 28  2  0  0  0  0
 25 30  1  0  0  0  0
 27 29  1  0  0  0  0
 29 31  1  0  0  0  0
M  CHG  1  17  -1
M  END
>  <CHROM.1>
-137.26728539,148.45720727,-45.10155098,85.84289808,-101.24532087,38.96711661
-138.68268249,-65.43065522,119.19728986,-58.77592866,-173.31375453,62.62978181
8.29159762,19.45713301,52.40907558,-1.70071299,0.24061423,-2.37606700

>  <Name>
ligand

>  <RI>
0

>  <Rbt.Current_Directory>
/home/itssahil/PROJECTS/Mol_Feturizer/New_Systems/rnas/2HOO

>  <Rbt.Executable>
rbdock ($Id: //depot/dev/client3/rdock/2013.1/src/exe/rbdock.cxx#4 $)

>  <Rbt.Library>
libRbt.so (2013.1, Build901 2013/11/27)

>  <Rbt.Parameter_File>
/export/apps/rDock/src/rDock_2013.1_src/data/scripts/dock_solv.prm

>  <Rbt.Receptor>
prm/pocket_docking_4.prm

>  <SCORE>
-32.6475

>  <SCORE.INTER>
-20.8934

>  <SCORE.INTER.CONST>
1

>  <SCORE.INTER.POLAR>
0

>  <SCORE.INTER.ROT>
12

>  <SCORE.INTER.SOLV>
17.7915

>  <SCORE.INTER.VDW>
-31.4594

>  <SCORE.INTER.norm>
-0.673979

>  <SCORE.INTRA>
-11.7541

>  <SCORE.INTRA.DIHEDRAL>
1.84982

>  <SCORE.INTRA.DIHEDRAL.0>
14.6094

>  <SCORE.INTRA.POLAR>
0

>  <SCORE.INTRA.POLAR.0>
0

>  <SCORE.INTRA.REPUL>
0

>  <SCORE.INTRA.REPUL.0>
0

>  <SCORE.INTRA.SOLV>
1.85915

>  <SCORE.INTRA.SOLV.lig_0>
-65.6478

>  <SCORE.INTRA.VDW>
-13.6086

>  <SCORE.INTRA.VDW.0>
9.35535

>  <SCORE.INTRA.norm>
-0.379165

>  <SCORE.RESTR>
0

>  <SCORE.RESTR.CAVITY>
0

>  <SCORE.RESTR.norm>
0

>  <SCORE.SYSTEM>
0

>  <SCORE.SYSTEM.CONST>
0

>  <SCORE.SYSTEM.DIHEDRAL>
0

>  <SCORE.SYSTEM.SOLV>
0

>  <SCORE.SYSTEM.norm>
0

>  <SCORE.heavy>
31

>  <SCORE.norm>
-1.05314

>  <RMSD>
6.842

$$$$
ligand
 OpenBabel11021811443D
libRbt.so/2013.1/901 2013/11/27
 31 32  0  0  0  0  0  0  0  0999 V2000
    8.5436   19.9315   54.2673 C   0  0  0  0  0  0  0  0  0  0  0  0
    9.8240   20.7446   54.1018 C   0  0  0  0  0  0  0  0  0  0  0  0
    9.7540   22.1591   53.8863 C   0  0  0  0  0  0  0  0  0  0  0  0
   10.9454   22.9075   53.7301 C   0  0  0  0  0  0  0  0  0  0  0  0
   12.2086   22.2698   53.7924 C   0  0  0  0  0  0  0  0  0  0  0  0
   12.2965   20.8798   54.0099 C   0  0  0  0  0  0  0  0  0  0  0  0
   11.1243   20.1184   54.1656 C   0  0  0  0  0  0  0  0  0  0  0  0
    7.5697   20.4274   54.8331 O   0  0  0  0  0  0  0  0  0  0  0  0
    7.6077   18.6771   44.3131 C   0  0  0  0  0  0  0  0  0  0  0  0
    7.8484   16.7024   51.0011 C   0  0  0  0  0  0  0  0  0  0  0  0
    2.4553   17.7277   55.2379 P   0  0  1  0  0  0  0  0  0  0  0  0
    7.3501   19.5322   46.5351 N   0  0  0  0  0  0  0  0  0  0  0  0
    2.3025   19.1514   55.5937 O   0  0  0  0  0  0  0  0  0  0  0  0
    8.4638   18.6356   53.7876 S   0  0  0  0  0  0  0  0  0  0  0  0
    7.0676   20.0513   50.7431 C   0  0  0  0  0  0  0  0  0  0  0  0
    7.0974   18.4948   45.6661 C   0  0  0  0  0  0  0  0  0  0  0  0
    2.0856   16.7760   56.3204 O   0  5  0  0  0  0  0  0  0  0  0  0
    6.5344   18.8045   50.7540 N   0  0  0  0  0  0  0  0  0  0  0  0
    6.4551   17.4166   45.9900 N   0  0  0  0  0  0  0  0  0  0  0  0
    1.7799   17.4465   53.9499 O   0  0  0  0  0  0  0  0  0  0  0  0
    7.1728   17.8611   51.6832 C   0  0  2  0  0  0  0  0  0  0  0  0
    5.9680   17.2531   47.2728 C   0  0  0  0  0  0  0  0  0  0  0  0
    5.3072   16.1315   47.5699 N   0  0  0  0  0  0  0  0  0  0  0  0
    7.2258   17.9594   53.1387 C   0  0  1  0  0  0  0  0  0  0  0  0
    6.1871   18.3095   48.2484 C   0  0  0  0  0  0  0  0  0  0  0  0
    6.7768   20.6895   51.7307 O   0  0  0  0  0  0  0  0  0  0  0  0
    6.1714   17.4405   54.0507 C   0  0  0  0  0  0  0  0  0  0  0  0
    6.8895   19.4116   47.8049 C   0  0  0  0  0  0  0  0  0  0  0  0
    4.8465   18.0731   54.0671 C   0  0  0  0  0  0  0  0  0  0  0  0
    5.6414   18.2072   49.6519 C   0  0  0  0  0  0  0  0  0  0  0  0
    3.9724   17.4098   54.9969 O   0  0  0  0  0  0  0  0  0  0  0  0
  1  2  1  0  0  0  0
  1  8  2  0  0  0  0
  1 14  1  0  0  0  0
  2  3  2  0  0  0  0
  2  7  1  0  0  0  0
  3  4  1  0  0  0  0
  4  5  2  0  0  0  0
  5  6  1  0  0  0  0
  6  7  2  0  0  0  0
  9 16  1  0  0  0  0
 10 21  1  0  0  0  0
 11 13  1  1  0  0  0
 11 17  1  0  0  0  0
 11 20  2  0  0  0  0
 11 31  1  0  0  0  0
 12 16  2  0  0  0  0
 12 28  1  0  0  0  0
 15 26  1  0  0  0  0
 15 18  1  0  0  0  0
 16 19  1  0  0  0  0
 18 30  1  0  0  0  0
 19 22  2  0  0  0  0
 21 18  1  6  0  0  0
 21 24  1  0  0  0  0
 22 23  1  0  0  0  0
 22 25  1  0  0  0  0
 24 14  1  1  0  0  0
 24 27  1  0  0  0  0
 25 28  2  0  0  0  0
 25 30  1  0  0  0  0
 27 29  1  0  0  0  0
 29 31  1  0  0  0  0
M  CHG  1  17  -1
M  END
>  <CHROM.1>
-34.50790150,-143.04671591,100.33092674,-73.62903252,-115.51015079,51.23423204
85.17095442,112.79443275,144.26025943,179.04821399,-175.93144692,-56.06103217
6.66577547,18.82707154,51.97988086,-1.90370124,-0.45386898,-1.72007936

>  <Name>
ligand

>  <RI>
0

>  <Rbt.Current_Directory>
/home/itssahil/PROJECTS/Mol_Feturizer/New_Systems/rnas/2HOO

>  <Rbt.Executable>
rbdock ($Id: //depot/dev/client3/rdock/2013.1/src/exe/rbdock.cxx#4 $)

>  <Rbt.Library>
libRbt.so (2013.1, Build901 2013/11/27)

>  <Rbt.Parameter_File>
/export/apps/rDock/src/rDock_2013.1_src/data/scripts/dock_solv.prm

>  <Rbt.Receptor>
prm/pocket_docking_5.prm

>  <SCORE>
-34.2274

>  <SCORE.INTER>
-21.4363

>  <SCORE.INTER.CONST>
1

>  <SCORE.INTER.POLAR>
0

>  <SCORE.INTER.ROT>
12

>  <SCORE.INTER.SOLV>
17.2775

>  <SCORE.INTER.VDW>
-31.6501

>  <SCORE.INTER.norm>
-0.691495

>  <SCORE.INTRA>
-12.7911

>  <SCORE.INTRA.DIHEDRAL>
-0.677561

>  <SCORE.INTRA.DIHEDRAL.0>
14.6094

>  <SCORE.INTRA.POLAR>
0

>  <SCORE.INTRA.POLAR.0>
0

>  <SCORE.INTRA.REPUL>
0

>  <SCORE.INTRA.REPUL.0>
0

>  <SCORE.INTRA.SOLV>
0.646794

>  <SCORE.INTRA.SOLV.lig_0>
-65.6478

>  <SCORE.INTRA.VDW>
-12.7757

>  <SCORE.INTRA.VDW.0>
9.35535

>  <SCORE.INTRA.norm>
-0.412615

>  <SCORE.RESTR>
0

>  <SCORE.RESTR.CAVITY>
0

>  <SCORE.RESTR.norm>
0

>  <SCORE.SYSTEM>
0

>  <SCORE.SYSTEM.CONST>
0

>  <SCORE.SYSTEM.DIHEDRAL>
0

>  <SCORE.SYSTEM.SOLV>
0

>  <SCORE.SYSTEM.norm>
0

>  <SCORE.heavy>
31

>  <SCORE.norm>
-1.10411

>  <RMSD>
6.861

$$$$
ligand
 OpenBabel11021811443D
libRbt.so/2013.1/901 2013/11/27
 31 32  0  0  0  0  0  0  0  0999 V2000
    9.5887   19.5218   53.3921 C   0  0  0  0  0  0  0  0  0  0  0  0
   11.0119   19.4984   53.9415 C   0  0  0  0  0  0  0  0  0  0  0  0
   11.7340   18.2632   54.0136 C   0  0  0  0  0  0  0  0  0  0  0  0
   13.0530   18.2474   54.5274 C   0  0  0  0  0  0  0  0  0  0  0  0
   13.6687   19.4456   54.9650 C   0  0  0  0  0  0  0  0  0  0  0  0
   12.9753   20.6710   54.8957 C   0  0  0  0  0  0  0  0  0  0  0  0
   11.6634   20.7073   54.3900 C   0  0  0  0  0  0  0  0  0  0  0  0
    9.3791   19.2256   52.2162 O   0  0  0  0  0  0  0  0  0  0  0  0
    6.0113   26.8458   59.0425 C   0  0  0  0  0  0  0  0  0  0  0  0
    7.0298   22.7190   53.5042 C   0  0  0  0  0  0  0  0  0  0  0  0
    4.0984   17.7800   51.1446 P   0  0  1  0  0  0  0  0  0  0  0  0
    6.6367   25.3222   57.3041 N   0  0  0  0  0  0  0  0  0  0  0  0
    3.1668   16.7021   50.7611 O   0  0  0  0  0  0  0  0  0  0  0  0
    8.5249   19.8754   54.2039 S   0  0  0  0  0  0  0  0  0  0  0  0
    4.1376   21.5192   54.5623 C   0  0  0  0  0  0  0  0  0  0  0  0
    5.8909   25.5225   58.4437 C   0  0  0  0  0  0  0  0  0  0  0  0
    5.3363   17.8501   50.3219 O   0  5  0  0  0  0  0  0  0  0  0  0
    5.3840   21.6927   55.0676 N   0  0  0  0  0  0  0  0  0  0  0  0
    5.1244   24.6235   58.9770 N   0  0  0  0  0  0  0  0  0  0  0  0
    3.3779   19.0710   51.2363 O   0  0  0  0  0  0  0  0  0  0  0  0
    6.4806   21.4591   54.1168 C   0  0  2  0  0  0  0  0  0  0  0  0
    5.0201   23.3686   58.4080 C   0  0  0  0  0  0  0  0  0  0  0  0
    4.2244   22.4659   58.9868 N   0  0  0  0  0  0  0  0  0  0  0  0
    7.0699   20.1746   53.7515 C   0  0  1  0  0  0  0  0  0  0  0  0
    5.7843   23.0757   57.2055 C   0  0  0  0  0  0  0  0  0  0  0  0
    3.5047   22.5514   54.5226 O   0  0  0  0  0  0  0  0  0  0  0  0
    6.3700   19.1288   52.9581 C   0  0  0  0  0  0  0  0  0  0  0  0
    6.5626   24.1037   56.7134 C   0  0  0  0  0  0  0  0  0  0  0  0
    5.1707   18.4812   53.5040 C   0  0  0  0  0  0  0  0  0  0  0  0
    5.7450   21.7103   56.5637 C   0  0  0  0  0  0  0  0  0  0  0  0
    4.6525   17.5029   52.5858 O   0  0  0  0  0  0  0  0  0  0  0  0
  1  2  1  0  0  0  0
  1  8  2  0  0  0  0
  1 14  1  0  0  0  0
  2  3  2  0  0  0  0
  2  7  1  0  0  0  0
  3  4  1  0  0  0  0
  4  5  2  0  0  0  0
  5  6  1  0  0  0  0
  6  7  2  0  0  0  0
  9 16  1  0  0  0  0
 10 21  1  0  0  0  0
 11 13  1  6  0  0  0
 11 17  1  0  0  0  0
 11 20  2  0  0  0  0
 11 31  1  0  0  0  0
 12 16  2  0  0  0  0
 12 28  1  0  0  0  0
 15 26  1  0  0  0  0
 15 18  1  0  0  0  0
 16 19  1  0  0  0  0
 18 30  1  0  0  0  0
 19 22  2  0  0  0  0
 21 18  1  1  0  0  0
 21 24  1  0  0  0  0
 22 23  1  0  0  0  0
 22 25  1  0  0  0  0
 24 14  1  6  0  0  0
 24 27  1  0  0  0  0
 25 28  2  0  0  0  0
 25 30  1  0  0  0  0
 27 29  1  0  0  0  0
 29 31  1  0  0  0  0
M  CHG  1  17  -1
M  END
>  <CHROM.1>
-64.39112378,169.11993118,-124.33464625,-114.07331985,98.32728562,-93.82665185
67.53494856,116.46799735,126.53798132,-179.83875134,-62.86736071,-155.90955405
6.80857753,20.73431639,54.46375799,-1.47821530,-0.11362692,0.76464160

>  <Name>
ligand

>  <RI>
0

>  <Rbt.Current_Directory>
/home/itssahil/PROJECTS/Mol_Feturizer/New_Systems/rnas/2HOO

>  <Rbt.Executable>
rbdock ($Id: //depot/dev/client3/rdock/2013.1/src/exe/rbdock.cxx#4 $)

>  <Rbt.Library>
libRbt.so (2013.1, Build901 2013/11/27)

>  <Rbt.Parameter_File>
/export/apps/rDock/src/rDock_2013.1_src/data/scripts/dock_solv.prm

>  <Rbt.Receptor>
prm/pocket_docking_8.prm

>  <SCORE>
-32.3757

>  <SCORE.INTER>
-19.0183

>  <SCORE.INTER.CONST>
1

>  <SCORE.INTER.POLAR>
0

>  <SCORE.INTER.ROT>
12

>  <SCORE.INTER.SOLV>
12.8391

>  <SCORE.INTER.VDW>
-28.5585

>  <SCORE.INTER.norm>
-0.613493

>  <SCORE.INTRA>
-13.3574

>  <SCORE.INTRA.DIHEDRAL>
-0.796876

>  <SCORE.INTRA.DIHEDRAL.0>
14.6094

>  <SCORE.INTRA.POLAR>
0

>  <SCORE.INTRA.POLAR.0>
0

>  <SCORE.INTRA.REPUL>
0

>  <SCORE.INTRA.REPUL.0>
0

>  <SCORE.INTRA.SOLV>
1.75415

>  <SCORE.INTRA.SOLV.lig_0>
-65.6478

>  <SCORE.INTRA.VDW>
-13.8361

>  <SCORE.INTRA.VDW.0>
9.35535

>  <SCORE.INTRA.norm>
-0.430885

>  <SCORE.RESTR>
0

>  <SCORE.RESTR.CAVITY>
0

>  <SCORE.RESTR.norm>
0

>  <SCORE.SYSTEM>
0

>  <SCORE.SYSTEM.CONST>
0

>  <SCORE.SYSTEM.DIHEDRAL>
0

>  <SCORE.SYSTEM.SOLV>
0

>  <SCORE.SYSTEM.norm>
0

>  <SCORE.heavy>
31

>  <SCORE.norm>
-1.04438

>  <RMSD>
6.861

$$$$
ligand
 OpenBabel11021811443D
libRbt.so/2013.1/901 2013/11/27
 31 32  0  0  0  0  0  0  0  0999 V2000
    7.5398   25.3900   52.8473 C   0  0  0  0  0  0  0  0  0  0  0  0
    7.0325   25.3669   54.2861 C   0  0  0  0  0  0  0  0  0  0  0  0
    7.5476   24.4048   55.2142 C   0  0  0  0  0  0  0  0  0  0  0  0
    7.0705   24.3862   56.5468 C   0  0  0  0  0  0  0  0  0  0  0  0
    6.0918   25.3170   56.9733 C   0  0  0  0  0  0  0  0  0  0  0  0
    5.5783   26.2747   56.0753 C   0  0  0  0  0  0  0  0  0  0  0  0
    6.0380   26.3083   54.7466 C   0  0  0  0  0  0  0  0  0  0  0  0
    8.1259   26.3835   52.4184 O   0  0  0  0  0  0  0  0  0  0  0  0
    9.9816   15.9878   47.4971 C   0  0  0  0  0  0  0  0  0  0  0  0
    8.8389   21.5691   53.0307 C   0  0  0  0  0  0  0  0  0  0  0  0
    1.5793   22.3494   52.2569 P   0  0  1  0  0  0  0  0  0  0  0  0
    9.7213   17.4477   49.3773 N   0  0  0  0  0  0  0  0  0  0  0  0
    1.4911   22.7100   50.8289 O   0  0  0  0  0  0  0  0  0  0  0  0
    7.3467   24.3022   52.0136 S   0  0  0  0  0  0  0  0  0  0  0  0
    6.3389   19.7998   51.5837 C   0  0  0  0  0  0  0  0  0  0  0  0
    9.4305   17.2179   48.0515 C   0  0  0  0  0  0  0  0  0  0  0  0
    0.6765   23.1268   53.1484 O   0  5  0  0  0  0  0  0  0  0  0  0
    7.3535   20.6392   51.2600 N   0  0  0  0  0  0  0  0  0  0  0  0
    8.7208   18.0144   47.3153 N   0  0  0  0  0  0  0  0  0  0  0  0
    1.4524   20.8830   52.4235 O   0  0  0  0  0  0  0  0  0  0  0  0
    7.5861   21.7336   52.2135 C   0  0  2  0  0  0  0  0  0  0  0  0
    8.2069   19.1824   47.8455 C   0  0  0  0  0  0  0  0  0  0  0  0
    7.4840   19.9813   47.0568 N   0  0  0  0  0  0  0  0  0  0  0  0
    6.7592   22.9205   52.4097 C   0  0  1  0  0  0  0  0  0  0  0  0
    8.4774   19.5012   49.2387 C   0  0  0  0  0  0  0  0  0  0  0  0
    5.3531   19.9785   50.9027 O   0  0  0  0  0  0  0  0  0  0  0  0
    5.3853   22.8976   52.9795 C   0  0  0  0  0  0  0  0  0  0  0  0
    9.2354   18.5834   49.9371 C   0  0  0  0  0  0  0  0  0  0  0  0
    4.2601   22.4488   52.1498 C   0  0  0  0  0  0  0  0  0  0  0  0
    7.9800   20.7829   49.8614 C   0  0  0  0  0  0  0  0  0  0  0  0
    3.0050   22.7139   52.8003 O   0  0  0  0  0  0  0  0  0  0  0  0
  1  2  1  0  0  0  0
  1  8  2  0  0  0  0
  1 14  1  0  0  0  0
  2  3  2  0  0  0  0
  2  7  1  0  0  0  0
  3  4  1  0  0  0  0
  4  5  2  0  0  0  0
  5  6  1  0  0  0  0
  6  7  2  0  0  0  0
  9 16  1  0  0  0  0
 10 21  1  0  0  0  0
 11 13  1  6  0  0  0
 11 17  1  0  0  0  0
 11 20  2  0  0  0  0
 11 31  1  0  0  0  0
 12 16  2  0  0  0  0
 12 28  1  0  0  0  0
 15 26  1  0  0  0  0
 15 18  1  0  0  0  0
 16 19  1  0  0  0  0
 18 30  1  0  0  0  0
 19 22  2  0  0  0  0
 21 18  1  6  0  0  0
 21 24  1  0  0  0  0
 22 23  1  0  0  0  0
 22 25  1  0  0  0  0
 24 14  1  1  0  0  0
 24 27  1  0  0  0  0
 25 28  2  0  0  0  0
 25 30  1  0  0  0  0
 27 29  1  0  0  0  0
 29 31  1  0  0  0  0
M  CHG  1  17  -1
M  END
>  <CHROM.1>
-117.52041811,-6.45990878,-120.39656363,105.31695646,107.89950142,-54.29960440
66.15569818,104.20633286,135.56435721,-170.22386271,-178.25936994,-44.84500227
6.23863724,21.95718952,51.75610804,-2.02612962,-0.03848086,-2.43096604

>  <Name>
ligand

>  <RI>
0

>  <Rbt.Current_Directory>
/home/itssahil/PROJECTS/Mol_Feturizer/New_Systems/rnas/2HOO

>  <Rbt.Executable>
rbdock ($Id: //depot/dev/client3/rdock/2013.1/src/exe/rbdock.cxx#4 $)

>  <Rbt.Library>
libRbt.so (2013.1, Build901 2013/11/27)

>  <Rbt.Parameter_File>
/export/apps/rDock/src/rDock_2013.1_src/data/scripts/dock_solv.prm

>  <Rbt.Receptor>
prm/pocket_docking_7.prm

>  <SCORE>
-29.0288

>  <SCORE.INTER>
-13.2663

>  <SCORE.INTER.CONST>
1

>  <SCORE.INTER.POLAR>
0

>  <SCORE.INTER.ROT>
12

>  <SCORE.INTER.SOLV>
20.624

>  <SCORE.INTER.VDW>
-27.3189

>  <SCORE.INTER.norm>
-0.427946

>  <SCORE.INTRA>
-15.8302

>  <SCORE.INTRA.DIHEDRAL>
-2.12568

>  <SCORE.INTRA.DIHEDRAL.0>
14.6094

>  <SCORE.INTRA.POLAR>
0

>  <SCORE.INTRA.POLAR.0>
0

>  <SCORE.INTRA.REPUL>
0

>  <SCORE.INTRA.REPUL.0>
0

>  <SCORE.INTRA.SOLV>
-0.837425

>  <SCORE.INTRA.SOLV.lig_0>
-65.6478

>  <SCORE.INTRA.VDW>
-14.3487

>  <SCORE.INTRA.VDW.0>
9.35535

>  <SCORE.INTRA.norm>
-0.510653

>  <SCORE.RESTR>
0.0678017

>  <SCORE.RESTR.CAVITY>
0.0678017

>  <SCORE.RESTR.norm>
0.00218715

>  <SCORE.SYSTEM>
0

>  <SCORE.SYSTEM.CONST>
0

>  <SCORE.SYSTEM.DIHEDRAL>
0

>  <SCORE.SYSTEM.SOLV>
0

>  <SCORE.SYSTEM.norm>
0

>  <SCORE.heavy>
31

>  <SCORE.norm>
-0.936412

>  <RMSD>
6.868

$$$$
ligand
 OpenBabel11021811443D
libRbt.so/2013.1/901 2013/11/27
 31 32  0  0  0  0  0  0  0  0999 V2000
    6.6518   20.6348   51.2462 C   0  0  0  0  0  0  0  0  0  0  0  0
    7.6391   19.8632   50.3756 C   0  0  0  0  0  0  0  0  0  0  0  0
    8.1538   20.4540   49.1763 C   0  0  0  0  0  0  0  0  0  0  0  0
    9.0669   19.7318   48.3711 C   0  0  0  0  0  0  0  0  0  0  0  0
    9.4824   18.4304   48.7452 C   0  0  0  0  0  0  0  0  0  0  0  0
    8.9909   17.8359   49.9251 C   0  0  0  0  0  0  0  0  0  0  0  0
    8.0815   18.5364   50.7377 C   0  0  0  0  0  0  0  0  0  0  0  0
    7.0049   21.6746   51.8017 O   0  0  0  0  0  0  0  0  0  0  0  0
   -1.2380   25.7652   55.6448 C   0  0  0  0  0  0  0  0  0  0  0  0
    1.8714   20.7520   52.4317 C   0  0  0  0  0  0  0  0  0  0  0  0
    1.9650   17.3397   54.9394 P   0  0  1  0  0  0  0  0  0  0  0  0
   -0.1432   24.3394   54.0628 N   0  0  0  0  0  0  0  0  0  0  0  0
    2.6736   16.5629   55.9744 O   0  0  0  0  0  0  0  0  0  0  0  0
    5.3575   20.1765   51.4210 S   0  0  0  0  0  0  0  0  0  0  0  0
    2.7150   23.0723   50.7948 C   0  0  0  0  0  0  0  0  0  0  0  0
    0.0041   25.2828   55.0544 C   0  0  0  0  0  0  0  0  0  0  0  0
    1.7635   16.6185   53.6536 O   0  5  0  0  0  0  0  0  0  0  0  0
    3.2578   22.7767   52.0018 N   0  0  0  0  0  0  0  0  0  0  0  0
    1.1484   25.7351   55.4619 N   0  0  0  0  0  0  0  0  0  0  0  0
    0.7176   17.9141   55.4947 O   0  0  0  0  0  0  0  0  0  0  0  0
    3.2501   21.3502   52.3569 C   0  0  2  0  0  0  0  0  0  0  0  0
    2.3220   25.2784   54.8931 C   0  0  0  0  0  0  0  0  0  0  0  0
    3.4825   25.7697   55.3347 N   0  0  0  0  0  0  0  0  0  0  0  0
    4.4095   20.4995   52.6076 C   0  0  1  0  0  0  0  0  0  0  0  0
    2.2500   24.2862   53.8320 C   0  0  0  0  0  0  0  0  0  0  0  0
    1.5857   23.5011   50.8857 O   0  0  0  0  0  0  0  0  0  0  0  0
    4.7408   19.9061   53.9308 C   0  0  0  0  0  0  0  0  0  0  0  0
    0.9845   23.8642   53.4782 C   0  0  0  0  0  0  0  0  0  0  0  0
    4.2598   18.5601   54.2664 C   0  0  0  0  0  0  0  0  0  0  0  0
    3.4945   23.7820   53.1430 C   0  0  0  0  0  0  0  0  0  0  0  0
    2.8434   18.5686   54.5163 O   0  0  0  0  0  0  0  0  0  0  0  0
  1  2  1  0  0  0  0
  1  8  2  0  0  0  0
  1 14  1  0  0  0  0
  2  3  2  0  0  0  0
  2  7  1  0  0  0  0
  3  4  1  0  0  0  0
  4  5  2  0  0  0  0
  5  6  1  0  0  0  0
  6  7  2  0  0  0  0
  9 16  1  0  0  0  0
 10 21  1  0  0  0  0
 11 13  1  1  0  0  0
 11 17  1  0  0  0  0
 11 20  2  0  0  0  0
 11 31  1  0  0  0  0
 12 16  2  0  0  0  0
 12 28  1  0  0  0  0
 15 26  1  0  0  0  0
 15 18  1  0  0  0  0
 16 19  1  0  0  0  0
 18 30  1  0  0  0  0
 19 22  2  0  0  0  0
 21 18  1  6  0  0  0
 21 24  1  0  0  0  0
 22 23  1  0  0  0  0
 22 25  1  0  0  0  0
 24 14  1  6  0  0  0
 24 27  1  0  0  0  0
 25 28  2  0  0  0  0
 25 30  1  0  0  0  0
 27 29  1  0  0  0  0
 29 31  1  0  0  0  0
M  CHG  1  17  -1
M  END
>  <CHROM.1>
-64.38624279,156.32380133,110.23901003,100.87717599,-60.61949699,70.52284337
111.62145803,-86.68013802,-177.61567617,-72.47678450,-178.29480078,43.35423289
3.68602297,21.02034864,52.91341516,-0.47289877,0.65048359,-0.19896857

>  <Name>
ligand

>  <RI>
0

>  <Rbt.Current_Directory>
/home/itssahil/PROJECTS/Mol_Feturizer/New_Systems/rnas/2HOO

>  <Rbt.Executable>
rbdock ($Id: //depot/dev/client3/rdock/2013.1/src/exe/rbdock.cxx#4 $)

>  <Rbt.Library>
libRbt.so (2013.1, Build901 2013/11/27)

>  <Rbt.Parameter_File>
/export/apps/rDock/src/rDock_2013.1_src/data/scripts/dock_solv.prm

>  <Rbt.Receptor>
prm/pocket_docking_8.prm

>  <SCORE>
-24.351

>  <SCORE.INTER>
-11.7539

>  <SCORE.INTER.CONST>
1

>  <SCORE.INTER.POLAR>
0

>  <SCORE.INTER.ROT>
12

>  <SCORE.INTER.SOLV>
11.9729

>  <SCORE.INTER.VDW>
-23.4269

>  <SCORE.INTER.norm>
-0.379158

>  <SCORE.INTRA>
-12.5971

>  <SCORE.INTRA.DIHEDRAL>
0.082005

>  <SCORE.INTRA.DIHEDRAL.0>
14.6094

>  <SCORE.INTRA.POLAR>
0

>  <SCORE.INTRA.POLAR.0>
0

>  <SCORE.INTRA.REPUL>
0

>  <SCORE.INTRA.REPUL.0>
0

>  <SCORE.INTRA.SOLV>
-0.108803

>  <SCORE.INTRA.SOLV.lig_0>
-65.6478

>  <SCORE.INTRA.VDW>
-12.5837

>  <SCORE.INTRA.VDW.0>
9.35535

>  <SCORE.INTRA.norm>
-0.406357

>  <SCORE.RESTR>
0

>  <SCORE.RESTR.CAVITY>
0

>  <SCORE.RESTR.norm>
0

>  <SCORE.SYSTEM>
0

>  <SCORE.SYSTEM.CONST>
0

>  <SCORE.SYSTEM.DIHEDRAL>
0

>  <SCORE.SYSTEM.SOLV>
0

>  <SCORE.SYSTEM.norm>
0

>  <SCORE.heavy>
31

>  <SCORE.norm>
-0.785516

>  <RMSD>
6.872

$$$$
ligand
 OpenBabel11021811443D
libRbt.so/2013.1/901 2013/11/27
 31 32  0  0  0  0  0  0  0  0999 V2000
   10.0468   19.4981   53.8597 C   0  0  0  0  0  0  0  0  0  0  0  0
   10.1720   21.0188   53.8611 C   0  0  0  0  0  0  0  0  0  0  0  0
    9.0349   21.8330   54.1711 C   0  0  0  0  0  0  0  0  0  0  0  0
    9.1565   23.2433   54.1675 C   0  0  0  0  0  0  0  0  0  0  0  0
   10.3969   23.8574   53.8665 C   0  0  0  0  0  0  0  0  0  0  0  0
   11.5278   23.0717   53.5651 C   0  0  0  0  0  0  0  0  0  0  0  0
   11.4270   21.6689   53.5617 C   0  0  0  0  0  0  0  0  0  0  0  0
   11.0413   18.8000   53.6645 O   0  0  0  0  0  0  0  0  0  0  0  0
    6.0176   15.5568   45.4167 C   0  0  0  0  0  0  0  0  0  0  0  0
    7.4679   21.2396   51.7854 C   0  0  0  0  0  0  0  0  0  0  0  0
    3.0412   19.2324   54.7517 P   0  0  1  0  0  0  0  0  0  0  0  0
    6.7825   17.4383   46.6853 N   0  0  0  0  0  0  0  0  0  0  0  0
    2.1170   19.1028   55.8945 O   0  0  0  0  0  0  0  0  0  0  0  0
    8.8218   18.8909   54.0750 S   0  0  0  0  0  0  0  0  0  0  0  0
    8.5539   18.2137   50.5975 C   0  0  0  0  0  0  0  0  0  0  0  0
    6.0016   16.3047   46.6675 C   0  0  0  0  0  0  0  0  0  0  0  0
    2.4249   18.9656   53.4238 O   0  5  0  0  0  0  0  0  0  0  0  0
    7.4319   18.9383   50.8320 N   0  0  0  0  0  0  0  0  0  0  0  0
    5.2887   15.8985   47.6709 N   0  0  0  0  0  0  0  0  0  0  0  0
    3.7600   20.5259   54.8185 O   0  0  0  0  0  0  0  0  0  0  0  0
    7.4626   19.7586   52.0515 C   0  0  2  0  0  0  0  0  0  0  0  0
    5.2728   16.6161   48.8517 C   0  0  0  0  0  0  0  0  0  0  0  0
    4.5236   16.1705   49.8631 N   0  0  0  0  0  0  0  0  0  0  0  0
    7.4641   19.2835   53.4317 C   0  0  1  0  0  0  0  0  0  0  0  0
    6.0661   17.8316   48.9470 C   0  0  0  0  0  0  0  0  0  0  0  0
    9.1165   18.5456   49.5772 O   0  0  0  0  0  0  0  0  0  0  0  0
    6.2420   19.1370   54.2671 C   0  0  0  0  0  0  0  0  0  0  0  0
    6.7957   18.1717   47.8259 C   0  0  0  0  0  0  0  0  0  0  0  0
    5.3224   18.0188   54.0228 C   0  0  0  0  0  0  0  0  0  0  0  0
    6.0548   18.6804   50.1949 C   0  0  0  0  0  0  0  0  0  0  0  0
    4.1506   18.1278   54.8496 O   0  0  0  0  0  0  0  0  0  0  0  0
  1  2  1  0  0  0  0
  1  8  2  0  0  0  0
  1 14  1  0  0  0  0
  2  3  2  0  0  0  0
  2  7  1  0  0  0  0
  3  4  1  0  0  0  0
  4  5  2  0  0  0  0
  5  6  1  0  0  0  0
  6  7  2  0  0  0  0
  9 16  1  0  0  0  0
 10 21  1  0  0  0  0
 11 13  1  1  0  0  0
 11 17  1  0  0  0  0
 11 20  2  0  0  0  0
 11 31  1  0  0  0  0
 12 16  2  0  0  0  0
 12 28  1  0  0  0  0
 15 26  1  0  0  0  0
 15 18  1  0  0  0  0
 16 19  1  0  0  0  0
 18 30  1  0  0  0  0
 19 22  2  0  0  0  0
 21 18  1  1  0  0  0
 21 24  1  0  0  0  0
 22 23  1  0  0  0  0
 22 25  1  0  0  0  0
 24 14  1  6  0  0  0
 24 27  1  0  0  0  0
 25 28  2  0  0  0  0
 25 30  1  0  0  0  0
 27 29  1  0  0  0  0
 29 31  1  0  0  0  0
M  CHG  1  17  -1
M  END
>  <CHROM.1>
-176.06262230,45.28593870,35.61585715,-116.51816182,112.82560357,-18.35224109
-96.53628537,-104.68599723,124.03182474,-174.72877421,66.90783985,-171.95740768
6.85978399,19.07973259,52.07493572,-1.18699519,-0.34576210,-2.03048807

>  <Name>
ligand

>  <RI>
0

>  <Rbt.Current_Directory>
/home/itssahil/PROJECTS/Mol_Feturizer/New_Systems/rnas/2HOO

>  <Rbt.Executable>
rbdock ($Id: //depot/dev/client3/rdock/2013.1/src/exe/rbdock.cxx#4 $)

>  <Rbt.Library>
libRbt.so (2013.1, Build901 2013/11/27)

>  <Rbt.Parameter_File>
/export/apps/rDock/src/rDock_2013.1_src/data/scripts/dock_solv.prm

>  <Rbt.Receptor>
prm/pocket_docking_3.prm

>  <SCORE>
-25.2293

>  <SCORE.INTER>
-13.558

>  <SCORE.INTER.CONST>
1

>  <SCORE.INTER.POLAR>
0

>  <SCORE.INTER.ROT>
12

>  <SCORE.INTER.SOLV>
12.2984

>  <SCORE.INTER.VDW>
-24.7381

>  <SCORE.INTER.norm>
-0.437356

>  <SCORE.INTRA>
-11.6878

>  <SCORE.INTRA.DIHEDRAL>
0.794629

>  <SCORE.INTRA.DIHEDRAL.0>
14.6094

>  <SCORE.INTRA.POLAR>
0

>  <SCORE.INTRA.POLAR.0>
0

>  <SCORE.INTRA.REPUL>
0

>  <SCORE.INTRA.REPUL.0>
0

>  <SCORE.INTRA.SOLV>
1.70465

>  <SCORE.INTRA.SOLV.lig_0>
-65.6478

>  <SCORE.INTRA.VDW>
-12.9374

>  <SCORE.INTRA.VDW.0>
9.35535

>  <SCORE.INTRA.norm>
-0.377025

>  <SCORE.RESTR>
0.0164569

>  <SCORE.RESTR.CAVITY>
0.0164569

>  <SCORE.RESTR.norm>
0.000530866

>  <SCORE.SYSTEM>
0

>  <SCORE.SYSTEM.CONST>
0

>  <SCORE.SYSTEM.DIHEDRAL>
0

>  <SCORE.SYSTEM.SOLV>
0

>  <SCORE.SYSTEM.norm>
0

>  <SCORE.heavy>
31

>  <SCORE.norm>
-0.81385

>  <RMSD>
6.873

$$$$
ligand
 OpenBabel11021811443D
libRbt.so/2013.1/901 2013/11/27
 31 32  0  0  0  0  0  0  0  0999 V2000
    0.6781   19.5249   54.0351 C   0  0  0  0  0  0  0  0  0  0  0  0
    1.0302   18.1269   54.5349 C   0  0  0  0  0  0  0  0  0  0  0  0
    0.1354   17.0332   54.2996 C   0  0  0  0  0  0  0  0  0  0  0  0
    0.4660   15.7392   54.7686 C   0  0  0  0  0  0  0  0  0  0  0  0
    1.6795   15.5146   55.4637 C   0  0  0  0  0  0  0  0  0  0  0  0
    2.5748   16.5778   55.6989 C   0  0  0  0  0  0  0  0  0  0  0  0
    2.2636   17.8712   55.2424 C   0  0  0  0  0  0  0  0  0  0  0  0
    0.3163   20.3894   54.8327 O   0  0  0  0  0  0  0  0  0  0  0  0
    5.7640   12.2117   49.4709 C   0  0  0  0  0  0  0  0  0  0  0  0
    1.6833   17.4283   50.9972 C   0  0  0  0  0  0  0  0  0  0  0  0
   -0.3051   23.7352   51.0659 P   0  0  1  0  0  0  0  0  0  0  0  0
    4.2911   14.0018   50.0712 N   0  0  0  0  0  0  0  0  0  0  0  0
   -1.4559   23.4657   50.1829 O   0  0  0  0  0  0  0  0  0  0  0  0
    0.7598   19.8340   52.6885 S   0  0  0  0  0  0  0  0  0  0  0  0
    4.5481   17.8541   52.6271 C   0  0  0  0  0  0  0  0  0  0  0  0
    5.5278   13.6455   49.5825 C   0  0  0  0  0  0  0  0  0  0  0  0
    0.5784   24.8427   50.6108 O   0  5  0  0  0  0  0  0  0  0  0  0
    4.0275   18.1617   51.4133 N   0  0  0  0  0  0  0  0  0  0  0  0
    6.4434   14.4948   49.2355 N   0  0  0  0  0  0  0  0  0  0  0  0
   -0.7589   23.8817   52.4683 O   0  0  0  0  0  0  0  0  0  0  0  0
    2.6065   18.5382   51.4213 C   0  0  2  0  0  0  0  0  0  0  0  0
    6.2153   15.8528   49.3503 C   0  0  0  0  0  0  0  0  0  0  0  0
    7.1827   16.6986   48.9876 N   0  0  0  0  0  0  0  0  0  0  0  0
    2.0396   19.8263   51.8091 C   0  0  1  0  0  0  0  0  0  0  0  0
    4.9347   16.3099   49.8670 C   0  0  0  0  0  0  0  0  0  0  0  0
    5.4621   18.5852   52.9393 O   0  0  0  0  0  0  0  0  0  0  0  0
    2.6021   21.1430   51.4058 C   0  0  0  0  0  0  0  0  0  0  0  0
    4.0261   15.3256   50.1992 C   0  0  0  0  0  0  0  0  0  0  0  0
    1.9007   22.3788   51.7753 C   0  0  0  0  0  0  0  0  0  0  0  0
    4.6437   17.7787   50.0560 C   0  0  0  0  0  0  0  0  0  0  0  0
    0.6577   22.4966   51.0614 O   0  0  0  0  0  0  0  0  0  0  0  0
  1  2  1  0  0  0  0
  1  8  2  0  0  0  0
  1 14  1  0  0  0  0
  2  3  2  0  0  0  0
  2  7  1  0  0  0  0
  3  4  1  0  0  0  0
  4  5  2  0  0  0  0
  5  6  1  0  0  0  0
  6  7  2  0  0  0  0
  9 16  1  0  0  0  0
 10 21  1  0  0  0  0
 11 13  1  6  0  0  0
 11 17  1  0  0  0  0
 11 20  2  0  0  0  0
 11 31  1  0  0  0  0
 12 16  2  0  0  0  0
 12 28  1  0  0  0  0
 15 26  1  0  0  0  0
 15 18  1  0  0  0  0
 16 19  1  0  0  0  0
 18 30  1  0  0  0  0
 19 22  2  0  0  0  0
 21 18  1  1  0  0  0
 21 24  1  0  0  0  0
 22 23  1  0  0  0  0
 22 25  1  0  0  0  0
 24 14  1  6  0  0  0
 24 27  1  0  0  0  0
 25 28  2  0  0  0  0
 25 30  1  0  0  0  0
 27 29  1  0  0  0  0
 29 31  1  0  0  0  0
M  CHG  1  17  -1
M  END
>  <CHROM.1>
106.16785401,-62.87176862,73.53184546,-119.40947273,-100.39954107,54.09269463
41.67290381,-3.58591089,-132.44329326,-68.53840335,-173.28211035,178.77007511
2.43434671,18.79135935,51.82163983,2.54782563,0.85473982,-0.66307649

>  <Name>
ligand

>  <RI>
0

>  <Rbt.Current_Directory>
/home/itssahil/PROJECTS/Mol_Feturizer/New_Systems/rnas/2HOO

>  <Rbt.Executable>
rbdock ($Id: //depot/dev/client3/rdock/2013.1/src/exe/rbdock.cxx#4 $)

>  <Rbt.Library>
libRbt.so (2013.1, Build901 2013/11/27)

>  <Rbt.Parameter_File>
/export/apps/rDock/src/rDock_2013.1_src/data/scripts/dock_solv.prm

>  <Rbt.Receptor>
prm/pocket_docking_7.prm

>  <SCORE>
-31.1563

>  <SCORE.INTER>
-19.5269

>  <SCORE.INTER.CONST>
1

>  <SCORE.INTER.POLAR>
0

>  <SCORE.INTER.ROT>
12

>  <SCORE.INTER.SOLV>
13.1083

>  <SCORE.INTER.VDW>
-28.9874

>  <SCORE.INTER.norm>
-0.629899

>  <SCORE.INTRA>
-11.6294

>  <SCORE.INTRA.DIHEDRAL>
2.19193

>  <SCORE.INTRA.DIHEDRAL.0>
14.6094

>  <SCORE.INTRA.POLAR>
0

>  <SCORE.INTRA.POLAR.0>
0

>  <SCORE.INTRA.REPUL>
0

>  <SCORE.INTRA.REPUL.0>
0

>  <SCORE.INTRA.SOLV>
0.0703185

>  <SCORE.INTRA.SOLV.lig_0>
-65.6478

>  <SCORE.INTRA.VDW>
-12.7605

>  <SCORE.INTRA.VDW.0>
9.35535

>  <SCORE.INTRA.norm>
-0.375142

>  <SCORE.RESTR>
0

>  <SCORE.RESTR.CAVITY>
0

>  <SCORE.RESTR.norm>
0

>  <SCORE.SYSTEM>
0

>  <SCORE.SYSTEM.CONST>
0

>  <SCORE.SYSTEM.DIHEDRAL>
0

>  <SCORE.SYSTEM.SOLV>
0

>  <SCORE.SYSTEM.norm>
0

>  <SCORE.heavy>
31

>  <SCORE.norm>
-1.00504

>  <RMSD>
6.880

$$$$
ligand
 OpenBabel11021811443D
libRbt.so/2013.1/901 2013/11/27
 31 32  0  0  0  0  0  0  0  0999 V2000
    9.2171   19.4553   53.2487 C   0  0  0  0  0  0  0  0  0  0  0  0
   10.6614   19.7634   53.6320 C   0  0  0  0  0  0  0  0  0  0  0  0
   11.0119   21.0606   54.1287 C   0  0  0  0  0  0  0  0  0  0  0  0
   12.3542   21.3414   54.4795 C   0  0  0  0  0  0  0  0  0  0  0  0
   13.3544   20.3469   54.3501 C   0  0  0  0  0  0  0  0  0  0  0  0
   13.0265   19.0631   53.8688 C   0  0  0  0  0  0  0  0  0  0  0  0
   11.6989   18.7650   53.5132 C   0  0  0  0  0  0  0  0  0  0  0  0
    8.5394   18.7103   53.9559 O   0  0  0  0  0  0  0  0  0  0  0  0
   11.4373   13.6715   46.1747 C   0  0  0  0  0  0  0  0  0  0  0  0
    8.4368   17.0283   50.4744 C   0  0  0  0  0  0  0  0  0  0  0  0
    3.4959   20.2423   53.0507 P   0  0  1  0  0  0  0  0  0  0  0  0
   10.8580   15.5963   47.4762 N   0  0  0  0  0  0  0  0  0  0  0  0
    4.1561   20.1973   54.3694 O   0  0  0  0  0  0  0  0  0  0  0  0
    8.6571   20.0051   52.1086 S   0  0  0  0  0  0  0  0  0  0  0  0
    9.2087   19.7385   48.4661 C   0  0  0  0  0  0  0  0  0  0  0  0
   10.4505   14.6836   46.5296 C   0  0  0  0  0  0  0  0  0  0  0  0
    3.3989   18.9269   52.3618 O   0  5  0  0  0  0  0  0  0  0  0  0
    8.2834   18.7768   48.7065 N   0  0  0  0  0  0  0  0  0  0  0  0
    9.2810   14.6905   45.9707 N   0  0  0  0  0  0  0  0  0  0  0  0
    2.1996   20.9520   53.1509 O   0  0  0  0  0  0  0  0  0  0  0  0
    8.0798   18.4476   50.1247 C   0  0  2  0  0  0  0  0  0  0  0  0
    8.3525   15.6570   46.3069 C   0  0  0  0  0  0  0  0  0  0  0  0
    7.1593   15.6362   45.7079 N   0  0  0  0  0  0  0  0  0  0  0  0
    7.6067   19.3423   51.1766 C   0  0  1  0  0  0  0  0  0  0  0  0
    8.7106   16.6634   47.2942 C   0  0  0  0  0  0  0  0  0  0  0  0
    8.7078   20.8057   48.1874 O   0  0  0  0  0  0  0  0  0  0  0  0
    6.1741   19.6554   51.4264 C   0  0  0  0  0  0  0  0  0  0  0  0
    9.9762   16.5621   47.8352 C   0  0  0  0  0  0  0  0  0  0  0  0
    5.7902   20.9984   51.8790 C   0  0  0  0  0  0  0  0  0  0  0  0
    7.7548   17.7693   47.6700 C   0  0  0  0  0  0  0  0  0  0  0  0
    4.3664   21.0916   52.0598 O   0  0  0  0  0  0  0  0  0  0  0  0
  1  2  1  0  0  0  0
  1  8  2  0  0  0  0
  1 14  1  0  0  0  0
  2  3  2  0  0  0  0
  2  7  1  0  0  0  0
  3  4  1  0  0  0  0
  4  5  2  0  0  0  0
  5  6  1  0  0  0  0
  6  7  2  0  0  0  0
  9 16  1  0  0  0  0
 10 21  1  0  0  0  0
 11 13  1  1  0  0  0
 11 17  1  0  0  0  0
 11 20  2  0  0  0  0
 11 31  1  0  0  0  0
 12 16  2  0  0  0  0
 12 28  1  0  0  0  0
 15 26  1  0  0  0  0
 15 18  1  0  0  0  0
 16 19  1  0  0  0  0
 18 30  1  0  0  0  0
 19 22  2  0  0  0  0
 21 18  1  1  0  0  0
 21 24  1  0  0  0  0
 22 23  1  0  0  0  0
 22 25  1  0  0  0  0
 24 14  1  1  0  0  0
 24 27  1  0  0  0  0
 25 28  2  0  0  0  0
 25 30  1  0  0  0  0
 27 29  1  0  0  0  0
 29 31  1  0  0  0  0
M  CHG  1  17  -1
M  END
>  <CHROM.1>
-108.12632423,146.12555438,-84.68870732,-103.78342506,-117.08838803,73.78924070
80.34225789,35.52390666,-178.76614636,179.97305319,60.74903158,45.69514970
8.10187161,18.71586472,50.78050760,-2.05630295,0.12621339,-2.13786586

>  <Name>
ligand

>  <RI>
0

>  <Rbt.Current_Directory>
/home/itssahil/PROJECTS/Mol_Feturizer/New_Systems/rnas/2HOO

>  <Rbt.Executable>
rbdock ($Id: //depot/dev/client3/rdock/2013.1/src/exe/rbdock.cxx#4 $)

>  <Rbt.Library>
libRbt.so (2013.1, Build901 2013/11/27)

>  <Rbt.Parameter_File>
/export/apps/rDock/src/rDock_2013.1_src/data/scripts/dock_solv.prm

>  <Rbt.Receptor>
prm/pocket_docking_8.prm

>  <SCORE>
-31.2851

>  <SCORE.INTER>
-20.6725

>  <SCORE.INTER.CONST>
1

>  <SCORE.INTER.POLAR>
0

>  <SCORE.INTER.ROT>
12

>  <SCORE.INTER.SOLV>
9.49937

>  <SCORE.INTER.VDW>
-28.5482

>  <SCORE.INTER.norm>
-0.666856

>  <SCORE.INTRA>
-10.6143

>  <SCORE.INTRA.DIHEDRAL>
1.20285

>  <SCORE.INTRA.DIHEDRAL.0>
14.6094

>  <SCORE.INTRA.POLAR>
0

>  <SCORE.INTRA.POLAR.0>
0

>  <SCORE.INTRA.REPUL>
0

>  <SCORE.INTRA.REPUL.0>
0

>  <SCORE.INTRA.SOLV>
0.217139

>  <SCORE.INTRA.SOLV.lig_0>
-65.6478

>  <SCORE.INTRA.VDW>
-11.3243

>  <SCORE.INTRA.VDW.0>
9.35535

>  <SCORE.INTRA.norm>
-0.342396

>  <SCORE.RESTR>
0.00174822

>  <SCORE.RESTR.CAVITY>
0.00174822

>  <SCORE.RESTR.norm>
5.6394e-05

>  <SCORE.SYSTEM>
0

>  <SCORE.SYSTEM.CONST>
0

>  <SCORE.SYSTEM.DIHEDRAL>
0

>  <SCORE.SYSTEM.SOLV>
0

>  <SCORE.SYSTEM.norm>
0

>  <SCORE.heavy>
31

>  <SCORE.norm>
-1.0092

>  <RMSD>
6.891

$$$$
ligand
 OpenBabel11021811443D
libRbt.so/2013.1/901 2013/11/27
 31 32  0  0  0  0  0  0  0  0999 V2000
    8.7962   19.5471   53.8657 C   0  0  0  0  0  0  0  0  0  0  0  0
   10.2745   19.9172   53.9424 C   0  0  0  0  0  0  0  0  0  0  0  0
   10.6706   21.2937   53.9614 C   0  0  0  0  0  0  0  0  0  0  0  0
   12.0438   21.6307   54.0292 C   0  0  0  0  0  0  0  0  0  0  0  0
   13.0311   20.6167   54.0859 C   0  0  0  0  0  0  0  0  0  0  0  0
   12.6592   19.2569   54.0744 C   0  0  0  0  0  0  0  0  0  0  0  0
   11.3002   18.9017   54.0055 C   0  0  0  0  0  0  0  0  0  0  0  0
    8.0305   19.8864   54.7673 O   0  0  0  0  0  0  0  0  0  0  0  0
    8.0696   16.2936   45.5204 C   0  0  0  0  0  0  0  0  0  0  0  0
    7.0424   19.6130   50.2606 C   0  0  0  0  0  0  0  0  0  0  0  0
    4.0019   20.7026   55.0321 P   0  0  1  0  0  0  0  0  0  0  0  0
    6.7744   17.7419   46.9202 N   0  0  0  0  0  0  0  0  0  0  0  0
    4.4306   20.9886   56.4145 O   0  0  0  0  0  0  0  0  0  0  0  0
    8.3035   18.8296   52.7896 S   0  0  0  0  0  0  0  0  0  0  0  0
    4.0222   19.5550   50.7275 C   0  0  0  0  0  0  0  0  0  0  0  0
    7.2219   16.4598   46.6943 C   0  0  0  0  0  0  0  0  0  0  0  0
    2.7213   19.9526   54.9237 O   0  5  0  0  0  0  0  0  0  0  0  0
    4.8729   18.4998   50.7712 N   0  0  0  0  0  0  0  0  0  0  0  0
    6.9320   15.4463   47.4485 N   0  0  0  0  0  0  0  0  0  0  0  0
    4.0297   21.9415   54.2206 O   0  0  0  0  0  0  0  0  0  0  0  0
    6.2302   18.8119   51.2418 C   0  0  2  0  0  0  0  0  0  0  0  0
    6.1222   15.6095   48.5562 C   0  0  0  0  0  0  0  0  0  0  0  0
    5.8409   14.5426   49.3080 N   0  0  0  0  0  0  0  0  0  0  0  0
    6.8212   18.4495   52.5264 C   0  0  1  0  0  0  0  0  0  0  0  0
    5.6018   16.9339   48.8581 C   0  0  0  0  0  0  0  0  0  0  0  0
    2.8638   19.2231   50.8513 O   0  0  0  0  0  0  0  0  0  0  0  0
    6.0977   17.7240   53.6049 C   0  0  0  0  0  0  0  0  0  0  0  0
    5.9768   17.9459   47.9979 C   0  0  0  0  0  0  0  0  0  0  0  0
    4.8867   18.3110   54.1920 C   0  0  0  0  0  0  0  0  0  0  0  0
    4.6777   17.1660   50.0285 C   0  0  0  0  0  0  0  0  0  0  0  0
    5.0327   19.7324   54.3561 O   0  0  0  0  0  0  0  0  0  0  0  0
  1  2  1  0  0  0  0
  1  8  2  0  0  0  0
  1 14  1  0  0  0  0
  2  3  2  0  0  0  0
  2  7  1  0  0  0  0
  3  4  1  0  0  0  0
  4  5  2  0  0  0  0
  5  6  1  0  0  0  0
  6  7  2  0  0  0  0
  9 16  1  0  0  0  0
 10 21  1  0  0  0  0
 11 13  1  1  0  0  0
 11 17  1  0  0  0  0
 11 20  2  0  0  0  0
 11 31  1  0  0  0  0
 12 16  2  0  0  0  0
 12 28  1  0  0  0  0
 15 26  1  0  0  0  0
 15 18  1  0  0  0  0
 16 19  1  0  0  0  0
 18 30  1  0  0  0  0
 19 22  2  0  0  0  0
 21 18  1  1  0  0  0
 21 24  1  0  0  0  0
 22 23  1  0  0  0  0
 22 25  1  0  0  0  0
 24 14  1  6  0  0  0
 24 27  1  0  0  0  0
 25 28  2  0  0  0  0
 25 30  1  0  0  0  0
 27 29  1  0  0  0  0
 29 31  1  0  0  0  0
M  CHG  1  17  -1
M  END
>  <CHROM.1>
-61.91049621,-176.20457386,126.10242495,-153.07680095,-71.16916390,108.19620812
-3.92744881,120.67690157,143.54066507,-39.51038741,-175.74924586,99.89905814
6.71467296,18.86238232,52.00856741,-1.42172101,-0.01329102,-2.07346467

>  <Name>
ligand

>  <RI>
0

>  <Rbt.Current_Directory>
/home/itssahil/PROJECTS/Mol_Feturizer/New_Systems/rnas/2HOO

>  <Rbt.Executable>
rbdock ($Id: //depot/dev/client3/rdock/2013.1/src/exe/rbdock.cxx#4 $)

>  <Rbt.Library>
libRbt.so (2013.1, Build901 2013/11/27)

>  <Rbt.Parameter_File>
/export/apps/rDock/src/rDock_2013.1_src/data/scripts/dock_solv.prm

>  <Rbt.Receptor>
prm/pocket_docking_3.prm

>  <SCORE>
-26.9553

>  <SCORE.INTER>
-16.7548

>  <SCORE.INTER.CONST>
1

>  <SCORE.INTER.POLAR>
0

>  <SCORE.INTER.ROT>
12

>  <SCORE.INTER.SOLV>
11.9628

>  <SCORE.INTER.VDW>
-26.7574

>  <SCORE.INTER.norm>
-0.540476

>  <SCORE.INTRA>
-10.2054

>  <SCORE.INTRA.DIHEDRAL>
0.300826

>  <SCORE.INTRA.DIHEDRAL.0>
14.6094

>  <SCORE.INTRA.POLAR>
0

>  <SCORE.INTRA.POLAR.0>
0

>  <SCORE.INTRA.REPUL>
0.00411901

>  <SCORE.INTRA.REPUL.0>
0

>  <SCORE.INTRA.SOLV>
0.674639

>  <SCORE.INTRA.SOLV.lig_0>
-65.6478

>  <SCORE.INTRA.VDW>
-10.7137

>  <SCORE.INTRA.VDW.0>
9.35535

>  <SCORE.INTRA.norm>
-0.329206

>  <SCORE.RESTR>
0.00485149

>  <SCORE.RESTR.CAVITY>
0.00485149

>  <SCORE.RESTR.norm>
0.0001565

>  <SCORE.SYSTEM>
0

>  <SCORE.SYSTEM.CONST>
0

>  <SCORE.SYSTEM.DIHEDRAL>
0

>  <SCORE.SYSTEM.SOLV>
0

>  <SCORE.SYSTEM.norm>
0

>  <SCORE.heavy>
31

>  <SCORE.norm>
-0.869526

>  <RMSD>
6.892

$$$$
ligand
 OpenBabel11021811443D
libRbt.so/2013.1/901 2013/11/27
 31 32  0  0  0  0  0  0  0  0999 V2000
    3.2384   18.5831   51.2805 C   0  0  0  0  0  0  0  0  0  0  0  0
    1.9272   19.1260   51.8408 C   0  0  0  0  0  0  0  0  0  0  0  0
    0.8219   18.2431   52.0665 C   0  0  0  0  0  0  0  0  0  0  0  0
   -0.3931   18.7534   52.5834 C   0  0  0  0  0  0  0  0  0  0  0  0
   -0.5233   20.1308   52.8867 C   0  0  0  0  0  0  0  0  0  0  0  0
    0.5559   21.0131   52.6767 C   0  0  0  0  0  0  0  0  0  0  0  0
    1.7707   20.5258   52.1621 C   0  0  0  0  0  0  0  0  0  0  0  0
    3.4168   18.5436   50.0635 O   0  0  0  0  0  0  0  0  0  0  0  0
    3.9844   15.2013   46.5171 C   0  0  0  0  0  0  0  0  0  0  0  0
    7.0961   17.1171   53.6445 C   0  0  0  0  0  0  0  0  0  0  0  0
    6.8263   23.2260   52.4223 P   0  0  1  0  0  0  0  0  0  0  0  0
    4.5067   15.6535   48.8100 N   0  0  0  0  0  0  0  0  0  0  0  0
    5.6802   23.9124   51.7963 O   0  0  0  0  0  0  0  0  0  0  0  0
    4.2343   18.1306   52.1285 S   0  0  0  0  0  0  0  0  0  0  0  0
    8.7671   18.5025   51.1899 C   0  0  0  0  0  0  0  0  0  0  0  0
    4.9927   15.4663   47.5356 C   0  0  0  0  0  0  0  0  0  0  0  0
    7.5613   22.2993   51.5194 O   0  5  0  0  0  0  0  0  0  0  0  0
    7.7599   17.6002   51.2924 N   0  0  0  0  0  0  0  0  0  0  0  0
    6.2498   15.5145   47.2238 N   0  0  0  0  0  0  0  0  0  0  0  0
    7.7041   24.2084   53.0995 O   0  0  0  0  0  0  0  0  0  0  0  0
    6.7962   17.8610   52.3714 C   0  0  2  0  0  0  0  0  0  0  0  0
    7.2011   15.7595   48.1956 C   0  0  0  0  0  0  0  0  0  0  0  0
    8.4873   15.7978   47.8390 N   0  0  0  0  0  0  0  0  0  0  0  0
    5.6427   18.7544   52.3241 C   0  0  1  0  0  0  0  0  0  0  0  0
    6.7678   15.9598   49.5696 C   0  0  0  0  0  0  0  0  0  0  0  0
    9.2267   18.5604   50.0707 O   0  0  0  0  0  0  0  0  0  0  0  0
    5.7266   20.2351   52.4393 C   0  0  0  0  0  0  0  0  0  0  0  0
    5.4074   15.8972   49.7941 C   0  0  0  0  0  0  0  0  0  0  0  0
    6.4230   20.8386   53.5824 C   0  0  0  0  0  0  0  0  0  0  0  0
    7.7629   16.1877   50.6812 C   0  0  0  0  0  0  0  0  0  0  0  0
    6.3084   22.2720   53.5548 O   0  0  0  0  0  0  0  0  0  0  0  0
  1  2  1  0  0  0  0
  1  8  2  0  0  0  0
  1 14  1  0  0  0  0
  2  3  2  0  0  0  0
  2  7  1  0  0  0  0
  3  4  1  0  0  0  0
  4  5  2  0  0  0  0
  5  6  1  0  0  0  0
  6  7  2  0  0  0  0
  9 16  1  0  0  0  0
 10 21  1  0  0  0  0
 11 13  1  6  0  0  0
 11 17  1  0  0  0  0
 11 20  2  0  0  0  0
 11 31  1  0  0  0  0
 12 16  2  0  0  0  0
 12 28  1  0  0  0  0
 15 26  1  0  0  0  0
 15 18  1  0  0  0  0
 16 19  1  0  0  0  0
 18 30  1  0  0  0  0
 19 22  2  0  0  0  0
 21 18  1  1  0  0  0
 21 24  1  0  0  0  0
 22 23  1  0  0  0  0
 22 25  1  0  0  0  0
 24 14  1  6  0  0  0
 24 27  1  0  0  0  0
 25 28  2  0  0  0  0
 25 30  1  0  0  0  0
 27 29  1  0  0  0  0
 29 31  1  0  0  0  0
M  CHG  1  17  -1
M  END
>  <CHROM.1>
89.81681908,-114.43878591,-135.66512032,-154.65006737,-95.12079214,-112.82704211
-79.29647830,127.09723473,111.17600610,-175.91919309,-60.73891707,116.29416920
5.39001635,18.94392747,51.17262312,1.68555644,0.12886405,0.55742574

>  <Name>
ligand

>  <RI>
0

>  <Rbt.Current_Directory>
/home/itssahil/PROJECTS/Mol_Feturizer/New_Systems/rnas/2HOO

>  <Rbt.Executable>
rbdock ($Id: //depot/dev/client3/rdock/2013.1/src/exe/rbdock.cxx#4 $)

>  <Rbt.Library>
libRbt.so (2013.1, Build901 2013/11/27)

>  <Rbt.Parameter_File>
/export/apps/rDock/src/rDock_2013.1_src/data/scripts/dock_solv.prm

>  <Rbt.Receptor>
prm/pocket_docking_8.prm

>  <SCORE>
-18.6123

>  <SCORE.INTER>
-8.05463

>  <SCORE.INTER.CONST>
1

>  <SCORE.INTER.POLAR>
0

>  <SCORE.INTER.ROT>
12

>  <SCORE.INTER.SOLV>
17.0164

>  <SCORE.INTER.VDW>
-22.6419

>  <SCORE.INTER.norm>
-0.259827

>  <SCORE.INTRA>
-10.5577

>  <SCORE.INTRA.DIHEDRAL>
3.48776

>  <SCORE.INTRA.DIHEDRAL.0>
14.6094

>  <SCORE.INTRA.POLAR>
0

>  <SCORE.INTRA.POLAR.0>
0

>  <SCORE.INTRA.REPUL>
0

>  <SCORE.INTRA.REPUL.0>
0

>  <SCORE.INTRA.SOLV>
2.36666

>  <SCORE.INTRA.SOLV.lig_0>
-65.6478

>  <SCORE.INTRA.VDW>
-13.4849

>  <SCORE.INTRA.VDW.0>
9.35535

>  <SCORE.INTRA.norm>
-0.340571

>  <SCORE.RESTR>
0

>  <SCORE.RESTR.CAVITY>
0

>  <SCORE.RESTR.norm>
0

>  <SCORE.SYSTEM>
0

>  <SCORE.SYSTEM.CONST>
0

>  <SCORE.SYSTEM.DIHEDRAL>
0

>  <SCORE.SYSTEM.SOLV>
0

>  <SCORE.SYSTEM.norm>
0

>  <SCORE.heavy>
31

>  <SCORE.norm>
-0.600398

>  <RMSD>
6.903

$$$$
ligand
 OpenBabel11021811443D
libRbt.so/2013.1/901 2013/11/27
 31 32  0  0  0  0  0  0  0  0999 V2000
    9.4746   21.3628   53.4600 C   0  0  0  0  0  0  0  0  0  0  0  0
   10.7425   20.5838   53.7971 C   0  0  0  0  0  0  0  0  0  0  0  0
   10.6837   19.1660   53.9935 C   0  0  0  0  0  0  0  0  0  0  0  0
   11.8628   18.4492   54.3094 C   0  0  0  0  0  0  0  0  0  0  0  0
   13.1038   19.1219   54.4261 C   0  0  0  0  0  0  0  0  0  0  0  0
   13.1814   20.5157   54.2301 C   0  0  0  0  0  0  0  0  0  0  0  0
   12.0208   21.2460   53.9174 C   0  0  0  0  0  0  0  0  0  0  0  0
    9.1475   22.3305   54.1463 O   0  0  0  0  0  0  0  0  0  0  0  0
    5.4031   13.2395   49.3920 C   0  0  0  0  0  0  0  0  0  0  0  0
    6.5059   18.7870   53.1841 C   0  0  0  0  0  0  0  0  0  0  0  0
    4.9378   22.5304   55.9290 P   0  0  1  0  0  0  0  0  0  0  0  0
    4.6639   15.3861   50.1535 N   0  0  0  0  0  0  0  0  0  0  0  0
    4.2164   21.2438   55.9640 O   0  0  0  0  0  0  0  0  0  0  0  0
    8.6830   20.9919   52.3869 S   0  0  0  0  0  0  0  0  0  0  0  0
    4.2198   20.1079   51.1303 C   0  0  0  0  0  0  0  0  0  0  0  0
    5.6111   14.6810   49.4458 C   0  0  0  0  0  0  0  0  0  0  0  0
    4.0671   23.7236   55.7491 O   0  5  0  0  0  0  0  0  0  0  0  0
    5.4417   19.5245   51.0558 N   0  0  0  0  0  0  0  0  0  0  0  0
    6.6293   15.2239   48.8554 N   0  0  0  0  0  0  0  0  0  0  0  0
    5.8511   22.6370   57.0904 O   0  0  0  0  0  0  0  0  0  0  0  0
    6.3647   19.8682   52.1471 C   0  0  2  0  0  0  0  0  0  0  0  0
    6.8241   16.5906   48.9161 C   0  0  0  0  0  0  0  0  0  0  0  0
    7.8863   17.1151   48.2999 N   0  0  0  0  0  0  0  0  0  0  0  0
    7.1368   21.0985   52.2920 C   0  0  1  0  0  0  0  0  0  0  0  0
    5.8705   17.4052   49.6529 C   0  0  0  0  0  0  0  0  0  0  0  0
    3.3161   19.3099   51.0127 O   0  0  0  0  0  0  0  0  0  0  0  0
    6.5375   22.4579   52.3679 C   0  0  0  0  0  0  0  0  0  0  0  0
    4.8176   16.7309   50.2372 C   0  0  0  0  0  0  0  0  0  0  0  0
    5.4290   22.7144   53.2960 C   0  0  0  0  0  0  0  0  0  0  0  0
    6.0542   18.8968   49.7909 C   0  0  0  0  0  0  0  0  0  0  0  0
    5.8604   22.5773   54.6612 O   0  0  0  0  0  0  0  0  0  0  0  0
  1  2  1  0  0  0  0
  1  8  2  0  0  0  0
  1 14  1  0  0  0  0
  2  3  2  0  0  0  0
  2  7  1  0  0  0  0
  3  4  1  0  0  0  0
  4  5  2  0  0  0  0
  5  6  1  0  0  0  0
  6  7  2  0  0  0  0
  9 16  1  0  0  0  0
 10 21  1  0  0  0  0
 11 13  1  1  0  0  0
 11 17  1  0  0  0  0
 11 20  2  0  0  0  0
 11 31  1  0  0  0  0
 12 16  2  0  0  0  0
 12 28  1  0  0  0  0
 15 26  1  0  0  0  0
 15 18  1  0  0  0  0
 16 19  1  0  0  0  0
 18 30  1  0  0  0  0
 19 22  2  0  0  0  0
 21 18  1  6  0  0  0
 21 24  1  0  0  0  0
 22 23  1  0  0  0  0
 22 25  1  0  0  0  0
 24 14  1  1  0  0  0
 24 27  1  0  0  0  0
 25 28  2  0  0  0  0
 25 30  1  0  0  0  0
 27 29  1  0  0  0  0
 29 31  1  0  0  0  0
M  CHG  1  17  -1
M  END
>  <CHROM.1>
125.98529211,145.92758637,-117.09969304,-129.48443446,102.89161313,-95.58663790
57.18549197,-130.11373645,-152.17157992,65.47964693,-168.93483713,71.67903908
6.99561113,19.78691445,52.61439571,-1.37942905,0.10064445,-2.42357877

>  <Name>
ligand

>  <RI>
0

>  <Rbt.Current_Directory>
/home/itssahil/PROJECTS/Mol_Feturizer/New_Systems/rnas/2HOO

>  <Rbt.Executable>
rbdock ($Id: //depot/dev/client3/rdock/2013.1/src/exe/rbdock.cxx#4 $)

>  <Rbt.Library>
libRbt.so (2013.1, Build901 2013/11/27)

>  <Rbt.Parameter_File>
/export/apps/rDock/src/rDock_2013.1_src/data/scripts/dock_solv.prm

>  <Rbt.Receptor>
prm/pocket_docking_6.prm

>  <SCORE>
-33.2441

>  <SCORE.INTER>
-18.6082

>  <SCORE.INTER.CONST>
1

>  <SCORE.INTER.POLAR>
0

>  <SCORE.INTER.ROT>
12

>  <SCORE.INTER.SOLV>
11.0945

>  <SCORE.INTER.VDW>
-27.7036

>  <SCORE.INTER.norm>
-0.600265

>  <SCORE.INTRA>
-14.6358

>  <SCORE.INTRA.DIHEDRAL>
0.244438

>  <SCORE.INTRA.DIHEDRAL.0>
14.6094

>  <SCORE.INTRA.POLAR>
0

>  <SCORE.INTRA.POLAR.0>
0

>  <SCORE.INTRA.REPUL>
0

>  <SCORE.INTRA.REPUL.0>
0

>  <SCORE.INTRA.SOLV>
-0.755672

>  <SCORE.INTRA.SOLV.lig_0>
-65.6478

>  <SCORE.INTRA.VDW>
-14.3802

>  <SCORE.INTRA.VDW.0>
9.35535

>  <SCORE.INTRA.norm>
-0.472124

>  <SCORE.RESTR>
0

>  <SCORE.RESTR.CAVITY>
0

>  <SCORE.RESTR.norm>
0

>  <SCORE.SYSTEM>
0

>  <SCORE.SYSTEM.CONST>
0

>  <SCORE.SYSTEM.DIHEDRAL>
0

>  <SCORE.SYSTEM.SOLV>
0

>  <SCORE.SYSTEM.norm>
0

>  <SCORE.heavy>
31

>  <SCORE.norm>
-1.07239

>  <RMSD>
6.912

$$$$
ligand
 OpenBabel11021811443D
libRbt.so/2013.1/901 2013/11/27
 31 32  0  0  0  0  0  0  0  0999 V2000
    3.0957   18.0027   50.8692 C   0  0  0  0  0  0  0  0  0  0  0  0
    2.6209   16.6438   51.3751 C   0  0  0  0  0  0  0  0  0  0  0  0
    1.7233   16.5653   52.4888 C   0  0  0  0  0  0  0  0  0  0  0  0
    1.2890   15.3015   52.9556 C   0  0  0  0  0  0  0  0  0  0  0  0
    1.7295   14.1119   52.3255 C   0  0  0  0  0  0  0  0  0  0  0  0
    2.6079   14.1705   51.2245 C   0  0  0  0  0  0  0  0  0  0  0  0
    3.0523   15.4164   50.7469 C   0  0  0  0  0  0  0  0  0  0  0  0
    2.3385   18.9720   50.9093 O   0  0  0  0  0  0  0  0  0  0  0  0
    3.8354   21.5222   58.9553 C   0  0  0  0  0  0  0  0  0  0  0  0
    5.8980   17.6386   53.6668 C   0  0  0  0  0  0  0  0  0  0  0  0
    9.1430   16.8446   48.2127 P   0  0  1  0  0  0  0  0  0  0  0  0
    5.0942   21.5159   56.9182 N   0  0  0  0  0  0  0  0  0  0  0  0
   10.4590   16.2683   47.8767 O   0  0  0  0  0  0  0  0  0  0  0  0
    4.3739   18.1593   50.3618 S   0  0  0  0  0  0  0  0  0  0  0  0
    6.6888   20.7826   52.5071 C   0  0  0  0  0  0  0  0  0  0  0  0
    3.8839   21.2605   57.5224 C   0  0  0  0  0  0  0  0  0  0  0  0
    8.8316   18.1233   47.5184 O   0  5  0  0  0  0  0  0  0  0  0  0
    5.6566   19.9983   52.9054 N   0  0  0  0  0  0  0  0  0  0  0  0
    2.8388   20.8183   56.8960 N   0  0  0  0  0  0  0  0  0  0  0  0
    8.0828   15.8206   48.0652 O   0  0  0  0  0  0  0  0  0  0  0  0
    5.7559   18.5868   52.5070 C   0  0  2  0  0  0  0  0  0  0  0  0
    2.8936   20.5658   55.5385 C   0  0  0  0  0  0  0  0  0  0  0  0
    1.7992   20.1068   54.9267 N   0  0  0  0  0  0  0  0  0  0  0  0
    5.7069   18.0497   51.1506 C   0  0  1  0  0  0  0  0  0  0  0  0
    4.1410   20.8028   54.8287 C   0  0  0  0  0  0  0  0  0  0  0  0
    7.7442   20.4455   52.9970 O   0  0  0  0  0  0  0  0  0  0  0  0
    6.8530   17.3879   50.4713 C   0  0  0  0  0  0  0  0  0  0  0  0
    5.1907   21.2817   55.5859 C   0  0  0  0  0  0  0  0  0  0  0  0
    8.1425   18.0833   50.3744 C   0  0  0  0  0  0  0  0  0  0  0  0
    4.2745   20.5044   53.3553 C   0  0  0  0  0  0  0  0  0  0  0  0
    9.1244   17.2559   49.7264 O   0  0  0  0  0  0  0  0  0  0  0  0
  1  2  1  0  0  0  0
  1  8  2  0  0  0  0
  1 14  1  0  0  0  0
  2  3  2  0  0  0  0
  2  7  1  0  0  0  0
  3  4  1  0  0  0  0
  4  5  2  0  0  0  0
  5  6  1  0  0  0  0
  6  7  2  0  0  0  0
  9 16  1  0  0  0  0
 10 21  1  0  0  0  0
 11 13  1  6  0  0  0
 11 17  1  0  0  0  0
 11 20  2  0  0  0  0
 11 31  1  0  0  0  0
 12 16  2  0  0  0  0
 12 28  1  0  0  0  0
 15 26  1  0  0  0  0
 15 18  1  0  0  0  0
 16 19  1  0  0  0  0
 18 30  1  0  0  0  0
 19 22  2  0  0  0  0
 21 18  1  1  0  0  0
 21 24  1  0  0  0  0
 22 23  1  0  0  0  0
 22 25  1  0  0  0  0
 24 14  1  1  0  0  0
 24 27  1  0  0  0  0
 25 28  2  0  0  0  0
 25 30  1  0  0  0  0
 27 29  1  0  0  0  0
 29 31  1  0  0  0  0
M  CHG  1  17  -1
M  END
>  <CHROM.1>
-34.45708059,-67.00515368,-38.42960900,-63.03982629,114.82564952,-89.27952596
111.81994414,126.50173796,-145.50679952,177.96572206,69.60303462,166.76491111
5.29180251,18.37808907,52.11218676,2.15674254,0.40593499,0.85392004

>  <Name>
ligand

>  <RI>
0

>  <Rbt.Current_Directory>
/home/itssahil/PROJECTS/Mol_Feturizer/New_Systems/rnas/2HOO

>  <Rbt.Executable>
rbdock ($Id: //depot/dev/client3/rdock/2013.1/src/exe/rbdock.cxx#4 $)

>  <Rbt.Library>
libRbt.so (2013.1, Build901 2013/11/27)

>  <Rbt.Parameter_File>
/export/apps/rDock/src/rDock_2013.1_src/data/scripts/dock_solv.prm

>  <Rbt.Receptor>
prm/pocket_docking_8.prm

>  <SCORE>
-27.7777

>  <SCORE.INTER>
-15.3321

>  <SCORE.INTER.CONST>
1

>  <SCORE.INTER.POLAR>
0

>  <SCORE.INTER.ROT>
12

>  <SCORE.INTER.SOLV>
13.1241

>  <SCORE.INTER.VDW>
-26.1961

>  <SCORE.INTER.norm>
-0.494583

>  <SCORE.INTRA>
-12.4456

>  <SCORE.INTRA.DIHEDRAL>
2.59058

>  <SCORE.INTRA.DIHEDRAL.0>
14.6094

>  <SCORE.INTRA.POLAR>
0

>  <SCORE.INTRA.POLAR.0>
0

>  <SCORE.INTRA.REPUL>
0

>  <SCORE.INTRA.REPUL.0>
0

>  <SCORE.INTRA.SOLV>
1.5766

>  <SCORE.INTRA.SOLV.lig_0>
-65.6478

>  <SCORE.INTRA.VDW>
-14.5292

>  <SCORE.INTRA.VDW.0>
9.35535

>  <SCORE.INTRA.norm>
-0.401471

>  <SCORE.RESTR>
0

>  <SCORE.RESTR.CAVITY>
0

>  <SCORE.RESTR.norm>
0

>  <SCORE.SYSTEM>
0

>  <SCORE.SYSTEM.CONST>
0

>  <SCORE.SYSTEM.DIHEDRAL>
0

>  <SCORE.SYSTEM.SOLV>
0

>  <SCORE.SYSTEM.norm>
0

>  <SCORE.heavy>
31

>  <SCORE.norm>
-0.896053

>  <RMSD>
6.925

$$$$
ligand
 OpenBabel11021811443D
libRbt.so/2013.1/901 2013/11/27
 31 32  0  0  0  0  0  0  0  0999 V2000
    5.5383   20.7772   51.8942 C   0  0  0  0  0  0  0  0  0  0  0  0
    4.3803   20.3564   52.7941 C   0  0  0  0  0  0  0  0  0  0  0  0
    4.6398   19.8397   54.1048 C   0  0  0  0  0  0  0  0  0  0  0  0
    3.5613   19.4478   54.9336 C   0  0  0  0  0  0  0  0  0  0  0  0
    2.2250   19.5690   54.4802 C   0  0  0  0  0  0  0  0  0  0  0  0
    1.9506   20.0810   53.1958 C   0  0  0  0  0  0  0  0  0  0  0  0
    3.0085   20.4742   52.3565 C   0  0  0  0  0  0  0  0  0  0  0  0
    6.0402   21.8937   52.0207 O   0  0  0  0  0  0  0  0  0  0  0  0
    2.1959   14.4346   47.3693 C   0  0  0  0  0  0  0  0  0  0  0  0
    7.0678   17.0574   52.4943 C   0  0  0  0  0  0  0  0  0  0  0  0
    0.9233   16.5807   51.6442 P   0  0  1  0  0  0  0  0  0  0  0  0
    3.6709   14.4384   49.2557 N   0  0  0  0  0  0  0  0  0  0  0  0
    0.9247   15.1528   51.2730 O   0  0  0  0  0  0  0  0  0  0  0  0
    6.0331   19.9147   50.9314 S   0  0  0  0  0  0  0  0  0  0  0  0
    8.8653   17.3952   49.9068 C   0  0  0  0  0  0  0  0  0  0  0  0
    3.5220   14.7005   47.9125 C   0  0  0  0  0  0  0  0  0  0  0  0
   -0.2607   17.3438   51.1648 O   0  5  0  0  0  0  0  0  0  0  0  0
    7.6657   16.7901   50.0907 N   0  0  0  0  0  0  0  0  0  0  0  0
    4.4691   15.1521   47.1515 N   0  0  0  0  0  0  0  0  0  0  0  0
    1.1738   16.7325   53.0963 O   0  0  0  0  0  0  0  0  0  0  0  0
    6.7817   17.4417   51.0679 C   0  0  2  0  0  0  0  0  0  0  0  0
    5.7259   15.3956   47.6716 C   0  0  0  0  0  0  0  0  0  0  0  0
    6.6788   15.8564   46.8575 N   0  0  0  0  0  0  0  0  0  0  0  0
    5.7173   18.4010   50.7891 C   0  0  1  0  0  0  0  0  0  0  0  0
    5.9660   15.1354   49.0824 C   0  0  0  0  0  0  0  0  0  0  0  0
    8.7789   18.4064   49.2454 O   0  0  0  0  0  0  0  0  0  0  0  0
    4.3359   18.0239   50.3865 C   0  0  0  0  0  0  0  0  0  0  0  0
    4.8895   14.6644   49.8063 C   0  0  0  0  0  0  0  0  0  0  0  0
    3.5075   17.2181   51.2922 C   0  0  0  0  0  0  0  0  0  0  0  0
    7.3288   15.3407   49.6976 C   0  0  0  0  0  0  0  0  0  0  0  0
    2.1179   17.3064   50.9320 O   0  0  0  0  0  0  0  0  0  0  0  0
  1  2  1  0  0  0  0
  1  8  2  0  0  0  0
  1 14  1  0  0  0  0
  2  3  2  0  0  0  0
  2  7  1  0  0  0  0
  3  4  1  0  0  0  0
  4  5  2  0  0  0  0
  5  6  1  0  0  0  0
  6  7  2  0  0  0  0
  9 16  1  0  0  0  0
 10 21  1  0  0  0  0
 11 13  1  6  0  0  0
 11 17  1  0  0  0  0
 11 20  2  0  0  0  0
 11 31  1  0  0  0  0
 12 16  2  0  0  0  0
 12 28  1  0  0  0  0
 15 26  1  0  0  0  0
 15 18  1  0  0  0  0
 16 19  1  0  0  0  0
 18 30  1  0  0  0  0
 19 22  2  0  0  0  0
 21 18  1  1  0  0  0
 21 24  1  0  0  0  0
 22 23  1  0  0  0  0
 22 25  1  0  0  0  0
 24 14  1  1  0  0  0
 24 27  1  0  0  0  0
 25 28  2  0  0  0  0
 25 30  1  0  0  0  0
 27 29  1  0  0  0  0
 29 31  1  0  0  0  0
M  CHG  1  17  -1
M  END
>  <CHROM.1>
-83.02169315,-11.98166203,-111.03519531,-75.26625390,-83.31113712,-138.96788023
81.91161846,-118.23128020,81.94116424,162.24357425,179.32665189,-75.12449399
4.40123688,17.48872630,50.80657645,-2.16298345,-0.29991887,-2.42045000

>  <Name>
ligand

>  <RI>
0

>  <Rbt.Current_Directory>
/home/itssahil/PROJECTS/Mol_Feturizer/New_Systems/rnas/2HOO

>  <Rbt.Executable>
rbdock ($Id: //depot/dev/client3/rdock/2013.1/src/exe/rbdock.cxx#4 $)

>  <Rbt.Library>
libRbt.so (2013.1, Build901 2013/11/27)

>  <Rbt.Parameter_File>
/export/apps/rDock/src/rDock_2013.1_src/data/scripts/dock_solv.prm

>  <Rbt.Receptor>
prm/pocket_docking_5.prm

>  <SCORE>
-25.2628

>  <SCORE.INTER>
-7.78288

>  <SCORE.INTER.CONST>
1

>  <SCORE.INTER.POLAR>
0

>  <SCORE.INTER.ROT>
12

>  <SCORE.INTER.SOLV>
13.4991

>  <SCORE.INTER.VDW>
-21.2883

>  <SCORE.INTER.norm>
-0.251061

>  <SCORE.INTRA>
-17.4799

>  <SCORE.INTRA.DIHEDRAL>
-0.621201

>  <SCORE.INTRA.DIHEDRAL.0>
14.6094

>  <SCORE.INTRA.POLAR>
0

>  <SCORE.INTRA.POLAR.0>
0

>  <SCORE.INTRA.REPUL>
0

>  <SCORE.INTRA.REPUL.0>
0

>  <SCORE.INTRA.SOLV>
1.33106

>  <SCORE.INTRA.SOLV.lig_0>
-65.6478

>  <SCORE.INTRA.VDW>
-17.8348

>  <SCORE.INTRA.VDW.0>
9.35535

>  <SCORE.INTRA.norm>
-0.563867

>  <SCORE.RESTR>
0

>  <SCORE.RESTR.CAVITY>
0

>  <SCORE.RESTR.norm>
0

>  <SCORE.SYSTEM>
0

>  <SCORE.SYSTEM.CONST>
0

>  <SCORE.SYSTEM.DIHEDRAL>
0

>  <SCORE.SYSTEM.SOLV>
0

>  <SCORE.SYSTEM.norm>
0

>  <SCORE.heavy>
31

>  <SCORE.norm>
-0.814928

>  <RMSD>
6.936

$$$$
ligand
 OpenBabel11021811443D
libRbt.so/2013.1/901 2013/11/27
 31 32  0  0  0  0  0  0  0  0999 V2000
    4.7960   16.7132   49.6612 C   0  0  0  0  0  0  0  0  0  0  0  0
    3.5068   16.1600   50.2611 C   0  0  0  0  0  0  0  0  0  0  0  0
    2.3878   17.0265   50.4829 C   0  0  0  0  0  0  0  0  0  0  0  0
    1.1956   16.5080   51.0428 C   0  0  0  0  0  0  0  0  0  0  0  0
    1.0967   15.1358   51.3796 C   0  0  0  0  0  0  0  0  0  0  0  0
    2.1857   14.2673   51.1625 C   0  0  0  0  0  0  0  0  0  0  0  0
    3.3795   14.7636   50.6089 C   0  0  0  0  0  0  0  0  0  0  0  0
    4.9046   16.8314   48.4411 O   0  0  0  0  0  0  0  0  0  0  0  0
    7.9315   26.1070   52.2487 C   0  0  0  0  0  0  0  0  0  0  0  0
    8.0700   19.9432   49.2962 C   0  0  0  0  0  0  0  0  0  0  0  0
    9.1630   15.3747   45.7431 P   0  0  1  0  0  0  0  0  0  0  0  0
    8.4231   23.8057   51.8055 N   0  0  0  0  0  0  0  0  0  0  0  0
    9.7426   16.5176   45.0118 O   0  0  0  0  0  0  0  0  0  0  0  0
    5.8510   17.0844   50.4767 S   0  0  0  0  0  0  0  0  0  0  0  0
    8.6438   19.5379   52.4355 C   0  0  0  0  0  0  0  0  0  0  0  0
    7.4694   24.7267   52.1758 C   0  0  0  0  0  0  0  0  0  0  0  0
    7.7765   15.0188   45.3368 O   0  5  0  0  0  0  0  0  0  0  0  0
    7.5065   19.6332   51.7030 N   0  0  0  0  0  0  0  0  0  0  0  0
    6.2381   24.4271   52.4482 N   0  0  0  0  0  0  0  0  0  0  0  0
   10.0971   14.2253   45.7203 O   0  0  0  0  0  0  0  0  0  0  0  0
    7.5693   19.0160   50.3703 C   0  0  2  0  0  0  0  0  0  0  0  0
    5.8082   23.1155   52.3837 C   0  0  0  0  0  0  0  0  0  0  0  0
    4.5340   22.8430   52.6753 N   0  0  0  0  0  0  0  0  0  0  0  0
    7.2271   17.6407   50.0205 C   0  0  1  0  0  0  0  0  0  0  0  0
    6.7593   22.0812   52.0077 C   0  0  0  0  0  0  0  0  0  0  0  0
    8.4272   19.2688   53.5966 O   0  0  0  0  0  0  0  0  0  0  0  0
    8.1194   16.7242   49.2611 C   0  0  0  0  0  0  0  0  0  0  0  0
    8.0425   22.5063   51.7295 C   0  0  0  0  0  0  0  0  0  0  0  0
    8.1221   16.7608   47.7933 C   0  0  0  0  0  0  0  0  0  0  0  0
    6.3598   20.6265   51.9623 C   0  0  0  0  0  0  0  0  0  0  0  0
    8.9969   15.7533   47.2563 O   0  0  0  0  0  0  0  0  0  0  0  0
  1  2  1  0  0  0  0
  1  8  2  0  0  0  0
  1 14  1  0  0  0  0
  2  3  2  0  0  0  0
  2  7  1  0  0  0  0
  3  4  1  0  0  0  0
  4  5  2  0  0  0  0
  5  6  1  0  0  0  0
  6  7  2  0  0  0  0
  9 16  1  0  0  0  0
 10 21  1  0  0  0  0
 11 13  1  6  0  0  0
 11 17  1  0  0  0  0
 11 20  2  0  0  0  0
 11 31  1  0  0  0  0
 12 16  2  0  0  0  0
 12 28  1  0  0  0  0
 15 26  1  0  0  0  0
 15 18  1  0  0  0  0
 16 19  1  0  0  0  0
 18 30  1  0  0  0  0
 19 22  2  0  0  0  0
 21 18  1  1  0  0  0
 21 24  1  0  0  0  0
 22 23  1  0  0  0  0
 22 25  1  0  0  0  0
 24 14  1  1  0  0  0
 24 27  1  0  0  0  0
 25 28  2  0  0  0  0
 25 30  1  0  0  0  0
 27 29  1  0  0  0  0
 29 31  1  0  0  0  0
M  CHG  1  17  -1
M  END
>  <CHROM.1>
-83.41360569,179.02849704,114.14017526,-137.90577929,-88.55186223,55.26086467
-129.98663245,95.62949574,-173.39631436,-176.96041444,173.33152798,65.38163405
6.69583412,18.49656655,49.94280047,1.51461984,-0.51973023,-2.58598220

>  <Name>
ligand

>  <RI>
0

>  <Rbt.Current_Directory>
/home/itssahil/PROJECTS/Mol_Feturizer/New_Systems/rnas/2HOO

>  <Rbt.Executable>
rbdock ($Id: //depot/dev/client3/rdock/2013.1/src/exe/rbdock.cxx#4 $)

>  <Rbt.Library>
libRbt.so (2013.1, Build901 2013/11/27)

>  <Rbt.Parameter_File>
/export/apps/rDock/src/rDock_2013.1_src/data/scripts/dock_solv.prm

>  <Rbt.Receptor>
prm/pocket_docking_5.prm

>  <SCORE>
-31.7573

>  <SCORE.INTER>
-17.5831

>  <SCORE.INTER.CONST>
1

>  <SCORE.INTER.POLAR>
0

>  <SCORE.INTER.ROT>
12

>  <SCORE.INTER.SOLV>
11.5698

>  <SCORE.INTER.VDW>
-27.1787

>  <SCORE.INTER.norm>
-0.567197

>  <SCORE.INTRA>
-14.1813

>  <SCORE.INTRA.DIHEDRAL>
-1.46608

>  <SCORE.INTRA.DIHEDRAL.0>
14.6094

>  <SCORE.INTRA.POLAR>
0

>  <SCORE.INTRA.POLAR.0>
0

>  <SCORE.INTRA.REPUL>
0

>  <SCORE.INTRA.REPUL.0>
0

>  <SCORE.INTRA.SOLV>
-1.01301

>  <SCORE.INTRA.SOLV.lig_0>
-65.6478

>  <SCORE.INTRA.VDW>
-12.9417

>  <SCORE.INTRA.VDW.0>
9.35535

>  <SCORE.INTRA.norm>
-0.45746

>  <SCORE.RESTR>
0.00702767

>  <SCORE.RESTR.CAVITY>
0.00702767

>  <SCORE.RESTR.norm>
0.000226699

>  <SCORE.SYSTEM>
0

>  <SCORE.SYSTEM.CONST>
0

>  <SCORE.SYSTEM.DIHEDRAL>
0

>  <SCORE.SYSTEM.SOLV>
0

>  <SCORE.SYSTEM.norm>
0

>  <SCORE.heavy>
31

>  <SCORE.norm>
-1.02443

>  <RMSD>
6.961

$$$$
ligand
 OpenBabel11021811443D
libRbt.so/2013.1/901 2013/11/27
 31 32  0  0  0  0  0  0  0  0999 V2000
    5.2996   17.5551   50.6267 C   0  0  0  0  0  0  0  0  0  0  0  0
    3.9190   16.9112   50.5399 C   0  0  0  0  0  0  0  0  0  0  0  0
    2.7447   17.6929   50.7894 C   0  0  0  0  0  0  0  0  0  0  0  0
    1.4669   17.0890   50.7106 C   0  0  0  0  0  0  0  0  0  0  0  0
    1.3386   15.7178   50.3796 C   0  0  0  0  0  0  0  0  0  0  0  0
    2.4830   14.9349   50.1249 C   0  0  0  0  0  0  0  0  0  0  0  0
    3.7616   15.5159   50.2000 C   0  0  0  0  0  0  0  0  0  0  0  0
    6.1537   17.0787   51.3737 O   0  0  0  0  0  0  0  0  0  0  0  0
   11.1683   15.0396   43.5134 C   0  0  0  0  0  0  0  0  0  0  0  0
    8.6317   20.4117   48.3130 C   0  0  0  0  0  0  0  0  0  0  0  0
    7.7277   23.1816   52.8112 P   0  0  1  0  0  0  0  0  0  0  0  0
   10.4540   15.1365   45.7969 N   0  0  0  0  0  0  0  0  0  0  0  0
    6.9132   23.5090   51.6253 O   0  0  0  0  0  0  0  0  0  0  0  0
    5.6043   18.6752   49.8729 S   0  0  0  0  0  0  0  0  0  0  0  0
    9.4233   17.4419   49.5764 C   0  0  0  0  0  0  0  0  0  0  0  0
   10.2671   15.5979   44.5135 C   0  0  0  0  0  0  0  0  0  0  0  0
    9.1658   23.5454   52.6941 O   0  5  0  0  0  0  0  0  0  0  0  0
    8.5363   17.9503   48.6856 N   0  0  0  0  0  0  0  0  0  0  0  0
    9.3651   16.4664   44.1784 N   0  0  0  0  0  0  0  0  0  0  0  0
    7.0841   23.7100   54.0362 O   0  0  0  0  0  0  0  0  0  0  0  0
    7.9815   19.2651   49.0388 C   0  0  2  0  0  0  0  0  0  0  0  0
    8.5183   16.9968   45.1329 C   0  0  0  0  0  0  0  0  0  0  0  0
    7.6039   17.8924   44.7526 N   0  0  0  0  0  0  0  0  0  0  0  0
    6.8911   19.5388   49.9698 C   0  0  1  0  0  0  0  0  0  0  0  0
    8.6582   16.5657   46.5150 C   0  0  0  0  0  0  0  0  0  0  0  0
   10.5304   17.9179   49.4528 O   0  0  0  0  0  0  0  0  0  0  0  0
    6.9241   20.6058   51.0059 C   0  0  0  0  0  0  0  0  0  0  0  0
    9.6430   15.6315   46.7646 C   0  0  0  0  0  0  0  0  0  0  0  0
    8.0290   20.6492   51.9718 C   0  0  0  0  0  0  0  0  0  0  0  0
    7.7917   17.1416   47.6084 C   0  0  0  0  0  0  0  0  0  0  0  0
    7.7758   21.6248   52.9979 O   0  0  0  0  0  0  0  0  0  0  0  0
  1  2  1  0  0  0  0
  1  8  2  0  0  0  0
  1 14  1  0  0  0  0
  2  3  2  0  0  0  0
  2  7  1  0  0  0  0
  3  4  1  0  0  0  0
  4  5  2  0  0  0  0
  5  6  1  0  0  0  0
  6  7  2  0  0  0  0
  9 16  1  0  0  0  0
 10 21  1  0  0  0  0
 11 13  1  6  0  0  0
 11 17  1  0  0  0  0
 11 20  2  0  0  0  0
 11 31  1  0  0  0  0
 12 16  2  0  0  0  0
 12 28  1  0  0  0  0
 15 26  1  0  0  0  0
 15 18  1  0  0  0  0
 16 19  1  0  0  0  0
 18 30  1  0  0  0  0
 19 22  2  0  0  0  0
 21 18  1  6  0  0  0
 21 24  1  0  0  0  0
 22 23  1  0  0  0  0
 22 25  1  0  0  0  0
 24 14  1  6  0  0  0
 24 27  1  0  0  0  0
 25 28  2  0  0  0  0
 25 30  1  0  0  0  0
 27 29  1  0  0  0  0
 29 31  1  0  0  0  0
M  CHG  1  17  -1
M  END
>  <CHROM.1>
124.45610270,172.29883090,96.17964142,-80.03132800,100.35910502,-66.65525444
132.61796175,125.96639094,-115.52254672,-171.60346749,-67.81542753,46.41051806
7.23785984,18.64633111,49.45025116,1.84275069,0.47216547,0.73043943

>  <Name>
ligand

>  <RI>
0

>  <Rbt.Current_Directory>
/home/itssahil/PROJECTS/Mol_Feturizer/New_Systems/rnas/2HOO

>  <Rbt.Executable>
rbdock ($Id: //depot/dev/client3/rdock/2013.1/src/exe/rbdock.cxx#4 $)

>  <Rbt.Library>
libRbt.so (2013.1, Build901 2013/11/27)

>  <Rbt.Parameter_File>
/export/apps/rDock/src/rDock_2013.1_src/data/scripts/dock_solv.prm

>  <Rbt.Receptor>
prm/pocket_docking_8.prm

>  <SCORE>
-30.6743

>  <SCORE.INTER>
-16.8247

>  <SCORE.INTER.CONST>
1

>  <SCORE.INTER.POLAR>
0

>  <SCORE.INTER.ROT>
12

>  <SCORE.INTER.SOLV>
13.1545

>  <SCORE.INTER.VDW>
-27.2013

>  <SCORE.INTER.norm>
-0.542734

>  <SCORE.INTRA>
-13.8495

>  <SCORE.INTRA.DIHEDRAL>
-1.12389

>  <SCORE.INTRA.DIHEDRAL.0>
14.6094

>  <SCORE.INTRA.POLAR>
0

>  <SCORE.INTRA.POLAR.0>
0

>  <SCORE.INTRA.REPUL>
0

>  <SCORE.INTRA.REPUL.0>
0

>  <SCORE.INTRA.SOLV>
0.923023

>  <SCORE.INTRA.SOLV.lig_0>
-65.6478

>  <SCORE.INTRA.VDW>
-13.7491

>  <SCORE.INTRA.VDW.0>
9.35535

>  <SCORE.INTRA.norm>
-0.446759

>  <SCORE.RESTR>
0

>  <SCORE.RESTR.CAVITY>
0

>  <SCORE.RESTR.norm>
0

>  <SCORE.SYSTEM>
0

>  <SCORE.SYSTEM.CONST>
0

>  <SCORE.SYSTEM.DIHEDRAL>
0

>  <SCORE.SYSTEM.SOLV>
0

>  <SCORE.SYSTEM.norm>
0

>  <SCORE.heavy>
31

>  <SCORE.norm>
-0.989492

>  <RMSD>
6.971

$$$$
ligand
 OpenBabel11021811443D
libRbt.so/2013.1/901 2013/11/27
 31 32  0  0  0  0  0  0  0  0999 V2000
    1.8867   16.5206   54.6550 C   0  0  0  0  0  0  0  0  0  0  0  0
    1.5636   16.1192   53.2189 C   0  0  0  0  0  0  0  0  0  0  0  0
    1.2565   17.1230   52.2441 C   0  0  0  0  0  0  0  0  0  0  0  0
    0.9543   16.7442   50.9141 C   0  0  0  0  0  0  0  0  0  0  0  0
    0.9599   15.3791   50.5363 C   0  0  0  0  0  0  0  0  0  0  0  0
    1.2657   14.3783   51.4809 C   0  0  0  0  0  0  0  0  0  0  0  0
    1.5669   14.7343   52.8077 C   0  0  0  0  0  0  0  0  0  0  0  0
    1.3313   15.9487   55.5925 O   0  0  0  0  0  0  0  0  0  0  0  0
    4.2502   21.6331   61.4731 C   0  0  0  0  0  0  0  0  0  0  0  0
    2.3504   20.6036   52.9697 C   0  0  0  0  0  0  0  0  0  0  0  0
    7.2712   20.3012   52.0232 P   0  0  1  0  0  0  0  0  0  0  0  0
    4.6539   22.0865   59.1567 N   0  0  0  0  0  0  0  0  0  0  0  0
    7.0162   21.7009   51.6322 O   0  0  0  0  0  0  0  0  0  0  0  0
    2.8005   17.5264   54.9178 S   0  0  0  0  0  0  0  0  0  0  0  0
    4.9633   21.2699   54.8641 C   0  0  0  0  0  0  0  0  0  0  0  0
    3.7839   21.5761   60.0935 C   0  0  0  0  0  0  0  0  0  0  0  0
    7.8647   19.4572   50.9510 O   0  5  0  0  0  0  0  0  0  0  0  0
    3.6985   20.8189   55.0535 N   0  0  0  0  0  0  0  0  0  0  0  0
    2.6241   21.0723   59.8086 N   0  0  0  0  0  0  0  0  0  0  0  0
    8.0273   20.2548   53.2961 O   0  0  0  0  0  0  0  0  0  0  0  0
    3.1950   19.9163   54.0081 C   0  0  2  0  0  0  0  0  0  0  0  0
    2.1909   21.0151   58.4977 C   0  0  0  0  0  0  0  0  0  0  0  0
    0.9925   20.4854   58.2406 N   0  0  0  0  0  0  0  0  0  0  0  0
    3.4510   18.4846   53.8835 C   0  0  1  0  0  0  0  0  0  0  0  0
    3.0574   21.5271   57.4475 C   0  0  0  0  0  0  0  0  0  0  0  0
    5.0047   22.2545   54.1596 O   0  0  0  0  0  0  0  0  0  0  0  0
    4.3097   17.8771   52.8316 C   0  0  0  0  0  0  0  0  0  0  0  0
    4.2670   22.0501   57.8574 C   0  0  0  0  0  0  0  0  0  0  0  0
    5.7337   18.2277   52.7615 C   0  0  0  0  0  0  0  0  0  0  0  0
    2.6577   21.4521   55.9940 C   0  0  0  0  0  0  0  0  0  0  0  0
    5.9070   19.5844   52.3165 O   0  0  0  0  0  0  0  0  0  0  0  0
  1  2  1  0  0  0  0
  1  8  2  0  0  0  0
  1 14  1  0  0  0  0
  2  3  2  0  0  0  0
  2  7  1  0  0  0  0
  3  4  1  0  0  0  0
  4  5  2  0  0  0  0
  5  6  1  0  0  0  0
  6  7  2  0  0  0  0
  9 16  1  0  0  0  0
 10 21  1  0  0  0  0
 11 13  1  6  0  0  0
 11 17  1  0  0  0  0
 11 20  2  0  0  0  0
 11 31  1  0  0  0  0
 12 16  2  0  0  0  0
 12 28  1  0  0  0  0
 15 26  1  0  0  0  0
 15 18  1  0  0  0  0
 16 19  1  0  0  0  0
 18 30  1  0  0  0  0
 19 22  2  0  0  0  0
 21 18  1  6  0  0  0
 21 24  1  0  0  0  0
 22 23  1  0  0  0  0
 22 25  1  0  0  0  0
 24 14  1  1  0  0  0
 24 27  1  0  0  0  0
 25 28  2  0  0  0  0
 25 30  1  0  0  0  0
 27 29  1  0  0  0  0
 29 31  1  0  0  0  0
M  CHG  1  17  -1
M  END
>  <CHROM.1>
131.52362580,8.86957948,117.80748796,85.50416765,-97.23512920,-59.10257082
-110.96314473,-117.59094509,-128.08135382,-70.25333071,-175.70622309,-178.11343526
3.81345917,19.35100988,54.58771218,1.61510672,-0.65238588,-2.11838583

>  <Name>
ligand

>  <RI>
0

>  <Rbt.Current_Directory>
/home/itssahil/PROJECTS/Mol_Feturizer/New_Systems/rnas/2HOO

>  <Rbt.Executable>
rbdock ($Id: //depot/dev/client3/rdock/2013.1/src/exe/rbdock.cxx#4 $)

>  <Rbt.Library>
libRbt.so (2013.1, Build901 2013/11/27)

>  <Rbt.Parameter_File>
/export/apps/rDock/src/rDock_2013.1_src/data/scripts/dock_solv.prm

>  <Rbt.Receptor>
prm/pocket_docking_8.prm

>  <SCORE>
-25.4902

>  <SCORE.INTER>
-10.0983

>  <SCORE.INTER.CONST>
1

>  <SCORE.INTER.POLAR>
0

>  <SCORE.INTER.ROT>
12

>  <SCORE.INTER.SOLV>
9.46702

>  <SCORE.INTER.VDW>
-21.4879

>  <SCORE.INTER.norm>
-0.325751

>  <SCORE.INTRA>
-15.3919

>  <SCORE.INTRA.DIHEDRAL>
-2.54772

>  <SCORE.INTRA.DIHEDRAL.0>
14.6094

>  <SCORE.INTRA.POLAR>
0

>  <SCORE.INTRA.POLAR.0>
0

>  <SCORE.INTRA.REPUL>
0

>  <SCORE.INTRA.REPUL.0>
0

>  <SCORE.INTRA.SOLV>
1.38313

>  <SCORE.INTRA.SOLV.lig_0>
-65.6478

>  <SCORE.INTRA.VDW>
-14.8096

>  <SCORE.INTRA.VDW.0>
9.35535

>  <SCORE.INTRA.norm>
-0.496514

>  <SCORE.RESTR>
0

>  <SCORE.RESTR.CAVITY>
0

>  <SCORE.RESTR.norm>
0

>  <SCORE.SYSTEM>
0

>  <SCORE.SYSTEM.CONST>
0

>  <SCORE.SYSTEM.DIHEDRAL>
0

>  <SCORE.SYSTEM.SOLV>
0

>  <SCORE.SYSTEM.norm>
0

>  <SCORE.heavy>
31

>  <SCORE.norm>
-0.822264

>  <RMSD>
6.971

$$$$
ligand
 OpenBabel11021811443D
libRbt.so/2013.1/901 2013/11/27
 31 32  0  0  0  0  0  0  0  0999 V2000
    6.8018   21.5678   51.7307 C   0  0  0  0  0  0  0  0  0  0  0  0
    7.4627   22.9000   52.0720 C   0  0  0  0  0  0  0  0  0  0  0  0
    6.8342   24.1311   51.6956 C   0  0  0  0  0  0  0  0  0  0  0  0
    7.4539   25.3637   52.0121 C   0  0  0  0  0  0  0  0  0  0  0  0
    8.6888   25.3907   52.7053 C   0  0  0  0  0  0  0  0  0  0  0  0
    9.3185   24.1892   53.0888 C   0  0  0  0  0  0  0  0  0  0  0  0
    8.7197   22.9542   52.7820 C   0  0  0  0  0  0  0  0  0  0  0  0
    7.2235   20.8960   50.7898 O   0  0  0  0  0  0  0  0  0  0  0  0
    5.8896   12.2017   49.4815 C   0  0  0  0  0  0  0  0  0  0  0  0
    4.4982   18.4083   53.3875 C   0  0  0  0  0  0  0  0  0  0  0  0
    2.2915   23.9931   53.9839 P   0  0  1  0  0  0  0  0  0  0  0  0
    4.3891   13.9853   50.0307 N   0  0  0  0  0  0  0  0  0  0  0  0
    3.1609   25.1270   54.3517 O   0  0  0  0  0  0  0  0  0  0  0  0
    5.7271   21.1037   52.4693 S   0  0  0  0  0  0  0  0  0  0  0  0
    2.3643   17.9500   51.0083 C   0  0  0  0  0  0  0  0  0  0  0  0
    5.6310   13.6343   49.5515 C   0  0  0  0  0  0  0  0  0  0  0  0
    1.9945   23.0536   55.0990 O   0  5  0  0  0  0  0  0  0  0  0  0
    3.7088   18.1236   51.0419 N   0  0  0  0  0  0  0  0  0  0  0  0
    6.5331   14.4873   49.1791 N   0  0  0  0  0  0  0  0  0  0  0  0
    1.0794   24.4822   53.2869 O   0  0  0  0  0  0  0  0  0  0  0  0
    4.1915   19.0605   52.0667 C   0  0  2  0  0  0  0  0  0  0  0  0
    6.2838   15.8444   49.2544 C   0  0  0  0  0  0  0  0  0  0  0  0
    7.2376   16.6943   48.8663 N   0  0  0  0  0  0  0  0  0  0  0  0
    4.4109   20.4955   51.9136 C   0  0  1  0  0  0  0  0  0  0  0  0
    4.9964   16.2963   49.7587 C   0  0  0  0  0  0  0  0  0  0  0  0
    1.9871   17.0940   51.7779 O   0  0  0  0  0  0  0  0  0  0  0  0
    3.4458   21.4248   51.2671 C   0  0  0  0  0  0  0  0  0  0  0  0
    4.1034   15.3080   50.1203 C   0  0  0  0  0  0  0  0  0  0  0  0
    2.4302   22.1031   52.0821 C   0  0  0  0  0  0  0  0  0  0  0  0
    4.6825   17.7652   49.9051 C   0  0  0  0  0  0  0  0  0  0  0  0
    3.0348   23.0802   52.9472 O   0  0  0  0  0  0  0  0  0  0  0  0
  1  2  1  0  0  0  0
  1  8  2  0  0  0  0
  1 14  1  0  0  0  0
  2  3  2  0  0  0  0
  2  7  1  0  0  0  0
  3  4  1  0  0  0  0
  4  5  2  0  0  0  0
  5  6  1  0  0  0  0
  6  7  2  0  0  0  0
  9 16  1  0  0  0  0
 10 21  1  0  0  0  0
 11 13  1  1  0  0  0
 11 17  1  0  0  0  0
 11 20  2  0  0  0  0
 11 31  1  0  0  0  0
 12 16  2  0  0  0  0
 12 28  1  0  0  0  0
 15 26  1  0  0  0  0
 15 18  1  0  0  0  0
 16 19  1  0  0  0  0
 18 30  1  0  0  0  0
 19 22  2  0  0  0  0
 21 18  1  6  0  0  0
 21 24  1  0  0  0  0
 22 23  1  0  0  0  0
 22 25  1  0  0  0  0
 24 14  1  1  0  0  0
 24 27  1  0  0  0  0
 25 28  2  0  0  0  0
 25 30  1  0  0  0  0
 27 29  1  0  0  0  0
 29 31  1  0  0  0  0
M  CHG  1  17  -1
M  END
>  <CHROM.1>
102.96905937,134.61871635,108.01388431,-86.36834261,89.82734684,-76.67215465
44.43360429,-88.37676567,-149.54514166,69.29357677,-178.93073178,-162.12227270
4.83762106,20.17024401,51.77278943,-1.63828556,-0.24941893,-2.79561029

>  <Name>
ligand

>  <RI>
0

>  <Rbt.Current_Directory>
/home/itssahil/PROJECTS/Mol_Feturizer/New_Systems/rnas/2HOO

>  <Rbt.Executable>
rbdock ($Id: //depot/dev/client3/rdock/2013.1/src/exe/rbdock.cxx#4 $)

>  <Rbt.Library>
libRbt.so (2013.1, Build901 2013/11/27)

>  <Rbt.Parameter_File>
/export/apps/rDock/src/rDock_2013.1_src/data/scripts/dock_solv.prm

>  <Rbt.Receptor>
prm/pocket_docking_5.prm

>  <SCORE>
-30.2913

>  <SCORE.INTER>
-17.5282

>  <SCORE.INTER.CONST>
1

>  <SCORE.INTER.POLAR>
0

>  <SCORE.INTER.ROT>
12

>  <SCORE.INTER.SOLV>
9.56868

>  <SCORE.INTER.VDW>
-26.4751

>  <SCORE.INTER.norm>
-0.565427

>  <SCORE.INTRA>
-12.7631

>  <SCORE.INTRA.DIHEDRAL>
2.26317

>  <SCORE.INTRA.DIHEDRAL.0>
14.6094

>  <SCORE.INTRA.POLAR>
0

>  <SCORE.INTRA.POLAR.0>
0

>  <SCORE.INTRA.REPUL>
0

>  <SCORE.INTRA.REPUL.0>
0

>  <SCORE.INTRA.SOLV>
-0.371986

>  <SCORE.INTRA.SOLV.lig_0>
-65.6478

>  <SCORE.INTRA.VDW>
-13.7086

>  <SCORE.INTRA.VDW.0>
9.35535

>  <SCORE.INTRA.norm>
-0.411711

>  <SCORE.RESTR>
0

>  <SCORE.RESTR.CAVITY>
0

>  <SCORE.RESTR.norm>
0

>  <SCORE.SYSTEM>
0

>  <SCORE.SYSTEM.CONST>
0

>  <SCORE.SYSTEM.DIHEDRAL>
0

>  <SCORE.SYSTEM.SOLV>
0

>  <SCORE.SYSTEM.norm>
0

>  <SCORE.heavy>
31

>  <SCORE.norm>
-0.977139

>  <RMSD>
6.997

$$$$
ligand
 OpenBabel11021811443D
libRbt.so/2013.1/901 2013/11/27
 31 32  0  0  0  0  0  0  0  0999 V2000
    5.7383   15.5901   47.0252 C   0  0  0  0  0  0  0  0  0  0  0  0
    5.8709   14.4280   48.0050 C   0  0  0  0  0  0  0  0  0  0  0  0
    4.8190   14.1504   48.9370 C   0  0  0  0  0  0  0  0  0  0  0  0
    4.9494   13.0730   49.8458 C   0  0  0  0  0  0  0  0  0  0  0  0
    6.1100   12.2610   49.8368 C   0  0  0  0  0  0  0  0  0  0  0  0
    7.1523   12.5159   48.9226 C   0  0  0  0  0  0  0  0  0  0  0  0
    7.0425   13.5828   48.0129 C   0  0  0  0  0  0  0  0  0  0  0  0
    5.6364   15.3681   45.8191 O   0  0  0  0  0  0  0  0  0  0  0  0
    9.1566   16.5097   42.2049 C   0  0  0  0  0  0  0  0  0  0  0  0
    7.7181   16.1510   50.5238 C   0  0  0  0  0  0  0  0  0  0  0  0
    5.7523   18.0060   52.8528 P   0  0  1  0  0  0  0  0  0  0  0  0
    8.7485   17.4078   44.3869 N   0  0  0  0  0  0  0  0  0  0  0  0
    6.7144   18.9416   52.2397 O   0  0  0  0  0  0  0  0  0  0  0  0
    5.7324   16.8979   47.4785 S   0  0  0  0  0  0  0  0  0  0  0  0
    9.4381   18.4824   49.1055 C   0  0  0  0  0  0  0  0  0  0  0  0
    9.3125   16.3916   43.6491 C   0  0  0  0  0  0  0  0  0  0  0  0
    6.3701   16.9466   53.6955 O   0  5  0  0  0  0  0  0  0  0  0  0
    8.8635   17.3388   48.6574 N   0  0  0  0  0  0  0  0  0  0  0  0
    9.9450   15.3847   44.1651 N   0  0  0  0  0  0  0  0  0  0  0  0
    4.6776   18.7561   53.5432 O   0  0  0  0  0  0  0  0  0  0  0  0
    7.5799   16.9972   49.2872 C   0  0  2  0  0  0  0  0  0  0  0  0
   10.0833   15.2754   45.5356 C   0  0  0  0  0  0  0  0  0  0  0  0
   10.7372   14.2226   46.0324 N   0  0  0  0  0  0  0  0  0  0  0  0
    6.2488   17.4081   48.8511 C   0  0  1  0  0  0  0  0  0  0  0  0
    9.5071   16.3059   46.3852 C   0  0  0  0  0  0  0  0  0  0  0  0
    9.0894   19.4557   48.4742 O   0  0  0  0  0  0  0  0  0  0  0  0
    5.3507   18.2996   49.6331 C   0  0  0  0  0  0  0  0  0  0  0  0
    8.8620   17.3393   45.7365 C   0  0  0  0  0  0  0  0  0  0  0  0
    4.3773   17.7169   50.5650 C   0  0  0  0  0  0  0  0  0  0  0  0
    9.5880   16.2185   47.8898 C   0  0  0  0  0  0  0  0  0  0  0  0
    5.0353   17.1821   51.7268 O   0  0  0  0  0  0  0  0  0  0  0  0
  1  2  1  0  0  0  0
  1  8  2  0  0  0  0
  1 14  1  0  0  0  0
  2  3  2  0  0  0  0
  2  7  1  0  0  0  0
  3  4  1  0  0  0  0
  4  5  2  0  0  0  0
  5  6  1  0  0  0  0
  6  7  2  0  0  0  0
  9 16  1  0  0  0  0
 10 21  1  0  0  0  0
 11 13  1  6  0  0  0
 11 17  1  0  0  0  0
 11 20  2  0  0  0  0
 11 31  1  0  0  0  0
 12 16  2  0  0  0  0
 12 28  1  0  0  0  0
 15 26  1  0  0  0  0
 15 18  1  0  0  0  0
 16 19  1  0  0  0  0
 18 30  1  0  0  0  0
 19 22  2  0  0  0  0
 21 18  1  1  0  0  0
 21 24  1  0  0  0  0
 22 23  1  0  0  0  0
 22 25  1  0  0  0  0
 24 14  1  6  0  0  0
 24 27  1  0  0  0  0
 25 28  2  0  0  0  0
 25 30  1  0  0  0  0
 27 29  1  0  0  0  0
 29 31  1  0  0  0  0
M  CHG  1  17  -1
M  END
>  <CHROM.1>
-112.88888214,19.07274466,49.67812718,-89.71668176,-89.51245626,-94.23540234
-116.32192223,88.63186963,-176.61067540,71.93183216,69.13938959,-51.67090615
7.16160539,16.48008132,48.58560872,0.82169299,-0.90234940,-2.42307893

>  <Name>
ligand

>  <RI>
0

>  <Rbt.Current_Directory>
/home/itssahil/PROJECTS/Mol_Feturizer/New_Systems/rnas/2HOO

>  <Rbt.Executable>
rbdock ($Id: //depot/dev/client3/rdock/2013.1/src/exe/rbdock.cxx#4 $)

>  <Rbt.Library>
libRbt.so (2013.1, Build901 2013/11/27)

>  <Rbt.Parameter_File>
/export/apps/rDock/src/rDock_2013.1_src/data/scripts/dock_solv.prm

>  <Rbt.Receptor>
prm/pocket_docking_7.prm

>  <SCORE>
-25.5463

>  <SCORE.INTER>
-9.92004

>  <SCORE.INTER.CONST>
1

>  <SCORE.INTER.POLAR>
0

>  <SCORE.INTER.ROT>
12

>  <SCORE.INTER.SOLV>
18.1407

>  <SCORE.INTER.VDW>
-24.2602

>  <SCORE.INTER.norm>
-0.320001

>  <SCORE.INTRA>
-15.6262

>  <SCORE.INTRA.DIHEDRAL>
2.25284

>  <SCORE.INTRA.DIHEDRAL.0>
14.6094

>  <SCORE.INTRA.POLAR>
0

>  <SCORE.INTRA.POLAR.0>
0

>  <SCORE.INTRA.REPUL>
0

>  <SCORE.INTRA.REPUL.0>
0

>  <SCORE.INTRA.SOLV>
1.03129

>  <SCORE.INTRA.SOLV.lig_0>
-65.6478

>  <SCORE.INTRA.VDW>
-17.2683

>  <SCORE.INTRA.VDW.0>
9.35535

>  <SCORE.INTRA.norm>
-0.504072

>  <SCORE.RESTR>
0

>  <SCORE.RESTR.CAVITY>
0

>  <SCORE.RESTR.norm>
0

>  <SCORE.SYSTEM>
0

>  <SCORE.SYSTEM.CONST>
0

>  <SCORE.SYSTEM.DIHEDRAL>
0

>  <SCORE.SYSTEM.SOLV>
0

>  <SCORE.SYSTEM.norm>
0

>  <SCORE.heavy>
31

>  <SCORE.norm>
-0.824073

>  <RMSD>
7.007

$$$$
ligand
 OpenBabel11021811443D
libRbt.so/2013.1/901 2013/11/27
 31 32  0  0  0  0  0  0  0  0999 V2000
    8.8742   19.8010   54.0592 C   0  0  0  0  0  0  0  0  0  0  0  0
   10.3925   19.9514   54.0685 C   0  0  0  0  0  0  0  0  0  0  0  0
   10.9853   21.2555   54.0843 C   0  0  0  0  0  0  0  0  0  0  0  0
   12.3945   21.3885   54.0895 C   0  0  0  0  0  0  0  0  0  0  0  0
   13.2252   20.2412   54.0865 C   0  0  0  0  0  0  0  0  0  0  0  0
   12.6591   18.9502   54.0772 C   0  0  0  0  0  0  0  0  0  0  0  0
   11.2611   18.7970   54.0701 C   0  0  0  0  0  0  0  0  0  0  0  0
    8.1635   20.7179   54.4700 O   0  0  0  0  0  0  0  0  0  0  0  0
    7.0271   19.5925   43.7996 C   0  0  0  0  0  0  0  0  0  0  0  0
    7.9034   20.1477   50.6572 C   0  0  0  0  0  0  0  0  0  0  0  0
    3.0935   18.4087   54.6656 P   0  0  1  0  0  0  0  0  0  0  0  0
    7.2850   19.8315   46.1683 N   0  0  0  0  0  0  0  0  0  0  0  0
    1.6659   18.0595   54.7948 O   0  0  0  0  0  0  0  0  0  0  0  0
    8.2831   18.6394   53.5932 S   0  0  0  0  0  0  0  0  0  0  0  0
    8.6218   16.8218   50.1894 C   0  0  0  0  0  0  0  0  0  0  0  0
    6.8630   19.0280   45.1332 C   0  0  0  0  0  0  0  0  0  0  0  0
    3.4625   19.7292   55.2437 O   0  5  0  0  0  0  0  0  0  0  0  0
    7.6430   17.7483   50.0394 N   0  0  0  0  0  0  0  0  0  0  0  0
    6.3512   17.8479   45.2925 N   0  0  0  0  0  0  0  0  0  0  0  0
    3.9393   17.2948   55.1535 O   0  0  0  0  0  0  0  0  0  0  0  0
    7.5656   18.7530   51.1098 C   0  0  2  0  0  0  0  0  0  0  0  0
    6.1922   17.3214   46.5602 C   0  0  0  0  0  0  0  0  0  0  0  0
    5.6573   16.1045   46.6870 N   0  0  0  0  0  0  0  0  0  0  0  0
    7.1848   18.5289   52.5011 C   0  0  1  0  0  0  0  0  0  0  0  0
    6.6066   18.1132   47.7078 C   0  0  0  0  0  0  0  0  0  0  0  0
    9.3132   16.7124   49.2007 O   0  0  0  0  0  0  0  0  0  0  0  0
    5.8073   18.1871   52.9464 C   0  0  0  0  0  0  0  0  0  0  0  0
    7.1472   19.3521   47.4293 C   0  0  0  0  0  0  0  0  0  0  0  0
    4.6917   19.0828   52.6164 C   0  0  0  0  0  0  0  0  0  0  0  0
    6.4179   17.6098   49.1181 C   0  0  0  0  0  0  0  0  0  0  0  0
    3.4541   18.5790   53.1485 O   0  0  0  0  0  0  0  0  0  0  0  0
  1  2  1  0  0  0  0
  1  8  2  0  0  0  0
  1 14  1  0  0  0  0
  2  3  2  0  0  0  0
  2  7  1  0  0  0  0
  3  4  1  0  0  0  0
  4  5  2  0  0  0  0
  5  6  1  0  0  0  0
  6  7  2  0  0  0  0
  9 16  1  0  0  0  0
 10 21  1  0  0  0  0
 11 13  1  1  0  0  0
 11 17  1  0  0  0  0
 11 20  2  0  0  0  0
 11 31  1  0  0  0  0
 12 16  2  0  0  0  0
 12 28  1  0  0  0  0
 15 26  1  0  0  0  0
 15 18  1  0  0  0  0
 16 19  1  0  0  0  0
 18 30  1  0  0  0  0
 19 22  2  0  0  0  0
 21 18  1  6  0  0  0
 21 24  1  0  0  0  0
 22 23  1  0  0  0  0
 22 25  1  0  0  0  0
 24 14  1  6  0  0  0
 24 27  1  0  0  0  0
 25 28  2  0  0  0  0
 25 30  1  0  0  0  0
 27 29  1  0  0  0  0
 29 31  1  0  0  0  0
M  CHG  1  17  -1
M  END
>  <CHROM.1>
-22.35384697,-126.51312005,73.21627527,-128.73507700,113.73960720,-89.38062114
-71.43314617,123.33610667,132.85515546,-179.41159625,64.73671137,171.41841488
7.12621857,18.73879293,51.44312368,-1.55154651,-0.19898911,-1.68473667

>  <Name>
ligand

>  <RI>
0

>  <Rbt.Current_Directory>
/home/itssahil/PROJECTS/Mol_Feturizer/New_Systems/rnas/2HOO

>  <Rbt.Executable>
rbdock ($Id: //depot/dev/client3/rdock/2013.1/src/exe/rbdock.cxx#4 $)

>  <Rbt.Library>
libRbt.so (2013.1, Build901 2013/11/27)

>  <Rbt.Parameter_File>
/export/apps/rDock/src/rDock_2013.1_src/data/scripts/dock_solv.prm

>  <Rbt.Receptor>
prm/pocket_docking_8.prm

>  <SCORE>
-32.1173

>  <SCORE.INTER>
-19.6741

>  <SCORE.INTER.CONST>
1

>  <SCORE.INTER.POLAR>
0

>  <SCORE.INTER.ROT>
12

>  <SCORE.INTER.SOLV>
18.4814

>  <SCORE.INTER.VDW>
-30.8765

>  <SCORE.INTER.norm>
-0.634647

>  <SCORE.INTRA>
-12.4433

>  <SCORE.INTRA.DIHEDRAL>
1.39562

>  <SCORE.INTRA.DIHEDRAL.0>
14.6094

>  <SCORE.INTRA.POLAR>
0

>  <SCORE.INTRA.POLAR.0>
0

>  <SCORE.INTRA.REPUL>
0

>  <SCORE.INTRA.REPUL.0>
0

>  <SCORE.INTRA.SOLV>
1.23217

>  <SCORE.INTRA.SOLV.lig_0>
-65.6478

>  <SCORE.INTRA.VDW>
-13.7572

>  <SCORE.INTRA.VDW.0>
9.35535

>  <SCORE.INTRA.norm>
-0.401396

>  <SCORE.RESTR>
0

>  <SCORE.RESTR.CAVITY>
0

>  <SCORE.RESTR.norm>
0

>  <SCORE.SYSTEM>
0

>  <SCORE.SYSTEM.CONST>
0

>  <SCORE.SYSTEM.DIHEDRAL>
0

>  <SCORE.SYSTEM.SOLV>
0

>  <SCORE.SYSTEM.norm>
0

>  <SCORE.heavy>
31

>  <SCORE.norm>
-1.03604

>  <RMSD>
7.015

$$$$
ligand
 OpenBabel11021811443D
libRbt.so/2013.1/901 2013/11/27
 31 32  0  0  0  0  0  0  0  0999 V2000
    0.6409   18.1802   51.8983 C   0  0  0  0  0  0  0  0  0  0  0  0
    1.1131   16.7302   51.8472 C   0  0  0  0  0  0  0  0  0  0  0  0
    0.9442   15.8790   52.9871 C   0  0  0  0  0  0  0  0  0  0  0  0
    1.3874   14.5357   52.9348 C   0  0  0  0  0  0  0  0  0  0  0  0
    1.9910   14.0228   51.7605 C   0  0  0  0  0  0  0  0  0  0  0  0
    2.1596   14.8442   50.6274 C   0  0  0  0  0  0  0  0  0  0  0  0
    1.7276   16.1822   50.6601 C   0  0  0  0  0  0  0  0  0  0  0  0
   -0.5586   18.4392   51.8056 O   0  0  0  0  0  0  0  0  0  0  0  0
    0.5168   24.0962   49.9533 C   0  0  0  0  0  0  0  0  0  0  0  0
    4.0046   18.2430   54.0584 C   0  0  0  0  0  0  0  0  0  0  0  0
    6.8904   16.8193   50.7934 P   0  0  1  0  0  0  0  0  0  0  0  0
    2.4257   22.7542   50.4914 N   0  0  0  0  0  0  0  0  0  0  0  0
    7.4862   16.5054   52.1061 O   0  0  0  0  0  0  0  0  0  0  0  0
    1.5498   19.2133   52.0468 S   0  0  0  0  0  0  0  0  0  0  0  0
    6.0597   20.4184   52.8303 C   0  0  0  0  0  0  0  0  0  0  0  0
    1.3824   23.5136   50.9709 C   0  0  0  0  0  0  0  0  0  0  0  0
    7.7460   17.6565   49.9095 O   0  5  0  0  0  0  0  0  0  0  0  0
    4.7931   20.4846   53.3101 N   0  0  0  0  0  0  0  0  0  0  0  0
    1.1528   23.7192   52.2299 N   0  0  0  0  0  0  0  0  0  0  0  0
    6.4047   15.5807   50.1421 O   0  0  0  0  0  0  0  0  0  0  0  0
    3.9498   19.3190   53.0080 C   0  0  2  0  0  0  0  0  0  0  0  0
    1.9814   23.1694   53.1893 C   0  0  0  0  0  0  0  0  0  0  0  0
    1.7174   23.4058   54.4767 N   0  0  0  0  0  0  0  0  0  0  0  0
    3.0874   19.1347   51.8447 C   0  0  1  0  0  0  0  0  0  0  0  0
    3.1122   22.3603   52.7623 C   0  0  0  0  0  0  0  0  0  0  0  0
    6.1419   20.7962   51.6823 O   0  0  0  0  0  0  0  0  0  0  0  0
    3.5850   18.8621   50.4696 C   0  0  0  0  0  0  0  0  0  0  0  0
    3.2630   22.1957   51.4003 C   0  0  0  0  0  0  0  0  0  0  0  0
    4.4123   17.6759   50.2161 C   0  0  0  0  0  0  0  0  0  0  0  0
    4.0769   21.7699   53.7617 C   0  0  0  0  0  0  0  0  0  0  0  0
    5.6188   17.7149   50.9980 O   0  0  0  0  0  0  0  0  0  0  0  0
  1  2  1  0  0  0  0
  1  8  2  0  0  0  0
  1 14  1  0  0  0  0
  2  3  2  0  0  0  0
  2  7  1  0  0  0  0
  3  4  1  0  0  0  0
  4  5  2  0  0  0  0
  5  6  1  0  0  0  0
  6  7  2  0  0  0  0
  9 16  1  0  0  0  0
 10 21  1  0  0  0  0
 11 13  1  1  0  0  0
 11 17  1  0  0  0  0
 11 20  2  0  0  0  0
 11 31  1  0  0  0  0
 12 16  2  0  0  0  0
 12 28  1  0  0  0  0
 15 26  1  0  0  0  0
 15 18  1  0  0  0  0
 16 19  1  0  0  0  0
 18 30  1  0  0  0  0
 19 22  2  0  0  0  0
 21 18  1  1  0  0  0
 21 24  1  0  0  0  0
 22 23  1  0  0  0  0
 22 25  1  0  0  0  0
 24 14  1  1  0  0  0
 24 27  1  0  0  0  0
 25 28  2  0  0  0  0
 25 30  1  0  0  0  0
 27 29  1  0  0  0  0
 29 31  1  0  0  0  0
M  CHG  1  17  -1
M  END
>  <CHROM.1>
-76.08445113,15.55218951,-113.71762487,85.10429254,90.50059527,100.39845683
71.00418491,-120.64029501,153.28294551,-60.12547699,-165.74950221,-144.67690843
3.44028287,19.09630932,51.78918342,2.02798078,0.10658719,0.09375913

>  <Name>
ligand

>  <RI>
0

>  <Rbt.Current_Directory>
/home/itssahil/PROJECTS/Mol_Feturizer/New_Systems/rnas/2HOO

>  <Rbt.Executable>
rbdock ($Id: //depot/dev/client3/rdock/2013.1/src/exe/rbdock.cxx#4 $)

>  <Rbt.Library>
libRbt.so (2013.1, Build901 2013/11/27)

>  <Rbt.Parameter_File>
/export/apps/rDock/src/rDock_2013.1_src/data/scripts/dock_solv.prm

>  <Rbt.Receptor>
prm/pocket_docking_5.prm

>  <SCORE>
-32.1415

>  <SCORE.INTER>
-14.849

>  <SCORE.INTER.CONST>
1

>  <SCORE.INTER.POLAR>
0

>  <SCORE.INTER.ROT>
12

>  <SCORE.INTER.SOLV>
10.2753

>  <SCORE.INTER.VDW>
-24.9244

>  <SCORE.INTER.norm>
-0.479

>  <SCORE.INTRA>
-17.2925

>  <SCORE.INTRA.DIHEDRAL>
-0.826545

>  <SCORE.INTRA.DIHEDRAL.0>
14.6094

>  <SCORE.INTRA.POLAR>
0

>  <SCORE.INTRA.POLAR.0>
0

>  <SCORE.INTRA.REPUL>
0

>  <SCORE.INTRA.REPUL.0>
0

>  <SCORE.INTRA.SOLV>
0.896553

>  <SCORE.INTRA.SOLV.lig_0>
-65.6478

>  <SCORE.INTRA.VDW>
-17.3275

>  <SCORE.INTRA.VDW.0>
9.35535

>  <SCORE.INTRA.norm>
-0.557821

>  <SCORE.RESTR>
0

>  <SCORE.RESTR.CAVITY>
0

>  <SCORE.RESTR.norm>
0

>  <SCORE.SYSTEM>
0

>  <SCORE.SYSTEM.CONST>
0

>  <SCORE.SYSTEM.DIHEDRAL>
0

>  <SCORE.SYSTEM.SOLV>
0

>  <SCORE.SYSTEM.norm>
0

>  <SCORE.heavy>
31

>  <SCORE.norm>
-1.03682

>  <RMSD>
7.026

$$$$
ligand
 OpenBabel11021811443D
libRbt.so/2013.1/901 2013/11/27
 31 32  0  0  0  0  0  0  0  0999 V2000
    2.7055   23.6766   52.0050 C   0  0  0  0  0  0  0  0  0  0  0  0
    1.3516   23.7366   51.3041 C   0  0  0  0  0  0  0  0  0  0  0  0
    0.1531   23.9090   52.0697 C   0  0  0  0  0  0  0  0  0  0  0  0
   -1.1003   23.9606   51.4139 C   0  0  0  0  0  0  0  0  0  0  0  0
   -1.1793   23.8502   50.0041 C   0  0  0  0  0  0  0  0  0  0  0  0
   -0.0098   23.6863   49.2342 C   0  0  0  0  0  0  0  0  0  0  0  0
    1.2449   23.6308   49.8672 C   0  0  0  0  0  0  0  0  0  0  0  0
    3.0662   24.6069   52.7252 O   0  0  0  0  0  0  0  0  0  0  0  0
    1.1981   15.7444   50.3262 C   0  0  0  0  0  0  0  0  0  0  0  0
    7.0781   22.1594   51.8588 C   0  0  0  0  0  0  0  0  0  0  0  0
    1.6549   20.1685   55.3260 P   0  0  1  0  0  0  0  0  0  0  0  0
    2.0990   17.8519   51.0198 N   0  0  0  0  0  0  0  0  0  0  0  0
    1.5484   20.3870   56.7813 O   0  0  0  0  0  0  0  0  0  0  0  0
    3.5381   22.5834   51.8388 S   0  0  0  0  0  0  0  0  0  0  0  0
    5.9557   19.1499   52.9431 C   0  0  0  0  0  0  0  0  0  0  0  0
    2.3065   16.6905   50.3103 C   0  0  0  0  0  0  0  0  0  0  0  0
    2.3117   18.8909   54.9383 O   0  5  0  0  0  0  0  0  0  0  0  0
    5.8698   19.9808   51.8748 N   0  0  0  0  0  0  0  0  0  0  0  0
    3.3958   16.4210   49.6616 N   0  0  0  0  0  0  0  0  0  0  0  0
    0.3381   20.3741   54.6796 O   0  0  0  0  0  0  0  0  0  0  0  0
    5.8171   21.4132   52.2013 C   0  0  2  0  0  0  0  0  0  0  0  0
    4.4455   17.3195   49.6563 C   0  0  0  0  0  0  0  0  0  0  0  0
    5.5542   17.0069   48.9810 N   0  0  0  0  0  0  0  0  0  0  0  0
    4.6928   22.1432   52.7790 C   0  0  1  0  0  0  0  0  0  0  0  0
    4.3069   18.5676   50.3903 C   0  0  0  0  0  0  0  0  0  0  0  0
    6.8647   19.4435   53.6880 O   0  0  0  0  0  0  0  0  0  0  0  0
    4.5829   22.5080   54.2170 C   0  0  0  0  0  0  0  0  0  0  0  0
    3.1047   18.7615   51.0399 C   0  0  0  0  0  0  0  0  0  0  0  0
    3.9281   21.5868   55.1542 C   0  0  0  0  0  0  0  0  0  0  0  0
    5.4348   19.5683   50.4573 C   0  0  0  0  0  0  0  0  0  0  0  0
    2.6040   21.2515   54.7037 O   0  0  0  0  0  0  0  0  0  0  0  0
  1  2  1  0  0  0  0
  1  8  2  0  0  0  0
  1 14  1  0  0  0  0
  2  3  2  0  0  0  0
  2  7  1  0  0  0  0
  3  4  1  0  0  0  0
  4  5  2  0  0  0  0
  5  6  1  0  0  0  0
  6  7  2  0  0  0  0
  9 16  1  0  0  0  0
 10 21  1  0  0  0  0
 11 13  1  1  0  0  0
 11 17  1  0  0  0  0
 11 20  2  0  0  0  0
 11 31  1  0  0  0  0
 12 16  2  0  0  0  0
 12 28  1  0  0  0  0
 15 26  1  0  0  0  0
 15 18  1  0  0  0  0
 16 19  1  0  0  0  0
 18 30  1  0  0  0  0
 19 22  2  0  0  0  0
 21 18  1  6  0  0  0
 21 24  1  0  0  0  0
 22 23  1  0  0  0  0
 22 25  1  0  0  0  0
 24 14  1  6  0  0  0
 24 27  1  0  0  0  0
 25 28  2  0  0  0  0
 25 30  1  0  0  0  0
 27 29  1  0  0  0  0
 29 31  1  0  0  0  0
M  CHG  1  17  -1
M  END
>  <CHROM.1>
-56.94106615,-159.16138335,-151.84104560,-52.55231118,108.22554465,38.88768100
98.48115797,90.30307889,-125.17712349,-54.67825203,171.94530817,51.30159493
3.08656053,20.68089232,52.28595225,2.26892988,-0.74190875,0.81942715

>  <Name>
ligand

>  <RI>
0

>  <Rbt.Current_Directory>
/home/itssahil/PROJECTS/Mol_Feturizer/New_Systems/rnas/2HOO

>  <Rbt.Executable>
rbdock ($Id: //depot/dev/client3/rdock/2013.1/src/exe/rbdock.cxx#4 $)

>  <Rbt.Library>
libRbt.so (2013.1, Build901 2013/11/27)

>  <Rbt.Parameter_File>
/export/apps/rDock/src/rDock_2013.1_src/data/scripts/dock_solv.prm

>  <Rbt.Receptor>
prm/pocket_docking_6.prm

>  <SCORE>
-27.2066

>  <SCORE.INTER>
-12.8986

>  <SCORE.INTER.CONST>
1

>  <SCORE.INTER.POLAR>
0

>  <SCORE.INTER.ROT>
12

>  <SCORE.INTER.SOLV>
10.2799

>  <SCORE.INTER.VDW>
-23.6257

>  <SCORE.INTER.norm>
-0.416085

>  <SCORE.INTRA>
-14.308

>  <SCORE.INTRA.DIHEDRAL>
0.0543452

>  <SCORE.INTRA.DIHEDRAL.0>
14.6094

>  <SCORE.INTRA.POLAR>
0

>  <SCORE.INTRA.POLAR.0>
0

>  <SCORE.INTRA.REPUL>
0

>  <SCORE.INTRA.REPUL.0>
0

>  <SCORE.INTRA.SOLV>
0.325653

>  <SCORE.INTRA.SOLV.lig_0>
-65.6478

>  <SCORE.INTRA.VDW>
-14.498

>  <SCORE.INTRA.VDW.0>
9.35535

>  <SCORE.INTRA.norm>
-0.461548

>  <SCORE.RESTR>
0

>  <SCORE.RESTR.CAVITY>
0

>  <SCORE.RESTR.norm>
0

>  <SCORE.SYSTEM>
0

>  <SCORE.SYSTEM.CONST>
0

>  <SCORE.SYSTEM.DIHEDRAL>
0

>  <SCORE.SYSTEM.SOLV>
0

>  <SCORE.SYSTEM.norm>
0

>  <SCORE.heavy>
31

>  <SCORE.norm>
-0.877633

>  <RMSD>
7.067

$$$$
ligand
 OpenBabel11021811443D
libRbt.so/2013.1/901 2013/11/27
 31 32  0  0  0  0  0  0  0  0999 V2000
    5.7277   12.7920   49.3041 C   0  0  0  0  0  0  0  0  0  0  0  0
    6.1213   12.6964   47.8330 C   0  0  0  0  0  0  0  0  0  0  0  0
    5.2029   12.1527   46.8774 C   0  0  0  0  0  0  0  0  0  0  0  0
    5.5751   12.0635   45.5146 C   0  0  0  0  0  0  0  0  0  0  0  0
    6.8474   12.5146   45.0856 C   0  0  0  0  0  0  0  0  0  0  0  0
    7.7614   13.0581   46.0111 C   0  0  0  0  0  0  0  0  0  0  0  0
    7.4111   13.1536   47.3698 C   0  0  0  0  0  0  0  0  0  0  0  0
    6.2361   12.0309   50.1267 O   0  0  0  0  0  0  0  0  0  0  0  0
    2.9709   20.6234   56.1489 C   0  0  0  0  0  0  0  0  0  0  0  0
    2.7158   15.8944   50.7331 C   0  0  0  0  0  0  0  0  0  0  0  0
    2.6937   14.5682   45.3553 P   0  0  1  0  0  0  0  0  0  0  0  0
    3.0344   18.6216   54.8362 N   0  0  0  0  0  0  0  0  0  0  0  0
    1.7224   15.6769   45.4183 O   0  0  0  0  0  0  0  0  0  0  0  0
    4.8000   13.7282   49.7267 S   0  0  0  0  0  0  0  0  0  0  0  0
    4.2454   18.5486   50.1708 C   0  0  0  0  0  0  0  0  0  0  0  0
    3.6399   19.8221   55.1318 C   0  0  0  0  0  0  0  0  0  0  0  0
    2.1078   13.2185   45.5772 O   0  5  0  0  0  0  0  0  0  0  0  0
    4.6877   17.4164   50.7720 N   0  0  0  0  0  0  0  0  0  0  0  0
    4.7277   20.2448   54.5678 N   0  0  0  0  0  0  0  0  0  0  0  0
    3.5006   14.6640   44.1168 O   0  0  0  0  0  0  0  0  0  0  0  0
    4.1142   16.1677   50.2494 C   0  0  2  0  0  0  0  0  0  0  0  0
    5.3532   19.4831   53.5993 C   0  0  0  0  0  0  0  0  0  0  0  0
    6.4696   19.9517   53.0364 N   0  0  0  0  0  0  0  0  0  0  0  0
    4.7449   15.2278   49.3277 C   0  0  1  0  0  0  0  0  0  0  0  0
    4.7700   18.2042   53.2248 C   0  0  0  0  0  0  0  0  0  0  0  0
    3.3225   19.0603   50.7657 O   0  0  0  0  0  0  0  0  0  0  0  0
    5.3545   15.6138   48.0268 C   0  0  0  0  0  0  0  0  0  0  0  0
    3.6166   17.8427   53.8909 C   0  0  0  0  0  0  0  0  0  0  0  0
    4.4928   15.8684   46.8656 C   0  0  0  0  0  0  0  0  0  0  0  0
    5.3833   17.3485   52.1433 C   0  0  0  0  0  0  0  0  0  0  0  0
    3.7170   14.7029   46.5367 O   0  0  0  0  0  0  0  0  0  0  0  0
  1  2  1  0  0  0  0
  1  8  2  0  0  0  0
  1 14  1  0  0  0  0
  2  3  2  0  0  0  0
  2  7  1  0  0  0  0
  3  4  1  0  0  0  0
  4  5  2  0  0  0  0
  5  6  1  0  0  0  0
  6  7  2  0  0  0  0
  9 16  1  0  0  0  0
 10 21  1  0  0  0  0
 11 13  1  1  0  0  0
 11 17  1  0  0  0  0
 11 20  2  0  0  0  0
 11 31  1  0  0  0  0
 12 16  2  0  0  0  0
 12 28  1  0  0  0  0
 15 26  1  0  0  0  0
 15 18  1  0  0  0  0
 16 19  1  0  0  0  0
 18 30  1  0  0  0  0
 19 22  2  0  0  0  0
 21 18  1  6  0  0  0
 21 24  1  0  0  0  0
 22 23  1  0  0  0  0
 22 25  1  0  0  0  0
 24 14  1  1  0  0  0
 24 27  1  0  0  0  0
 25 28  2  0  0  0  0
 25 30  1  0  0  0  0
 27 29  1  0  0  0  0
 29 31  1  0  0  0  0
M  CHG  1  17  -1
M  END
>  <CHROM.1>
107.51832805,-45.49214089,-154.00954016,95.03561570,-77.47333461,43.13367287
-53.53788787,102.20426325,-101.08799748,-59.76244315,-179.25130589,-52.57732582
4.46464851,15.80095684,49.42953141,-1.51302129,-0.72045009,0.97612406

>  <Name>
ligand

>  <RI>
0

>  <Rbt.Current_Directory>
/home/itssahil/PROJECTS/Mol_Feturizer/New_Systems/rnas/2HOO

>  <Rbt.Executable>
rbdock ($Id: //depot/dev/client3/rdock/2013.1/src/exe/rbdock.cxx#4 $)

>  <Rbt.Library>
libRbt.so (2013.1, Build901 2013/11/27)

>  <Rbt.Parameter_File>
/export/apps/rDock/src/rDock_2013.1_src/data/scripts/dock_solv.prm

>  <Rbt.Receptor>
prm/pocket_docking_8.prm

>  <SCORE>
-20.7613

>  <SCORE.INTER>
-6.59577

>  <SCORE.INTER.CONST>
1

>  <SCORE.INTER.POLAR>
0

>  <SCORE.INTER.ROT>
12

>  <SCORE.INTER.SOLV>
11.4137

>  <SCORE.INTER.VDW>
-19.8017

>  <SCORE.INTER.norm>
-0.212767

>  <SCORE.INTRA>
-14.1655

>  <SCORE.INTRA.DIHEDRAL>
0.486459

>  <SCORE.INTRA.DIHEDRAL.0>
14.6094

>  <SCORE.INTRA.POLAR>
0

>  <SCORE.INTRA.POLAR.0>
0

>  <SCORE.INTRA.REPUL>
0

>  <SCORE.INTRA.REPUL.0>
0

>  <SCORE.INTRA.SOLV>
1.43312

>  <SCORE.INTRA.SOLV.lig_0>
-65.6478

>  <SCORE.INTRA.VDW>
-15.1253

>  <SCORE.INTRA.VDW.0>
9.35535

>  <SCORE.INTRA.norm>
-0.456953

>  <SCORE.RESTR>
0

>  <SCORE.RESTR.CAVITY>
0

>  <SCORE.RESTR.norm>
0

>  <SCORE.SYSTEM>
0

>  <SCORE.SYSTEM.CONST>
0

>  <SCORE.SYSTEM.DIHEDRAL>
0

>  <SCORE.SYSTEM.SOLV>
0

>  <SCORE.SYSTEM.norm>
0

>  <SCORE.heavy>
31

>  <SCORE.norm>
-0.66972

>  <RMSD>
7.068

$$$$
ligand
 OpenBabel11021811443D
libRbt.so/2013.1/901 2013/11/27
 31 32  0  0  0  0  0  0  0  0999 V2000
    1.1641   20.8209   56.2642 C   0  0  0  0  0  0  0  0  0  0  0  0
    2.1680   21.0288   57.3943 C   0  0  0  0  0  0  0  0  0  0  0  0
    3.5296   21.3577   57.0943 C   0  0  0  0  0  0  0  0  0  0  0  0
    4.4570   21.5460   58.1470 C   0  0  0  0  0  0  0  0  0  0  0  0
    4.0480   21.4190   59.4971 C   0  0  0  0  0  0  0  0  0  0  0  0
    2.7107   21.1019   59.8109 C   0  0  0  0  0  0  0  0  0  0  0  0
    1.7746   20.9091   58.7792 C   0  0  0  0  0  0  0  0  0  0  0  0
    0.0102   21.2315   56.3843 O   0  0  0  0  0  0  0  0  0  0  0  0
    8.5822   19.8547   48.5292 C   0  0  0  0  0  0  0  0  0  0  0  0
    1.6653   18.7319   51.9330 C   0  0  0  0  0  0  0  0  0  0  0  0
   -1.6847   24.8650   52.8094 P   0  0  1  0  0  0  0  0  0  0  0  0
    6.3881   19.3683   49.3561 N   0  0  0  0  0  0  0  0  0  0  0  0
   -3.1276   25.0146   52.5401 O   0  0  0  0  0  0  0  0  0  0  0  0
    1.5368   20.1716   55.1001 S   0  0  0  0  0  0  0  0  0  0  0  0
    2.7675   21.9029   51.2503 C   0  0  0  0  0  0  0  0  0  0  0  0
    7.5671   20.0502   49.5566 C   0  0  0  0  0  0  0  0  0  0  0  0
   -0.8022   25.2018   51.6596 O   0  5  0  0  0  0  0  0  0  0  0  0
    3.0838   20.7799   51.9415 N   0  0  0  0  0  0  0  0  0  0  0  0
    7.7962   20.8206   50.5734 N   0  0  0  0  0  0  0  0  0  0  0  0
   -1.3209   25.5729   54.0587 O   0  0  0  0  0  0  0  0  0  0  0  0
    1.9428   20.0776   52.5464 C   0  0  2  0  0  0  0  0  0  0  0  0
    6.8318   20.9963   51.5473 C   0  0  0  0  0  0  0  0  0  0  0  0
    7.1039   21.7937   52.5832 N   0  0  0  0  0  0  0  0  0  0  0  0
    1.1109   20.5403   53.6531 C   0  0  1  0  0  0  0  0  0  0  0  0
    5.5607   20.3023   51.4119 C   0  0  0  0  0  0  0  0  0  0  0  0
    2.9820   22.9135   51.8829 O   0  0  0  0  0  0  0  0  0  0  0  0
   -0.1341   21.3374   53.4870 C   0  0  0  0  0  0  0  0  0  0  0  0
    5.4144   19.5135   50.2888 C   0  0  0  0  0  0  0  0  0  0  0  0
   -0.0460   22.7730   53.1921 C   0  0  0  0  0  0  0  0  0  0  0  0
    4.4858   20.4203   52.4648 C   0  0  0  0  0  0  0  0  0  0  0  0
   -1.3563   23.3534   53.0701 O   0  0  0  0  0  0  0  0  0  0  0  0
  1  2  1  0  0  0  0
  1  8  2  0  0  0  0
  1 14  1  0  0  0  0
  2  3  2  0  0  0  0
  2  7  1  0  0  0  0
  3  4  1  0  0  0  0
  4  5  2  0  0  0  0
  5  6  1  0  0  0  0
  6  7  2  0  0  0  0
  9 16  1  0  0  0  0
 10 21  1  0  0  0  0
 11 13  1  6  0  0  0
 11 17  1  0  0  0  0
 11 20  2  0  0  0  0
 11 31  1  0  0  0  0
 12 16  2  0  0  0  0
 12 28  1  0  0  0  0
 15 26  1  0  0  0  0
 15 18  1  0  0  0  0
 16 19  1  0  0  0  0
 18 30  1  0  0  0  0
 19 22  2  0  0  0  0
 21 18  1  1  0  0  0
 21 24  1  0  0  0  0
 22 23  1  0  0  0  0
 22 25  1  0  0  0  0
 24 14  1  6  0  0  0
 24 27  1  0  0  0  0
 25 28  2  0  0  0  0
 25 30  1  0  0  0  0
 27 29  1  0  0  0  0
 29 31  1  0  0  0  0
M  CHG  1  17  -1
M  END
>  <CHROM.1>
-141.26050083,-140.67907882,158.41454432,100.91675352,112.63327466,-59.49232747
88.99922083,103.07410818,129.71276071,179.98837247,177.75066170,171.13375556
2.43117724,21.63947030,53.43506443,-2.74367781,0.48121902,-1.38445290

>  <Name>
ligand

>  <RI>
0

>  <Rbt.Current_Directory>
/home/itssahil/PROJECTS/Mol_Feturizer/New_Systems/rnas/2HOO

>  <Rbt.Executable>
rbdock ($Id: //depot/dev/client3/rdock/2013.1/src/exe/rbdock.cxx#4 $)

>  <Rbt.Library>
libRbt.so (2013.1, Build901 2013/11/27)

>  <Rbt.Parameter_File>
/export/apps/rDock/src/rDock_2013.1_src/data/scripts/dock_solv.prm

>  <Rbt.Receptor>
prm/pocket_docking_7.prm

>  <SCORE>
-26.1789

>  <SCORE.INTER>
-12.6627

>  <SCORE.INTER.CONST>
1

>  <SCORE.INTER.POLAR>
0

>  <SCORE.INTER.ROT>
12

>  <SCORE.INTER.SOLV>
17.4942

>  <SCORE.INTER.VDW>
-25.8732

>  <SCORE.INTER.norm>
-0.408475

>  <SCORE.INTRA>
-13.5162

>  <SCORE.INTRA.DIHEDRAL>
-0.388129

>  <SCORE.INTRA.DIHEDRAL.0>
14.6094

>  <SCORE.INTRA.POLAR>
0

>  <SCORE.INTRA.POLAR.0>
0

>  <SCORE.INTRA.REPUL>
0

>  <SCORE.INTRA.REPUL.0>
0

>  <SCORE.INTRA.SOLV>
0.276814

>  <SCORE.INTRA.SOLV.lig_0>
-65.6478

>  <SCORE.INTRA.VDW>
-13.4605

>  <SCORE.INTRA.VDW.0>
9.35535

>  <SCORE.INTRA.norm>
-0.436006

>  <SCORE.RESTR>
0

>  <SCORE.RESTR.CAVITY>
0

>  <SCORE.RESTR.norm>
0

>  <SCORE.SYSTEM>
0

>  <SCORE.SYSTEM.CONST>
0

>  <SCORE.SYSTEM.DIHEDRAL>
0

>  <SCORE.SYSTEM.SOLV>
0

>  <SCORE.SYSTEM.norm>
0

>  <SCORE.heavy>
31

>  <SCORE.norm>
-0.84448

>  <RMSD>
7.071

$$$$
ligand
 OpenBabel11021811443D
libRbt.so/2013.1/901 2013/11/27
 31 32  0  0  0  0  0  0  0  0999 V2000
    5.6923   17.0824   50.6608 C   0  0  0  0  0  0  0  0  0  0  0  0
    6.7176   17.8897   49.8701 C   0  0  0  0  0  0  0  0  0  0  0  0
    6.2947   18.7169   48.7797 C   0  0  0  0  0  0  0  0  0  0  0  0
    7.2511   19.4608   48.0479 C   0  0  0  0  0  0  0  0  0  0  0  0
    8.6243   19.3999   48.3895 C   0  0  0  0  0  0  0  0  0  0  0  0
    9.0577   18.5960   49.4634 C   0  0  0  0  0  0  0  0  0  0  0  0
    8.1232   17.8478   50.2016 C   0  0  0  0  0  0  0  0  0  0  0  0
    5.0641   16.1791   50.1094 O   0  0  0  0  0  0  0  0  0  0  0  0
   -0.1742   17.3729   51.7133 C   0  0  0  0  0  0  0  0  0  0  0  0
    4.3732   19.4844   54.4203 C   0  0  0  0  0  0  0  0  0  0  0  0
   10.4747   19.4002   53.8880 P   0  0  1  0  0  0  0  0  0  0  0  0
    2.0039   18.0834   51.0167 N   0  0  0  0  0  0  0  0  0  0  0  0
   11.8339   19.0718   54.3585 O   0  0  0  0  0  0  0  0  0  0  0  0
    5.4577   17.3558   51.9972 S   0  0  0  0  0  0  0  0  0  0  0  0
    6.4100   21.6310   52.6031 C   0  0  0  0  0  0  0  0  0  0  0  0
    0.8780   18.3807   51.7508 C   0  0  0  0  0  0  0  0  0  0  0  0
   10.0419   20.7955   54.1712 O   0  5  0  0  0  0  0  0  0  0  0  0
    5.2452   20.9367   52.5936 N   0  0  0  0  0  0  0  0  0  0  0  0
    0.7265   19.4684   52.4393 N   0  0  0  0  0  0  0  0  0  0  0  0
   10.3164   19.0109   52.4676 O   0  0  0  0  0  0  0  0  0  0  0  0
    5.2995   19.6185   53.2421 C   0  0  2  0  0  0  0  0  0  0  0  0
    1.7253   20.4229   52.4650 C   0  0  0  0  0  0  0  0  0  0  0  0
    1.5332   21.5333   53.1814 N   0  0  0  0  0  0  0  0  0  0  0  0
    6.1174   18.4761   52.8463 C   0  0  1  0  0  0  0  0  0  0  0  0
    2.9441   20.1864   51.7072 C   0  0  0  0  0  0  0  0  0  0  0  0
    6.8315   21.8158   53.7236 O   0  0  0  0  0  0  0  0  0  0  0  0
    7.5484   18.3045   53.2144 C   0  0  0  0  0  0  0  0  0  0  0  0
    3.0090   18.9939   51.0154 C   0  0  0  0  0  0  0  0  0  0  0  0
    7.9952   18.6323   54.5741 C   0  0  0  0  0  0  0  0  0  0  0  0
    4.0514   21.2110   51.6617 C   0  0  0  0  0  0  0  0  0  0  0  0
    9.4267   18.5424   54.6798 O   0  0  0  0  0  0  0  0  0  0  0  0
  1  2  1  0  0  0  0
  1  8  2  0  0  0  0
  1 14  1  0  0  0  0
  2  3  2  0  0  0  0
  2  7  1  0  0  0  0
  3  4  1  0  0  0  0
  4  5  2  0  0  0  0
  5  6  1  0  0  0  0
  6  7  2  0  0  0  0
  9 16  1  0  0  0  0
 10 21  1  0  0  0  0
 11 13  1  1  0  0  0
 11 17  1  0  0  0  0
 11 20  2  0  0  0  0
 11 31  1  0  0  0  0
 12 16  2  0  0  0  0
 12 28  1  0  0  0  0
 15 26  1  0  0  0  0
 15 18  1  0  0  0  0
 16 19  1  0  0  0  0
 18 30  1  0  0  0  0
 19 22  2  0  0  0  0
 21 18  1  6  0  0  0
 21 24  1  0  0  0  0
 22 23  1  0  0  0  0
 22 25  1  0  0  0  0
 24 14  1  1  0  0  0
 24 27  1  0  0  0  0
 25 28  2  0  0  0  0
 25 30  1  0  0  0  0
 27 29  1  0  0  0  0
 29 31  1  0  0  0  0
M  CHG  1  17  -1
M  END
>  <CHROM.1>
64.87768304,1.88014441,108.79504407,-57.70057744,118.70209359,171.84511138
80.32494585,-137.50039479,100.45536605,-173.49236116,61.91429184,175.75440099
6.07282414,19.11195320,52.16525153,-2.97738643,-0.05810901,1.05657696

>  <Name>
ligand

>  <RI>
0

>  <Rbt.Current_Directory>
/home/itssahil/PROJECTS/Mol_Feturizer/New_Systems/rnas/2HOO

>  <Rbt.Executable>
rbdock ($Id: //depot/dev/client3/rdock/2013.1/src/exe/rbdock.cxx#4 $)

>  <Rbt.Library>
libRbt.so (2013.1, Build901 2013/11/27)

>  <Rbt.Parameter_File>
/export/apps/rDock/src/rDock_2013.1_src/data/scripts/dock_solv.prm

>  <Rbt.Receptor>
prm/pocket_docking_3.prm

>  <SCORE>
-26.4527

>  <SCORE.INTER>
-12.44

>  <SCORE.INTER.CONST>
1

>  <SCORE.INTER.POLAR>
0

>  <SCORE.INTER.ROT>
12

>  <SCORE.INTER.SOLV>
16.5817

>  <SCORE.INTER.VDW>
-25.4206

>  <SCORE.INTER.norm>
-0.401291

>  <SCORE.INTRA>
-14.0369

>  <SCORE.INTRA.DIHEDRAL>
-2.08364

>  <SCORE.INTRA.DIHEDRAL.0>
14.6094

>  <SCORE.INTRA.POLAR>
0

>  <SCORE.INTRA.POLAR.0>
0

>  <SCORE.INTRA.REPUL>
0

>  <SCORE.INTRA.REPUL.0>
0

>  <SCORE.INTRA.SOLV>
4.84519

>  <SCORE.INTRA.SOLV.lig_0>
-65.6478

>  <SCORE.INTRA.VDW>
-15.4177

>  <SCORE.INTRA.VDW.0>
9.35535

>  <SCORE.INTRA.norm>
-0.452804

>  <SCORE.RESTR>
0.0242947

>  <SCORE.RESTR.CAVITY>
0.0242947

>  <SCORE.RESTR.norm>
0.0007837

>  <SCORE.SYSTEM>
0

>  <SCORE.SYSTEM.CONST>
0

>  <SCORE.SYSTEM.DIHEDRAL>
0

>  <SCORE.SYSTEM.SOLV>
0

>  <SCORE.SYSTEM.norm>
0

>  <SCORE.heavy>
31

>  <SCORE.norm>
-0.853311

>  <RMSD>
7.085

$$$$
ligand
 OpenBabel11021811443D
libRbt.so/2013.1/901 2013/11/27
 31 32  0  0  0  0  0  0  0  0999 V2000
    8.1776   18.8924   47.7909 C   0  0  0  0  0  0  0  0  0  0  0  0
    7.8185   18.7817   46.3121 C   0  0  0  0  0  0  0  0  0  0  0  0
    7.0814   19.8297   45.6713 C   0  0  0  0  0  0  0  0  0  0  0  0
    6.7483   19.7196   44.2999 C   0  0  0  0  0  0  0  0  0  0  0  0
    7.1445   18.5834   43.5526 C   0  0  0  0  0  0  0  0  0  0  0  0
    7.8755   17.5454   44.1653 C   0  0  0  0  0  0  0  0  0  0  0  0
    8.2146   17.6352   45.5273 C   0  0  0  0  0  0  0  0  0  0  0  0
    8.9308   18.0653   48.3038 O   0  0  0  0  0  0  0  0  0  0  0  0
    1.2429   16.1583   54.5941 C   0  0  0  0  0  0  0  0  0  0  0  0
    6.7159   18.3522   52.0203 C   0  0  0  0  0  0  0  0  0  0  0  0
    7.9946   24.3643   52.6746 P   0  0  1  0  0  0  0  0  0  0  0  0
    2.0816   16.2301   52.3523 N   0  0  0  0  0  0  0  0  0  0  0  0
    7.2707   25.1326   51.6438 O   0  0  0  0  0  0  0  0  0  0  0  0
    7.6628   19.9162   48.5671 S   0  0  0  0  0  0  0  0  0  0  0  0
    5.5500   17.1407   49.3218 C   0  0  0  0  0  0  0  0  0  0  0  0
    1.9546   16.8900   53.5538 C   0  0  0  0  0  0  0  0  0  0  0  0
    9.3228   24.9238   53.0449 O   0  5  0  0  0  0  0  0  0  0  0  0
    5.3222   18.3176   49.9558 N   0  0  0  0  0  0  0  0  0  0  0  0
    2.4207   18.0776   53.7826 N   0  0  0  0  0  0  0  0  0  0  0  0
    7.1146   24.1149   53.8397 O   0  0  0  0  0  0  0  0  0  0  0  0
    6.4900   18.8962   50.6357 C   0  0  2  0  0  0  0  0  0  0  0  0
    3.0886   18.7685   52.7896 C   0  0  0  0  0  0  0  0  0  0  0  0
    3.5515   19.9915   53.0593 N   0  0  0  0  0  0  0  0  0  0  0  0
    7.4183   19.8874   50.1003 C   0  0  1  0  0  0  0  0  0  0  0  0
    3.2568   18.1418   51.4877 C   0  0  0  0  0  0  0  0  0  0  0  0
    5.2090   17.1655   48.1596 O   0  0  0  0  0  0  0  0  0  0  0  0
    8.1616   20.8719   50.9316 C   0  0  0  0  0  0  0  0  0  0  0  0
    2.7313   16.8730   51.3505 C   0  0  0  0  0  0  0  0  0  0  0  0
    7.4403   21.9844   51.5623 C   0  0  0  0  0  0  0  0  0  0  0  0
    3.9387   18.8639   50.3513 C   0  0  0  0  0  0  0  0  0  0  0  0
    8.3584   22.9468   52.1097 O   0  0  0  0  0  0  0  0  0  0  0  0
  1  2  1  0  0  0  0
  1  8  2  0  0  0  0
  1 14  1  0  0  0  0
  2  3  2  0  0  0  0
  2  7  1  0  0  0  0
  3  4  1  0  0  0  0
  4  5  2  0  0  0  0
  5  6  1  0  0  0  0
  6  7  2  0  0  0  0
  9 16  1  0  0  0  0
 10 21  1  0  0  0  0
 11 13  1  6  0  0  0
 11 17  1  0  0  0  0
 11 20  2  0  0  0  0
 11 31  1  0  0  0  0
 12 16  2  0  0  0  0
 12 28  1  0  0  0  0
 15 26  1  0  0  0  0
 15 18  1  0  0  0  0
 16 19  1  0  0  0  0
 18 30  1  0  0  0  0
 19 22  2  0  0  0  0
 21 18  1  6  0  0  0
 21 24  1  0  0  0  0
 22 23  1  0  0  0  0
 22 25  1  0  0  0  0
 24 14  1  1  0  0  0
 24 27  1  0  0  0  0
 25 28  2  0  0  0  0
 25 30  1  0  0  0  0
 27 29  1  0  0  0  0
 29 31  1  0  0  0  0
M  CHG  1  17  -1
M  END
>  <CHROM.1>
-172.17148814,152.88264497,-60.76556871,-126.42253026,-84.48934121,71.27876864
149.21952075,109.62279569,109.96501370,-169.46407460,170.50713868,-55.64795729
6.18729800,19.76498490,50.29575429,-1.24022597,0.79323265,0.93381019

>  <Name>
ligand

>  <RI>
0

>  <Rbt.Current_Directory>
/home/itssahil/PROJECTS/Mol_Feturizer/New_Systems/rnas/2HOO

>  <Rbt.Executable>
rbdock ($Id: //depot/dev/client3/rdock/2013.1/src/exe/rbdock.cxx#4 $)

>  <Rbt.Library>
libRbt.so (2013.1, Build901 2013/11/27)

>  <Rbt.Parameter_File>
/export/apps/rDock/src/rDock_2013.1_src/data/scripts/dock_solv.prm

>  <Rbt.Receptor>
prm/pocket_docking_7.prm

>  <SCORE>
-26.6007

>  <SCORE.INTER>
-14.2025

>  <SCORE.INTER.CONST>
1

>  <SCORE.INTER.POLAR>
0

>  <SCORE.INTER.ROT>
12

>  <SCORE.INTER.SOLV>
14.7922

>  <SCORE.INTER.VDW>
-25.9991

>  <SCORE.INTER.norm>
-0.458146

>  <SCORE.INTRA>
-12.3981

>  <SCORE.INTRA.DIHEDRAL>
-0.0295185

>  <SCORE.INTRA.DIHEDRAL.0>
14.6094

>  <SCORE.INTRA.POLAR>
0

>  <SCORE.INTRA.POLAR.0>
0

>  <SCORE.INTRA.REPUL>
0

>  <SCORE.INTRA.REPUL.0>
0

>  <SCORE.INTRA.SOLV>
2.02788

>  <SCORE.INTRA.SOLV.lig_0>
-65.6478

>  <SCORE.INTRA.VDW>
-13.3973

>  <SCORE.INTRA.VDW.0>
9.35535

>  <SCORE.INTRA.norm>
-0.39994

>  <SCORE.RESTR>
0

>  <SCORE.RESTR.CAVITY>
0

>  <SCORE.RESTR.norm>
0

>  <SCORE.SYSTEM>
0

>  <SCORE.SYSTEM.CONST>
0

>  <SCORE.SYSTEM.DIHEDRAL>
0

>  <SCORE.SYSTEM.SOLV>
0

>  <SCORE.SYSTEM.norm>
0

>  <SCORE.heavy>
31

>  <SCORE.norm>
-0.858086

>  <RMSD>
7.086

$$$$
ligand
 OpenBabel11021811443D
libRbt.so/2013.1/901 2013/11/27
 31 32  0  0  0  0  0  0  0  0999 V2000
    2.6525   19.2048   51.1220 C   0  0  0  0  0  0  0  0  0  0  0  0
    2.3424   17.7619   50.7345 C   0  0  0  0  0  0  0  0  0  0  0  0
    3.2757   17.0131   49.9469 C   0  0  0  0  0  0  0  0  0  0  0  0
    2.9809   15.6760   49.5877 C   0  0  0  0  0  0  0  0  0  0  0  0
    1.7720   15.0686   50.0072 C   0  0  0  0  0  0  0  0  0  0  0  0
    0.8448   15.7885   50.7878 C   0  0  0  0  0  0  0  0  0  0  0  0
    1.1186   17.1186   51.1535 C   0  0  0  0  0  0  0  0  0  0  0  0
    1.7983   19.8858   51.6886 O   0  0  0  0  0  0  0  0  0  0  0  0
   -0.0910   24.2522   51.1842 C   0  0  0  0  0  0  0  0  0  0  0  0
    3.8176   20.1847   54.0297 C   0  0  0  0  0  0  0  0  0  0  0  0
    8.7123   17.9615   49.7079 P   0  0  1  0  0  0  0  0  0  0  0  0
    2.0053   23.1577   50.8075 N   0  0  0  0  0  0  0  0  0  0  0  0
    8.0643   16.8719   50.4627 O   0  0  0  0  0  0  0  0  0  0  0  0
    3.8886   19.7606   50.8413 S   0  0  0  0  0  0  0  0  0  0  0  0
    6.5967   21.6877   54.3431 C   0  0  0  0  0  0  0  0  0  0  0  0
    1.2756   23.9953   51.6206 C   0  0  0  0  0  0  0  0  0  0  0  0
   10.1847   17.8155   49.5511 O   0  5  0  0  0  0  0  0  0  0  0  0
    5.5587   21.8838   53.4928 N   0  0  0  0  0  0  0  0  0  0  0  0
    1.7355   24.5364   52.7050 N   0  0  0  0  0  0  0  0  0  0  0  0
    8.0031   18.1896   48.4275 O   0  0  0  0  0  0  0  0  0  0  0  0
    4.8662   20.6610   53.0613 C   0  0  2  0  0  0  0  0  0  0  0  0
    3.0343   24.2940   53.1094 C   0  0  0  0  0  0  0  0  0  0  0  0
    3.4759   24.8717   54.2293 N   0  0  0  0  0  0  0  0  0  0  0  0
    5.0812   19.9183   51.8231 C   0  0  1  0  0  0  0  0  0  0  0  0
    3.8731   23.4252   52.2985 C   0  0  0  0  0  0  0  0  0  0  0  0
    6.2492   21.6668   55.5034 O   0  0  0  0  0  0  0  0  0  0  0  0
    6.3724   19.2867   51.4402 C   0  0  0  0  0  0  0  0  0  0  0  0
    3.2853   22.8930   51.1688 C   0  0  0  0  0  0  0  0  0  0  0  0
    7.3740   20.0660   50.7018 C   0  0  0  0  0  0  0  0  0  0  0  0
    5.3125   23.1581   52.6655 C   0  0  0  0  0  0  0  0  0  0  0  0
    8.5781   19.3033   50.5092 O   0  0  0  0  0  0  0  0  0  0  0  0
  1  2  1  0  0  0  0
  1  8  2  0  0  0  0
  1 14  1  0  0  0  0
  2  3  2  0  0  0  0
  2  7  1  0  0  0  0
  3  4  1  0  0  0  0
  4  5  2  0  0  0  0
  5  6  1  0  0  0  0
  6  7  2  0  0  0  0
  9 16  1  0  0  0  0
 10 21  1  0  0  0  0
 11 13  1  1  0  0  0
 11 17  1  0  0  0  0
 11 20  2  0  0  0  0
 11 31  1  0  0  0  0
 12 16  2  0  0  0  0
 12 28  1  0  0  0  0
 15 26  1  0  0  0  0
 15 18  1  0  0  0  0
 16 19  1  0  0  0  0
 18 30  1  0  0  0  0
 19 22  2  0  0  0  0
 21 18  1  6  0  0  0
 21 24  1  0  0  0  0
 22 23  1  0  0  0  0
 22 25  1  0  0  0  0
 24 14  1  1  0  0  0
 24 27  1  0  0  0  0
 25 28  2  0  0  0  0
 25 30  1  0  0  0  0
 27 29  1  0  0  0  0
 29 31  1  0  0  0  0
M  CHG  1  17  -1
M  END
>  <CHROM.1>
173.14256896,-98.98729345,-57.04494686,-87.87482193,83.99521078,-153.57839528
59.32708616,92.32260385,94.72450304,176.16442690,62.19443690,-71.39581181
4.62053292,20.15505071,51.48556999,2.21584370,-0.00897238,0.43661757

>  <Name>
ligand

>  <RI>
0

>  <Rbt.Current_Directory>
/home/itssahil/PROJECTS/Mol_Feturizer/New_Systems/rnas/2HOO

>  <Rbt.Executable>
rbdock ($Id: //depot/dev/client3/rdock/2013.1/src/exe/rbdock.cxx#4 $)

>  <Rbt.Library>
libRbt.so (2013.1, Build901 2013/11/27)

>  <Rbt.Parameter_File>
/export/apps/rDock/src/rDock_2013.1_src/data/scripts/dock_solv.prm

>  <Rbt.Receptor>
prm/pocket_docking_6.prm

>  <SCORE>
-25.8754

>  <SCORE.INTER>
-13.9177

>  <SCORE.INTER.CONST>
1

>  <SCORE.INTER.POLAR>
0

>  <SCORE.INTER.ROT>
12

>  <SCORE.INTER.SOLV>
15.1561

>  <SCORE.INTER.VDW>
-25.9305

>  <SCORE.INTER.norm>
-0.448957

>  <SCORE.INTRA>
-11.9577

>  <SCORE.INTRA.DIHEDRAL>
3.50042

>  <SCORE.INTRA.DIHEDRAL.0>
14.6094

>  <SCORE.INTRA.POLAR>
0

>  <SCORE.INTRA.POLAR.0>
0

>  <SCORE.INTRA.REPUL>
0

>  <SCORE.INTRA.REPUL.0>
0

>  <SCORE.INTRA.SOLV>
1.19201

>  <SCORE.INTRA.SOLV.lig_0>
-65.6478

>  <SCORE.INTRA.VDW>
-14.3039

>  <SCORE.INTRA.VDW.0>
9.35535

>  <SCORE.INTRA.norm>
-0.385733

>  <SCORE.RESTR>
0

>  <SCORE.RESTR.CAVITY>
0

>  <SCORE.RESTR.norm>
0

>  <SCORE.SYSTEM>
0

>  <SCORE.SYSTEM.CONST>
0

>  <SCORE.SYSTEM.DIHEDRAL>
0

>  <SCORE.SYSTEM.SOLV>
0

>  <SCORE.SYSTEM.norm>
0

>  <SCORE.heavy>
31

>  <SCORE.norm>
-0.83469

>  <RMSD>
7.103

$$$$
ligand
 OpenBabel11021811443D
libRbt.so/2013.1/901 2013/11/27
 31 32  0  0  0  0  0  0  0  0999 V2000
    6.2924   22.1663   53.7416 C   0  0  0  0  0  0  0  0  0  0  0  0
    7.1294   23.3791   53.3459 C   0  0  0  0  0  0  0  0  0  0  0  0
    8.5556   23.3406   53.4745 C   0  0  0  0  0  0  0  0  0  0  0  0
    9.3265   24.4702   53.1089 C   0  0  0  0  0  0  0  0  0  0  0  0
    8.6992   25.6378   52.6094 C   0  0  0  0  0  0  0  0  0  0  0  0
    7.2974   25.6911   52.4704 C   0  0  0  0  0  0  0  0  0  0  0  0
    6.5138   24.5799   52.8299 C   0  0  0  0  0  0  0  0  0  0  0  0
    6.5104   21.5906   54.8072 O   0  0  0  0  0  0  0  0  0  0  0  0
    1.2703   14.6010   50.9626 C   0  0  0  0  0  0  0  0  0  0  0  0
    5.2708   17.8529   52.9946 C   0  0  0  0  0  0  0  0  0  0  0  0
    1.5898   20.4099   56.4546 P   0  0  1  0  0  0  0  0  0  0  0  0
    1.9026   16.9106   50.9666 N   0  0  0  0  0  0  0  0  0  0  0  0
    0.3422   20.6780   57.1953 O   0  0  0  0  0  0  0  0  0  0  0  0
    5.2864   21.7023   52.9119 S   0  0  0  0  0  0  0  0  0  0  0  0
    7.2124   19.2366   50.9946 C   0  0  0  0  0  0  0  0  0  0  0  0
    2.2505   15.6242   50.6215 C   0  0  0  0  0  0  0  0  0  0  0  0
    2.8161   20.9703   57.0841 O   0  5  0  0  0  0  0  0  0  0  0  0
    5.8571   19.1951   50.9793 N   0  0  0  0  0  0  0  0  0  0  0  0
    3.3612   15.3053   50.0343 N   0  0  0  0  0  0  0  0  0  0  0  0
    1.6970   18.9669   56.1374 O   0  0  0  0  0  0  0  0  0  0  0  0
    5.2182   19.1884   52.3033 C   0  0  2  0  0  0  0  0  0  0  0  0
    4.2892   16.2797   49.7198 C   0  0  0  0  0  0  0  0  0  0  0  0
    5.4243   15.9144   49.1190 N   0  0  0  0  0  0  0  0  0  0  0  0
    4.5887   20.3169   52.9822 C   0  0  1  0  0  0  0  0  0  0  0  0
    3.9987   17.6638   50.0599 C   0  0  0  0  0  0  0  0  0  0  0  0
    7.6619   20.0283   50.1955 O   0  0  0  0  0  0  0  0  0  0  0  0
    3.3200   20.2268   53.7537 C   0  0  0  0  0  0  0  0  0  0  0  0
    2.7857   17.8977   50.6751 C   0  0  0  0  0  0  0  0  0  0  0  0
    2.6670   21.4534   54.2277 C   0  0  0  0  0  0  0  0  0  0  0  0
    4.9918   18.7655   49.7811 C   0  0  0  0  0  0  0  0  0  0  0  0
    1.5422   21.1440   55.0690 O   0  0  0  0  0  0  0  0  0  0  0  0
  1  2  1  0  0  0  0
  1  8  2  0  0  0  0
  1 14  1  0  0  0  0
  2  3  2  0  0  0  0
  2  7  1  0  0  0  0
  3  4  1  0  0  0  0
  4  5  2  0  0  0  0
  5  6  1  0  0  0  0
  6  7  2  0  0  0  0
  9 16  1  0  0  0  0
 10 21  1  0  0  0  0
 11 13  1  1  0  0  0
 11 17  1  0  0  0  0
 11 20  2  0  0  0  0
 11 31  1  0  0  0  0
 12 16  2  0  0  0  0
 12 28  1  0  0  0  0
 15 26  1  0  0  0  0
 15 18  1  0  0  0  0
 16 19  1  0  0  0  0
 18 30  1  0  0  0  0
 19 22  2  0  0  0  0
 21 18  1  1  0  0  0
 21 24  1  0  0  0  0
 22 23  1  0  0  0  0
 22 25  1  0  0  0  0
 24 14  1  1  0  0  0
 24 27  1  0  0  0  0
 25 28  2  0  0  0  0
 25 30  1  0  0  0  0
 27 29  1  0  0  0  0
 29 31  1  0  0  0  0
M  CHG  1  17  -1
M  END
>  <CHROM.1>
46.38932134,163.95001396,-85.14707778,-135.41861239,-77.18926958,125.64837276
137.38316361,9.72382049,-98.33634884,-173.76885847,63.86158322,161.17095081
4.49974526,20.04437660,52.87281557,-0.95670168,-0.63576517,-2.40270302

>  <Name>
ligand

>  <RI>
0

>  <Rbt.Current_Directory>
/home/itssahil/PROJECTS/Mol_Feturizer/New_Systems/rnas/2HOO

>  <Rbt.Executable>
rbdock ($Id: //depot/dev/client3/rdock/2013.1/src/exe/rbdock.cxx#4 $)

>  <Rbt.Library>
libRbt.so (2013.1, Build901 2013/11/27)

>  <Rbt.Parameter_File>
/export/apps/rDock/src/rDock_2013.1_src/data/scripts/dock_solv.prm

>  <Rbt.Receptor>
prm/pocket_docking_6.prm

>  <SCORE>
-20.4094

>  <SCORE.INTER>
-10.0555

>  <SCORE.INTER.CONST>
1

>  <SCORE.INTER.POLAR>
0

>  <SCORE.INTER.ROT>
12

>  <SCORE.INTER.SOLV>
9.54639

>  <SCORE.INTER.VDW>
-21.4858

>  <SCORE.INTER.norm>
-0.324372

>  <SCORE.INTRA>
-10.3539

>  <SCORE.INTRA.DIHEDRAL>
-0.368054

>  <SCORE.INTRA.DIHEDRAL.0>
14.6094

>  <SCORE.INTRA.POLAR>
0

>  <SCORE.INTRA.POLAR.0>
0

>  <SCORE.INTRA.REPUL>
0

>  <SCORE.INTRA.REPUL.0>
0

>  <SCORE.INTRA.SOLV>
2.99665

>  <SCORE.INTRA.SOLV.lig_0>
-65.6478

>  <SCORE.INTRA.VDW>
-11.6682

>  <SCORE.INTRA.VDW.0>
9.35535

>  <SCORE.INTRA.norm>
-0.333997

>  <SCORE.RESTR>
0

>  <SCORE.RESTR.CAVITY>
0

>  <SCORE.RESTR.norm>
0

>  <SCORE.SYSTEM>
0

>  <SCORE.SYSTEM.CONST>
0

>  <SCORE.SYSTEM.DIHEDRAL>
0

>  <SCORE.SYSTEM.SOLV>
0

>  <SCORE.SYSTEM.norm>
0

>  <SCORE.heavy>
31

>  <SCORE.norm>
-0.658369

>  <RMSD>
7.105

$$$$
ligand
 OpenBabel11021811443D
libRbt.so/2013.1/901 2013/11/27
 31 32  0  0  0  0  0  0  0  0999 V2000
    6.6681   18.4722   50.6150 C   0  0  0  0  0  0  0  0  0  0  0  0
    5.7116   17.4445   50.0176 C   0  0  0  0  0  0  0  0  0  0  0  0
    5.0177   16.5272   50.8716 C   0  0  0  0  0  0  0  0  0  0  0  0
    4.1342   15.5738   50.3111 C   0  0  0  0  0  0  0  0  0  0  0  0
    3.9243   15.5236   48.9113 C   0  0  0  0  0  0  0  0  0  0  0  0
    4.5939   16.4225   48.0564 C   0  0  0  0  0  0  0  0  0  0  0  0
    5.4772   17.3759   48.5937 C   0  0  0  0  0  0  0  0  0  0  0  0
    7.7342   18.1053   51.1083 O   0  0  0  0  0  0  0  0  0  0  0  0
    1.1715   16.7735   51.2527 C   0  0  0  0  0  0  0  0  0  0  0  0
    4.9975   20.3131   53.7541 C   0  0  0  0  0  0  0  0  0  0  0  0
    9.9619   23.3355   53.5297 P   0  0  1  0  0  0  0  0  0  0  0  0
    2.8438   18.3918   50.6878 N   0  0  0  0  0  0  0  0  0  0  0  0
    9.1879   24.0014   52.4647 O   0  0  0  0  0  0  0  0  0  0  0  0
    6.3493   19.8191   50.6103 S   0  0  0  0  0  0  0  0  0  0  0  0
    4.9699   23.5273   52.7173 C   0  0  0  0  0  0  0  0  0  0  0  0
    1.6644   18.1414   51.3523 C   0  0  0  0  0  0  0  0  0  0  0  0
   11.4318   23.5550   53.4564 O   0  5  0  0  0  0  0  0  0  0  0  0
    4.4661   22.3165   52.3719 N   0  0  0  0  0  0  0  0  0  0  0  0
    1.0093   19.0320   52.0289 N   0  0  0  0  0  0  0  0  0  0  0  0
    9.3843   23.6518   54.8566 O   0  0  0  0  0  0  0  0  0  0  0  0
    5.3741   21.1798   52.5831 C   0  0  2  0  0  0  0  0  0  0  0  0
    1.4787   20.3288   52.1136 C   0  0  0  0  0  0  0  0  0  0  0  0
    0.7757   21.2210   52.8156 N   0  0  0  0  0  0  0  0  0  0  0  0
    6.5393   20.8232   51.7794 C   0  0  1  0  0  0  0  0  0  0  0  0
    2.7156   20.6753   51.4310 C   0  0  0  0  0  0  0  0  0  0  0  0
    5.0747   23.6618   53.9166 O   0  0  0  0  0  0  0  0  0  0  0  0
    7.9101   21.3511   52.0137 C   0  0  0  0  0  0  0  0  0  0  0  0
    3.3398   19.6526   50.7459 C   0  0  0  0  0  0  0  0  0  0  0  0
    8.6102   21.0310   53.2639 C   0  0  0  0  0  0  0  0  0  0  0  0
    3.2549   22.0847   51.4511 C   0  0  0  0  0  0  0  0  0  0  0  0
    9.8332   21.7798   53.3737 O   0  0  0  0  0  0  0  0  0  0  0  0
  1  2  1  0  0  0  0
  1  8  2  0  0  0  0
  1 14  1  0  0  0  0
  2  3  2  0  0  0  0
  2  7  1  0  0  0  0
  3  4  1  0  0  0  0
  4  5  2  0  0  0  0
  5  6  1  0  0  0  0
  6  7  2  0  0  0  0
  9 16  1  0  0  0  0
 10 21  1  0  0  0  0
 11 13  1  6  0  0  0
 11 17  1  0  0  0  0
 11 20  2  0  0  0  0
 11 31  1  0  0  0  0
 12 16  2  0  0  0  0
 12 28  1  0  0  0  0
 15 26  1  0  0  0  0
 15 18  1  0  0  0  0
 16 19  1  0  0  0  0
 18 30  1  0  0  0  0
 19 22  2  0  0  0  0
 21 18  1  6  0  0  0
 21 24  1  0  0  0  0
 22 23  1  0  0  0  0
 22 25  1  0  0  0  0
 24 14  1  1  0  0  0
 24 27  1  0  0  0  0
 25 28  2  0  0  0  0
 25 30  1  0  0  0  0
 27 29  1  0  0  0  0
 29 31  1  0  0  0  0
M  CHG  1  17  -1
M  END
>  <CHROM.1>
69.65390348,136.74460246,-101.08089832,-70.98102772,106.70029445,-168.38149039
86.36529251,-115.34354019,105.08917838,-172.09737292,66.12293877,-52.33428710
5.69003323,20.33708179,51.84430312,-2.38249434,0.03826317,0.53294035

>  <Name>
ligand

>  <RI>
0

>  <Rbt.Current_Directory>
/home/itssahil/PROJECTS/Mol_Feturizer/New_Systems/rnas/2HOO

>  <Rbt.Executable>
rbdock ($Id: //depot/dev/client3/rdock/2013.1/src/exe/rbdock.cxx#4 $)

>  <Rbt.Library>
libRbt.so (2013.1, Build901 2013/11/27)

>  <Rbt.Parameter_File>
/export/apps/rDock/src/rDock_2013.1_src/data/scripts/dock_solv.prm

>  <Rbt.Receptor>
prm/pocket_docking_5.prm

>  <SCORE>
-28.5336

>  <SCORE.INTER>
-12.4224

>  <SCORE.INTER.CONST>
1

>  <SCORE.INTER.POLAR>
0

>  <SCORE.INTER.ROT>
12

>  <SCORE.INTER.SOLV>
22.9633

>  <SCORE.INTER.VDW>
-27.536

>  <SCORE.INTER.norm>
-0.400723

>  <SCORE.INTRA>
-16.1112

>  <SCORE.INTRA.DIHEDRAL>
-0.480983

>  <SCORE.INTRA.DIHEDRAL.0>
14.6094

>  <SCORE.INTRA.POLAR>
0

>  <SCORE.INTRA.POLAR.0>
0

>  <SCORE.INTRA.REPUL>
0

>  <SCORE.INTRA.REPUL.0>
0

>  <SCORE.INTRA.SOLV>
0.76318

>  <SCORE.INTRA.SOLV.lig_0>
-65.6478

>  <SCORE.INTRA.VDW>
-16.2523

>  <SCORE.INTRA.VDW.0>
9.35535

>  <SCORE.INTRA.norm>
-0.519717

>  <SCORE.RESTR>
0

>  <SCORE.RESTR.CAVITY>
0

>  <SCORE.RESTR.norm>
0

>  <SCORE.SYSTEM>
0

>  <SCORE.SYSTEM.CONST>
0

>  <SCORE.SYSTEM.DIHEDRAL>
0

>  <SCORE.SYSTEM.SOLV>
0

>  <SCORE.SYSTEM.norm>
0

>  <SCORE.heavy>
31

>  <SCORE.norm>
-0.92044

>  <RMSD>
7.108

$$$$
ligand
 OpenBabel11021811443D
libRbt.so/2013.1/901 2013/11/27
 31 32  0  0  0  0  0  0  0  0999 V2000
    8.4773   18.5276   53.9747 C   0  0  0  0  0  0  0  0  0  0  0  0
    9.7176   19.4154   54.0136 C   0  0  0  0  0  0  0  0  0  0  0  0
   11.0174   18.8283   54.1480 C   0  0  0  0  0  0  0  0  0  0  0  0
   12.1641   19.6574   54.1869 C   0  0  0  0  0  0  0  0  0  0  0  0
   12.0378   21.0645   54.0866 C   0  0  0  0  0  0  0  0  0  0  0  0
   10.7672   21.6591   53.9478 C   0  0  0  0  0  0  0  0  0  0  0  0
    9.6156   20.8526   53.9090 C   0  0  0  0  0  0  0  0  0  0  0  0
    8.2284   17.7781   54.9185 O   0  0  0  0  0  0  0  0  0  0  0  0
    6.5026   11.3138   49.5450 C   0  0  0  0  0  0  0  0  0  0  0  0
    5.0934   19.9063   50.8487 C   0  0  0  0  0  0  0  0  0  0  0  0
    4.4591   21.4381   56.3360 P   0  0  1  0  0  0  0  0  0  0  0  0
    7.2415   13.5818   49.7563 N   0  0  0  0  0  0  0  0  0  0  0  0
    5.9314   21.3997   56.2476 O   0  0  0  0  0  0  0  0  0  0  0  0
    7.6247   18.5541   52.8847 S   0  0  0  0  0  0  0  0  0  0  0  0
    3.5388   17.1171   51.5079 C   0  0  0  0  0  0  0  0  0  0  0  0
    6.1686   12.7307   49.6161 C   0  0  0  0  0  0  0  0  0  0  0  0
    3.9186   21.3190   57.7173 O   0  5  0  0  0  0  0  0  0  0  0  0
    4.7785   17.4446   51.0662 N   0  0  0  0  0  0  0  0  0  0  0  0
    4.9350   13.1228   49.5484 N   0  0  0  0  0  0  0  0  0  0  0  0
    3.9320   22.6078   55.5957 O   0  0  0  0  0  0  0  0  0  0  0  0
    5.3495   18.6635   51.6573 C   0  0  2  0  0  0  0  0  0  0  0  0
    4.6259   14.4681   49.6096 C   0  0  0  0  0  0  0  0  0  0  0  0
    3.3447   14.8361   49.5323 N   0  0  0  0  0  0  0  0  0  0  0  0
    6.0873   18.7705   52.9123 C   0  0  1  0  0  0  0  0  0  0  0  0
    5.7059   15.4325   49.7491 C   0  0  0  0  0  0  0  0  0  0  0  0
    2.6672   17.7579   50.9628 O   0  0  0  0  0  0  0  0  0  0  0  0
    5.4598   19.0630   54.2290 C   0  0  0  0  0  0  0  0  0  0  0  0
    6.9818   14.9113   49.8208 C   0  0  0  0  0  0  0  0  0  0  0  0
    4.1564   19.7370   54.2810 C   0  0  0  0  0  0  0  0  0  0  0  0
    5.4340   16.9168   49.7776 C   0  0  0  0  0  0  0  0  0  0  0  0
    3.8600   20.1790   55.6172 O   0  0  0  0  0  0  0  0  0  0  0  0
  1  2  1  0  0  0  0
  1  8  2  0  0  0  0
  1 14  1  0  0  0  0
  2  3  2  0  0  0  0
  2  7  1  0  0  0  0
  3  4  1  0  0  0  0
  4  5  2  0  0  0  0
  5  6  1  0  0  0  0
  6  7  2  0  0  0  0
  9 16  1  0  0  0  0
 10 21  1  0  0  0  0
 11 13  1  6  0  0  0
 11 17  1  0  0  0  0
 11 20  2  0  0  0  0
 11 31  1  0  0  0  0
 12 16  2  0  0  0  0
 12 28  1  0  0  0  0
 15 26  1  0  0  0  0
 15 18  1  0  0  0  0
 16 19  1  0  0  0  0
 18 30  1  0  0  0  0
 19 22  2  0  0  0  0
 21 18  1  1  0  0  0
 21 24  1  0  0  0  0
 22 23  1  0  0  0  0
 22 25  1  0  0  0  0
 24 14  1  1  0  0  0
 24 27  1  0  0  0  0
 25 28  2  0  0  0  0
 25 30  1  0  0  0  0
 27 29  1  0  0  0  0
 29 31  1  0  0  0  0
M  CHG  1  17  -1
M  END
>  <CHROM.1>
58.78649736,-127.36380544,-175.43675453,80.30382156,-93.32395512,-64.60834118
-93.17230895,158.08187419,72.48791015,-167.73849994,77.22612837,-52.03470567
6.26016715,18.22571000,52.85630314,-1.43171328,0.00855041,-2.44270098

>  <Name>
ligand

>  <RI>
0

>  <Rbt.Current_Directory>
/home/itssahil/PROJECTS/Mol_Feturizer/New_Systems/rnas/2HOO

>  <Rbt.Executable>
rbdock ($Id: //depot/dev/client3/rdock/2013.1/src/exe/rbdock.cxx#4 $)

>  <Rbt.Library>
libRbt.so (2013.1, Build901 2013/11/27)

>  <Rbt.Parameter_File>
/export/apps/rDock/src/rDock_2013.1_src/data/scripts/dock_solv.prm

>  <Rbt.Receptor>
prm/pocket_docking_8.prm

>  <SCORE>
-28.4134

>  <SCORE.INTER>
-19.1158

>  <SCORE.INTER.CONST>
1

>  <SCORE.INTER.POLAR>
0

>  <SCORE.INTER.ROT>
12

>  <SCORE.INTER.SOLV>
15.9178

>  <SCORE.INTER.VDW>
-29.6498

>  <SCORE.INTER.norm>
-0.616639

>  <SCORE.INTRA>
-9.29759

>  <SCORE.INTRA.DIHEDRAL>
4.09226

>  <SCORE.INTRA.DIHEDRAL.0>
14.6094

>  <SCORE.INTRA.POLAR>
0

>  <SCORE.INTRA.POLAR.0>
0

>  <SCORE.INTRA.REPUL>
0

>  <SCORE.INTRA.REPUL.0>
0

>  <SCORE.INTRA.SOLV>
3.20871

>  <SCORE.INTRA.SOLV.lig_0>
-65.6478

>  <SCORE.INTRA.VDW>
-12.9481

>  <SCORE.INTRA.VDW.0>
9.35535

>  <SCORE.INTRA.norm>
-0.299922

>  <SCORE.RESTR>
0

>  <SCORE.RESTR.CAVITY>
0

>  <SCORE.RESTR.norm>
0

>  <SCORE.SYSTEM>
0

>  <SCORE.SYSTEM.CONST>
0

>  <SCORE.SYSTEM.DIHEDRAL>
0

>  <SCORE.SYSTEM.SOLV>
0

>  <SCORE.SYSTEM.norm>
0

>  <SCORE.heavy>
31

>  <SCORE.norm>
-0.916561

>  <RMSD>
7.113

$$$$
ligand
 OpenBabel11021811443D
libRbt.so/2013.1/901 2013/11/27
 31 32  0  0  0  0  0  0  0  0999 V2000
    9.3455   18.9547   53.7054 C   0  0  0  0  0  0  0  0  0  0  0  0
   10.7464   19.5434   53.8427 C   0  0  0  0  0  0  0  0  0  0  0  0
   10.9157   20.9415   54.1048 C   0  0  0  0  0  0  0  0  0  0  0  0
   12.2181   21.4824   54.2278 C   0  0  0  0  0  0  0  0  0  0  0  0
   13.3573   20.6503   54.1010 C   0  0  0  0  0  0  0  0  0  0  0  0
   13.2093   19.2711   53.8492 C   0  0  0  0  0  0  0  0  0  0  0  0
   11.9239   18.7150   53.7218 C   0  0  0  0  0  0  0  0  0  0  0  0
    8.8118   18.4075   54.6698 O   0  0  0  0  0  0  0  0  0  0  0  0
    7.2736   19.1737   43.0146 C   0  0  0  0  0  0  0  0  0  0  0  0
    7.9144   16.2760   50.2976 C   0  0  0  0  0  0  0  0  0  0  0  0
    3.3852   17.8746   51.8080 P   0  0  1  0  0  0  0  0  0  0  0  0
    7.4192   20.2858   45.1303 N   0  0  0  0  0  0  0  0  0  0  0  0
    2.6889   18.4644   50.6486 O   0  0  0  0  0  0  0  0  0  0  0  0
    8.6644   19.0277   52.5026 S   0  0  0  0  0  0  0  0  0  0  0  0
    5.7984   18.8719   49.4452 C   0  0  0  0  0  0  0  0  0  0  0  0
    7.5470   19.0992   44.4442 C   0  0  0  0  0  0  0  0  0  0  0  0
    2.5452   17.7325   53.0280 O   0  5  0  0  0  0  0  0  0  0  0  0
    7.0959   18.4786   49.4699 N   0  0  0  0  0  0  0  0  0  0  0  0
    7.8844   17.9752   44.9945 N   0  0  0  0  0  0  0  0  0  0  0  0
    4.0665   16.6202   51.4122 O   0  0  0  0  0  0  0  0  0  0  0  0
    7.4824   17.6762   50.6395 C   0  0  2  0  0  0  0  0  0  0  0  0
    8.1357   17.9102   46.3517 C   0  0  0  0  0  0  0  0  0  0  0  0
    8.4767   16.7347   46.8854 N   0  0  0  0  0  0  0  0  0  0  0  0
    7.5049   18.1074   52.0339 C   0  0  1  0  0  0  0  0  0  0  0  0
    8.0136   19.1210   47.1485 C   0  0  0  0  0  0  0  0  0  0  0  0
    5.0486   17.9790   49.1166 O   0  0  0  0  0  0  0  0  0  0  0  0
    6.4908   17.7120   53.0479 C   0  0  0  0  0  0  0  0  0  0  0  0
    7.6576   20.2661   46.4652 C   0  0  0  0  0  0  0  0  0  0  0  0
    5.4089   18.6412   53.3969 C   0  0  0  0  0  0  0  0  0  0  0  0
    8.2328   19.1034   48.6417 C   0  0  0  0  0  0  0  0  0  0  0  0
    4.5253   18.8430   52.2802 O   0  0  0  0  0  0  0  0  0  0  0  0
  1  2  1  0  0  0  0
  1  8  2  0  0  0  0
  1 14  1  0  0  0  0
  2  3  2  0  0  0  0
  2  7  1  0  0  0  0
  3  4  1  0  0  0  0
  4  5  2  0  0  0  0
  5  6  1  0  0  0  0
  6  7  2  0  0  0  0
  9 16  1  0  0  0  0
 10 21  1  0  0  0  0
 11 13  1  6  0  0  0
 11 17  1  0  0  0  0
 11 20  2  0  0  0  0
 11 31  1  0  0  0  0
 12 16  2  0  0  0  0
 12 28  1  0  0  0  0
 15 26  1  0  0  0  0
 15 18  1  0  0  0  0
 16 19  1  0  0  0  0
 18 30  1  0  0  0  0
 19 22  2  0  0  0  0
 21 18  1  6  0  0  0
 21 24  1  0  0  0  0
 22 23  1  0  0  0  0
 22 25  1  0  0  0  0
 24 14  1  1  0  0  0
 24 27  1  0  0  0  0
 25 28  2  0  0  0  0
 25 30  1  0  0  0  0
 27 29  1  0  0  0  0
 29 31  1  0  0  0  0
M  CHG  1  17  -1
M  END
>  <CHROM.1>
-97.01031050,157.42259990,-139.71883885,-77.11616589,116.48066018,-56.20881853
103.10391826,80.64925398,-74.61254512,66.38895320,79.37655308,178.51448700
7.40833883,18.62622687,50.58085312,-1.10385428,-0.24228943,-1.56338261

>  <Name>
ligand

>  <RI>
0

>  <Rbt.Current_Directory>
/home/itssahil/PROJECTS/Mol_Feturizer/New_Systems/rnas/2HOO

>  <Rbt.Executable>
rbdock ($Id: //depot/dev/client3/rdock/2013.1/src/exe/rbdock.cxx#4 $)

>  <Rbt.Library>
libRbt.so (2013.1, Build901 2013/11/27)

>  <Rbt.Parameter_File>
/export/apps/rDock/src/rDock_2013.1_src/data/scripts/dock_solv.prm

>  <Rbt.Receptor>
prm/pocket_docking_6.prm

>  <SCORE>
-33.8867

>  <SCORE.INTER>
-23.6537

>  <SCORE.INTER.CONST>
1

>  <SCORE.INTER.POLAR>
0

>  <SCORE.INTER.ROT>
12

>  <SCORE.INTER.SOLV>
12.7995

>  <SCORE.INTER.VDW>
-31.6356

>  <SCORE.INTER.norm>
-0.763022

>  <SCORE.INTRA>
-10.2656

>  <SCORE.INTRA.DIHEDRAL>
1.75306

>  <SCORE.INTRA.DIHEDRAL.0>
14.6094

>  <SCORE.INTRA.POLAR>
0

>  <SCORE.INTRA.POLAR.0>
0

>  <SCORE.INTRA.REPUL>
0

>  <SCORE.INTRA.REPUL.0>
0

>  <SCORE.INTRA.SOLV>
8.50753

>  <SCORE.INTRA.SOLV.lig_0>
-65.6478

>  <SCORE.INTRA.VDW>
-15.3959

>  <SCORE.INTRA.VDW.0>
9.35535

>  <SCORE.INTRA.norm>
-0.331149

>  <SCORE.RESTR>
0.032631

>  <SCORE.RESTR.CAVITY>
0.032631

>  <SCORE.RESTR.norm>
0.00105261

>  <SCORE.SYSTEM>
0

>  <SCORE.SYSTEM.CONST>
0

>  <SCORE.SYSTEM.DIHEDRAL>
0

>  <SCORE.SYSTEM.SOLV>
0

>  <SCORE.SYSTEM.norm>
0

>  <SCORE.heavy>
31

>  <SCORE.norm>
-1.09312

>  <RMSD>
7.122

$$$$
ligand
 OpenBabel11021811443D
libRbt.so/2013.1/901 2013/11/27
 31 32  0  0  0  0  0  0  0  0999 V2000
    0.0261   22.7910   55.0361 C   0  0  0  0  0  0  0  0  0  0  0  0
   -0.8118   23.5545   54.0148 C   0  0  0  0  0  0  0  0  0  0  0  0
   -2.2348   23.6278   54.1637 C   0  0  0  0  0  0  0  0  0  0  0  0
   -3.0071   24.3347   53.2110 C   0  0  0  0  0  0  0  0  0  0  0  0
   -2.3833   24.9775   52.1137 C   0  0  0  0  0  0  0  0  0  0  0  0
   -0.9837   24.9209   51.9548 C   0  0  0  0  0  0  0  0  0  0  0  0
   -0.1991   24.2219   52.8896 C   0  0  0  0  0  0  0  0  0  0  0  0
   -0.1181   23.0129   56.2380 O   0  0  0  0  0  0  0  0  0  0  0  0
    7.8144   25.5740   51.9733 C   0  0  0  0  0  0  0  0  0  0  0  0
    2.1821   22.5506   51.4002 C   0  0  0  0  0  0  0  0  0  0  0  0
    0.6622   16.7478   54.2735 P   0  0  1  0  0  0  0  0  0  0  0  0
    7.0459   23.3321   51.6311 N   0  0  0  0  0  0  0  0  0  0  0  0
    1.5561   16.1644   53.2550 O   0  0  0  0  0  0  0  0  0  0  0  0
    0.9522   21.8481   54.6253 S   0  0  0  0  0  0  0  0  0  0  0  0
    3.7256   19.9381   51.3190 C   0  0  0  0  0  0  0  0  0  0  0  0
    6.9444   24.4796   52.3848 C   0  0  0  0  0  0  0  0  0  0  0  0
   -0.7258   16.2116   54.2592 O   0  5  0  0  0  0  0  0  0  0  0  0
    3.4858   20.6898   52.4220 N   0  0  0  0  0  0  0  0  0  0  0  0
    6.1444   24.6159   53.3954 N   0  0  0  0  0  0  0  0  0  0  0  0
    1.3016   16.6921   55.6085 O   0  0  0  0  0  0  0  0  0  0  0  0
    2.2174   21.4328   52.4068 C   0  0  2  0  0  0  0  0  0  0  0  0
    5.3270   23.5719   53.7843 C   0  0  0  0  0  0  0  0  0  0  0  0
    4.5187   23.7462   54.8327 N   0  0  0  0  0  0  0  0  0  0  0  0
    1.0378   21.1768   53.2277 C   0  0  1  0  0  0  0  0  0  0  0  0
    5.3818   22.3217   53.0429 C   0  0  0  0  0  0  0  0  0  0  0  0
    2.8645   19.1082   51.1262 O   0  0  0  0  0  0  0  0  0  0  0  0
   -0.0917   20.2997   52.8182 C   0  0  0  0  0  0  0  0  0  0  0  0
    6.2602   22.2829   51.9791 C   0  0  0  0  0  0  0  0  0  0  0  0
    0.1176   18.8515   52.6968 C   0  0  0  0  0  0  0  0  0  0  0  0
    4.5453   21.1322   53.4469 C   0  0  0  0  0  0  0  0  0  0  0  0
    0.4504   18.2723   53.9705 O   0  0  0  0  0  0  0  0  0  0  0  0
  1  2  1  0  0  0  0
  1  8  2  0  0  0  0
  1 14  1  0  0  0  0
  2  3  2  0  0  0  0
  2  7  1  0  0  0  0
  3  4  1  0  0  0  0
  4  5  2  0  0  0  0
  5  6  1  0  0  0  0
  6  7  2  0  0  0  0
  9 16  1  0  0  0  0
 10 21  1  0  0  0  0
 11 13  1  6  0  0  0
 11 17  1  0  0  0  0
 11 20  2  0  0  0  0
 11 31  1  0  0  0  0
 12 16  2  0  0  0  0
 12 28  1  0  0  0  0
 15 26  1  0  0  0  0
 15 18  1  0  0  0  0
 16 19  1  0  0  0  0
 18 30  1  0  0  0  0
 19 22  2  0  0  0  0
 21 18  1  6  0  0  0
 21 24  1  0  0  0  0
 22 23  1  0  0  0  0
 22 25  1  0  0  0  0
 24 14  1  1  0  0  0
 24 27  1  0  0  0  0
 25 28  2  0  0  0  0
 25 30  1  0  0  0  0
 27 29  1  0  0  0  0
 29 31  1  0  0  0  0
M  CHG  1  17  -1
M  END
>  <CHROM.1>
-50.44161069,-16.46551139,115.54021943,-58.94035898,-68.85352360,79.99727895
-93.59394674,-111.31172533,115.91485060,63.72287069,176.04332865,47.83045233
1.99004868,21.34101219,53.32513934,2.35814260,-0.17806080,3.07255264

>  <Name>
ligand

>  <RI>
0

>  <Rbt.Current_Directory>
/home/itssahil/PROJECTS/Mol_Feturizer/New_Systems/rnas/2HOO

>  <Rbt.Executable>
rbdock ($Id: //depot/dev/client3/rdock/2013.1/src/exe/rbdock.cxx#4 $)

>  <Rbt.Library>
libRbt.so (2013.1, Build901 2013/11/27)

>  <Rbt.Parameter_File>
/export/apps/rDock/src/rDock_2013.1_src/data/scripts/dock_solv.prm

>  <Rbt.Receptor>
prm/pocket_docking_8.prm

>  <SCORE>
-26.5579

>  <SCORE.INTER>
-11.2693

>  <SCORE.INTER.CONST>
1

>  <SCORE.INTER.POLAR>
0

>  <SCORE.INTER.ROT>
12

>  <SCORE.INTER.SOLV>
13.6881

>  <SCORE.INTER.VDW>
-23.6756

>  <SCORE.INTER.norm>
-0.363527

>  <SCORE.INTRA>
-15.2886

>  <SCORE.INTRA.DIHEDRAL>
-2.31055

>  <SCORE.INTRA.DIHEDRAL.0>
14.6094

>  <SCORE.INTRA.POLAR>
0

>  <SCORE.INTRA.POLAR.0>
0

>  <SCORE.INTRA.REPUL>
0

>  <SCORE.INTRA.REPUL.0>
0

>  <SCORE.INTRA.SOLV>
1.00193

>  <SCORE.INTRA.SOLV.lig_0>
-65.6478

>  <SCORE.INTRA.VDW>
-14.6343

>  <SCORE.INTRA.VDW.0>
9.35535

>  <SCORE.INTRA.norm>
-0.493181

>  <SCORE.RESTR>
0

>  <SCORE.RESTR.CAVITY>
0

>  <SCORE.RESTR.norm>
0

>  <SCORE.SYSTEM>
0

>  <SCORE.SYSTEM.CONST>
0

>  <SCORE.SYSTEM.DIHEDRAL>
0

>  <SCORE.SYSTEM.SOLV>
0

>  <SCORE.SYSTEM.norm>
0

>  <SCORE.heavy>
31

>  <SCORE.norm>
-0.856708

>  <RMSD>
7.123

$$$$
ligand
 OpenBabel11021811443D
libRbt.so/2013.1/901 2013/11/27
 31 32  0  0  0  0  0  0  0  0999 V2000
    7.7032   19.7936   49.6999 C   0  0  0  0  0  0  0  0  0  0  0  0
    8.3902   18.6398   48.9754 C   0  0  0  0  0  0  0  0  0  0  0  0
    7.7043   17.9354   47.9335 C   0  0  0  0  0  0  0  0  0  0  0  0
    8.3457   16.8637   47.2673 C   0  0  0  0  0  0  0  0  0  0  0  0
    9.6650   16.4857   47.6178 C   0  0  0  0  0  0  0  0  0  0  0  0
   10.3573   17.1716   48.6364 C   0  0  0  0  0  0  0  0  0  0  0  0
    9.7366   18.2379   49.3114 C   0  0  0  0  0  0  0  0  0  0  0  0
    7.7256   20.9242   49.2145 O   0  0  0  0  0  0  0  0  0  0  0  0
   -1.3878   24.5839   53.5513 C   0  0  0  0  0  0  0  0  0  0  0  0
    5.1486   19.9141   53.6404 C   0  0  0  0  0  0  0  0  0  0  0  0
    2.4926   15.4856   49.8891 P   0  0  1  0  0  0  0  0  0  0  0  0
    0.5179   24.3872   52.1147 N   0  0  0  0  0  0  0  0  0  0  0  0
    2.0462   15.0173   48.5631 O   0  0  0  0  0  0  0  0  0  0  0  0
    7.0527   19.5834   50.9035 S   0  0  0  0  0  0  0  0  0  0  0  0
    4.8761   22.7411   52.3581 C   0  0  0  0  0  0  0  0  0  0  0  0
   -0.3304   23.7510   52.9927 C   0  0  0  0  0  0  0  0  0  0  0  0
    1.3931   15.9043   50.8002 O   0  5  0  0  0  0  0  0  0  0  0  0
    4.1900   21.6045   52.0816 N   0  0  0  0  0  0  0  0  0  0  0  0
   -0.2287   22.5020   53.3241 N   0  0  0  0  0  0  0  0  0  0  0  0
    3.4174   14.5002   50.4956 O   0  0  0  0  0  0  0  0  0  0  0  0
    4.9628   20.3612   52.2157 C   0  0  2  0  0  0  0  0  0  0  0  0
    0.7804   21.7197   52.7960 C   0  0  0  0  0  0  0  0  0  0  0  0
    0.8575   20.4382   53.1631 N   0  0  0  0  0  0  0  0  0  0  0  0
    5.5180   19.5495   51.1369 C   0  0  1  0  0  0  0  0  0  0  0  0
    1.7236   22.3213   51.8663 C   0  0  0  0  0  0  0  0  0  0  0  0
    4.2506   23.5011   53.0642 O   0  0  0  0  0  0  0  0  0  0  0  0
    4.7055   18.6944   50.2305 C   0  0  0  0  0  0  0  0  0  0  0  0
    1.5224   23.6548   51.5728 C   0  0  0  0  0  0  0  0  0  0  0  0
    4.0045   17.5222   50.7694 C   0  0  0  0  0  0  0  0  0  0  0  0
    2.8719   21.5290   51.2906 C   0  0  0  0  0  0  0  0  0  0  0  0
    3.3288   16.8025   49.7234 O   0  0  0  0  0  0  0  0  0  0  0  0
  1  2  1  0  0  0  0
  1  8  2  0  0  0  0
  1 14  1  0  0  0  0
  2  3  2  0  0  0  0
  2  7  1  0  0  0  0
  3  4  1  0  0  0  0
  4  5  2  0  0  0  0
  5  6  1  0  0  0  0
  6  7  2  0  0  0  0
  9 16  1  0  0  0  0
 10 21  1  0  0  0  0
 11 13  1  6  0  0  0
 11 17  1  0  0  0  0
 11 20  2  0  0  0  0
 11 31  1  0  0  0  0
 12 16  2  0  0  0  0
 12 28  1  0  0  0  0
 15 26  1  0  0  0  0
 15 18  1  0  0  0  0
 16 19  1  0  0  0  0
 18 30  1  0  0  0  0
 19 22  2  0  0  0  0
 21 18  1  6  0  0  0
 21 24  1  0  0  0  0
 22 23  1  0  0  0  0
 22 25  1  0  0  0  0
 24 14  1  6  0  0  0
 24 27  1  0  0  0  0
 25 28  2  0  0  0  0
 25 30  1  0  0  0  0
 27 29  1  0  0  0  0
 29 31  1  0  0  0  0
M  CHG  1  17  -1
M  END
>  <CHROM.1>
-84.11738253,-106.42174448,-129.95127278,-134.50107927,77.64331688,-58.75905572
-74.54377362,114.20166781,-91.75104433,-177.47338201,178.90090876,-176.00965540
4.23248702,19.54389742,50.88365326,-0.79358990,0.25012434,0.34662267

>  <Name>
ligand

>  <RI>
0

>  <Rbt.Current_Directory>
/home/itssahil/PROJECTS/Mol_Feturizer/New_Systems/rnas/2HOO

>  <Rbt.Executable>
rbdock ($Id: //depot/dev/client3/rdock/2013.1/src/exe/rbdock.cxx#4 $)

>  <Rbt.Library>
libRbt.so (2013.1, Build901 2013/11/27)

>  <Rbt.Parameter_File>
/export/apps/rDock/src/rDock_2013.1_src/data/scripts/dock_solv.prm

>  <Rbt.Receptor>
prm/pocket_docking_5.prm

>  <SCORE>
-25.3215

>  <SCORE.INTER>
-12.2753

>  <SCORE.INTER.CONST>
1

>  <SCORE.INTER.POLAR>
0

>  <SCORE.INTER.ROT>
12

>  <SCORE.INTER.SOLV>
14.8581

>  <SCORE.INTER.VDW>
-24.7362

>  <SCORE.INTER.norm>
-0.395978

>  <SCORE.INTRA>
-13.0462

>  <SCORE.INTRA.DIHEDRAL>
0.757999

>  <SCORE.INTRA.DIHEDRAL.0>
14.6094

>  <SCORE.INTRA.POLAR>
0

>  <SCORE.INTRA.POLAR.0>
0

>  <SCORE.INTRA.REPUL>
0

>  <SCORE.INTRA.REPUL.0>
0

>  <SCORE.INTRA.SOLV>
0.933433

>  <SCORE.INTRA.SOLV.lig_0>
-65.6478

>  <SCORE.INTRA.VDW>
-13.8919

>  <SCORE.INTRA.VDW.0>
9.35535

>  <SCORE.INTRA.norm>
-0.420846

>  <SCORE.RESTR>
0

>  <SCORE.RESTR.CAVITY>
0

>  <SCORE.RESTR.norm>
0

>  <SCORE.SYSTEM>
0

>  <SCORE.SYSTEM.CONST>
0

>  <SCORE.SYSTEM.DIHEDRAL>
0

>  <SCORE.SYSTEM.SOLV>
0

>  <SCORE.SYSTEM.norm>
0

>  <SCORE.heavy>
31

>  <SCORE.norm>
-0.816824

>  <RMSD>
7.125

$$$$
ligand
 OpenBabel11021811443D
libRbt.so/2013.1/901 2013/11/27
 31 32  0  0  0  0  0  0  0  0999 V2000
   10.3710   20.6147   53.3796 C   0  0  0  0  0  0  0  0  0  0  0  0
   11.5992   19.9590   54.0038 C   0  0  0  0  0  0  0  0  0  0  0  0
   11.8121   18.5496   53.8606 C   0  0  0  0  0  0  0  0  0  0  0  0
   12.9517   17.9466   54.4449 C   0  0  0  0  0  0  0  0  0  0  0  0
   13.8888   18.7272   55.1652 C   0  0  0  0  0  0  0  0  0  0  0  0
   13.6985   20.1164   55.3109 C   0  0  0  0  0  0  0  0  0  0  0  0
   12.5716   20.7340   54.7394 C   0  0  0  0  0  0  0  0  0  0  0  0
   10.4097   21.7985   53.0453 O   0  0  0  0  0  0  0  0  0  0  0  0
    1.9996   16.9027   55.2541 C   0  0  0  0  0  0  0  0  0  0  0  0
    7.9261   22.8492   52.3109 C   0  0  0  0  0  0  0  0  0  0  0  0
    4.9548   17.1008   49.5095 P   0  0  1  0  0  0  0  0  0  0  0  0
    4.1443   17.7054   54.5538 N   0  0  0  0  0  0  0  0  0  0  0  0
    3.7575   17.9581   49.6014 O   0  0  0  0  0  0  0  0  0  0  0  0
    9.2073   19.8912   53.1849 S   0  0  0  0  0  0  0  0  0  0  0  0
    4.9328   21.8718   52.3905 C   0  0  0  0  0  0  0  0  0  0  0  0
    2.9418   18.0099   55.1508 C   0  0  0  0  0  0  0  0  0  0  0  0
    4.9683   15.9528   50.4561 O   0  5  0  0  0  0  0  0  0  0  0  0
    5.9596   21.6384   53.2451 N   0  0  0  0  0  0  0  0  0  0  0  0
    2.6321   19.1850   55.6016 N   0  0  0  0  0  0  0  0  0  0  0  0
    5.1958   16.7069   48.1020 O   0  0  0  0  0  0  0  0  0  0  0  0
    7.2824   21.5234   52.6143 C   0  0  2  0  0  0  0  0  0  0  0  0
    3.5275   20.2320   55.4943 C   0  0  0  0  0  0  0  0  0  0  0  0
    3.1732   21.4300   55.9656 N   0  0  0  0  0  0  0  0  0  0  0  0
    8.0007   20.2936   52.2941 C   0  0  1  0  0  0  0  0  0  0  0  0
    4.8180   19.9925   54.8673 C   0  0  0  0  0  0  0  0  0  0  0  0
    4.5614   23.0245   52.4146 O   0  0  0  0  0  0  0  0  0  0  0  0
    7.6604   19.3986   51.1557 C   0  0  0  0  0  0  0  0  0  0  0  0
    5.0523   18.7050   54.4290 C   0  0  0  0  0  0  0  0  0  0  0  0
    6.3190   18.8079   51.0693 C   0  0  0  0  0  0  0  0  0  0  0  0
    5.8196   21.1063   54.6825 C   0  0  0  0  0  0  0  0  0  0  0  0
    6.2197   17.9228   49.9400 O   0  0  0  0  0  0  0  0  0  0  0  0
  1  2  1  0  0  0  0
  1  8  2  0  0  0  0
  1 14  1  0  0  0  0
  2  3  2  0  0  0  0
  2  7  1  0  0  0  0
  3  4  1  0  0  0  0
  4  5  2  0  0  0  0
  5  6  1  0  0  0  0
  6  7  2  0  0  0  0
  9 16  1  0  0  0  0
 10 21  1  0  0  0  0
 11 13  1  1  0  0  0
 11 17  1  0  0  0  0
 11 20  2  0  0  0  0
 11 31  1  0  0  0  0
 12 16  2  0  0  0  0
 12 28  1  0  0  0  0
 15 26  1  0  0  0  0
 15 18  1  0  0  0  0
 16 19  1  0  0  0  0
 18 30  1  0  0  0  0
 19 22  2  0  0  0  0
 21 18  1  1  0  0  0
 21 24  1  0  0  0  0
 22 23  1  0  0  0  0
 22 25  1  0  0  0  0
 24 14  1  6  0  0  0
 24 27  1  0  0  0  0
 25 28  2  0  0  0  0
 25 30  1  0  0  0  0
 27 29  1  0  0  0  0
 29 31  1  0  0  0  0
M  CHG  1  17  -1
M  END
>  <CHROM.1>
-152.36904022,-165.23021331,-61.00709727,-103.56407181,81.28126671,41.97398658
73.36888641,122.21408497,-105.24583181,-176.90416188,179.87800015,43.77582605
6.89669962,19.47641076,52.90357746,-0.28418182,-0.05700715,-2.15388026

>  <Name>
ligand

>  <RI>
0

>  <Rbt.Current_Directory>
/home/itssahil/PROJECTS/Mol_Feturizer/New_Systems/rnas/2HOO

>  <Rbt.Executable>
rbdock ($Id: //depot/dev/client3/rdock/2013.1/src/exe/rbdock.cxx#4 $)

>  <Rbt.Library>
libRbt.so (2013.1, Build901 2013/11/27)

>  <Rbt.Parameter_File>
/export/apps/rDock/src/rDock_2013.1_src/data/scripts/dock_solv.prm

>  <Rbt.Receptor>
prm/pocket_docking_3.prm

>  <SCORE>
-36.8393

>  <SCORE.INTER>
-24.0009

>  <SCORE.INTER.CONST>
1

>  <SCORE.INTER.POLAR>
0

>  <SCORE.INTER.ROT>
12

>  <SCORE.INTER.SOLV>
14.4948

>  <SCORE.INTER.VDW>
-32.4322

>  <SCORE.INTER.norm>
-0.774222

>  <SCORE.INTRA>
-12.8384

>  <SCORE.INTRA.DIHEDRAL>
-0.33166

>  <SCORE.INTRA.DIHEDRAL.0>
14.6094

>  <SCORE.INTRA.POLAR>
0

>  <SCORE.INTRA.POLAR.0>
0

>  <SCORE.INTRA.REPUL>
0

>  <SCORE.INTRA.REPUL.0>
0

>  <SCORE.INTRA.SOLV>
0.58271

>  <SCORE.INTRA.SOLV.lig_0>
-65.6478

>  <SCORE.INTRA.VDW>
-12.964

>  <SCORE.INTRA.VDW.0>
9.35535

>  <SCORE.INTRA.norm>
-0.414143

>  <SCORE.RESTR>
0

>  <SCORE.RESTR.CAVITY>
0

>  <SCORE.RESTR.norm>
0

>  <SCORE.SYSTEM>
0

>  <SCORE.SYSTEM.CONST>
0

>  <SCORE.SYSTEM.DIHEDRAL>
0

>  <SCORE.SYSTEM.SOLV>
0

>  <SCORE.SYSTEM.norm>
0

>  <SCORE.heavy>
31

>  <SCORE.norm>
-1.18837

>  <RMSD>
7.126

$$$$
ligand
 OpenBabel11021811443D
libRbt.so/2013.1/901 2013/11/27
 31 32  0  0  0  0  0  0  0  0999 V2000
    7.3173   19.2411   52.4203 C   0  0  0  0  0  0  0  0  0  0  0  0
    7.2130   20.7515   52.2304 C   0  0  0  0  0  0  0  0  0  0  0  0
    8.3892   21.5253   51.9661 C   0  0  0  0  0  0  0  0  0  0  0  0
    8.2865   22.9266   51.7942 C   0  0  0  0  0  0  0  0  0  0  0  0
    7.0274   23.5705   51.8743 C   0  0  0  0  0  0  0  0  0  0  0  0
    5.8587   22.8240   52.1276 C   0  0  0  0  0  0  0  0  0  0  0  0
    5.9402   21.4310   52.3031 C   0  0  0  0  0  0  0  0  0  0  0  0
    7.4904   18.7740   53.5456 O   0  0  0  0  0  0  0  0  0  0  0  0
    8.1458   19.8012   42.0205 C   0  0  0  0  0  0  0  0  0  0  0  0
    8.5692   20.3292   48.6573 C   0  0  0  0  0  0  0  0  0  0  0  0
    2.9290   18.7605   52.3979 P   0  0  1  0  0  0  0  0  0  0  0  0
    7.5865   19.7604   44.3486 N   0  0  0  0  0  0  0  0  0  0  0  0
    2.9295   17.3373   52.7869 O   0  0  0  0  0  0  0  0  0  0  0  0
    7.2206   18.3855   51.3367 S   0  0  0  0  0  0  0  0  0  0  0  0
    9.8772   17.3990   48.8833 C   0  0  0  0  0  0  0  0  0  0  0  0
    8.1637   19.0910   43.2931 C   0  0  0  0  0  0  0  0  0  0  0  0
    1.7469   19.1835   51.5991 O   0  5  0  0  0  0  0  0  0  0  0  0
    8.7853   17.8826   48.2408 N   0  0  0  0  0  0  0  0  0  0  0  0
    8.6955   17.9125   43.3845 N   0  0  0  0  0  0  0  0  0  0  0  0
    3.1764   19.6151   53.5822 O   0  0  0  0  0  0  0  0  0  0  0  0
    8.0610   18.9444   48.9542 C   0  0  2  0  0  0  0  0  0  0  0  0
    8.7031   17.2420   44.5927 C   0  0  0  0  0  0  0  0  0  0  0  0
    9.2556   16.0277   44.6490 N   0  0  0  0  0  0  0  0  0  0  0  0
    6.9307   18.7809   49.8633 C   0  0  1  0  0  0  0  0  0  0  0  0
    8.1042   17.8795   45.7549 C   0  0  0  0  0  0  0  0  0  0  0  0
   10.6093   16.7733   48.1485 O   0  0  0  0  0  0  0  0  0  0  0  0
    5.5074   18.9567   49.4681 C   0  0  0  0  0  0  0  0  0  0  0  0
    7.5733   19.1374   45.5531 C   0  0  0  0  0  0  0  0  0  0  0  0
    4.4501   18.2879   50.2366 C   0  0  0  0  0  0  0  0  0  0  0  0
    8.0436   17.1789   47.0903 C   0  0  0  0  0  0  0  0  0  0  0  0
    4.1260   19.0353   51.4219 O   0  0  0  0  0  0  0  0  0  0  0  0
  1  2  1  0  0  0  0
  1  8  2  0  0  0  0
  1 14  1  0  0  0  0
  2  3  2  0  0  0  0
  2  7  1  0  0  0  0
  3  4  1  0  0  0  0
  4  5  2  0  0  0  0
  5  6  1  0  0  0  0
  6  7  2  0  0  0  0
  9 16  1  0  0  0  0
 10 21  1  0  0  0  0
 11 13  1  1  0  0  0
 11 17  1  0  0  0  0
 11 20  2  0  0  0  0
 11 31  1  0  0  0  0
 12 16  2  0  0  0  0
 12 28  1  0  0  0  0
 15 26  1  0  0  0  0
 15 18  1  0  0  0  0
 16 19  1  0  0  0  0
 18 30  1  0  0  0  0
 19 22  2  0  0  0  0
 21 18  1  6  0  0  0
 21 24  1  0  0  0  0
 22 23  1  0  0  0  0
 22 25  1  0  0  0  0
 24 14  1  6  0  0  0
 24 27  1  0  0  0  0
 25 28  2  0  0  0  0
 25 30  1  0  0  0  0
 27 29  1  0  0  0  0
 29 31  1  0  0  0  0
M  CHG  1  17  -1
M  END
>  <CHROM.1>
90.60802923,-3.48674094,96.51796963,-163.66512366,88.53599732,-114.34260893
-99.51392007,-23.48197413,119.15613769,81.56471288,171.27620306,50.61052071
6.77753853,19.06092443,49.42040704,-2.08632845,-0.39609076,-1.98221097

>  <Name>
ligand

>  <RI>
0

>  <Rbt.Current_Directory>
/home/itssahil/PROJECTS/Mol_Feturizer/New_Systems/rnas/2HOO

>  <Rbt.Executable>
rbdock ($Id: //depot/dev/client3/rdock/2013.1/src/exe/rbdock.cxx#4 $)

>  <Rbt.Library>
libRbt.so (2013.1, Build901 2013/11/27)

>  <Rbt.Parameter_File>
/export/apps/rDock/src/rDock_2013.1_src/data/scripts/dock_solv.prm

>  <Rbt.Receptor>
prm/pocket_docking_7.prm

>  <SCORE>
-26.1795

>  <SCORE.INTER>
-11.4809

>  <SCORE.INTER.CONST>
1

>  <SCORE.INTER.POLAR>
0

>  <SCORE.INTER.ROT>
12

>  <SCORE.INTER.SOLV>
14.7076

>  <SCORE.INTER.VDW>
-24.1565

>  <SCORE.INTER.norm>
-0.370353

>  <SCORE.INTRA>
-14.6985

>  <SCORE.INTRA.DIHEDRAL>
0.476297

>  <SCORE.INTRA.DIHEDRAL.0>
14.6094

>  <SCORE.INTRA.POLAR>
0

>  <SCORE.INTRA.POLAR.0>
0

>  <SCORE.INTRA.REPUL>
0

>  <SCORE.INTRA.REPUL.0>
0

>  <SCORE.INTRA.SOLV>
0.420617

>  <SCORE.INTRA.SOLV.lig_0>
-65.6478

>  <SCORE.INTRA.VDW>
-15.147

>  <SCORE.INTRA.VDW.0>
9.35535

>  <SCORE.INTRA.norm>
-0.474146

>  <SCORE.RESTR>
0

>  <SCORE.RESTR.CAVITY>
0

>  <SCORE.RESTR.norm>
0

>  <SCORE.SYSTEM>
0

>  <SCORE.SYSTEM.CONST>
0

>  <SCORE.SYSTEM.DIHEDRAL>
0

>  <SCORE.SYSTEM.SOLV>
0

>  <SCORE.SYSTEM.norm>
0

>  <SCORE.heavy>
31

>  <SCORE.norm>
-0.844499

>  <RMSD>
7.133

$$$$
ligand
 OpenBabel11021811443D
libRbt.so/2013.1/901 2013/11/27
 31 32  0  0  0  0  0  0  0  0999 V2000
    8.8436   20.1404   53.0304 C   0  0  0  0  0  0  0  0  0  0  0  0
   10.2839   20.2301   53.5257 C   0  0  0  0  0  0  0  0  0  0  0  0
   10.8236   21.4904   53.9413 C   0  0  0  0  0  0  0  0  0  0  0  0
   12.1617   21.5678   54.3967 C   0  0  0  0  0  0  0  0  0  0  0  0
   12.9708   20.4066   54.4519 C   0  0  0  0  0  0  0  0  0  0  0  0
   12.4545   19.1571   54.0527 C   0  0  0  0  0  0  0  0  0  0  0  0
   11.1280   19.0597   53.5955 C   0  0  0  0  0  0  0  0  0  0  0  0
    8.1831   21.1667   52.8729 O   0  0  0  0  0  0  0  0  0  0  0  0
    1.6326   14.7304   51.2888 C   0  0  0  0  0  0  0  0  0  0  0  0
    8.4083   16.8474   50.5257 C   0  0  0  0  0  0  0  0  0  0  0  0
    2.2868   18.1712   53.7710 P   0  0  1  0  0  0  0  0  0  0  0  0
    2.7095   16.5530   50.1695 N   0  0  0  0  0  0  0  0  0  0  0  0
    1.0731   18.9647   53.4988 O   0  0  0  0  0  0  0  0  0  0  0  0
    8.2672   18.9123   52.7560 S   0  0  0  0  0  0  0  0  0  0  0  0
    7.0951   19.3304   48.6263 C   0  0  0  0  0  0  0  0  0  0  0  0
    2.7957   15.2398   50.5733 C   0  0  0  0  0  0  0  0  0  0  0  0
    2.7819   18.2578   55.1715 O   0  5  0  0  0  0  0  0  0  0  0  0
    6.7411   18.1684   49.2289 N   0  0  0  0  0  0  0  0  0  0  0  0
    3.8208   14.4780   50.3519 N   0  0  0  0  0  0  0  0  0  0  0  0
    2.1068   16.7802   53.2946 O   0  0  0  0  0  0  0  0  0  0  0  0
    7.3636   17.9303   50.5392 C   0  0  2  0  0  0  0  0  0  0  0  0
    4.9230   14.9693   49.6788 C   0  0  0  0  0  0  0  0  0  0  0  0
    5.9630   14.1576   49.4724 N   0  0  0  0  0  0  0  0  0  0  0  0
    7.0861   18.6358   51.7866 C   0  0  1  0  0  0  0  0  0  0  0  0
    4.9126   16.3518   49.2265 C   0  0  0  0  0  0  0  0  0  0  0  0
    8.0151   19.1900   47.8507 O   0  0  0  0  0  0  0  0  0  0  0  0
    5.7354   19.1012   52.2015 C   0  0  0  0  0  0  0  0  0  0  0  0
    3.7703   17.0746   49.5047 C   0  0  0  0  0  0  0  0  0  0  0  0
    4.7805   18.1455   52.7764 C   0  0  0  0  0  0  0  0  0  0  0  0
    6.1039   16.9571   48.5249 C   0  0  0  0  0  0  0  0  0  0  0  0
    3.4856   18.7496   52.9408 O   0  0  0  0  0  0  0  0  0  0  0  0
  1  2  1  0  0  0  0
  1  8  2  0  0  0  0
  1 14  1  0  0  0  0
  2  3  2  0  0  0  0
  2  7  1  0  0  0  0
  3  4  1  0  0  0  0
  4  5  2  0  0  0  0
  5  6  1  0  0  0  0
  6  7  2  0  0  0  0
  9 16  1  0  0  0  0
 10 21  1  0  0  0  0
 11 13  1  6  0  0  0
 11 17  1  0  0  0  0
 11 20  2  0  0  0  0
 11 31  1  0  0  0  0
 12 16  2  0  0  0  0
 12 28  1  0  0  0  0
 15 26  1  0  0  0  0
 15 18  1  0  0  0  0
 16 19  1  0  0  0  0
 18 30  1  0  0  0  0
 19 22  2  0  0  0  0
 21 18  1  6  0  0  0
 21 24  1  0  0  0  0
 22 23  1  0  0  0  0
 22 25  1  0  0  0  0
 24 14  1  1  0  0  0
 24 27  1  0  0  0  0
 25 28  2  0  0  0  0
 25 30  1  0  0  0  0
 27 29  1  0  0  0  0
 29 31  1  0  0  0  0
M  CHG  1  17  -1
M  END
>  <CHROM.1>
6.56994859,-155.28840385,109.46184380,94.63188820,-108.32378186,-133.58330554
35.45429050,-100.27627171,-119.45227783,-172.21862843,-166.96282142,-170.24026533
6.15851562,18.10877272,51.83670291,0.37769873,0.28148405,1.04204868

>  <Name>
ligand

>  <RI>
0

>  <Rbt.Current_Directory>
/home/itssahil/PROJECTS/Mol_Feturizer/New_Systems/rnas/2HOO

>  <Rbt.Executable>
rbdock ($Id: //depot/dev/client3/rdock/2013.1/src/exe/rbdock.cxx#4 $)

>  <Rbt.Library>
libRbt.so (2013.1, Build901 2013/11/27)

>  <Rbt.Parameter_File>
/export/apps/rDock/src/rDock_2013.1_src/data/scripts/dock_solv.prm

>  <Rbt.Receptor>
prm/blind_docking_60.prm

>  <SCORE>
-30.7742

>  <SCORE.INTER>
-19.5925

>  <SCORE.INTER.CONST>
1

>  <SCORE.INTER.POLAR>
0

>  <SCORE.INTER.ROT>
12

>  <SCORE.INTER.SOLV>
11.9447

>  <SCORE.INTER.VDW>
-28.6433

>  <SCORE.INTER.norm>
-0.632017

>  <SCORE.INTRA>
-11.2581

>  <SCORE.INTRA.DIHEDRAL>
-0.474525

>  <SCORE.INTRA.DIHEDRAL.0>
14.6094

>  <SCORE.INTRA.POLAR>
0

>  <SCORE.INTRA.POLAR.0>
0

>  <SCORE.INTRA.REPUL>
0

>  <SCORE.INTRA.REPUL.0>
0

>  <SCORE.INTRA.SOLV>
3.16116

>  <SCORE.INTRA.SOLV.lig_0>
-65.6478

>  <SCORE.INTRA.VDW>
-12.6014

>  <SCORE.INTRA.VDW.0>
9.35535

>  <SCORE.INTRA.norm>
-0.363165

>  <SCORE.RESTR>
0.0764498

>  <SCORE.RESTR.CAVITY>
0.0764498

>  <SCORE.RESTR.norm>
0.00246612

>  <SCORE.SYSTEM>
0

>  <SCORE.SYSTEM.CONST>
0

>  <SCORE.SYSTEM.DIHEDRAL>
0

>  <SCORE.SYSTEM.SOLV>
0

>  <SCORE.SYSTEM.norm>
0

>  <SCORE.heavy>
31

>  <SCORE.norm>
-0.992716

>  <RMSD>
7.148

$$$$
ligand
 OpenBabel11021811443D
libRbt.so/2013.1/901 2013/11/27
 31 32  0  0  0  0  0  0  0  0999 V2000
   11.1256   21.4939   54.0941 C   0  0  0  0  0  0  0  0  0  0  0  0
   12.0538   20.3188   54.3870 C   0  0  0  0  0  0  0  0  0  0  0  0
   11.6919   18.9965   53.9715 C   0  0  0  0  0  0  0  0  0  0  0  0
   12.5556   17.9099   54.2491 C   0  0  0  0  0  0  0  0  0  0  0  0
   13.7802   18.1202   54.9292 C   0  0  0  0  0  0  0  0  0  0  0  0
   14.1552   19.4155   55.3400 C   0  0  0  0  0  0  0  0  0  0  0  0
   13.3099   20.5079   55.0752 C   0  0  0  0  0  0  0  0  0  0  0  0
   11.2531   22.5476   54.7169 O   0  0  0  0  0  0  0  0  0  0  0  0
    3.1972   15.6382   48.8875 C   0  0  0  0  0  0  0  0  0  0  0  0
    7.5684   19.0852   53.9216 C   0  0  0  0  0  0  0  0  0  0  0  0
    4.1054   22.4105   53.6912 P   0  0  1  0  0  0  0  0  0  0  0  0
    4.9256   17.2950   48.9337 N   0  0  0  0  0  0  0  0  0  0  0  0
    3.7963   22.5717   52.2576 O   0  0  0  0  0  0  0  0  0  0  0  0
   10.1358   21.3884   53.1324 S   0  0  0  0  0  0  0  0  0  0  0  0
    8.1856   19.2496   50.7670 C   0  0  0  0  0  0  0  0  0  0  0  0
    3.8364   16.7518   49.5770 C   0  0  0  0  0  0  0  0  0  0  0  0
    3.8893   23.6324   54.5124 O   0  5  0  0  0  0  0  0  0  0  0  0
    7.3370   19.9195   51.5856 N   0  0  0  0  0  0  0  0  0  0  0  0
    3.3814   17.1726   50.7154 N   0  0  0  0  0  0  0  0  0  0  0  0
    3.4245   21.2103   54.2301 O   0  0  0  0  0  0  0  0  0  0  0  0
    7.8532   20.1860   52.9360 C   0  0  2  0  0  0  0  0  0  0  0  0
    3.9881   18.2333   51.3605 C   0  0  0  0  0  0  0  0  0  0  0  0
    3.4898   18.6430   52.5295 N   0  0  0  0  0  0  0  0  0  0  0  0
    8.6026   21.3588   53.3761 C   0  0  1  0  0  0  0  0  0  0  0  0
    5.1410   18.8675   50.7404 C   0  0  0  0  0  0  0  0  0  0  0  0
    8.1690   18.0536   50.9590 O   0  0  0  0  0  0  0  0  0  0  0  0
    7.9942   22.5321   54.0588 C   0  0  0  0  0  0  0  0  0  0  0  0
    5.5509   18.3383   49.5334 C   0  0  0  0  0  0  0  0  0  0  0  0
    6.7080   23.0620   53.5892 C   0  0  0  0  0  0  0  0  0  0  0  0
    5.8186   20.0572   51.3755 C   0  0  0  0  0  0  0  0  0  0  0  0
    5.6404   22.1390   53.8669 O   0  0  0  0  0  0  0  0  0  0  0  0
  1  2  1  0  0  0  0
  1  8  2  0  0  0  0
  1 14  1  0  0  0  0
  2  3  2  0  0  0  0
  2  7  1  0  0  0  0
  3  4  1  0  0  0  0
  4  5  2  0  0  0  0
  5  6  1  0  0  0  0
  6  7  2  0  0  0  0
  9 16  1  0  0  0  0
 10 21  1  0  0  0  0
 11 13  1  6  0  0  0
 11 17  1  0  0  0  0
 11 20  2  0  0  0  0
 11 31  1  0  0  0  0
 12 16  2  0  0  0  0
 12 28  1  0  0  0  0
 15 26  1  0  0  0  0
 15 18  1  0  0  0  0
 16 19  1  0  0  0  0
 18 30  1  0  0  0  0
 19 22  2  0  0  0  0
 21 18  1  6  0  0  0
 21 24  1  0  0  0  0
 22 23  1  0  0  0  0
 22 25  1  0  0  0  0
 24 14  1  1  0  0  0
 24 27  1  0  0  0  0
 25 28  2  0  0  0  0
 25 30  1  0  0  0  0
 27 29  1  0  0  0  0
 29 31  1  0  0  0  0
M  CHG  1  17  -1
M  END
>  <CHROM.1>
162.00641359,111.33866631,-120.10298816,81.43859094,-88.72758811,33.82717616
95.38463983,138.75163043,126.73357529,68.96994605,171.58424800,66.72997111
7.32498196,20.13249109,52.73697518,0.32489281,-0.24012966,0.58362393

>  <Name>
ligand

>  <RI>
0

>  <Rbt.Current_Directory>
/home/itssahil/PROJECTS/Mol_Feturizer/New_Systems/rnas/2HOO

>  <Rbt.Executable>
rbdock ($Id: //depot/dev/client3/rdock/2013.1/src/exe/rbdock.cxx#4 $)

>  <Rbt.Library>
libRbt.so (2013.1, Build901 2013/11/27)

>  <Rbt.Parameter_File>
/export/apps/rDock/src/rDock_2013.1_src/data/scripts/dock_solv.prm

>  <Rbt.Receptor>
prm/pocket_docking_3.prm

>  <SCORE>
-34.8607

>  <SCORE.INTER>
-23.7523

>  <SCORE.INTER.CONST>
1

>  <SCORE.INTER.POLAR>
0

>  <SCORE.INTER.ROT>
12

>  <SCORE.INTER.SOLV>
8.59213

>  <SCORE.INTER.VDW>
-30.2989

>  <SCORE.INTER.norm>
-0.766204

>  <SCORE.INTRA>
-11.2343

>  <SCORE.INTRA.DIHEDRAL>
2.25062

>  <SCORE.INTRA.DIHEDRAL.0>
14.6094

>  <SCORE.INTRA.POLAR>
0

>  <SCORE.INTRA.POLAR.0>
0

>  <SCORE.INTRA.REPUL>
0

>  <SCORE.INTRA.REPUL.0>
0

>  <SCORE.INTRA.SOLV>
4.12864

>  <SCORE.INTRA.SOLV.lig_0>
-65.6478

>  <SCORE.INTRA.VDW>
-14.4239

>  <SCORE.INTRA.VDW.0>
9.35535

>  <SCORE.INTRA.norm>
-0.362397

>  <SCORE.RESTR>
0.12594

>  <SCORE.RESTR.CAVITY>
0.12594

>  <SCORE.RESTR.norm>
0.00406257

>  <SCORE.SYSTEM>
0

>  <SCORE.SYSTEM.CONST>
0

>  <SCORE.SYSTEM.DIHEDRAL>
0

>  <SCORE.SYSTEM.SOLV>
0

>  <SCORE.SYSTEM.norm>
0

>  <SCORE.heavy>
31

>  <SCORE.norm>
-1.12454

>  <RMSD>
7.148

$$$$
ligand
 OpenBabel11021811443D
libRbt.so/2013.1/901 2013/11/27
 31 32  0  0  0  0  0  0  0  0999 V2000
    9.0708   19.5437   52.7707 C   0  0  0  0  0  0  0  0  0  0  0  0
   10.4413   19.8781   53.3522 C   0  0  0  0  0  0  0  0  0  0  0  0
   10.7000   21.1864   53.8753 C   0  0  0  0  0  0  0  0  0  0  0  0
   11.9745   21.4916   54.4103 C   0  0  0  0  0  0  0  0  0  0  0  0
   12.9958   20.5106   54.4396 C   0  0  0  0  0  0  0  0  0  0  0  0
   12.7570   19.2162   53.9349 C   0  0  0  0  0  0  0  0  0  0  0  0
   11.4979   18.8940   53.3974 C   0  0  0  0  0  0  0  0  0  0  0  0
    8.4504   18.5647   53.1841 O   0  0  0  0  0  0  0  0  0  0  0  0
   10.3110   13.0067   45.2418 C   0  0  0  0  0  0  0  0  0  0  0  0
    8.5940   20.4553   48.2445 C   0  0  0  0  0  0  0  0  0  0  0  0
    3.0027   17.5569   50.7340 P   0  0  1  0  0  0  0  0  0  0  0  0
   10.4572   15.0822   46.4273 N   0  0  0  0  0  0  0  0  0  0  0  0
    3.2373   16.7087   51.9182 O   0  0  0  0  0  0  0  0  0  0  0  0
    8.5146   20.3313   51.7777 S   0  0  0  0  0  0  0  0  0  0  0  0
   10.2189   17.9088   49.5517 C   0  0  0  0  0  0  0  0  0  0  0  0
    9.6771   13.9944   46.1060 C   0  0  0  0  0  0  0  0  0  0  0  0
    3.1841   16.8633   49.4300 O   0  5  0  0  0  0  0  0  0  0  0  0
    8.9797   18.1284   49.0465 N   0  0  0  0  0  0  0  0  0  0  0  0
    8.4615   13.8244   46.5224 N   0  0  0  0  0  0  0  0  0  0  0  0
    1.7020   18.2554   50.8540 O   0  0  0  0  0  0  0  0  0  0  0  0
    8.4082   19.4489   49.3477 C   0  0  2  0  0  0  0  0  0  0  0  0
    7.8642   14.7681   47.3361 C   0  0  0  0  0  0  0  0  0  0  0  0
    6.6090   14.5624   47.7426 N   0  0  0  0  0  0  0  0  0  0  0  0
    7.6901   19.8421   50.5562 C   0  0  1  0  0  0  0  0  0  0  0  0
    8.6209   15.9515   47.7139 C   0  0  0  0  0  0  0  0  0  0  0  0
   10.1989   17.6493   50.7348 O   0  0  0  0  0  0  0  0  0  0  0  0
    6.2105   19.7941   50.7027 C   0  0  0  0  0  0  0  0  0  0  0  0
    9.9089   16.0322   47.2247 C   0  0  0  0  0  0  0  0  0  0  0  0
    5.5116   18.5057   50.6180 C   0  0  0  0  0  0  0  0  0  0  0  0
    8.0074   17.0371   48.5641 C   0  0  0  0  0  0  0  0  0  0  0  0
    4.0865   18.6897   50.6803 O   0  0  0  0  0  0  0  0  0  0  0  0
  1  2  1  0  0  0  0
  1  8  2  0  0  0  0
  1 14  1  0  0  0  0
  2  3  2  0  0  0  0
  2  7  1  0  0  0  0
  3  4  1  0  0  0  0
  4  5  2  0  0  0  0
  5  6  1  0  0  0  0
  6  7  2  0  0  0  0
  9 16  1  0  0  0  0
 10 21  1  0  0  0  0
 11 13  1  1  0  0  0
 11 17  1  0  0  0  0
 11 20  2  0  0  0  0
 11 31  1  0  0  0  0
 12 16  2  0  0  0  0
 12 28  1  0  0  0  0
 15 26  1  0  0  0  0
 15 18  1  0  0  0  0
 16 19  1  0  0  0  0
 18 30  1  0  0  0  0
 19 22  2  0  0  0  0
 21 18  1  6  0  0  0
 21 24  1  0  0  0  0
 22 23  1  0  0  0  0
 22 25  1  0  0  0  0
 24 14  1  1  0  0  0
 24 27  1  0  0  0  0
 25 28  2  0  0  0  0
 25 30  1  0  0  0  0
 27 29  1  0  0  0  0
 29 31  1  0  0  0  0
M  CHG  1  17  -1
M  END
>  <CHROM.1>
-126.37626784,141.67157769,-86.64180534,77.79824656,96.77156855,-44.27900753
-95.14897088,-116.67478373,171.81251190,-175.49679331,-174.90192329,58.73205559
7.93287191,17.91033605,50.24515858,1.02206529,0.02492686,0.86386080

>  <Name>
ligand

>  <RI>
0

>  <Rbt.Current_Directory>
/home/itssahil/PROJECTS/Mol_Feturizer/New_Systems/rnas/2HOO

>  <Rbt.Executable>
rbdock ($Id: //depot/dev/client3/rdock/2013.1/src/exe/rbdock.cxx#4 $)

>  <Rbt.Library>
libRbt.so (2013.1, Build901 2013/11/27)

>  <Rbt.Parameter_File>
/export/apps/rDock/src/rDock_2013.1_src/data/scripts/dock_solv.prm

>  <Rbt.Receptor>
prm/pocket_docking_8.prm

>  <SCORE>
-37.4654

>  <SCORE.INTER>
-22.3646

>  <SCORE.INTER.CONST>
1

>  <SCORE.INTER.POLAR>
0

>  <SCORE.INTER.ROT>
12

>  <SCORE.INTER.SOLV>
20.0502

>  <SCORE.INTER.VDW>
-33.1931

>  <SCORE.INTER.norm>
-0.721438

>  <SCORE.INTRA>
-15.1008

>  <SCORE.INTRA.DIHEDRAL>
-1.52886

>  <SCORE.INTRA.DIHEDRAL.0>
14.6094

>  <SCORE.INTRA.POLAR>
0

>  <SCORE.INTRA.POLAR.0>
0

>  <SCORE.INTRA.REPUL>
0

>  <SCORE.INTRA.REPUL.0>
0

>  <SCORE.INTRA.SOLV>
0.212886

>  <SCORE.INTRA.SOLV.lig_0>
-65.6478

>  <SCORE.INTRA.VDW>
-14.4428

>  <SCORE.INTRA.VDW.0>
9.35535

>  <SCORE.INTRA.norm>
-0.487123

>  <SCORE.RESTR>
0

>  <SCORE.RESTR.CAVITY>
0

>  <SCORE.RESTR.norm>
0

>  <SCORE.SYSTEM>
0

>  <SCORE.SYSTEM.CONST>
0

>  <SCORE.SYSTEM.DIHEDRAL>
0

>  <SCORE.SYSTEM.SOLV>
0

>  <SCORE.SYSTEM.norm>
0

>  <SCORE.heavy>
31

>  <SCORE.norm>
-1.20856

>  <RMSD>
7.151

$$$$
ligand
 OpenBabel11021811443D
libRbt.so/2013.1/901 2013/11/27
 31 32  0  0  0  0  0  0  0  0999 V2000
    9.7825   18.7855   54.1285 C   0  0  0  0  0  0  0  0  0  0  0  0
   11.2601   19.0634   54.3883 C   0  0  0  0  0  0  0  0  0  0  0  0
   12.1921   17.9783   54.4680 C   0  0  0  0  0  0  0  0  0  0  0  0
   13.5611   18.2423   54.7126 C   0  0  0  0  0  0  0  0  0  0  0  0
   14.0195   19.5729   54.8725 C   0  0  0  0  0  0  0  0  0  0  0  0
   13.1176   20.6532   54.7911 C   0  0  0  0  0  0  0  0  0  0  0  0
   11.7532   20.4116   54.5505 C   0  0  0  0  0  0  0  0  0  0  0  0
    9.1733   17.9868   54.8394 O   0  0  0  0  0  0  0  0  0  0  0  0
    6.9039   19.9680   44.8156 C   0  0  0  0  0  0  0  0  0  0  0  0
    6.5212   17.2370   53.3512 C   0  0  0  0  0  0  0  0  0  0  0  0
    5.0151   22.8462   56.0041 P   0  0  1  0  0  0  0  0  0  0  0  0
    7.5717   20.1318   47.1094 N   0  0  0  0  0  0  0  0  0  0  0  0
    5.8798   22.6892   57.1892 O   0  0  0  0  0  0  0  0  0  0  0  0
    9.1156   19.4230   53.0967 S   0  0  0  0  0  0  0  0  0  0  0  0
    5.2194   18.5907   50.6905 C   0  0  0  0  0  0  0  0  0  0  0  0
    7.0584   19.3286   46.1162 C   0  0  0  0  0  0  0  0  0  0  0  0
    3.7660   22.0384   56.0378 O   0  5  0  0  0  0  0  0  0  0  0  0
    6.4415   18.1011   51.0160 N   0  0  0  0  0  0  0  0  0  0  0  0
    6.7244   18.0878   46.2861 N   0  0  0  0  0  0  0  0  0  0  0  0
    4.7808   24.2825   55.7278 O   0  0  0  0  0  0  0  0  0  0  0  0
    6.8653   18.3519   52.4010 C   0  0  2  0  0  0  0  0  0  0  0  0
    6.8672   17.4897   47.5235 C   0  0  0  0  0  0  0  0  0  0  0  0
    6.5089   16.2110   47.6631 N   0  0  0  0  0  0  0  0  0  0  0  0
    7.5779   19.5220   52.9051 C   0  0  1  0  0  0  0  0  0  0  0  0
    7.3955   18.2753   48.6278 C   0  0  0  0  0  0  0  0  0  0  0  0
    5.2784   19.6937   50.1930 O   0  0  0  0  0  0  0  0  0  0  0  0
    6.9240   20.8096   53.2623 C   0  0  0  0  0  0  0  0  0  0  0  0
    7.7285   19.5833   48.3398 C   0  0  0  0  0  0  0  0  0  0  0  0
    6.2612   20.9533   54.5645 C   0  0  0  0  0  0  0  0  0  0  0  0
    7.5333   17.6900   50.0121 C   0  0  0  0  0  0  0  0  0  0  0  0
    5.7570   22.2889   54.7392 O   0  0  0  0  0  0  0  0  0  0  0  0
  1  2  1  0  0  0  0
  1  8  2  0  0  0  0
  1 14  1  0  0  0  0
  2  3  2  0  0  0  0
  2  7  1  0  0  0  0
  3  4  1  0  0  0  0
  4  5  2  0  0  0  0
  5  6  1  0  0  0  0
  6  7  2  0  0  0  0
  9 16  1  0  0  0  0
 10 21  1  0  0  0  0
 11 13  1  1  0  0  0
 11 17  1  0  0  0  0
 11 20  2  0  0  0  0
 11 31  1  0  0  0  0
 12 16  2  0  0  0  0
 12 28  1  0  0  0  0
 15 26  1  0  0  0  0
 15 18  1  0  0  0  0
 16 19  1  0  0  0  0
 18 30  1  0  0  0  0
 19 22  2  0  0  0  0
 21 18  1  6  0  0  0
 21 24  1  0  0  0  0
 22 23  1  0  0  0  0
 22 25  1  0  0  0  0
 24 14  1  1  0  0  0
 24 27  1  0  0  0  0
 25 28  2  0  0  0  0
 25 30  1  0  0  0  0
 27 29  1  0  0  0  0
 29 31  1  0  0  0  0
M  CHG  1  17  -1
M  END
>  <CHROM.1>
52.91266407,-164.25511439,-76.81393048,93.76568705,92.91161822,20.06071741
80.24528850,-98.60462290,-101.84427919,176.98165034,-178.66531138,57.81909639
7.65171774,19.74764896,52.31931887,-1.48981632,0.38252443,-1.94682136

>  <Name>
ligand

>  <RI>
0

>  <Rbt.Current_Directory>
/home/itssahil/PROJECTS/Mol_Feturizer/New_Systems/rnas/2HOO

>  <Rbt.Executable>
rbdock ($Id: //depot/dev/client3/rdock/2013.1/src/exe/rbdock.cxx#4 $)

>  <Rbt.Library>
libRbt.so (2013.1, Build901 2013/11/27)

>  <Rbt.Parameter_File>
/export/apps/rDock/src/rDock_2013.1_src/data/scripts/dock_solv.prm

>  <Rbt.Receptor>
prm/pocket_docking_6.prm

>  <SCORE>
-35.17

>  <SCORE.INTER>
-20.9789

>  <SCORE.INTER.CONST>
1

>  <SCORE.INTER.POLAR>
0

>  <SCORE.INTER.ROT>
12

>  <SCORE.INTER.SOLV>
10.2934

>  <SCORE.INTER.VDW>
-29.0171

>  <SCORE.INTER.norm>
-0.67674

>  <SCORE.INTRA>
-14.1911

>  <SCORE.INTRA.DIHEDRAL>
-0.875097

>  <SCORE.INTRA.DIHEDRAL.0>
14.6094

>  <SCORE.INTRA.POLAR>
0

>  <SCORE.INTRA.POLAR.0>
0

>  <SCORE.INTRA.REPUL>
0

>  <SCORE.INTRA.REPUL.0>
0

>  <SCORE.INTRA.SOLV>
0.681251

>  <SCORE.INTRA.SOLV.lig_0>
-65.6478

>  <SCORE.INTRA.VDW>
-14.0942

>  <SCORE.INTRA.VDW.0>
9.35535

>  <SCORE.INTRA.norm>
-0.457777

>  <SCORE.RESTR>
0

>  <SCORE.RESTR.CAVITY>
0

>  <SCORE.RESTR.norm>
0

>  <SCORE.SYSTEM>
0

>  <SCORE.SYSTEM.CONST>
0

>  <SCORE.SYSTEM.DIHEDRAL>
0

>  <SCORE.SYSTEM.SOLV>
0

>  <SCORE.SYSTEM.norm>
0

>  <SCORE.heavy>
31

>  <SCORE.norm>
-1.13452

>  <RMSD>
7.153

$$$$
ligand
 OpenBabel11021811443D
libRbt.so/2013.1/901 2013/11/27
 31 32  0  0  0  0  0  0  0  0999 V2000
    8.5581   22.7399   52.8391 C   0  0  0  0  0  0  0  0  0  0  0  0
    9.7433   21.8639   53.2340 C   0  0  0  0  0  0  0  0  0  0  0  0
    9.6535   20.4388   53.1185 C   0  0  0  0  0  0  0  0  0  0  0  0
   10.7553   19.6313   53.4896 C   0  0  0  0  0  0  0  0  0  0  0  0
   11.9505   20.2215   53.9683 C   0  0  0  0  0  0  0  0  0  0  0  0
   12.0588   21.6224   54.0827 C   0  0  0  0  0  0  0  0  0  0  0  0
   10.9746   22.4419   53.7209 C   0  0  0  0  0  0  0  0  0  0  0  0
    8.2711   23.7268   53.5160 O   0  0  0  0  0  0  0  0  0  0  0  0
    1.4219   21.5211   56.0055 C   0  0  0  0  0  0  0  0  0  0  0  0
    5.1512   20.0557   51.4153 C   0  0  0  0  0  0  0  0  0  0  0  0
    6.3622   17.4023   48.6539 P   0  0  1  0  0  0  0  0  0  0  0  0
    3.7228   22.0689   55.6314 N   0  0  0  0  0  0  0  0  0  0  0  0
    4.8890   17.3405   48.6002 O   0  0  0  0  0  0  0  0  0  0  0  0
    7.7968   22.4359   51.7239 S   0  0  0  0  0  0  0  0  0  0  0  0
    7.5615   18.2185   52.8616 C   0  0  0  0  0  0  0  0  0  0  0  0
    2.7495   21.0967   55.5796 C   0  0  0  0  0  0  0  0  0  0  0  0
    6.9860   16.4648   49.6266 O   0  5  0  0  0  0  0  0  0  0  0  0
    6.8659   19.3612   53.0838 N   0  0  0  0  0  0  0  0  0  0  0  0
    2.9593   19.8797   55.1860 N   0  0  0  0  0  0  0  0  0  0  0  0
    6.9291   17.2991   47.2893 O   0  0  0  0  0  0  0  0  0  0  0  0
    6.5775   20.1593   51.8835 C   0  0  2  0  0  0  0  0  0  0  0  0
    4.2220   19.4821   54.7900 C   0  0  0  0  0  0  0  0  0  0  0  0
    4.4025   18.2195   54.3948 N   0  0  0  0  0  0  0  0  0  0  0  0
    7.5045   21.0206   51.1558 C   0  0  1  0  0  0  0  0  0  0  0  0
    5.3073   20.4500   54.8242 C   0  0  0  0  0  0  0  0  0  0  0  0
    8.1932   17.8631   53.8322 O   0  0  0  0  0  0  0  0  0  0  0  0
    8.1847   20.6363   49.8898 C   0  0  0  0  0  0  0  0  0  0  0  0
    4.9768   21.7203   55.2505 C   0  0  0  0  0  0  0  0  0  0  0  0
    8.1555   19.2381   49.4426 C   0  0  0  0  0  0  0  0  0  0  0  0
    6.7161   20.0632   54.4453 C   0  0  0  0  0  0  0  0  0  0  0  0
    6.8064   18.8080   49.1901 O   0  0  0  0  0  0  0  0  0  0  0  0
  1  2  1  0  0  0  0
  1  8  2  0  0  0  0
  1 14  1  0  0  0  0
  2  3  2  0  0  0  0
  2  7  1  0  0  0  0
  3  4  1  0  0  0  0
  4  5  2  0  0  0  0
  5  6  1  0  0  0  0
  6  7  2  0  0  0  0
  9 16  1  0  0  0  0
 10 21  1  0  0  0  0
 11 13  1  6  0  0  0
 11 17  1  0  0  0  0
 11 20  2  0  0  0  0
 11 31  1  0  0  0  0
 12 16  2  0  0  0  0
 12 28  1  0  0  0  0
 15 26  1  0  0  0  0
 15 18  1  0  0  0  0
 16 19  1  0  0  0  0
 18 30  1  0  0  0  0
 19 22  2  0  0  0  0
 21 18  1  1  0  0  0
 21 24  1  0  0  0  0
 22 23  1  0  0  0  0
 22 25  1  0  0  0  0
 24 14  1  6  0  0  0
 24 27  1  0  0  0  0
 25 28  2  0  0  0  0
 25 30  1  0  0  0  0
 27 29  1  0  0  0  0
 29 31  1  0  0  0  0
M  CHG  1  17  -1
M  END
>  <CHROM.1>
140.34126300,31.53545497,72.92598583,154.22732262,104.41381946,-131.41489278
99.24750365,168.27773287,51.95901995,62.12527660,177.79985732,177.06440553
6.91269708,20.01940896,52.36450882,-1.91164475,-0.27174486,-2.16521243

>  <Name>
ligand

>  <RI>
0

>  <Rbt.Current_Directory>
/home/itssahil/PROJECTS/Mol_Feturizer/New_Systems/rnas/2HOO

>  <Rbt.Executable>
rbdock ($Id: //depot/dev/client3/rdock/2013.1/src/exe/rbdock.cxx#4 $)

>  <Rbt.Library>
libRbt.so (2013.1, Build901 2013/11/27)

>  <Rbt.Parameter_File>
/export/apps/rDock/src/rDock_2013.1_src/data/scripts/dock_solv.prm

>  <Rbt.Receptor>
prm/pocket_docking_3.prm

>  <SCORE>
-25.7204

>  <SCORE.INTER>
-14.4441

>  <SCORE.INTER.CONST>
1

>  <SCORE.INTER.POLAR>
0

>  <SCORE.INTER.ROT>
12

>  <SCORE.INTER.SOLV>
13.3809

>  <SCORE.INTER.VDW>
-25.6897

>  <SCORE.INTER.norm>
-0.46594

>  <SCORE.INTRA>
-11.2991

>  <SCORE.INTRA.DIHEDRAL>
1.85012

>  <SCORE.INTRA.DIHEDRAL.0>
14.6094

>  <SCORE.INTRA.POLAR>
0

>  <SCORE.INTRA.POLAR.0>
0

>  <SCORE.INTRA.REPUL>
0

>  <SCORE.INTRA.REPUL.0>
0

>  <SCORE.INTRA.SOLV>
6.42491

>  <SCORE.INTRA.SOLV.lig_0>
-65.6478

>  <SCORE.INTRA.VDW>
-15.4367

>  <SCORE.INTRA.VDW.0>
9.35535

>  <SCORE.INTRA.norm>
-0.364488

>  <SCORE.RESTR>
0.022858

>  <SCORE.RESTR.CAVITY>
0.022858

>  <SCORE.RESTR.norm>
0.000737356

>  <SCORE.SYSTEM>
0

>  <SCORE.SYSTEM.CONST>
0

>  <SCORE.SYSTEM.DIHEDRAL>
0

>  <SCORE.SYSTEM.SOLV>
0

>  <SCORE.SYSTEM.norm>
0

>  <SCORE.heavy>
31

>  <SCORE.norm>
-0.829691

>  <RMSD>
7.173

$$$$
ligand
 OpenBabel11021811443D
libRbt.so/2013.1/901 2013/11/27
 31 32  0  0  0  0  0  0  0  0999 V2000
    1.5678   23.7587   51.5831 C   0  0  0  0  0  0  0  0  0  0  0  0
    0.2420   24.2708   52.1381 C   0  0  0  0  0  0  0  0  0  0  0  0
    0.1188   24.5834   53.5307 C   0  0  0  0  0  0  0  0  0  0  0  0
   -1.1148   25.0549   54.0403 C   0  0  0  0  0  0  0  0  0  0  0  0
   -2.2285   25.2275   53.1822 C   0  0  0  0  0  0  0  0  0  0  0  0
   -2.1236   24.9307   51.8081 C   0  0  0  0  0  0  0  0  0  0  0  0
   -0.9071   24.4593   51.2829 C   0  0  0  0  0  0  0  0  0  0  0  0
    1.9679   24.1515   50.4877 O   0  0  0  0  0  0  0  0  0  0  0  0
    8.4849   19.9408   48.0982 C   0  0  0  0  0  0  0  0  0  0  0  0
    5.7098   23.6704   52.4913 C   0  0  0  0  0  0  0  0  0  0  0  0
    0.9263   24.7224   57.0160 P   0  0  1  0  0  0  0  0  0  0  0  0
    7.7584   21.0450   50.0950 N   0  0  0  0  0  0  0  0  0  0  0  0
   -0.0284   23.6699   56.6191 O   0  0  0  0  0  0  0  0  0  0  0  0
    2.3293   22.8518   52.2997 S   0  0  0  0  0  0  0  0  0  0  0  0
    5.7560   21.4012   54.8926 C   0  0  0  0  0  0  0  0  0  0  0  0
    7.6057   19.9609   49.2604 C   0  0  0  0  0  0  0  0  0  0  0  0
    0.9654   25.8983   56.1050 O   0  5  0  0  0  0  0  0  0  0  0  0
    5.3496   21.4690   53.6006 N   0  0  0  0  0  0  0  0  0  0  0  0
    6.7524   19.0059   49.4597 N   0  0  0  0  0  0  0  0  0  0  0  0
    0.7264   25.0852   58.4382 O   0  0  0  0  0  0  0  0  0  0  0  0
    4.7526   22.7516   53.2011 C   0  0  2  0  0  0  0  0  0  0  0  0
    5.9171   19.0346   50.5600 C   0  0  0  0  0  0  0  0  0  0  0  0
    5.0472   18.0361   50.7313 N   0  0  0  0  0  0  0  0  0  0  0  0
    3.3718   23.1803   53.4026 C   0  0  1  0  0  0  0  0  0  0  0  0
    6.0114   20.1524   51.4859 C   0  0  0  0  0  0  0  0  0  0  0  0
    6.9137   21.0605   54.9980 O   0  0  0  0  0  0  0  0  0  0  0  0
    2.8940   23.9273   54.5969 C   0  0  0  0  0  0  0  0  0  0  0  0
    6.9579   21.1117   51.1876 C   0  0  0  0  0  0  0  0  0  0  0  0
    2.9031   23.2782   55.9138 C   0  0  0  0  0  0  0  0  0  0  0  0
    5.0963   20.2610   52.6812 C   0  0  0  0  0  0  0  0  0  0  0  0
    2.3887   24.1620   56.9253 O   0  0  0  0  0  0  0  0  0  0  0  0
  1  2  1  0  0  0  0
  1  8  2  0  0  0  0
  1 14  1  0  0  0  0
  2  3  2  0  0  0  0
  2  7  1  0  0  0  0
  3  4  1  0  0  0  0
  4  5  2  0  0  0  0
  5  6  1  0  0  0  0
  6  7  2  0  0  0  0
  9 16  1  0  0  0  0
 10 21  1  0  0  0  0
 11 13  1  6  0  0  0
 11 17  1  0  0  0  0
 11 20  2  0  0  0  0
 11 31  1  0  0  0  0
 12 16  2  0  0  0  0
 12 28  1  0  0  0  0
 15 26  1  0  0  0  0
 15 18  1  0  0  0  0
 16 19  1  0  0  0  0
 18 30  1  0  0  0  0
 19 22  2  0  0  0  0
 21 18  1  6  0  0  0
 21 24  1  0  0  0  0
 22 23  1  0  0  0  0
 22 25  1  0  0  0  0
 24 14  1  6  0  0  0
 24 27  1  0  0  0  0
 25 28  2  0  0  0  0
 25 30  1  0  0  0  0
 27 29  1  0  0  0  0
 29 31  1  0  0  0  0
M  CHG  1  17  -1
M  END
>  <CHROM.1>
-139.87911022,-85.75559629,-120.43588523,-126.24405420,98.21525197,-115.78909490
89.23300455,114.46472292,177.73004067,-179.27208346,64.49125998,38.53425546
3.21446825,22.74864518,53.20439468,2.49822726,-0.49851546,1.36461252

>  <Name>
ligand

>  <RI>
0

>  <Rbt.Current_Directory>
/home/itssahil/PROJECTS/Mol_Feturizer/New_Systems/rnas/2HOO

>  <Rbt.Executable>
rbdock ($Id: //depot/dev/client3/rdock/2013.1/src/exe/rbdock.cxx#4 $)

>  <Rbt.Library>
libRbt.so (2013.1, Build901 2013/11/27)

>  <Rbt.Parameter_File>
/export/apps/rDock/src/rDock_2013.1_src/data/scripts/dock_solv.prm

>  <Rbt.Receptor>
prm/pocket_docking_8.prm

>  <SCORE>
-21.7712

>  <SCORE.INTER>
-8.44341

>  <SCORE.INTER.CONST>
1

>  <SCORE.INTER.POLAR>
0

>  <SCORE.INTER.ROT>
12

>  <SCORE.INTER.SOLV>
7.53905

>  <SCORE.INTER.VDW>
-19.742

>  <SCORE.INTER.norm>
-0.272368

>  <SCORE.INTRA>
-13.3278

>  <SCORE.INTRA.DIHEDRAL>
2.62782

>  <SCORE.INTRA.DIHEDRAL.0>
14.6094

>  <SCORE.INTRA.POLAR>
0

>  <SCORE.INTRA.POLAR.0>
0

>  <SCORE.INTRA.REPUL>
0

>  <SCORE.INTRA.REPUL.0>
0

>  <SCORE.INTRA.SOLV>
0.683527

>  <SCORE.INTRA.SOLV.lig_0>
-65.6478

>  <SCORE.INTRA.VDW>
-14.9834

>  <SCORE.INTRA.VDW.0>
9.35535

>  <SCORE.INTRA.norm>
-0.429928

>  <SCORE.RESTR>
0

>  <SCORE.RESTR.CAVITY>
0

>  <SCORE.RESTR.norm>
0

>  <SCORE.SYSTEM>
0

>  <SCORE.SYSTEM.CONST>
0

>  <SCORE.SYSTEM.DIHEDRAL>
0

>  <SCORE.SYSTEM.SOLV>
0

>  <SCORE.SYSTEM.norm>
0

>  <SCORE.heavy>
31

>  <SCORE.norm>
-0.702296

>  <RMSD>
7.174

$$$$
ligand
 OpenBabel11021811443D
libRbt.so/2013.1/901 2013/11/27
 31 32  0  0  0  0  0  0  0  0999 V2000
    8.7034   20.0211   53.1560 C   0  0  0  0  0  0  0  0  0  0  0  0
   10.1371   20.1717   53.6559 C   0  0  0  0  0  0  0  0  0  0  0  0
   10.9684   19.0156   53.8127 C   0  0  0  0  0  0  0  0  0  0  0  0
   12.2966   19.1614   54.2801 C   0  0  0  0  0  0  0  0  0  0  0  0
   12.8140   20.4435   54.5878 C   0  0  0  0  0  0  0  0  0  0  0  0
   12.0122   21.5927   54.4336 C   0  0  0  0  0  0  0  0  0  0  0  0
   10.6894   21.4686   53.9723 C   0  0  0  0  0  0  0  0  0  0  0  0
    7.8680   20.8865   53.4162 O   0  0  0  0  0  0  0  0  0  0  0  0
   10.6198   15.1691   43.5994 C   0  0  0  0  0  0  0  0  0  0  0  0
    7.3458   16.5397   50.2052 C   0  0  0  0  0  0  0  0  0  0  0  0
    3.3592   21.3625   51.7044 P   0  0  1  0  0  0  0  0  0  0  0  0
    9.8851   15.4933   45.8554 N   0  0  0  0  0  0  0  0  0  0  0  0
    2.1511   22.0031   51.1504 O   0  0  0  0  0  0  0  0  0  0  0  0
    8.3284   18.9168   52.4106 S   0  0  0  0  0  0  0  0  0  0  0  0
    9.7081   18.5356   48.9020 C   0  0  0  0  0  0  0  0  0  0  0  0
    9.8160   15.9264   44.5505 C   0  0  0  0  0  0  0  0  0  0  0  0
    4.4943   22.2921   51.9524 O   0  5  0  0  0  0  0  0  0  0  0  0
    8.3707   18.3308   48.8096 N   0  0  0  0  0  0  0  0  0  0  0  0
    9.0991   16.9318   44.1563 N   0  0  0  0  0  0  0  0  0  0  0  0
    3.0063   20.5360   52.8819 O   0  0  0  0  0  0  0  0  0  0  0  0
    7.7020   17.9959   50.0751 C   0  0  2  0  0  0  0  0  0  0  0  0
    8.3446   17.6497   45.0644 C   0  0  0  0  0  0  0  0  0  0  0  0
    7.6215   18.6820   44.6236 N   0  0  0  0  0  0  0  0  0  0  0  0
    7.3903   18.9056   51.1733 C   0  0  1  0  0  0  0  0  0  0  0  0
    8.3709   17.2592   46.4654 C   0  0  0  0  0  0  0  0  0  0  0  0
   10.3023   17.5550   49.2928 O   0  0  0  0  0  0  0  0  0  0  0  0
    6.2183   19.8216   51.1934 C   0  0  0  0  0  0  0  0  0  0  0  0
    9.1589   16.1705   46.7791 C   0  0  0  0  0  0  0  0  0  0  0  0
    4.8772   19.2948   50.9115 C   0  0  0  0  0  0  0  0  0  0  0  0
    7.6025   18.0314   47.5099 C   0  0  0  0  0  0  0  0  0  0  0  0
    3.9506   20.3633   50.6496 O   0  0  0  0  0  0  0  0  0  0  0  0
  1  2  1  0  0  0  0
  1  8  2  0  0  0  0
  1 14  1  0  0  0  0
  2  3  2  0  0  0  0
  2  7  1  0  0  0  0
  3  4  1  0  0  0  0
  4  5  2  0  0  0  0
  5  6  1  0  0  0  0
  6  7  2  0  0  0  0
  9 16  1  0  0  0  0
 10 21  1  0  0  0  0
 11 13  1  6  0  0  0
 11 17  1  0  0  0  0
 11 20  2  0  0  0  0
 11 31  1  0  0  0  0
 12 16  2  0  0  0  0
 12 28  1  0  0  0  0
 15 26  1  0  0  0  0
 15 18  1  0  0  0  0
 16 19  1  0  0  0  0
 18 30  1  0  0  0  0
 19 22  2  0  0  0  0
 21 18  1  1  0  0  0
 21 24  1  0  0  0  0
 22 23  1  0  0  0  0
 22 25  1  0  0  0  0
 24 14  1  1  0  0  0
 24 27  1  0  0  0  0
 25 28  2  0  0  0  0
 25 30  1  0  0  0  0
 27 29  1  0  0  0  0
 29 31  1  0  0  0  0
M  CHG  1  17  -1
M  END
>  <CHROM.1>
156.57967139,-139.54257308,142.63395046,61.28905225,-104.17166517,31.65098495
78.71143020,-128.41968097,-135.12605536,-165.55466823,-72.57130211,-161.78986268
7.82624058,19.03917921,50.17238214,-1.89929804,0.26824507,-2.00413217

>  <Name>
ligand

>  <RI>
0

>  <Rbt.Current_Directory>
/home/itssahil/PROJECTS/Mol_Feturizer/New_Systems/rnas/2HOO

>  <Rbt.Executable>
rbdock ($Id: //depot/dev/client3/rdock/2013.1/src/exe/rbdock.cxx#4 $)

>  <Rbt.Library>
libRbt.so (2013.1, Build901 2013/11/27)

>  <Rbt.Parameter_File>
/export/apps/rDock/src/rDock_2013.1_src/data/scripts/dock_solv.prm

>  <Rbt.Receptor>
prm/pocket_docking_6.prm

>  <SCORE>
-31.3647

>  <SCORE.INTER>
-21.1453

>  <SCORE.INTER.CONST>
1

>  <SCORE.INTER.POLAR>
0

>  <SCORE.INTER.ROT>
12

>  <SCORE.INTER.SOLV>
12.1785

>  <SCORE.INTER.VDW>
-29.7563

>  <SCORE.INTER.norm>
-0.682105

>  <SCORE.INTRA>
-10.2644

>  <SCORE.INTRA.DIHEDRAL>
1.81257

>  <SCORE.INTRA.DIHEDRAL.0>
14.6094

>  <SCORE.INTRA.POLAR>
0

>  <SCORE.INTRA.POLAR.0>
0

>  <SCORE.INTRA.REPUL>
0

>  <SCORE.INTRA.REPUL.0>
0

>  <SCORE.INTRA.SOLV>
1.32081

>  <SCORE.INTRA.SOLV.lig_0>
-65.6478

>  <SCORE.INTRA.VDW>
-11.8311

>  <SCORE.INTRA.VDW.0>
9.35535

>  <SCORE.INTRA.norm>
-0.33111

>  <SCORE.RESTR>
0.0450302

>  <SCORE.RESTR.CAVITY>
0.0450302

>  <SCORE.RESTR.norm>
0.00145259

>  <SCORE.SYSTEM>
0

>  <SCORE.SYSTEM.CONST>
0

>  <SCORE.SYSTEM.DIHEDRAL>
0

>  <SCORE.SYSTEM.SOLV>
0

>  <SCORE.SYSTEM.norm>
0

>  <SCORE.heavy>
31

>  <SCORE.norm>
-1.01176

>  <RMSD>
7.175

$$$$
ligand
 OpenBabel11021811443D
libRbt.so/2013.1/901 2013/11/27
 31 32  0  0  0  0  0  0  0  0999 V2000
    6.7876   16.7174   50.9027 C   0  0  0  0  0  0  0  0  0  0  0  0
    7.3420   17.3052   52.1970 C   0  0  0  0  0  0  0  0  0  0  0  0
    8.0959   18.5230   52.1680 C   0  0  0  0  0  0  0  0  0  0  0  0
    8.6105   19.0616   53.3717 C   0  0  0  0  0  0  0  0  0  0  0  0
    8.3800   18.4095   54.6077 C   0  0  0  0  0  0  0  0  0  0  0  0
    7.6351   17.2136   54.6558 C   0  0  0  0  0  0  0  0  0  0  0  0
    7.1170   16.6615   53.4706 C   0  0  0  0  0  0  0  0  0  0  0  0
    7.3523   15.7624   50.3703 O   0  0  0  0  0  0  0  0  0  0  0  0
    9.0817   16.4929   45.0155 C   0  0  0  0  0  0  0  0  0  0  0  0
    2.6236   14.8583   50.8534 C   0  0  0  0  0  0  0  0  0  0  0  0
    5.0218   20.4918   52.2831 P   0  0  1  0  0  0  0  0  0  0  0  0
    7.3713   16.7466   46.6721 N   0  0  0  0  0  0  0  0  0  0  0  0
    5.3737   19.3337   53.1266 O   0  0  0  0  0  0  0  0  0  0  0  0
    5.6521   17.2488   50.3162 S   0  0  0  0  0  0  0  0  0  0  0  0
    3.2784   15.5024   47.7125 C   0  0  0  0  0  0  0  0  0  0  0  0
    8.1522   15.8720   45.9507 C   0  0  0  0  0  0  0  0  0  0  0  0
    4.0877   21.4599   52.9191 O   0  5  0  0  0  0  0  0  0  0  0  0
    3.9838   15.0393   48.7741 N   0  0  0  0  0  0  0  0  0  0  0  0
    8.0945   14.5823   46.0665 N   0  0  0  0  0  0  0  0  0  0  0  0
    6.2480   21.1238   51.7435 O   0  0  0  0  0  0  0  0  0  0  0  0
    3.6359   15.6463   50.0669 C   0  0  2  0  0  0  0  0  0  0  0  0
    7.2062   13.9999   46.9503 C   0  0  0  0  0  0  0  0  0  0  0  0
    7.1709   12.6682   47.0402 N   0  0  0  0  0  0  0  0  0  0  0  0
    4.1792   16.8756   50.6365 C   0  0  1  0  0  0  0  0  0  0  0  0
    6.3394   14.8571   47.7438 C   0  0  0  0  0  0  0  0  0  0  0  0
    2.4112   14.7334   47.3600 O   0  0  0  0  0  0  0  0  0  0  0  0
    3.4154   17.7967   51.5203 C   0  0  0  0  0  0  0  0  0  0  0  0
    6.4858   16.2160   47.5516 C   0  0  0  0  0  0  0  0  0  0  0  0
    3.0625   19.1393   51.0421 C   0  0  0  0  0  0  0  0  0  0  0  0
    5.3192   14.2783   48.6935 C   0  0  0  0  0  0  0  0  0  0  0  0
    4.2150   19.9997   51.0310 O   0  0  0  0  0  0  0  0  0  0  0  0
  1  2  1  0  0  0  0
  1  8  2  0  0  0  0
  1 14  1  0  0  0  0
  2  3  2  0  0  0  0
  2  7  1  0  0  0  0
  3  4  1  0  0  0  0
  4  5  2  0  0  0  0
  5  6  1  0  0  0  0
  6  7  2  0  0  0  0
  9 16  1  0  0  0  0
 10 21  1  0  0  0  0
 11 13  1  1  0  0  0
 11 17  1  0  0  0  0
 11 20  2  0  0  0  0
 11 31  1  0  0  0  0
 12 16  2  0  0  0  0
 12 28  1  0  0  0  0
 15 26  1  0  0  0  0
 15 18  1  0  0  0  0
 16 19  1  0  0  0  0
 18 30  1  0  0  0  0
 19 22  2  0  0  0  0
 21 18  1  1  0  0  0
 21 24  1  0  0  0  0
 22 23  1  0  0  0  0
 22 25  1  0  0  0  0
 24 14  1  1  0  0  0
 24 27  1  0  0  0  0
 25 28  2  0  0  0  0
 25 30  1  0  0  0  0
 27 29  1  0  0  0  0
 29 31  1  0  0  0  0
M  CHG  1  17  -1
M  END
>  <CHROM.1>
102.24922433,-86.43899359,-78.80979822,-102.84600377,94.64586284,44.96156712
146.43400084,68.08998109,-142.69534302,-74.06377548,-65.76516710,50.72705932
5.79137289,17.11783504,50.15856184,-1.66557182,-0.02174454,-2.25553008

>  <Name>
ligand

>  <RI>
0

>  <Rbt.Current_Directory>
/home/itssahil/PROJECTS/Mol_Feturizer/New_Systems/rnas/2HOO

>  <Rbt.Executable>
rbdock ($Id: //depot/dev/client3/rdock/2013.1/src/exe/rbdock.cxx#4 $)

>  <Rbt.Library>
libRbt.so (2013.1, Build901 2013/11/27)

>  <Rbt.Parameter_File>
/export/apps/rDock/src/rDock_2013.1_src/data/scripts/dock_solv.prm

>  <Rbt.Receptor>
prm/pocket_docking_4.prm

>  <SCORE>
-22.7079

>  <SCORE.INTER>
-10.078

>  <SCORE.INTER.CONST>
1

>  <SCORE.INTER.POLAR>
0

>  <SCORE.INTER.ROT>
12

>  <SCORE.INTER.SOLV>
9.90349

>  <SCORE.INTER.VDW>
-21.6198

>  <SCORE.INTER.norm>
-0.325096

>  <SCORE.INTRA>
-12.6433

>  <SCORE.INTRA.DIHEDRAL>
6.17775

>  <SCORE.INTRA.DIHEDRAL.0>
14.6094

>  <SCORE.INTRA.POLAR>
0

>  <SCORE.INTRA.POLAR.0>
0

>  <SCORE.INTRA.REPUL>
0

>  <SCORE.INTRA.REPUL.0>
0

>  <SCORE.INTRA.SOLV>
1.91297

>  <SCORE.INTRA.SOLV.lig_0>
-65.6478

>  <SCORE.INTRA.VDW>
-16.6887

>  <SCORE.INTRA.VDW.0>
9.35535

>  <SCORE.INTRA.norm>
-0.40785

>  <SCORE.RESTR>
0.0134021

>  <SCORE.RESTR.CAVITY>
0.0134021

>  <SCORE.RESTR.norm>
0.000432326

>  <SCORE.SYSTEM>
0

>  <SCORE.SYSTEM.CONST>
0

>  <SCORE.SYSTEM.DIHEDRAL>
0

>  <SCORE.SYSTEM.SOLV>
0

>  <SCORE.SYSTEM.norm>
0

>  <SCORE.heavy>
31

>  <SCORE.norm>
-0.732514

>  <RMSD>
7.196

$$$$
ligand
 OpenBabel11021811443D
libRbt.so/2013.1/901 2013/11/27
 31 32  0  0  0  0  0  0  0  0999 V2000
    9.7994   17.2278   49.0754 C   0  0  0  0  0  0  0  0  0  0  0  0
    9.7753   16.6461   47.6650 C   0  0  0  0  0  0  0  0  0  0  0  0
    9.0118   17.2873   46.6363 C   0  0  0  0  0  0  0  0  0  0  0  0
    8.9908   16.7410   45.3306 C   0  0  0  0  0  0  0  0  0  0  0  0
    9.7251   15.5677   45.0300 C   0  0  0  0  0  0  0  0  0  0  0  0
   10.4868   14.9270   46.0283 C   0  0  0  0  0  0  0  0  0  0  0  0
   10.5192   15.4532   47.3322 C   0  0  0  0  0  0  0  0  0  0  0  0
   10.6114   18.1064   49.3638 O   0  0  0  0  0  0  0  0  0  0  0  0
    2.1099   16.8325   55.8545 C   0  0  0  0  0  0  0  0  0  0  0  0
    6.9672   17.0857   52.6278 C   0  0  0  0  0  0  0  0  0  0  0  0
    6.2278   12.7327   49.3149 P   0  0  1  0  0  0  0  0  0  0  0  0
    3.7861   18.2142   54.8467 N   0  0  0  0  0  0  0  0  0  0  0  0
    4.9589   12.5714   50.0503 O   0  0  0  0  0  0  0  0  0  0  0  0
    8.9155   16.7760   50.0400 S   0  0  0  0  0  0  0  0  0  0  0  0
    6.9856   20.1163   51.0402 C   0  0  0  0  0  0  0  0  0  0  0  0
    2.7075   17.3830   54.6445 C   0  0  0  0  0  0  0  0  0  0  0  0
    7.3986   12.0663   49.9468 O   0  5  0  0  0  0  0  0  0  0  0  0
    6.1894   19.0526   51.3115 N   0  0  0  0  0  0  0  0  0  0  0  0
    2.2279   17.0869   53.4773 N   0  0  0  0  0  0  0  0  0  0  0  0
    6.0431   12.3727   47.8899 O   0  0  0  0  0  0  0  0  0  0  0  0
    6.8619   17.7458   51.2797 C   0  0  2  0  0  0  0  0  0  0  0  0
    2.8036   17.6070   52.3338 C   0  0  0  0  0  0  0  0  0  0  0  0
    2.2860   17.2769   51.1480 N   0  0  0  0  0  0  0  0  0  0  0  0
    7.3897   17.0560   50.1065 C   0  0  1  0  0  0  0  0  0  0  0  0
    3.9538   18.4879   52.4634 C   0  0  0  0  0  0  0  0  0  0  0  0
    6.9574   20.9529   51.9159 O   0  0  0  0  0  0  0  0  0  0  0  0
    6.5601   16.6102   48.9550 C   0  0  0  0  0  0  0  0  0  0  0  0
    4.3805   18.7466   53.7501 C   0  0  0  0  0  0  0  0  0  0  0  0
    5.7841   15.3677   49.0540 C   0  0  0  0  0  0  0  0  0  0  0  0
    4.6515   19.0514   51.2495 C   0  0  0  0  0  0  0  0  0  0  0  0
    6.6439   14.2452   49.3173 O   0  0  0  0  0  0  0  0  0  0  0  0
  1  2  1  0  0  0  0
  1  8  2  0  0  0  0
  1 14  1  0  0  0  0
  2  3  2  0  0  0  0
  2  7  1  0  0  0  0
  3  4  1  0  0  0  0
  4  5  2  0  0  0  0
  5  6  1  0  0  0  0
  6  7  2  0  0  0  0
  9 16  1  0  0  0  0
 10 21  1  0  0  0  0
 11 13  1  1  0  0  0
 11 17  1  0  0  0  0
 11 20  2  0  0  0  0
 11 31  1  0  0  0  0
 12 16  2  0  0  0  0
 12 28  1  0  0  0  0
 15 26  1  0  0  0  0
 15 18  1  0  0  0  0
 16 19  1  0  0  0  0
 18 30  1  0  0  0  0
 19 22  2  0  0  0  0
 21 18  1  6  0  0  0
 21 24  1  0  0  0  0
 22 23  1  0  0  0  0
 22 25  1  0  0  0  0
 24 14  1  6  0  0  0
 24 27  1  0  0  0  0
 25 28  2  0  0  0  0
 25 30  1  0  0  0  0
 27 29  1  0  0  0  0
 29 31  1  0  0  0  0
M  CHG  1  17  -1
M  END
>  <CHROM.1>
-86.17517740,-72.06681640,-120.00242200,-124.81453323,112.07019761,-130.31916465
-63.65625335,100.54215838,-137.72774849,-58.95684894,-171.86038261,-45.16135318
6.54909535,16.49227952,50.30471963,-0.61291033,0.67549573,0.43678348

>  <Name>
ligand

>  <RI>
0

>  <Rbt.Current_Directory>
/home/itssahil/PROJECTS/Mol_Feturizer/New_Systems/rnas/2HOO

>  <Rbt.Executable>
rbdock ($Id: //depot/dev/client3/rdock/2013.1/src/exe/rbdock.cxx#4 $)

>  <Rbt.Library>
libRbt.so (2013.1, Build901 2013/11/27)

>  <Rbt.Parameter_File>
/export/apps/rDock/src/rDock_2013.1_src/data/scripts/dock_solv.prm

>  <Rbt.Receptor>
prm/pocket_docking_7.prm

>  <SCORE>
-30.7817

>  <SCORE.INTER>
-16.2179

>  <SCORE.INTER.CONST>
1

>  <SCORE.INTER.POLAR>
0

>  <SCORE.INTER.ROT>
12

>  <SCORE.INTER.SOLV>
19.8322

>  <SCORE.INTER.VDW>
-29.0227

>  <SCORE.INTER.norm>
-0.523159

>  <SCORE.INTRA>
-14.5638

>  <SCORE.INTRA.DIHEDRAL>
2.36816

>  <SCORE.INTRA.DIHEDRAL.0>
14.6094

>  <SCORE.INTRA.POLAR>
0

>  <SCORE.INTRA.POLAR.0>
0

>  <SCORE.INTRA.REPUL>
0

>  <SCORE.INTRA.REPUL.0>
0

>  <SCORE.INTRA.SOLV>
-1.17818

>  <SCORE.INTRA.SOLV.lig_0>
-65.6478

>  <SCORE.INTRA.VDW>
-15.1588

>  <SCORE.INTRA.VDW.0>
9.35535

>  <SCORE.INTRA.norm>
-0.469801

>  <SCORE.RESTR>
0

>  <SCORE.RESTR.CAVITY>
0

>  <SCORE.RESTR.norm>
0

>  <SCORE.SYSTEM>
0

>  <SCORE.SYSTEM.CONST>
0

>  <SCORE.SYSTEM.DIHEDRAL>
0

>  <SCORE.SYSTEM.SOLV>
0

>  <SCORE.SYSTEM.norm>
0

>  <SCORE.heavy>
31

>  <SCORE.norm>
-0.992959

>  <RMSD>
7.202

$$$$
ligand
 OpenBabel11021811443D
libRbt.so/2013.1/901 2013/11/27
 31 32  0  0  0  0  0  0  0  0999 V2000
    8.5805   22.2567   52.2651 C   0  0  0  0  0  0  0  0  0  0  0  0
    9.7741   21.7490   53.0686 C   0  0  0  0  0  0  0  0  0  0  0  0
    9.9255   20.3472   53.3223 C   0  0  0  0  0  0  0  0  0  0  0  0
   11.0332   19.8827   54.0712 C   0  0  0  0  0  0  0  0  0  0  0  0
   11.9989   20.7927   54.5667 C   0  0  0  0  0  0  0  0  0  0  0  0
   11.8692   22.1749   54.3214 C   0  0  0  0  0  0  0  0  0  0  0  0
   10.7747   22.6564   53.5810 C   0  0  0  0  0  0  0  0  0  0  0  0
    8.1449   23.3906   52.4622 O   0  0  0  0  0  0  0  0  0  0  0  0
    1.3033   16.9487   56.3594 C   0  0  0  0  0  0  0  0  0  0  0  0
    6.3791   19.7759   54.0049 C   0  0  0  0  0  0  0  0  0  0  0  0
    4.2592   17.3521   50.4917 P   0  0  1  0  0  0  0  0  0  0  0  0
    3.0812   17.5505   54.8724 N   0  0  0  0  0  0  0  0  0  0  0  0
    5.0741   16.9559   51.6561 O   0  0  0  0  0  0  0  0  0  0  0  0
    7.9775   21.4529   51.3132 S   0  0  0  0  0  0  0  0  0  0  0  0
    4.8301   22.4857   52.6964 C   0  0  0  0  0  0  0  0  0  0  0  0
    1.8213   17.8510   55.3389 C   0  0  0  0  0  0  0  0  0  0  0  0
    4.4134   16.4737   49.3006 O   0  5  0  0  0  0  0  0  0  0  0  0
    4.7499   21.1320   52.6961 N   0  0  0  0  0  0  0  0  0  0  0  0
    1.1146   18.8558   54.9253 N   0  0  0  0  0  0  0  0  0  0  0  0
    2.8487   17.5519   50.8979 O   0  0  0  0  0  0  0  0  0  0  0  0
    6.0419   20.4306   52.6927 C   0  0  2  0  0  0  0  0  0  0  0  0
    1.6091   19.7035   53.9526 C   0  0  0  0  0  0  0  0  0  0  0  0
    0.8517   20.7259   53.5473 N   0  0  0  0  0  0  0  0  0  0  0  0
    6.9697   20.3006   51.5733 C   0  0  1  0  0  0  0  0  0  0  0  0
    2.9311   19.4478   53.4024 C   0  0  0  0  0  0  0  0  0  0  0  0
    4.9688   22.9425   53.8098 O   0  0  0  0  0  0  0  0  0  0  0  0
    7.0076   19.1352   50.6496 C   0  0  0  0  0  0  0  0  0  0  0  0
    3.6042   18.3583   53.9168 C   0  0  0  0  0  0  0  0  0  0  0  0
    6.0751   19.0727   49.5171 C   0  0  0  0  0  0  0  0  0  0  0  0
    3.5063   20.3128   52.3074 C   0  0  0  0  0  0  0  0  0  0  0  0
    4.7473   18.7460   49.9629 O   0  0  0  0  0  0  0  0  0  0  0  0
  1  2  1  0  0  0  0
  1  8  2  0  0  0  0
  1 14  1  0  0  0  0
  2  3  2  0  0  0  0
  2  7  1  0  0  0  0
  3  4  1  0  0  0  0
  4  5  2  0  0  0  0
  5  6  1  0  0  0  0
  6  7  2  0  0  0  0
  9 16  1  0  0  0  0
 10 21  1  0  0  0  0
 11 13  1  1  0  0  0
 11 17  1  0  0  0  0
 11 20  2  0  0  0  0
 11 31  1  0  0  0  0
 12 16  2  0  0  0  0
 12 28  1  0  0  0  0
 15 26  1  0  0  0  0
 15 18  1  0  0  0  0
 16 19  1  0  0  0  0
 18 30  1  0  0  0  0
 19 22  2  0  0  0  0
 21 18  1  6  0  0  0
 21 24  1  0  0  0  0
 22 23  1  0  0  0  0
 22 25  1  0  0  0  0
 24 14  1  6  0  0  0
 24 27  1  0  0  0  0
 25 28  2  0  0  0  0
 25 30  1  0  0  0  0
 27 29  1  0  0  0  0
 29 31  1  0  0  0  0
M  CHG  1  17  -1
M  END
>  <CHROM.1>
151.74113378,78.92142818,33.71393935,-84.41845056,107.55454591,-117.99328438
-96.87080005,-96.40610310,114.65928597,-74.62253705,-71.66889531,58.02852611
5.66262088,19.81347554,52.60664995,0.22354662,0.38312040,0.98998744

>  <Name>
ligand

>  <RI>
0

>  <Rbt.Current_Directory>
/home/itssahil/PROJECTS/Mol_Feturizer/New_Systems/rnas/2HOO

>  <Rbt.Executable>
rbdock ($Id: //depot/dev/client3/rdock/2013.1/src/exe/rbdock.cxx#4 $)

>  <Rbt.Library>
libRbt.so (2013.1, Build901 2013/11/27)

>  <Rbt.Parameter_File>
/export/apps/rDock/src/rDock_2013.1_src/data/scripts/dock_solv.prm

>  <Rbt.Receptor>
prm/pocket_docking_4.prm

>  <SCORE>
-31.5377

>  <SCORE.INTER>
-18.642

>  <SCORE.INTER.CONST>
1

>  <SCORE.INTER.POLAR>
0

>  <SCORE.INTER.ROT>
12

>  <SCORE.INTER.SOLV>
11.2909

>  <SCORE.INTER.VDW>
-27.7916

>  <SCORE.INTER.norm>
-0.601355

>  <SCORE.INTRA>
-12.8957

>  <SCORE.INTRA.DIHEDRAL>
4.72344

>  <SCORE.INTRA.DIHEDRAL.0>
14.6094

>  <SCORE.INTRA.POLAR>
0

>  <SCORE.INTRA.POLAR.0>
0

>  <SCORE.INTRA.REPUL>
0

>  <SCORE.INTRA.REPUL.0>
0

>  <SCORE.INTRA.SOLV>
3.54412

>  <SCORE.INTRA.SOLV.lig_0>
-65.6478

>  <SCORE.INTRA.VDW>
-17.0295

>  <SCORE.INTRA.VDW.0>
9.35535

>  <SCORE.INTRA.norm>
-0.41599

>  <SCORE.RESTR>
0

>  <SCORE.RESTR.CAVITY>
0

>  <SCORE.RESTR.norm>
0

>  <SCORE.SYSTEM>
0

>  <SCORE.SYSTEM.CONST>
0

>  <SCORE.SYSTEM.DIHEDRAL>
0

>  <SCORE.SYSTEM.SOLV>
0

>  <SCORE.SYSTEM.norm>
0

>  <SCORE.heavy>
31

>  <SCORE.norm>
-1.01734

>  <RMSD>
7.208

$$$$
ligand
 OpenBabel11021811443D
libRbt.so/2013.1/901 2013/11/27
 31 32  0  0  0  0  0  0  0  0999 V2000
    9.4869   18.9800   52.6366 C   0  0  0  0  0  0  0  0  0  0  0  0
   10.6912   19.5720   53.3626 C   0  0  0  0  0  0  0  0  0  0  0  0
   10.6519   20.9235   53.8359 C   0  0  0  0  0  0  0  0  0  0  0  0
   11.7736   21.4681   54.5059 C   0  0  0  0  0  0  0  0  0  0  0  0
   12.9342   20.6846   54.7191 C   0  0  0  0  0  0  0  0  0  0  0  0
   12.9882   19.3509   54.2656 C   0  0  0  0  0  0  0  0  0  0  0  0
   11.8847   18.7921   53.5962 C   0  0  0  0  0  0  0  0  0  0  0  0
    9.5963   18.6056   51.4694 O   0  0  0  0  0  0  0  0  0  0  0  0
    1.5345   15.0638   50.5086 C   0  0  0  0  0  0  0  0  0  0  0  0
    7.4714   21.6772   51.4470 C   0  0  0  0  0  0  0  0  0  0  0  0
    4.5715   22.3907   56.8371 P   0  0  1  0  0  0  0  0  0  0  0  0
    3.2972   16.4992   49.7558 N   0  0  0  0  0  0  0  0  0  0  0  0
    5.7426   22.8250   57.6225 O   0  0  0  0  0  0  0  0  0  0  0  0
    8.2660   18.8596   53.2774 S   0  0  0  0  0  0  0  0  0  0  0  0
    6.6357   19.0095   49.7930 C   0  0  0  0  0  0  0  0  0  0  0  0
    2.2565   16.3230   50.6397 C   0  0  0  0  0  0  0  0  0  0  0  0
    3.4613   21.8186   57.6460 O   0  5  0  0  0  0  0  0  0  0  0  0
    5.9901   19.8400   50.6488 N   0  0  0  0  0  0  0  0  0  0  0  0
    1.9125   17.1912   51.5385 N   0  0  0  0  0  0  0  0  0  0  0  0
    4.1378   23.4730   55.9234 O   0  0  0  0  0  0  0  0  0  0  0  0
    6.8111   20.3599   51.7519 C   0  0  2  0  0  0  0  0  0  0  0  0
    2.5971   18.3861   51.6528 C   0  0  0  0  0  0  0  0  0  0  0  0
    2.2124   19.2590   52.5872 N   0  0  0  0  0  0  0  0  0  0  0  0
    7.0119   19.7497   53.0627 C   0  0  1  0  0  0  0  0  0  0  0  0
    3.7053   18.6512   50.7487 C   0  0  0  0  0  0  0  0  0  0  0  0
    7.3992   19.5993   49.0605 O   0  0  0  0  0  0  0  0  0  0  0  0
    6.0829   19.9140   54.2128 C   0  0  0  0  0  0  0  0  0  0  0  0
    3.9959   17.6589   49.8346 C   0  0  0  0  0  0  0  0  0  0  0  0
    6.0442   21.1880   54.9417 C   0  0  0  0  0  0  0  0  0  0  0  0
    4.4625   19.9559   50.7966 C   0  0  0  0  0  0  0  0  0  0  0  0
    4.9799   21.1937   55.9092 O   0  0  0  0  0  0  0  0  0  0  0  0
  1  2  1  0  0  0  0
  1  8  2  0  0  0  0
  1 14  1  0  0  0  0
  2  3  2  0  0  0  0
  2  7  1  0  0  0  0
  3  4  1  0  0  0  0
  4  5  2  0  0  0  0
  5  6  1  0  0  0  0
  6  7  2  0  0  0  0
  9 16  1  0  0  0  0
 10 21  1  0  0  0  0
 11 13  1  1  0  0  0
 11 17  1  0  0  0  0
 11 20  2  0  0  0  0
 11 31  1  0  0  0  0
 12 16  2  0  0  0  0
 12 28  1  0  0  0  0
 15 26  1  0  0  0  0
 15 18  1  0  0  0  0
 16 19  1  0  0  0  0
 18 30  1  0  0  0  0
 19 22  2  0  0  0  0
 21 18  1  1  0  0  0
 21 24  1  0  0  0  0
 22 23  1  0  0  0  0
 22 25  1  0  0  0  0
 24 14  1  6  0  0  0
 24 27  1  0  0  0  0
 25 28  2  0  0  0  0
 25 30  1  0  0  0  0
 27 29  1  0  0  0  0
 29 31  1  0  0  0  0
M  CHG  1  17  -1
M  END
>  <CHROM.1>
118.04688655,104.77674892,29.27691477,-73.80832066,91.97038801,40.51097189
-85.81359673,106.70193804,138.61533231,173.31389096,-177.06399792,-55.88318504
6.35025464,19.78120761,53.06718463,-0.56865198,-0.05145913,-2.19184766

>  <Name>
ligand

>  <RI>
0

>  <Rbt.Current_Directory>
/home/itssahil/PROJECTS/Mol_Feturizer/New_Systems/rnas/2HOO

>  <Rbt.Executable>
rbdock ($Id: //depot/dev/client3/rdock/2013.1/src/exe/rbdock.cxx#4 $)

>  <Rbt.Library>
libRbt.so (2013.1, Build901 2013/11/27)

>  <Rbt.Parameter_File>
/export/apps/rDock/src/rDock_2013.1_src/data/scripts/dock_solv.prm

>  <Rbt.Receptor>
prm/pocket_docking_4.prm

>  <SCORE>
-34.5173

>  <SCORE.INTER>
-21.7617

>  <SCORE.INTER.CONST>
1

>  <SCORE.INTER.POLAR>
0

>  <SCORE.INTER.ROT>
12

>  <SCORE.INTER.SOLV>
10.7714

>  <SCORE.INTER.VDW>
-29.6983

>  <SCORE.INTER.norm>
-0.701989

>  <SCORE.INTRA>
-12.8016

>  <SCORE.INTRA.DIHEDRAL>
2.35771

>  <SCORE.INTRA.DIHEDRAL.0>
14.6094

>  <SCORE.INTRA.POLAR>
0

>  <SCORE.INTRA.POLAR.0>
0

>  <SCORE.INTRA.REPUL>
0

>  <SCORE.INTRA.REPUL.0>
0

>  <SCORE.INTRA.SOLV>
0.172704

>  <SCORE.INTRA.SOLV.lig_0>
-65.6478

>  <SCORE.INTRA.VDW>
-14.0668

>  <SCORE.INTRA.VDW.0>
9.35535

>  <SCORE.INTRA.norm>
-0.412954

>  <SCORE.RESTR>
0.0459842

>  <SCORE.RESTR.CAVITY>
0.0459842

>  <SCORE.RESTR.norm>
0.00148336

>  <SCORE.SYSTEM>
0

>  <SCORE.SYSTEM.CONST>
0

>  <SCORE.SYSTEM.DIHEDRAL>
0

>  <SCORE.SYSTEM.SOLV>
0

>  <SCORE.SYSTEM.norm>
0

>  <SCORE.heavy>
31

>  <SCORE.norm>
-1.11346

>  <RMSD>
7.211

$$$$
ligand
 OpenBabel11021811443D
libRbt.so/2013.1/901 2013/11/27
 31 32  0  0  0  0  0  0  0  0999 V2000
   10.0870   19.1190   54.1675 C   0  0  0  0  0  0  0  0  0  0  0  0
   10.2045   20.6282   53.9763 C   0  0  0  0  0  0  0  0  0  0  0  0
   11.4918   21.2566   53.9938 C   0  0  0  0  0  0  0  0  0  0  0  0
   11.5941   22.6576   53.8192 C   0  0  0  0  0  0  0  0  0  0  0  0
   10.4332   23.4441   53.6198 C   0  0  0  0  0  0  0  0  0  0  0  0
    9.1588   22.8418   53.5934 C   0  0  0  0  0  0  0  0  0  0  0  0
    9.0361   21.4516   53.7669 C   0  0  0  0  0  0  0  0  0  0  0  0
   11.0959   18.4152   54.1342 O   0  0  0  0  0  0  0  0  0  0  0  0
    1.1339   14.7799   50.2248 C   0  0  0  0  0  0  0  0  0  0  0  0
    9.0204   18.7603   51.4076 C   0  0  0  0  0  0  0  0  0  0  0  0
    3.1891   19.8198   54.1894 P   0  0  1  0  0  0  0  0  0  0  0  0
    2.7356   16.2829   51.1788 N   0  0  0  0  0  0  0  0  0  0  0  0
    3.1175   19.6701   52.7233 O   0  0  0  0  0  0  0  0  0  0  0  0
    8.8529   18.5285   54.3776 S   0  0  0  0  0  0  0  0  0  0  0  0
    6.0682   19.2857   50.4738 C   0  0  0  0  0  0  0  0  0  0  0  0
    2.5103   15.2544   50.2919 C   0  0  0  0  0  0  0  0  0  0  0  0
    3.9393   21.0182   54.6533 O   0  5  0  0  0  0  0  0  0  0  0  0
    6.6032   18.2259   51.1292 N   0  0  0  0  0  0  0  0  0  0  0  0
    3.4302   14.7194   49.5518 N   0  0  0  0  0  0  0  0  0  0  0  0
    1.8366   19.7050   54.7825 O   0  0  0  0  0  0  0  0  0  0  0  0
    7.6846   18.5548   52.0691 C   0  0  2  0  0  0  0  0  0  0  0  0
    4.7345   15.1695   49.6253 C   0  0  0  0  0  0  0  0  0  0  0  0
    5.6569   14.5923   48.8514 N   0  0  0  0  0  0  0  0  0  0  0  0
    7.5747   18.7149   53.5159 C   0  0  1  0  0  0  0  0  0  0  0  0
    5.0554   16.2491   50.5458 C   0  0  0  0  0  0  0  0  0  0  0  0
    6.4157   19.3385   49.3145 O   0  0  0  0  0  0  0  0  0  0  0  0
    6.3085   19.0350   54.2280 C   0  0  0  0  0  0  0  0  0  0  0  0
    4.0029   16.7548   51.2815 C   0  0  0  0  0  0  0  0  0  0  0  0
    5.2135   18.0570   54.2422 C   0  0  0  0  0  0  0  0  0  0  0  0
    6.4694   16.7534   50.7019 C   0  0  0  0  0  0  0  0  0  0  0  0
    4.0175   18.6334   54.7953 O   0  0  0  0  0  0  0  0  0  0  0  0
  1  2  1  0  0  0  0
  1  8  2  0  0  0  0
  1 14  1  0  0  0  0
  2  3  2  0  0  0  0
  2  7  1  0  0  0  0
  3  4  1  0  0  0  0
  4  5  2  0  0  0  0
  5  6  1  0  0  0  0
  6  7  2  0  0  0  0
  9 16  1  0  0  0  0
 10 21  1  0  0  0  0
 11 13  1  6  0  0  0
 11 17  1  0  0  0  0
 11 20  2  0  0  0  0
 11 31  1  0  0  0  0
 12 16  2  0  0  0  0
 12 28  1  0  0  0  0
 15 26  1  0  0  0  0
 15 18  1  0  0  0  0
 16 19  1  0  0  0  0
 18 30  1  0  0  0  0
 19 22  2  0  0  0  0
 21 18  1  6  0  0  0
 21 24  1  0  0  0  0
 22 23  1  0  0  0  0
 22 25  1  0  0  0  0
 24 14  1  1  0  0  0
 24 27  1  0  0  0  0
 25 28  2  0  0  0  0
 25 30  1  0  0  0  0
 27 29  1  0  0  0  0
 29 31  1  0  0  0  0
M  CHG  1  17  -1
M  END
>  <CHROM.1>
-11.00192999,51.41260842,49.80474061,105.84425731,-80.28682921,-56.39539744
-23.99416841,-112.91690747,152.08019283,-170.99642288,64.34382202,40.15831459
6.26241493,18.64593657,52.57633832,-0.66167088,-0.14990439,-2.37621718

>  <Name>
ligand

>  <RI>
0

>  <Rbt.Current_Directory>
/home/itssahil/PROJECTS/Mol_Feturizer/New_Systems/rnas/2HOO

>  <Rbt.Executable>
rbdock ($Id: //depot/dev/client3/rdock/2013.1/src/exe/rbdock.cxx#4 $)

>  <Rbt.Library>
libRbt.so (2013.1, Build901 2013/11/27)

>  <Rbt.Parameter_File>
/export/apps/rDock/src/rDock_2013.1_src/data/scripts/dock_solv.prm

>  <Rbt.Receptor>
prm/pocket_docking_6.prm

>  <SCORE>
-30.595

>  <SCORE.INTER>
-19.5902

>  <SCORE.INTER.CONST>
1

>  <SCORE.INTER.POLAR>
0

>  <SCORE.INTER.ROT>
12

>  <SCORE.INTER.SOLV>
11.0407

>  <SCORE.INTER.VDW>
-28.3404

>  <SCORE.INTER.norm>
-0.631942

>  <SCORE.INTRA>
-11.0048

>  <SCORE.INTRA.DIHEDRAL>
1.42339

>  <SCORE.INTRA.DIHEDRAL.0>
14.6094

>  <SCORE.INTRA.POLAR>
0

>  <SCORE.INTRA.POLAR.0>
0

>  <SCORE.INTRA.REPUL>
0

>  <SCORE.INTRA.REPUL.0>
0

>  <SCORE.INTRA.SOLV>
0.0267584

>  <SCORE.INTRA.SOLV.lig_0>
-65.6478

>  <SCORE.INTRA.VDW>
-11.7299

>  <SCORE.INTRA.VDW.0>
9.35535

>  <SCORE.INTRA.norm>
-0.354995

>  <SCORE.RESTR>
0

>  <SCORE.RESTR.CAVITY>
0

>  <SCORE.RESTR.norm>
0

>  <SCORE.SYSTEM>
0

>  <SCORE.SYSTEM.CONST>
0

>  <SCORE.SYSTEM.DIHEDRAL>
0

>  <SCORE.SYSTEM.SOLV>
0

>  <SCORE.SYSTEM.norm>
0

>  <SCORE.heavy>
31

>  <SCORE.norm>
-0.986936

>  <RMSD>
7.217

$$$$
ligand
 OpenBabel11021811443D
libRbt.so/2013.1/901 2013/11/27
 31 32  0  0  0  0  0  0  0  0999 V2000
    3.5711   18.6137   54.5593 C   0  0  0  0  0  0  0  0  0  0  0  0
    2.4566   17.8856   55.3050 C   0  0  0  0  0  0  0  0  0  0  0  0
    2.3812   16.4556   55.2661 C   0  0  0  0  0  0  0  0  0  0  0  0
    1.3430   15.7860   55.9572 C   0  0  0  0  0  0  0  0  0  0  0  0
    0.3805   16.5186   56.6940 C   0  0  0  0  0  0  0  0  0  0  0  0
    0.4429   17.9259   56.7483 C   0  0  0  0  0  0  0  0  0  0  0  0
    1.4656   18.6098   56.0669 C   0  0  0  0  0  0  0  0  0  0  0  0
    4.0390   19.6552   55.0185 O   0  0  0  0  0  0  0  0  0  0  0  0
    2.3777   14.4935   47.2822 C   0  0  0  0  0  0  0  0  0  0  0  0
    6.6360   20.1726   52.1168 C   0  0  0  0  0  0  0  0  0  0  0  0
    3.3221   23.2108   52.8017 P   0  0  1  0  0  0  0  0  0  0  0  0
    3.0870   16.1295   48.8807 N   0  0  0  0  0  0  0  0  0  0  0  0
    3.3832   23.4458   54.2570 O   0  0  0  0  0  0  0  0  0  0  0  0
    4.0639   18.1154   53.3658 S   0  0  0  0  0  0  0  0  0  0  0  0
    7.0424   16.9878   51.4258 C   0  0  0  0  0  0  0  0  0  0  0  0
    3.3975   15.4306   47.7360 C   0  0  0  0  0  0  0  0  0  0  0  0
    2.0688   23.6797   52.1511 O   0  5  0  0  0  0  0  0  0  0  0  0
    6.5134   18.0650   50.7943 N   0  0  0  0  0  0  0  0  0  0  0  0
    4.5069   15.5681   47.0800 N   0  0  0  0  0  0  0  0  0  0  0  0
    4.5508   23.7190   52.1489 O   0  0  0  0  0  0  0  0  0  0  0  0
    5.7967   19.0085   51.6645 C   0  0  2  0  0  0  0  0  0  0  0  0
    5.4725   16.4535   47.5194 C   0  0  0  0  0  0  0  0  0  0  0  0
    6.6051   16.5661   46.8212 N   0  0  0  0  0  0  0  0  0  0  0  0
    4.4019   18.9298   52.0876 C   0  0  1  0  0  0  0  0  0  0  0  0
    5.2229   17.2240   48.7277 C   0  0  0  0  0  0  0  0  0  0  0  0
    8.0508   16.5839   50.8896 O   0  0  0  0  0  0  0  0  0  0  0  0
    3.2713   19.5718   51.3649 C   0  0  0  0  0  0  0  0  0  0  0  0
    4.0077   17.0097   49.3460 C   0  0  0  0  0  0  0  0  0  0  0  0
    3.2268   21.0335   51.2337 C   0  0  0  0  0  0  0  0  0  0  0  0
    6.2572   18.1739   49.2806 C   0  0  0  0  0  0  0  0  0  0  0  0
    3.3038   21.6672   52.5225 O   0  0  0  0  0  0  0  0  0  0  0  0
  1  2  1  0  0  0  0
  1  8  2  0  0  0  0
  1 14  1  0  0  0  0
  2  3  2  0  0  0  0
  2  7  1  0  0  0  0
  3  4  1  0  0  0  0
  4  5  2  0  0  0  0
  5  6  1  0  0  0  0
  6  7  2  0  0  0  0
  9 16  1  0  0  0  0
 10 21  1  0  0  0  0
 11 13  1  1  0  0  0
 11 17  1  0  0  0  0
 11 20  2  0  0  0  0
 11 31  1  0  0  0  0
 12 16  2  0  0  0  0
 12 28  1  0  0  0  0
 15 26  1  0  0  0  0
 15 18  1  0  0  0  0
 16 19  1  0  0  0  0
 18 30  1  0  0  0  0
 19 22  2  0  0  0  0
 21 18  1  6  0  0  0
 21 24  1  0  0  0  0
 22 23  1  0  0  0  0
 22 25  1  0  0  0  0
 24 14  1  6  0  0  0
 24 27  1  0  0  0  0
 25 28  2  0  0  0  0
 25 30  1  0  0  0  0
 27 29  1  0  0  0  0
 29 31  1  0  0  0  0
M  CHG  1  17  -1
M  END
>  <CHROM.1>
-146.42590622,137.29376685,113.98339999,-149.29939455,95.96082736,65.00962379
-93.59539994,117.89188003,-133.13899080,-55.19364039,178.39698274,178.96313978
4.00017592,18.77174823,51.89414226,2.26310457,1.06144419,0.30974029

>  <Name>
ligand

>  <RI>
0

>  <Rbt.Current_Directory>
/home/itssahil/PROJECTS/Mol_Feturizer/New_Systems/rnas/2HOO

>  <Rbt.Executable>
rbdock ($Id: //depot/dev/client3/rdock/2013.1/src/exe/rbdock.cxx#4 $)

>  <Rbt.Library>
libRbt.so (2013.1, Build901 2013/11/27)

>  <Rbt.Parameter_File>
/export/apps/rDock/src/rDock_2013.1_src/data/scripts/dock_solv.prm

>  <Rbt.Receptor>
prm/pocket_docking_6.prm

>  <SCORE>
-26.9557

>  <SCORE.INTER>
-11.3681

>  <SCORE.INTER.CONST>
1

>  <SCORE.INTER.POLAR>
0

>  <SCORE.INTER.ROT>
12

>  <SCORE.INTER.SOLV>
11.9924

>  <SCORE.INTER.VDW>
-23.1762

>  <SCORE.INTER.norm>
-0.366714

>  <SCORE.INTRA>
-15.5875

>  <SCORE.INTRA.DIHEDRAL>
-1.50407

>  <SCORE.INTRA.DIHEDRAL.0>
14.6094

>  <SCORE.INTRA.POLAR>
0

>  <SCORE.INTRA.POLAR.0>
0

>  <SCORE.INTRA.REPUL>
0

>  <SCORE.INTRA.REPUL.0>
0

>  <SCORE.INTRA.SOLV>
0.491173

>  <SCORE.INTRA.SOLV.lig_0>
-65.6478

>  <SCORE.INTRA.VDW>
-15.0811

>  <SCORE.INTRA.VDW.0>
9.35535

>  <SCORE.INTRA.norm>
-0.502823

>  <SCORE.RESTR>
0

>  <SCORE.RESTR.CAVITY>
0

>  <SCORE.RESTR.norm>
0

>  <SCORE.SYSTEM>
0

>  <SCORE.SYSTEM.CONST>
0

>  <SCORE.SYSTEM.DIHEDRAL>
0

>  <SCORE.SYSTEM.SOLV>
0

>  <SCORE.SYSTEM.norm>
0

>  <SCORE.heavy>
31

>  <SCORE.norm>
-0.869537

>  <RMSD>
7.227

$$$$
ligand
 OpenBabel11021811443D
libRbt.so/2013.1/901 2013/11/27
 31 32  0  0  0  0  0  0  0  0999 V2000
    6.5247   19.9909   54.1558 C   0  0  0  0  0  0  0  0  0  0  0  0
    5.1875   19.9594   53.4217 C   0  0  0  0  0  0  0  0  0  0  0  0
    4.5256   18.7107   53.1875 C   0  0  0  0  0  0  0  0  0  0  0  0
    3.2869   18.6876   52.5029 C   0  0  0  0  0  0  0  0  0  0  0  0
    2.6914   19.8915   52.0530 C   0  0  0  0  0  0  0  0  0  0  0  0
    3.3255   21.1299   52.2801 C   0  0  0  0  0  0  0  0  0  0  0  0
    4.5576   21.1736   52.9568 C   0  0  0  0  0  0  0  0  0  0  0  0
    6.7541   20.8786   54.9767 O   0  0  0  0  0  0  0  0  0  0  0  0
    6.3881   14.7194   46.9061 C   0  0  0  0  0  0  0  0  0  0  0  0
    9.0696   18.1322   50.5642 C   0  0  0  0  0  0  0  0  0  0  0  0
   10.2852   23.1564   53.5880 P   0  0  1  0  0  0  0  0  0  0  0  0
    6.8504   17.0140   47.4116 N   0  0  0  0  0  0  0  0  0  0  0  0
   11.7166   23.4351   53.3637 O   0  0  0  0  0  0  0  0  0  0  0  0
    7.4886   19.0292   53.9075 S   0  0  0  0  0  0  0  0  0  0  0  0
    7.8344   21.0643   50.2213 C   0  0  0  0  0  0  0  0  0  0  0  0
    6.2772   15.8364   47.8357 C   0  0  0  0  0  0  0  0  0  0  0  0
    9.8402   23.3017   55.0004 O   0  5  0  0  0  0  0  0  0  0  0  0
    7.3436   19.9184   50.7553 N   0  0  0  0  0  0  0  0  0  0  0  0
    5.6731   15.6914   48.9733 N   0  0  0  0  0  0  0  0  0  0  0  0
    9.4577   23.9228   52.6276 O   0  0  0  0  0  0  0  0  0  0  0  0
    8.3292   19.0869   51.4611 C   0  0  2  0  0  0  0  0  0  0  0  0
    5.5656   16.7564   49.8471 C   0  0  0  0  0  0  0  0  0  0  0  0
    4.9328   16.5721   51.0084 N   0  0  0  0  0  0  0  0  0  0  0  0
    8.6526   19.1225   52.8841 C   0  0  1  0  0  0  0  0  0  0  0  0
    6.1389   18.0383   49.4678 C   0  0  0  0  0  0  0  0  0  0  0  0
    7.9580   21.9445   51.0442 O   0  0  0  0  0  0  0  0  0  0  0  0
   10.0320   19.2557   53.4251 C   0  0  0  0  0  0  0  0  0  0  0  0
    6.7677   18.0845   48.2400 C   0  0  0  0  0  0  0  0  0  0  0  0
   10.4509   20.5168   54.0495 C   0  0  0  0  0  0  0  0  0  0  0  0
    6.0151   19.2486   50.3609 C   0  0  0  0  0  0  0  0  0  0  0  0
    9.9937   21.6454   53.2840 O   0  0  0  0  0  0  0  0  0  0  0  0
  1  2  1  0  0  0  0
  1  8  2  0  0  0  0
  1 14  1  0  0  0  0
  2  3  2  0  0  0  0
  2  7  1  0  0  0  0
  3  4  1  0  0  0  0
  4  5  2  0  0  0  0
  5  6  1  0  0  0  0
  6  7  2  0  0  0  0
  9 16  1  0  0  0  0
 10 21  1  0  0  0  0
 11 13  1  6  0  0  0
 11 17  1  0  0  0  0
 11 20  2  0  0  0  0
 11 31  1  0  0  0  0
 12 16  2  0  0  0  0
 12 28  1  0  0  0  0
 15 26  1  0  0  0  0
 15 18  1  0  0  0  0
 16 19  1  0  0  0  0
 18 30  1  0  0  0  0
 19 22  2  0  0  0  0
 21 18  1  6  0  0  0
 21 24  1  0  0  0  0
 22 23  1  0  0  0  0
 22 25  1  0  0  0  0
 24 14  1  6  0  0  0
 24 27  1  0  0  0  0
 25 28  2  0  0  0  0
 25 30  1  0  0  0  0
 27 29  1  0  0  0  0
 29 31  1  0  0  0  0
M  CHG  1  17  -1
M  END
>  <CHROM.1>
-139.91955152,93.00252991,-69.51592403,-79.92437121,-86.71258012,103.03002961
-129.82014673,-71.59330262,124.18787034,-42.79523248,-177.36103226,68.60075873
7.38228679,19.75348105,51.86836595,1.03100931,0.28927451,0.85589956

>  <Name>
ligand

>  <RI>
0

>  <Rbt.Current_Directory>
/home/itssahil/PROJECTS/Mol_Feturizer/New_Systems/rnas/2HOO

>  <Rbt.Executable>
rbdock ($Id: //depot/dev/client3/rdock/2013.1/src/exe/rbdock.cxx#4 $)

>  <Rbt.Library>
libRbt.so (2013.1, Build901 2013/11/27)

>  <Rbt.Parameter_File>
/export/apps/rDock/src/rDock_2013.1_src/data/scripts/dock_solv.prm

>  <Rbt.Receptor>
prm/pocket_docking_2.prm

>  <SCORE>
-15.3992

>  <SCORE.INTER>
-6.26407

>  <SCORE.INTER.CONST>
1

>  <SCORE.INTER.POLAR>
0

>  <SCORE.INTER.ROT>
12

>  <SCORE.INTER.SOLV>
23.4028

>  <SCORE.INTER.VDW>
-23.577

>  <SCORE.INTER.norm>
-0.202067

>  <SCORE.INTRA>
-11.5356

>  <SCORE.INTRA.DIHEDRAL>
5.92737

>  <SCORE.INTRA.DIHEDRAL.0>
14.6094

>  <SCORE.INTRA.POLAR>
0

>  <SCORE.INTRA.POLAR.0>
0

>  <SCORE.INTRA.REPUL>
0

>  <SCORE.INTRA.REPUL.0>
0

>  <SCORE.INTRA.SOLV>
4.33099

>  <SCORE.INTRA.SOLV.lig_0>
-65.6478

>  <SCORE.INTRA.VDW>
-16.6648

>  <SCORE.INTRA.VDW.0>
9.35535

>  <SCORE.INTRA.norm>
-0.372118

>  <SCORE.RESTR>
2.40057

>  <SCORE.RESTR.CAVITY>
2.40057

>  <SCORE.RESTR.norm>
0.0774376

>  <SCORE.SYSTEM>
0

>  <SCORE.SYSTEM.CONST>
0

>  <SCORE.SYSTEM.DIHEDRAL>
0

>  <SCORE.SYSTEM.SOLV>
0

>  <SCORE.SYSTEM.norm>
0

>  <SCORE.heavy>
31

>  <SCORE.norm>
-0.496747

>  <RMSD>
7.228

$$$$
ligand
 OpenBabel11021811443D
libRbt.so/2013.1/901 2013/11/27
 31 32  0  0  0  0  0  0  0  0999 V2000
    9.2478   20.4128   53.6142 C   0  0  0  0  0  0  0  0  0  0  0  0
   10.6729   20.0262   53.9982 C   0  0  0  0  0  0  0  0  0  0  0  0
   11.0977   18.6614   53.9028 C   0  0  0  0  0  0  0  0  0  0  0  0
   12.4202   18.3085   54.2637 C   0  0  0  0  0  0  0  0  0  0  0  0
   13.3310   19.2961   54.7123 C   0  0  0  0  0  0  0  0  0  0  0  0
   12.9321   20.6449   54.8066 C   0  0  0  0  0  0  0  0  0  0  0  0
   11.6219   21.0154   54.4544 C   0  0  0  0  0  0  0  0  0  0  0  0
    8.2996   20.0114   54.2883 O   0  0  0  0  0  0  0  0  0  0  0  0
    0.4705   17.5759   51.6869 C   0  0  0  0  0  0  0  0  0  0  0  0
    8.2536   20.3941   49.2969 C   0  0  0  0  0  0  0  0  0  0  0  0
    3.0621   23.1353   53.0588 P   0  0  1  0  0  0  0  0  0  0  0  0
    2.2656   19.1184   51.3223 N   0  0  0  0  0  0  0  0  0  0  0  0
    2.5797   24.5294   53.0838 O   0  0  0  0  0  0  0  0  0  0  0  0
    9.0067   21.2123   52.5104 S   0  0  0  0  0  0  0  0  0  0  0  0
    6.7627   18.3626   51.8840 C   0  0  0  0  0  0  0  0  0  0  0  0
    1.7869   17.8433   51.1215 C   0  0  0  0  0  0  0  0  0  0  0  0
    3.1240   22.4777   54.3921 O   0  5  0  0  0  0  0  0  0  0  0  0
    6.7236   19.0096   50.6929 N   0  0  0  0  0  0  0  0  0  0  0  0
    2.4308   16.9187   50.4808 N   0  0  0  0  0  0  0  0  0  0  0  0
    2.3122   22.3520   52.0496 O   0  0  0  0  0  0  0  0  0  0  0  0
    7.5485   20.2239   50.6153 C   0  0  2  0  0  0  0  0  0  0  0  0
    3.6815   17.1769   49.9531 C   0  0  0  0  0  0  0  0  0  0  0  0
    4.3177   16.1995   49.3030 N   0  0  0  0  0  0  0  0  0  0  0  0
    7.7156   21.2417   51.6483 C   0  0  1  0  0  0  0  0  0  0  0  0
    4.2605   18.4994   50.1305 C   0  0  0  0  0  0  0  0  0  0  0  0
    5.9260   18.7679   52.6606 O   0  0  0  0  0  0  0  0  0  0  0  0
    6.7194   22.3067   51.9419 C   0  0  0  0  0  0  0  0  0  0  0  0
    3.4900   19.4138   50.8197 C   0  0  0  0  0  0  0  0  0  0  0  0
    5.3717   21.9389   52.3938 C   0  0  0  0  0  0  0  0  0  0  0  0
    5.6404   18.8277   49.6148 C   0  0  0  0  0  0  0  0  0  0  0  0
    4.5579   23.1089   52.5869 O   0  0  0  0  0  0  0  0  0  0  0  0
  1  2  1  0  0  0  0
  1  8  2  0  0  0  0
  1 14  1  0  0  0  0
  2  3  2  0  0  0  0
  2  7  1  0  0  0  0
  3  4  1  0  0  0  0
  4  5  2  0  0  0  0
  5  6  1  0  0  0  0
  6  7  2  0  0  0  0
  9 16  1  0  0  0  0
 10 21  1  0  0  0  0
 11 13  1  1  0  0  0
 11 17  1  0  0  0  0
 11 20  2  0  0  0  0
 11 31  1  0  0  0  0
 12 16  2  0  0  0  0
 12 28  1  0  0  0  0
 15 26  1  0  0  0  0
 15 18  1  0  0  0  0
 16 19  1  0  0  0  0
 18 30  1  0  0  0  0
 19 22  2  0  0  0  0
 21 18  1  6  0  0  0
 21 24  1  0  0  0  0
 22 23  1  0  0  0  0
 22 25  1  0  0  0  0
 24 14  1  1  0  0  0
 24 27  1  0  0  0  0
 25 28  2  0  0  0  0
 25 30  1  0  0  0  0
 27 29  1  0  0  0  0
 29 31  1  0  0  0  0
M  CHG  1  17  -1
M  END
>  <CHROM.1>
66.72791858,153.36960158,-81.61811098,88.78785238,140.45601817,31.66375456
-80.07188021,-117.76132425,-108.87605460,-178.47395978,179.79123071,-178.00523700
6.18601812,20.21227024,52.20544928,0.12096696,-0.22451174,0.46081184

>  <Name>
ligand

>  <RI>
0

>  <Rbt.Current_Directory>
/home/itssahil/PROJECTS/Mol_Feturizer/New_Systems/rnas/2HOO

>  <Rbt.Executable>
rbdock ($Id: //depot/dev/client3/rdock/2013.1/src/exe/rbdock.cxx#4 $)

>  <Rbt.Library>
libRbt.so (2013.1, Build901 2013/11/27)

>  <Rbt.Parameter_File>
/export/apps/rDock/src/rDock_2013.1_src/data/scripts/dock_solv.prm

>  <Rbt.Receptor>
prm/pocket_docking_5.prm

>  <SCORE>
-38.1852

>  <SCORE.INTER>
-24.4259

>  <SCORE.INTER.CONST>
1

>  <SCORE.INTER.POLAR>
0

>  <SCORE.INTER.ROT>
12

>  <SCORE.INTER.SOLV>
11.5755

>  <SCORE.INTER.VDW>
-31.7424

>  <SCORE.INTER.norm>
-0.787933

>  <SCORE.INTRA>
-13.7593

>  <SCORE.INTRA.DIHEDRAL>
-1.08183

>  <SCORE.INTRA.DIHEDRAL.0>
14.6094

>  <SCORE.INTRA.POLAR>
0

>  <SCORE.INTRA.POLAR.0>
0

>  <SCORE.INTRA.REPUL>
0

>  <SCORE.INTRA.REPUL.0>
0

>  <SCORE.INTRA.SOLV>
2.46403

>  <SCORE.INTRA.SOLV.lig_0>
-65.6478

>  <SCORE.INTRA.VDW>
-14.4504

>  <SCORE.INTRA.VDW.0>
9.35535

>  <SCORE.INTRA.norm>
-0.443848

>  <SCORE.RESTR>
0

>  <SCORE.RESTR.CAVITY>
0

>  <SCORE.RESTR.norm>
0

>  <SCORE.SYSTEM>
0

>  <SCORE.SYSTEM.CONST>
0

>  <SCORE.SYSTEM.DIHEDRAL>
0

>  <SCORE.SYSTEM.SOLV>
0

>  <SCORE.SYSTEM.norm>
0

>  <SCORE.heavy>
31

>  <SCORE.norm>
-1.23178

>  <RMSD>
7.228

$$$$
ligand
 OpenBabel11021811443D
libRbt.so/2013.1/901 2013/11/27
 31 32  0  0  0  0  0  0  0  0999 V2000
   10.1161   20.4791   53.7202 C   0  0  0  0  0  0  0  0  0  0  0  0
   11.4655   19.8933   54.1249 C   0  0  0  0  0  0  0  0  0  0  0  0
   12.5135   20.7545   54.5858 C   0  0  0  0  0  0  0  0  0  0  0  0
   13.7644   20.2054   54.9567 C   0  0  0  0  0  0  0  0  0  0  0  0
   13.9869   18.8085   54.8827 C   0  0  0  0  0  0  0  0  0  0  0  0
   12.9651   17.9455   54.4373 C   0  0  0  0  0  0  0  0  0  0  0  0
   11.7159   18.4719   54.0625 C   0  0  0  0  0  0  0  0  0  0  0  0
    9.6837   21.4788   54.2930 O   0  0  0  0  0  0  0  0  0  0  0  0
    1.6231   22.5312   51.5001 C   0  0  0  0  0  0  0  0  0  0  0  0
    7.0003   17.9149   53.8438 C   0  0  0  0  0  0  0  0  0  0  0  0
    4.4253   21.3818   55.1329 P   0  0  1  0  0  0  0  0  0  0  0  0
    3.7328   21.4322   51.2250 N   0  0  0  0  0  0  0  0  0  0  0  0
    3.3977   22.2481   54.5242 O   0  0  0  0  0  0  0  0  0  0  0  0
    9.3676   19.8961   52.7124 S   0  0  0  0  0  0  0  0  0  0  0  0
    7.1696   17.4680   50.5279 C   0  0  0  0  0  0  0  0  0  0  0  0
    2.3964   21.2961   51.5259 C   0  0  0  0  0  0  0  0  0  0  0  0
    5.2230   22.0299   56.2090 O   0  5  0  0  0  0  0  0  0  0  0  0
    6.3705   18.0767   51.4389 N   0  0  0  0  0  0  0  0  0  0  0  0
    1.8290   20.1675   51.8164 N   0  0  0  0  0  0  0  0  0  0  0  0
    3.8291   20.0881   55.5392 O   0  0  0  0  0  0  0  0  0  0  0  0
    7.0752   18.7053   52.5656 C   0  0  2  0  0  0  0  0  0  0  0  0
    2.5694   19.0012   51.8457 C   0  0  0  0  0  0  0  0  0  0  0  0
    1.9528   17.8575   52.1532 N   0  0  0  0  0  0  0  0  0  0  0  0
    7.8250   19.9576   52.5461 C   0  0  1  0  0  0  0  0  0  0  0  0
    3.9917   19.0632   51.5473 C   0  0  0  0  0  0  0  0  0  0  0  0
    7.5167   16.3621   50.8799 O   0  0  0  0  0  0  0  0  0  0  0  0
    7.2055   21.3008   52.3888 C   0  0  0  0  0  0  0  0  0  0  0  0
    4.4958   20.3112   51.2420 C   0  0  0  0  0  0  0  0  0  0  0  0
    6.5057   21.9176   53.5227 C   0  0  0  0  0  0  0  0  0  0  0  0
    4.8604   17.8304   51.6060 C   0  0  0  0  0  0  0  0  0  0  0  0
    5.5119   21.0268   54.0587 O   0  0  0  0  0  0  0  0  0  0  0  0
  1  2  1  0  0  0  0
  1  8  2  0  0  0  0
  1 14  1  0  0  0  0
  2  3  2  0  0  0  0
  2  7  1  0  0  0  0
  3  4  1  0  0  0  0
  4  5  2  0  0  0  0
  5  6  1  0  0  0  0
  6  7  2  0  0  0  0
  9 16  1  0  0  0  0
 10 21  1  0  0  0  0
 11 13  1  6  0  0  0
 11 17  1  0  0  0  0
 11 20  2  0  0  0  0
 11 31  1  0  0  0  0
 12 16  2  0  0  0  0
 12 28  1  0  0  0  0
 15 26  1  0  0  0  0
 15 18  1  0  0  0  0
 16 19  1  0  0  0  0
 18 30  1  0  0  0  0
 19 22  2  0  0  0  0
 21 18  1  6  0  0  0
 21 24  1  0  0  0  0
 22 23  1  0  0  0  0
 22 25  1  0  0  0  0
 24 14  1  1  0  0  0
 24 27  1  0  0  0  0
 25 28  2  0  0  0  0
 25 30  1  0  0  0  0
 27 29  1  0  0  0  0
 29 31  1  0  0  0  0
M  CHG  1  17  -1
M  END
>  <CHROM.1>
-32.61649976,153.57129369,-119.31489123,80.89193259,-103.49153817,-125.81621886
67.51612976,-103.41453327,-172.66708866,-53.00991502,-170.85559490,72.06186188
6.70451915,19.95620367,53.15685891,0.02396522,-0.20285553,0.72935574

>  <Name>
ligand

>  <RI>
0

>  <Rbt.Current_Directory>
/home/itssahil/PROJECTS/Mol_Feturizer/New_Systems/rnas/2HOO

>  <Rbt.Executable>
rbdock ($Id: //depot/dev/client3/rdock/2013.1/src/exe/rbdock.cxx#4 $)

>  <Rbt.Library>
libRbt.so (2013.1, Build901 2013/11/27)

>  <Rbt.Parameter_File>
/export/apps/rDock/src/rDock_2013.1_src/data/scripts/dock_solv.prm

>  <Rbt.Receptor>
prm/pocket_docking_3.prm

>  <SCORE>
-37.4253

>  <SCORE.INTER>
-21.2984

>  <SCORE.INTER.CONST>
1

>  <SCORE.INTER.POLAR>
0

>  <SCORE.INTER.ROT>
12

>  <SCORE.INTER.SOLV>
13.5769

>  <SCORE.INTER.VDW>
-30.3245

>  <SCORE.INTER.norm>
-0.687044

>  <SCORE.INTRA>
-16.1413

>  <SCORE.INTRA.DIHEDRAL>
-0.879891

>  <SCORE.INTRA.DIHEDRAL.0>
14.6094

>  <SCORE.INTRA.POLAR>
0

>  <SCORE.INTRA.POLAR.0>
0

>  <SCORE.INTRA.REPUL>
0

>  <SCORE.INTRA.REPUL.0>
0

>  <SCORE.INTRA.SOLV>
0.0464457

>  <SCORE.INTRA.SOLV.lig_0>
-65.6478

>  <SCORE.INTRA.VDW>
-15.7246

>  <SCORE.INTRA.VDW.0>
9.35535

>  <SCORE.INTRA.norm>
-0.520687

>  <SCORE.RESTR>
0.0144163

>  <SCORE.RESTR.CAVITY>
0.0144163

>  <SCORE.RESTR.norm>
0.000465041

>  <SCORE.SYSTEM>
0

>  <SCORE.SYSTEM.CONST>
0

>  <SCORE.SYSTEM.DIHEDRAL>
0

>  <SCORE.SYSTEM.SOLV>
0

>  <SCORE.SYSTEM.norm>
0

>  <SCORE.heavy>
31

>  <SCORE.norm>
-1.20727

>  <RMSD>
7.240

$$$$
ligand
 OpenBabel11021811443D
libRbt.so/2013.1/901 2013/11/27
 31 32  0  0  0  0  0  0  0  0999 V2000
    3.2727   16.6783   50.3836 C   0  0  0  0  0  0  0  0  0  0  0  0
    3.3845   16.0137   49.0147 C   0  0  0  0  0  0  0  0  0  0  0  0
    4.4753   16.3391   48.1450 C   0  0  0  0  0  0  0  0  0  0  0  0
    4.5717   15.7217   46.8748 C   0  0  0  0  0  0  0  0  0  0  0  0
    3.6011   14.7779   46.4585 C   0  0  0  0  0  0  0  0  0  0  0  0
    2.5244   14.4411   47.3038 C   0  0  0  0  0  0  0  0  0  0  0  0
    2.4099   15.0449   48.5688 C   0  0  0  0  0  0  0  0  0  0  0  0
    3.1715   15.9862   51.3961 O   0  0  0  0  0  0  0  0  0  0  0  0
   -1.3388   23.4656   51.5783 C   0  0  0  0  0  0  0  0  0  0  0  0
    5.1822   18.1281   53.6720 C   0  0  0  0  0  0  0  0  0  0  0  0
    7.7836   20.5708   52.6330 P   0  0  1  0  0  0  0  0  0  0  0  0
   -0.5510   21.4080   52.5164 N   0  0  0  0  0  0  0  0  0  0  0  0
    8.2960   21.6255   51.7374 O   0  0  0  0  0  0  0  0  0  0  0  0
    3.2824   18.0574   50.5012 S   0  0  0  0  0  0  0  0  0  0  0  0
    2.2104   17.8706   54.2012 C   0  0  0  0  0  0  0  0  0  0  0  0
   -0.2879   22.7382   52.2788 C   0  0  0  0  0  0  0  0  0  0  0  0
    8.8148   19.9410   53.5012 O   0  5  0  0  0  0  0  0  0  0  0  0
    2.8380   18.9703   53.7157 N   0  0  0  0  0  0  0  0  0  0  0  0
    0.8042   23.3374   52.6369 N   0  0  0  0  0  0  0  0  0  0  0  0
    6.6039   21.0632   53.3814 O   0  0  0  0  0  0  0  0  0  0  0  0
    4.0269   18.6986   52.8948 C   0  0  2  0  0  0  0  0  0  0  0  0
    1.7994   22.6402   53.2949 C   0  0  0  0  0  0  0  0  0  0  0  0
    2.9129   23.2885   53.6449 N   0  0  0  0  0  0  0  0  0  0  0  0
    4.1683   18.9024   51.4563 C   0  0  1  0  0  0  0  0  0  0  0  0
    1.6004   21.2269   53.5757 C   0  0  0  0  0  0  0  0  0  0  0  0
    1.4966   17.3416   53.3777 O   0  0  0  0  0  0  0  0  0  0  0  0
    5.1199   19.8639   50.8375 C   0  0  0  0  0  0  0  0  0  0  0  0
    0.4000   20.6870   53.1606 C   0  0  0  0  0  0  0  0  0  0  0  0
    6.5000   19.4464   50.5602 C   0  0  0  0  0  0  0  0  0  0  0  0
    2.6688   20.4030   54.2521 C   0  0  0  0  0  0  0  0  0  0  0  0
    7.2653   19.3640   51.7752 O   0  0  0  0  0  0  0  0  0  0  0  0
  1  2  1  0  0  0  0
  1  8  2  0  0  0  0
  1 14  1  0  0  0  0
  2  3  2  0  0  0  0
  2  7  1  0  0  0  0
  3  4  1  0  0  0  0
  4  5  2  0  0  0  0
  5  6  1  0  0  0  0
  6  7  2  0  0  0  0
  9 16  1  0  0  0  0
 10 21  1  0  0  0  0
 11 13  1  6  0  0  0
 11 17  1  0  0  0  0
 11 20  2  0  0  0  0
 11 31  1  0  0  0  0
 12 16  2  0  0  0  0
 12 28  1  0  0  0  0
 15 26  1  0  0  0  0
 15 18  1  0  0  0  0
 16 19  1  0  0  0  0
 18 30  1  0  0  0  0
 19 22  2  0  0  0  0
 21 18  1  6  0  0  0
 21 24  1  0  0  0  0
 22 23  1  0  0  0  0
 22 25  1  0  0  0  0
 24 14  1  6  0  0  0
 24 27  1  0  0  0  0
 25 28  2  0  0  0  0
 25 30  1  0  0  0  0
 27 29  1  0  0  0  0
 29 31  1  0  0  0  0
M  CHG  1  17  -1
M  END
>  <CHROM.1>
-125.89582262,-129.89267509,-61.13870746,-79.90716384,-68.19883284,-92.06695691
114.43440549,-92.73157830,-140.90945145,-73.88544651,-72.71908768,-41.72183869
3.76583675,19.24452325,51.69368707,1.29956148,0.06460068,-2.49703175

>  <Name>
ligand

>  <RI>
0

>  <Rbt.Current_Directory>
/home/itssahil/PROJECTS/Mol_Feturizer/New_Systems/rnas/2HOO

>  <Rbt.Executable>
rbdock ($Id: //depot/dev/client3/rdock/2013.1/src/exe/rbdock.cxx#4 $)

>  <Rbt.Library>
libRbt.so (2013.1, Build901 2013/11/27)

>  <Rbt.Parameter_File>
/export/apps/rDock/src/rDock_2013.1_src/data/scripts/dock_solv.prm

>  <Rbt.Receptor>
prm/pocket_docking_4.prm

>  <SCORE>
-17.3501

>  <SCORE.INTER>
-7.09575

>  <SCORE.INTER.CONST>
1

>  <SCORE.INTER.POLAR>
0

>  <SCORE.INTER.ROT>
12

>  <SCORE.INTER.SOLV>
7.41724

>  <SCORE.INTER.VDW>
-18.8029

>  <SCORE.INTER.norm>
-0.228895

>  <SCORE.INTRA>
-10.2543

>  <SCORE.INTRA.DIHEDRAL>
4.66551

>  <SCORE.INTRA.DIHEDRAL.0>
14.6094

>  <SCORE.INTRA.POLAR>
0

>  <SCORE.INTRA.POLAR.0>
0

>  <SCORE.INTRA.REPUL>
0

>  <SCORE.INTRA.REPUL.0>
0

>  <SCORE.INTRA.SOLV>
4.28209

>  <SCORE.INTRA.SOLV.lig_0>
-65.6478

>  <SCORE.INTRA.VDW>
-14.7281

>  <SCORE.INTRA.VDW.0>
9.35535

>  <SCORE.INTRA.norm>
-0.330785

>  <SCORE.RESTR>
0

>  <SCORE.RESTR.CAVITY>
0

>  <SCORE.RESTR.norm>
0

>  <SCORE.SYSTEM>
0

>  <SCORE.SYSTEM.CONST>
0

>  <SCORE.SYSTEM.DIHEDRAL>
0

>  <SCORE.SYSTEM.SOLV>
0

>  <SCORE.SYSTEM.norm>
0

>  <SCORE.heavy>
31

>  <SCORE.norm>
-0.55968

>  <RMSD>
7.241

$$$$
ligand
 OpenBabel11021811443D
libRbt.so/2013.1/901 2013/11/27
 31 32  0  0  0  0  0  0  0  0999 V2000
    6.6327   20.1561   51.6407 C   0  0  0  0  0  0  0  0  0  0  0  0
    7.0274   19.9668   50.1791 C   0  0  0  0  0  0  0  0  0  0  0  0
    8.1904   20.6215   49.6584 C   0  0  0  0  0  0  0  0  0  0  0  0
    8.5496   20.4447   48.3006 C   0  0  0  0  0  0  0  0  0  0  0  0
    7.7716   19.6188   47.4526 C   0  0  0  0  0  0  0  0  0  0  0  0
    6.6276   18.9620   47.9496 C   0  0  0  0  0  0  0  0  0  0  0  0
    6.2531   19.1264   49.2952 C   0  0  0  0  0  0  0  0  0  0  0  0
    6.9216   19.2954   52.4715 O   0  0  0  0  0  0  0  0  0  0  0  0
   -1.5793   25.9871   56.2474 C   0  0  0  0  0  0  0  0  0  0  0  0
    3.5226   21.0016   54.6710 C   0  0  0  0  0  0  0  0  0  0  0  0
    3.1576   17.0779   51.1423 P   0  0  1  0  0  0  0  0  0  0  0  0
    0.7860   25.8355   55.9060 N   0  0  0  0  0  0  0  0  0  0  0  0
    2.2611   16.8607   49.9908 O   0  0  0  0  0  0  0  0  0  0  0  0
    5.9488   21.2892   52.0458 S   0  0  0  0  0  0  0  0  0  0  0  0
    4.9521   23.8097   54.7336 C   0  0  0  0  0  0  0  0  0  0  0  0
   -0.4669   25.5357   55.4210 C   0  0  0  0  0  0  0  0  0  0  0  0
    2.5151   16.8895   52.4712 O   0  5  0  0  0  0  0  0  0  0  0  0
    3.9131   23.3643   53.9845 N   0  0  0  0  0  0  0  0  0  0  0  0
   -0.6832   24.8992   54.3127 N   0  0  0  0  0  0  0  0  0  0  0  0
    4.4048   16.2965   50.9748 O   0  0  0  0  0  0  0  0  0  0  0  0
    3.9855   21.9482   53.5968 C   0  0  2  0  0  0  0  0  0  0  0  0
    0.3762   24.4681   53.5373 C   0  0  0  0  0  0  0  0  0  0  0  0
    0.1162   23.8116   52.4040 N   0  0  0  0  0  0  0  0  0  0  0  0
    4.4240   21.4085   52.3133 C   0  0  1  0  0  0  0  0  0  0  0  0
    1.7329   24.7391   53.9864 C   0  0  0  0  0  0  0  0  0  0  0  0
    5.8746   24.2090   54.0576 O   0  0  0  0  0  0  0  0  0  0  0  0
    3.5018   20.9728   51.2304 C   0  0  0  0  0  0  0  0  0  0  0  0
    1.8539   25.4306   55.1747 C   0  0  0  0  0  0  0  0  0  0  0  0
    2.7482   19.7210   51.3752 C   0  0  0  0  0  0  0  0  0  0  0  0
    2.9298   24.2554   53.2047 C   0  0  0  0  0  0  0  0  0  0  0  0
    3.6036   18.5813   51.1804 O   0  0  0  0  0  0  0  0  0  0  0  0
  1  2  1  0  0  0  0
  1  8  2  0  0  0  0
  1 14  1  0  0  0  0
  2  3  2  0  0  0  0
  2  7  1  0  0  0  0
  3  4  1  0  0  0  0
  4  5  2  0  0  0  0
  5  6  1  0  0  0  0
  6  7  2  0  0  0  0
  9 16  1  0  0  0  0
 10 21  1  0  0  0  0
 11 13  1  6  0  0  0
 11 17  1  0  0  0  0
 11 20  2  0  0  0  0
 11 31  1  0  0  0  0
 12 16  2  0  0  0  0
 12 28  1  0  0  0  0
 15 26  1  0  0  0  0
 15 18  1  0  0  0  0
 16 19  1  0  0  0  0
 18 30  1  0  0  0  0
 19 22  2  0  0  0  0
 21 18  1  6  0  0  0
 21 24  1  0  0  0  0
 22 23  1  0  0  0  0
 22 25  1  0  0  0  0
 24 14  1  6  0  0  0
 24 27  1  0  0  0  0
 25 28  2  0  0  0  0
 25 30  1  0  0  0  0
 27 29  1  0  0  0  0
 29 31  1  0  0  0  0
M  CHG  1  17  -1
M  END
>  <CHROM.1>
-99.52575132,100.33137688,126.98565040,87.95464070,81.47229342,-87.45234400
-100.90045712,107.13087110,-123.07662855,-74.62481781,-174.89925950,63.66994959
3.80454795,21.25489366,52.29042808,-0.98365241,0.34383165,0.42251858

>  <Name>
ligand

>  <RI>
0

>  <Rbt.Current_Directory>
/home/itssahil/PROJECTS/Mol_Feturizer/New_Systems/rnas/2HOO

>  <Rbt.Executable>
rbdock ($Id: //depot/dev/client3/rdock/2013.1/src/exe/rbdock.cxx#4 $)

>  <Rbt.Library>
libRbt.so (2013.1, Build901 2013/11/27)

>  <Rbt.Parameter_File>
/export/apps/rDock/src/rDock_2013.1_src/data/scripts/dock_solv.prm

>  <Rbt.Receptor>
prm/pocket_docking_8.prm

>  <SCORE>
-24.5027

>  <SCORE.INTER>
-10.0602

>  <SCORE.INTER.CONST>
1

>  <SCORE.INTER.POLAR>
0

>  <SCORE.INTER.ROT>
12

>  <SCORE.INTER.SOLV>
10.6279

>  <SCORE.INTER.VDW>
-21.8494

>  <SCORE.INTER.norm>
-0.324521

>  <SCORE.INTRA>
-14.4426

>  <SCORE.INTRA.DIHEDRAL>
2.47099

>  <SCORE.INTRA.DIHEDRAL.0>
14.6094

>  <SCORE.INTRA.POLAR>
0

>  <SCORE.INTRA.POLAR.0>
0

>  <SCORE.INTRA.REPUL>
0

>  <SCORE.INTRA.REPUL.0>
0

>  <SCORE.INTRA.SOLV>
-0.0415507

>  <SCORE.INTRA.SOLV.lig_0>
-65.6478

>  <SCORE.INTRA.VDW>
-15.6573

>  <SCORE.INTRA.VDW.0>
9.35535

>  <SCORE.INTRA.norm>
-0.465889

>  <SCORE.RESTR>
0

>  <SCORE.RESTR.CAVITY>
0

>  <SCORE.RESTR.norm>
0

>  <SCORE.SYSTEM>
0

>  <SCORE.SYSTEM.CONST>
0

>  <SCORE.SYSTEM.DIHEDRAL>
0

>  <SCORE.SYSTEM.SOLV>
0

>  <SCORE.SYSTEM.norm>
0

>  <SCORE.heavy>
31

>  <SCORE.norm>
-0.79041

>  <RMSD>
7.252

$$$$
ligand
 OpenBabel11021811443D
libRbt.so/2013.1/901 2013/11/27
 31 32  0  0  0  0  0  0  0  0999 V2000
   10.4028   19.9928   53.6831 C   0  0  0  0  0  0  0  0  0  0  0  0
   10.1392   21.4737   53.4273 C   0  0  0  0  0  0  0  0  0  0  0  0
    8.9924   21.8791   52.6704 C   0  0  0  0  0  0  0  0  0  0  0  0
    8.7551   23.2544   52.4335 C   0  0  0  0  0  0  0  0  0  0  0  0
    9.6394   24.2353   52.9454 C   0  0  0  0  0  0  0  0  0  0  0  0
   10.7694   23.8549   53.6975 C   0  0  0  0  0  0  0  0  0  0  0  0
   11.0236   22.4935   53.9421 C   0  0  0  0  0  0  0  0  0  0  0  0
   11.5514   19.5548   53.6276 O   0  0  0  0  0  0  0  0  0  0  0  0
    1.7274   15.4837   49.9876 C   0  0  0  0  0  0  0  0  0  0  0  0
    6.7815   17.2665   52.7934 C   0  0  0  0  0  0  0  0  0  0  0  0
    5.4892   23.0946   55.1316 P   0  0  1  0  0  0  0  0  0  0  0  0
    3.9271   16.4209   49.8547 N   0  0  0  0  0  0  0  0  0  0  0  0
    5.0419   23.8864   56.2934 O   0  0  0  0  0  0  0  0  0  0  0  0
    9.3602   19.1312   53.9771 S   0  0  0  0  0  0  0  0  0  0  0  0
    7.8218   19.0091   50.3486 C   0  0  0  0  0  0  0  0  0  0  0  0
    2.6340   16.5816   50.2989 C   0  0  0  0  0  0  0  0  0  0  0  0
    4.7039   23.3217   53.8883 O   0  5  0  0  0  0  0  0  0  0  0  0
    6.8907   19.2593   51.3023 N   0  0  0  0  0  0  0  0  0  0  0  0
    2.2142   17.6203   50.9508 N   0  0  0  0  0  0  0  0  0  0  0  0
    6.9505   23.2452   54.9413 O   0  0  0  0  0  0  0  0  0  0  0  0
    7.1928   18.7046   52.6298 C   0  0  2  0  0  0  0  0  0  0  0  0
    3.0774   18.6607   51.2367 C   0  0  0  0  0  0  0  0  0  0  0  0
    2.6095   19.7170   51.9061 N   0  0  0  0  0  0  0  0  0  0  0  0
    7.8472   19.3885   53.7411 C   0  0  1  0  0  0  0  0  0  0  0  0
    4.4598   18.5699   50.7932 C   0  0  0  0  0  0  0  0  0  0  0  0
    8.2324   20.0207   49.8238 O   0  0  0  0  0  0  0  0  0  0  0  0
    7.1548   20.3133   54.6781 C   0  0  0  0  0  0  0  0  0  0  0  0
    4.8072   17.4192   50.1151 C   0  0  0  0  0  0  0  0  0  0  0  0
    5.6970   20.4708   54.6019 C   0  0  0  0  0  0  0  0  0  0  0  0
    5.4379   19.6931   51.0378 C   0  0  0  0  0  0  0  0  0  0  0  0
    5.2560   21.5700   55.4180 O   0  0  0  0  0  0  0  0  0  0  0  0
  1  2  1  0  0  0  0
  1  8  2  0  0  0  0
  1 14  1  0  0  0  0
  2  3  2  0  0  0  0
  2  7  1  0  0  0  0
  3  4  1  0  0  0  0
  4  5  2  0  0  0  0
  5  6  1  0  0  0  0
  6  7  2  0  0  0  0
  9 16  1  0  0  0  0
 10 21  1  0  0  0  0
 11 13  1  1  0  0  0
 11 17  1  0  0  0  0
 11 20  2  0  0  0  0
 11 31  1  0  0  0  0
 12 16  2  0  0  0  0
 12 28  1  0  0  0  0
 15 26  1  0  0  0  0
 15 18  1  0  0  0  0
 16 19  1  0  0  0  0
 18 30  1  0  0  0  0
 19 22  2  0  0  0  0
 21 18  1  6  0  0  0
 21 24  1  0  0  0  0
 22 23  1  0  0  0  0
 22 25  1  0  0  0  0
 24 14  1  1  0  0  0
 24 27  1  0  0  0  0
 25 28  2  0  0  0  0
 25 30  1  0  0  0  0
 27 29  1  0  0  0  0
 29 31  1  0  0  0  0
M  CHG  1  17  -1
M  END
>  <CHROM.1>
139.93657189,16.83411772,105.07710021,-124.52123183,-84.25160124,85.69904478
79.49481406,-172.79869823,145.91321939,-169.77773800,70.91892380,-172.47407689
6.67027609,20.25210455,52.83875896,-0.83958510,-0.01533419,-2.51358892

>  <Name>
ligand

>  <RI>
0

>  <Rbt.Current_Directory>
/home/itssahil/PROJECTS/Mol_Feturizer/New_Systems/rnas/2HOO

>  <Rbt.Executable>
rbdock ($Id: //depot/dev/client3/rdock/2013.1/src/exe/rbdock.cxx#4 $)

>  <Rbt.Library>
libRbt.so (2013.1, Build901 2013/11/27)

>  <Rbt.Parameter_File>
/export/apps/rDock/src/rDock_2013.1_src/data/scripts/dock_solv.prm

>  <Rbt.Receptor>
prm/pocket_docking_5.prm

>  <SCORE>
-31.042

>  <SCORE.INTER>
-18.1146

>  <SCORE.INTER.CONST>
1

>  <SCORE.INTER.POLAR>
0

>  <SCORE.INTER.ROT>
12

>  <SCORE.INTER.SOLV>
12.3094

>  <SCORE.INTER.VDW>
-27.7796

>  <SCORE.INTER.norm>
-0.584343

>  <SCORE.INTRA>
-12.9274

>  <SCORE.INTRA.DIHEDRAL>
1.09972

>  <SCORE.INTRA.DIHEDRAL.0>
14.6094

>  <SCORE.INTRA.POLAR>
0

>  <SCORE.INTRA.POLAR.0>
0

>  <SCORE.INTRA.REPUL>
0

>  <SCORE.INTRA.REPUL.0>
0

>  <SCORE.INTRA.SOLV>
2.07241

>  <SCORE.INTRA.SOLV.lig_0>
-65.6478

>  <SCORE.INTRA.VDW>
-14.5135

>  <SCORE.INTRA.VDW.0>
9.35535

>  <SCORE.INTRA.norm>
-0.417013

>  <SCORE.RESTR>
0

>  <SCORE.RESTR.CAVITY>
0

>  <SCORE.RESTR.norm>
0

>  <SCORE.SYSTEM>
0

>  <SCORE.SYSTEM.CONST>
0

>  <SCORE.SYSTEM.DIHEDRAL>
0

>  <SCORE.SYSTEM.SOLV>
0

>  <SCORE.SYSTEM.norm>
0

>  <SCORE.heavy>
31

>  <SCORE.norm>
-1.00136

>  <RMSD>
7.254

$$$$
ligand
 OpenBabel11021811443D
libRbt.so/2013.1/901 2013/11/27
 31 32  0  0  0  0  0  0  0  0999 V2000
    4.5765   17.4377   50.3869 C   0  0  0  0  0  0  0  0  0  0  0  0
    4.6534   16.2004   49.4973 C   0  0  0  0  0  0  0  0  0  0  0  0
    4.8844   16.3402   48.0904 C   0  0  0  0  0  0  0  0  0  0  0  0
    4.9514   15.1887   47.2699 C   0  0  0  0  0  0  0  0  0  0  0  0
    4.7989   13.8967   47.8299 C   0  0  0  0  0  0  0  0  0  0  0  0
    4.5770   13.7400   49.2132 C   0  0  0  0  0  0  0  0  0  0  0  0
    4.5054   14.8718   50.0450 C   0  0  0  0  0  0  0  0  0  0  0  0
    5.5541   17.7773   51.0527 O   0  0  0  0  0  0  0  0  0  0  0  0
    0.2519   17.5776   59.3119 C   0  0  0  0  0  0  0  0  0  0  0  0
    3.0130   18.0119   53.7093 C   0  0  0  0  0  0  0  0  0  0  0  0
    6.8960   20.9034   53.1990 P   0  0  1  0  0  0  0  0  0  0  0  0
    0.2164   17.5504   56.9177 N   0  0  0  0  0  0  0  0  0  0  0  0
    6.4490   20.9822   54.6028 O   0  0  0  0  0  0  0  0  0  0  0  0
    3.4141   18.1860   50.4556 S   0  0  0  0  0  0  0  0  0  0  0  0
    0.0026   18.5128   52.5102 C   0  0  0  0  0  0  0  0  0  0  0  0
    0.4207   18.2973   58.0558 C   0  0  0  0  0  0  0  0  0  0  0  0
    7.3790   22.1907   52.6299 O   0  5  0  0  0  0  0  0  0  0  0  0
    0.9730   19.2852   53.0585 N   0  0  0  0  0  0  0  0  0  0  0  0
    0.7415   19.5532   58.0521 N   0  0  0  0  0  0  0  0  0  0  0  0
    7.8549   19.7873   53.0288 O   0  0  0  0  0  0  0  0  0  0  0  0
    2.3478   18.9078   52.6998 C   0  0  2  0  0  0  0  0  0  0  0  0
    0.8933   20.2312   56.8577 C   0  0  0  0  0  0  0  0  0  0  0  0
    1.2199   21.5254   56.8917 N   0  0  0  0  0  0  0  0  0  0  0  0
    3.0793   19.2893   51.4956 C   0  0  1  0  0  0  0  0  0  0  0  0
    0.6859   19.5131   55.6098 C   0  0  0  0  0  0  0  0  0  0  0  0
   -0.2488   17.5364   53.1816 O   0  0  0  0  0  0  0  0  0  0  0  0
    3.5403   20.6724   51.2002 C   0  0  0  0  0  0  0  0  0  0  0  0
    0.3560   18.1778   55.7235 C   0  0  0  0  0  0  0  0  0  0  0  0
    4.4798   21.3373   52.1118 C   0  0  0  0  0  0  0  0  0  0  0  0
    0.7948   20.2102   54.2756 C   0  0  0  0  0  0  0  0  0  0  0  0
    5.6734   20.5528   52.2807 O   0  0  0  0  0  0  0  0  0  0  0  0
  1  2  1  0  0  0  0
  1  8  2  0  0  0  0
  1 14  1  0  0  0  0
  2  3  2  0  0  0  0
  2  7  1  0  0  0  0
  3  4  1  0  0  0  0
  4  5  2  0  0  0  0
  5  6  1  0  0  0  0
  6  7  2  0  0  0  0
  9 16  1  0  0  0  0
 10 21  1  0  0  0  0
 11 13  1  1  0  0  0
 11 17  1  0  0  0  0
 11 20  2  0  0  0  0
 11 31  1  0  0  0  0
 12 16  2  0  0  0  0
 12 28  1  0  0  0  0
 15 26  1  0  0  0  0
 15 18  1  0  0  0  0
 16 19  1  0  0  0  0
 18 30  1  0  0  0  0
 19 22  2  0  0  0  0
 21 18  1  6  0  0  0
 21 24  1  0  0  0  0
 22 23  1  0  0  0  0
 22 25  1  0  0  0  0
 24 14  1  1  0  0  0
 24 27  1  0  0  0  0
 25 28  2  0  0  0  0
 25 30  1  0  0  0  0
 27 29  1  0  0  0  0
 29 31  1  0  0  0  0
M  CHG  1  17  -1
M  END
>  <CHROM.1>
-99.67560961,167.34075112,-92.94709955,87.23555893,-95.38188632,73.73406025
66.97452081,-118.78291777,162.39085179,56.27562655,-178.43259135,61.13248799
3.38969043,18.71281826,52.93070042,0.91755859,-0.56764696,-2.26778572

>  <Name>
ligand

>  <RI>
0

>  <Rbt.Current_Directory>
/home/itssahil/PROJECTS/Mol_Feturizer/New_Systems/rnas/2HOO

>  <Rbt.Executable>
rbdock ($Id: //depot/dev/client3/rdock/2013.1/src/exe/rbdock.cxx#4 $)

>  <Rbt.Library>
libRbt.so (2013.1, Build901 2013/11/27)

>  <Rbt.Parameter_File>
/export/apps/rDock/src/rDock_2013.1_src/data/scripts/dock_solv.prm

>  <Rbt.Receptor>
prm/pocket_docking_8.prm

>  <SCORE>
-25.0583

>  <SCORE.INTER>
-9.69686

>  <SCORE.INTER.CONST>
1

>  <SCORE.INTER.POLAR>
0

>  <SCORE.INTER.ROT>
12

>  <SCORE.INTER.SOLV>
8.94398

>  <SCORE.INTER.VDW>
-21.0459

>  <SCORE.INTER.norm>
-0.312802

>  <SCORE.INTRA>
-15.3614

>  <SCORE.INTRA.DIHEDRAL>
-2.87626

>  <SCORE.INTRA.DIHEDRAL.0>
14.6094

>  <SCORE.INTRA.POLAR>
0

>  <SCORE.INTRA.POLAR.0>
0

>  <SCORE.INTRA.REPUL>
0.00472691

>  <SCORE.INTRA.REPUL.0>
0

>  <SCORE.INTRA.SOLV>
0.172506

>  <SCORE.INTRA.SOLV.lig_0>
-65.6478

>  <SCORE.INTRA.VDW>
-14.0332

>  <SCORE.INTRA.VDW.0>
9.35535

>  <SCORE.INTRA.norm>
-0.49553

>  <SCORE.RESTR>
0

>  <SCORE.RESTR.CAVITY>
0

>  <SCORE.RESTR.norm>
0

>  <SCORE.SYSTEM>
0

>  <SCORE.SYSTEM.CONST>
0

>  <SCORE.SYSTEM.DIHEDRAL>
0

>  <SCORE.SYSTEM.SOLV>
0

>  <SCORE.SYSTEM.norm>
0

>  <SCORE.heavy>
31

>  <SCORE.norm>
-0.808332

>  <RMSD>
7.270

$$$$
ligand
 OpenBabel11021811443D
libRbt.so/2013.1/901 2013/11/27
 31 32  0  0  0  0  0  0  0  0999 V2000
    5.9080   19.2506   50.3927 C   0  0  0  0  0  0  0  0  0  0  0  0
    7.2913   18.9387   49.8293 C   0  0  0  0  0  0  0  0  0  0  0  0
    8.0011   19.9302   49.0774 C   0  0  0  0  0  0  0  0  0  0  0  0
    9.2826   19.6337   48.5543 C   0  0  0  0  0  0  0  0  0  0  0  0
    9.8733   18.3654   48.7744 C   0  0  0  0  0  0  0  0  0  0  0  0
    9.1919   17.3798   49.5172 C   0  0  0  0  0  0  0  0  0  0  0  0
    7.9170   17.6543   50.0436 C   0  0  0  0  0  0  0  0  0  0  0  0
    4.9058   19.0486   49.7077 O   0  0  0  0  0  0  0  0  0  0  0  0
    1.6635   14.3604   51.3172 C   0  0  0  0  0  0  0  0  0  0  0  0
    3.3176   22.7685   51.8748 C   0  0  0  0  0  0  0  0  0  0  0  0
    7.6046   25.2034   52.8635 P   0  0  1  0  0  0  0  0  0  0  0  0
    2.1193   16.5785   50.5383 N   0  0  0  0  0  0  0  0  0  0  0  0
    8.9054   25.8796   52.6984 O   0  0  0  0  0  0  0  0  0  0  0  0
    5.7658   19.7618   51.6711 S   0  0  0  0  0  0  0  0  0  0  0  0
    2.9935   20.5942   54.3285 C   0  0  0  0  0  0  0  0  0  0  0  0
    1.6946   15.7925   51.5857 C   0  0  0  0  0  0  0  0  0  0  0  0
    6.7458   25.7675   53.9398 O   0  5  0  0  0  0  0  0  0  0  0  0
    2.9602   20.5613   52.9732 N   0  0  0  0  0  0  0  0  0  0  0  0
    1.3394   16.2554   52.7432 N   0  0  0  0  0  0  0  0  0  0  0  0
    6.9155   25.0927   51.5569 O   0  0  0  0  0  0  0  0  0  0  0  0
    3.9153   21.4559   52.3037 C   0  0  2  0  0  0  0  0  0  0  0  0
    1.3649   17.6150   52.9889 C   0  0  0  0  0  0  0  0  0  0  0  0
    0.9880   18.0567   54.1912 N   0  0  0  0  0  0  0  0  0  0  0  0
    5.3308   21.2027   52.0527 C   0  0  1  0  0  0  0  0  0  0  0  0
    1.7942   18.5136   51.9287 C   0  0  0  0  0  0  0  0  0  0  0  0
    2.3526   21.5144   54.7867 O   0  0  0  0  0  0  0  0  0  0  0  0
    6.3956   22.2370   52.1503 C   0  0  0  0  0  0  0  0  0  0  0  0
    2.1596   17.9193   50.7378 C   0  0  0  0  0  0  0  0  0  0  0  0
    6.8405   22.7020   53.4699 C   0  0  0  0  0  0  0  0  0  0  0  0
    1.8014   20.0102   52.1232 C   0  0  0  0  0  0  0  0  0  0  0  0
    7.8402   23.7282   53.3424 O   0  0  0  0  0  0  0  0  0  0  0  0
  1  2  1  0  0  0  0
  1  8  2  0  0  0  0
  1 14  1  0  0  0  0
  2  3  2  0  0  0  0
  2  7  1  0  0  0  0
  3  4  1  0  0  0  0
  4  5  2  0  0  0  0
  5  6  1  0  0  0  0
  6  7  2  0  0  0  0
  9 16  1  0  0  0  0
 10 21  1  0  0  0  0
 11 13  1  6  0  0  0
 11 17  1  0  0  0  0
 11 20  2  0  0  0  0
 11 31  1  0  0  0  0
 12 16  2  0  0  0  0
 12 28  1  0  0  0  0
 15 26  1  0  0  0  0
 15 18  1  0  0  0  0
 16 19  1  0  0  0  0
 18 30  1  0  0  0  0
 19 22  2  0  0  0  0
 21 18  1  1  0  0  0
 21 24  1  0  0  0  0
 22 23  1  0  0  0  0
 22 25  1  0  0  0  0
 24 14  1  1  0  0  0
 24 27  1  0  0  0  0
 25 28  2  0  0  0  0
 25 30  1  0  0  0  0
 27 29  1  0  0  0  0
 29 31  1  0  0  0  0
M  CHG  1  17  -1
M  END
>  <CHROM.1>
88.05497956,109.43370374,93.11550989,82.51080045,-97.11330363,-82.51288143
-143.68929012,-105.14260962,76.29877218,-178.13874005,71.86972380,-172.40572816
5.11413563,20.45974091,51.87273106,-2.30984855,0.45523832,0.46339073

>  <Name>
ligand

>  <RI>
0

>  <Rbt.Current_Directory>
/home/itssahil/PROJECTS/Mol_Feturizer/New_Systems/rnas/2HOO

>  <Rbt.Executable>
rbdock ($Id: //depot/dev/client3/rdock/2013.1/src/exe/rbdock.cxx#4 $)

>  <Rbt.Library>
libRbt.so (2013.1, Build901 2013/11/27)

>  <Rbt.Parameter_File>
/export/apps/rDock/src/rDock_2013.1_src/data/scripts/dock_solv.prm

>  <Rbt.Receptor>
prm/pocket_docking_7.prm

>  <SCORE>
-24.1919

>  <SCORE.INTER>
-13.7069

>  <SCORE.INTER.CONST>
1

>  <SCORE.INTER.POLAR>
0

>  <SCORE.INTER.ROT>
12

>  <SCORE.INTER.SOLV>
17.1203

>  <SCORE.INTER.VDW>
-26.4447

>  <SCORE.INTER.norm>
-0.442159

>  <SCORE.INTRA>
-10.485

>  <SCORE.INTRA.DIHEDRAL>
2.464

>  <SCORE.INTRA.DIHEDRAL.0>
14.6094

>  <SCORE.INTRA.POLAR>
0

>  <SCORE.INTRA.POLAR.0>
0

>  <SCORE.INTRA.REPUL>
0

>  <SCORE.INTRA.REPUL.0>
0

>  <SCORE.INTRA.SOLV>
4.38414

>  <SCORE.INTRA.SOLV.lig_0>
-65.6478

>  <SCORE.INTRA.VDW>
-13.9091

>  <SCORE.INTRA.VDW.0>
9.35535

>  <SCORE.INTRA.norm>
-0.338225

>  <SCORE.RESTR>
0

>  <SCORE.RESTR.CAVITY>
0

>  <SCORE.RESTR.norm>
0

>  <SCORE.SYSTEM>
0

>  <SCORE.SYSTEM.CONST>
0

>  <SCORE.SYSTEM.DIHEDRAL>
0

>  <SCORE.SYSTEM.SOLV>
0

>  <SCORE.SYSTEM.norm>
0

>  <SCORE.heavy>
31

>  <SCORE.norm>
-0.780384

>  <RMSD>
7.295

$$$$
ligand
 OpenBabel11021811443D
libRbt.so/2013.1/901 2013/11/27
 31 32  0  0  0  0  0  0  0  0999 V2000
    2.1237   15.5800   49.8739 C   0  0  0  0  0  0  0  0  0  0  0  0
    1.3870   15.7118   51.2035 C   0  0  0  0  0  0  0  0  0  0  0  0
    1.5796   14.7331   52.2317 C   0  0  0  0  0  0  0  0  0  0  0  0
    0.8907   14.8590   53.4619 C   0  0  0  0  0  0  0  0  0  0  0  0
    0.0165   15.9503   53.6882 C   0  0  0  0  0  0  0  0  0  0  0  0
   -0.1803   16.9260   52.6899 C   0  0  0  0  0  0  0  0  0  0  0  0
    0.4935   16.8177   51.4602 C   0  0  0  0  0  0  0  0  0  0  0  0
    1.8156   14.6854   49.0869 O   0  0  0  0  0  0  0  0  0  0  0  0
    8.8205   22.5727   52.8130 C   0  0  0  0  0  0  0  0  0  0  0  0
    6.6492   15.5795   49.5360 C   0  0  0  0  0  0  0  0  0  0  0  0
    7.3936   14.4527   45.5371 P   0  0  1  0  0  0  0  0  0  0  0  0
    8.2326   21.4112   50.8031 N   0  0  0  0  0  0  0  0  0  0  0  0
    6.8834   13.9083   44.2642 O   0  0  0  0  0  0  0  0  0  0  0  0
    3.1405   16.4579   49.5407 S   0  0  0  0  0  0  0  0  0  0  0  0
    7.0551   18.2802   48.0411 C   0  0  0  0  0  0  0  0  0  0  0  0
    7.9133   21.6689   52.1172 C   0  0  0  0  0  0  0  0  0  0  0  0
    8.2405   13.5109   46.3180 O   0  5  0  0  0  0  0  0  0  0  0  0
    6.1938   17.9790   49.0444 N   0  0  0  0  0  0  0  0  0  0  0  0
    6.8877   21.1633   52.7276 N   0  0  0  0  0  0  0  0  0  0  0  0
    8.0316   15.7704   45.3115 O   0  0  0  0  0  0  0  0  0  0  0  0
    5.6723   16.6047   49.0272 C   0  0  2  0  0  0  0  0  0  0  0  0
    6.0353   20.3017   52.0639 C   0  0  0  0  0  0  0  0  0  0  0  0
    4.9913   19.7963   52.7253 N   0  0  0  0  0  0  0  0  0  0  0  0
    4.3443   16.1727   48.6022 C   0  0  1  0  0  0  0  0  0  0  0  0
    6.3098   19.9727   50.6738 C   0  0  0  0  0  0  0  0  0  0  0  0
    6.5048   18.8061   47.0988 O   0  0  0  0  0  0  0  0  0  0  0  0
    4.0650   15.4610   47.3261 C   0  0  0  0  0  0  0  0  0  0  0  0
    7.4210   20.5706   50.1148 C   0  0  0  0  0  0  0  0  0  0  0  0
    5.0337   15.5325   46.2251 C   0  0  0  0  0  0  0  0  0  0  0  0
    5.4400   19.0043   49.9100 C   0  0  0  0  0  0  0  0  0  0  0  0
    6.1913   14.7267   46.5068 O   0  0  0  0  0  0  0  0  0  0  0  0
  1  2  1  0  0  0  0
  1  8  2  0  0  0  0
  1 14  1  0  0  0  0
  2  3  2  0  0  0  0
  2  7  1  0  0  0  0
  3  4  1  0  0  0  0
  4  5  2  0  0  0  0
  5  6  1  0  0  0  0
  6  7  2  0  0  0  0
  9 16  1  0  0  0  0
 10 21  1  0  0  0  0
 11 13  1  6  0  0  0
 11 17  1  0  0  0  0
 11 20  2  0  0  0  0
 11 31  1  0  0  0  0
 12 16  2  0  0  0  0
 12 28  1  0  0  0  0
 15 26  1  0  0  0  0
 15 18  1  0  0  0  0
 16 19  1  0  0  0  0
 18 30  1  0  0  0  0
 19 22  2  0  0  0  0
 21 18  1  1  0  0  0
 21 24  1  0  0  0  0
 22 23  1  0  0  0  0
 22 25  1  0  0  0  0
 24 14  1  1  0  0  0
 24 27  1  0  0  0  0
 25 28  2  0  0  0  0
 25 30  1  0  0  0  0
 27 29  1  0  0  0  0
 29 31  1  0  0  0  0
M  CHG  1  17  -1
M  END
>  <CHROM.1>
70.16394535,152.58067206,-135.37096677,95.00670195,77.33213800,-58.64025048
104.51453775,160.67493123,-136.24428411,73.65955299,174.95926698,-54.73608148
5.16973670,17.06705547,49.34498624,1.93041208,0.54884401,0.78668145

>  <Name>
ligand

>  <RI>
0

>  <Rbt.Current_Directory>
/home/itssahil/PROJECTS/Mol_Feturizer/New_Systems/rnas/2HOO

>  <Rbt.Executable>
rbdock ($Id: //depot/dev/client3/rdock/2013.1/src/exe/rbdock.cxx#4 $)

>  <Rbt.Library>
libRbt.so (2013.1, Build901 2013/11/27)

>  <Rbt.Parameter_File>
/export/apps/rDock/src/rDock_2013.1_src/data/scripts/dock_solv.prm

>  <Rbt.Receptor>
prm/pocket_docking_7.prm

>  <SCORE>
-23.494

>  <SCORE.INTER>
-10.6727

>  <SCORE.INTER.CONST>
1

>  <SCORE.INTER.POLAR>
0

>  <SCORE.INTER.ROT>
12

>  <SCORE.INTER.SOLV>
7.65287

>  <SCORE.INTER.VDW>
-21.2661

>  <SCORE.INTER.norm>
-0.344279

>  <SCORE.INTRA>
-12.8373

>  <SCORE.INTRA.DIHEDRAL>
0.498481

>  <SCORE.INTRA.DIHEDRAL.0>
14.6094

>  <SCORE.INTRA.POLAR>
0

>  <SCORE.INTRA.POLAR.0>
0

>  <SCORE.INTRA.REPUL>
0

>  <SCORE.INTRA.REPUL.0>
0

>  <SCORE.INTRA.SOLV>
1.09658

>  <SCORE.INTRA.SOLV.lig_0>
-65.6478

>  <SCORE.INTRA.VDW>
-13.6348

>  <SCORE.INTRA.VDW.0>
9.35535

>  <SCORE.INTRA.norm>
-0.414106

>  <SCORE.RESTR>
0.015946

>  <SCORE.RESTR.CAVITY>
0.015946

>  <SCORE.RESTR.norm>
0.000514387

>  <SCORE.SYSTEM>
0

>  <SCORE.SYSTEM.CONST>
0

>  <SCORE.SYSTEM.DIHEDRAL>
0

>  <SCORE.SYSTEM.SOLV>
0

>  <SCORE.SYSTEM.norm>
0

>  <SCORE.heavy>
31

>  <SCORE.norm>
-0.757871

>  <RMSD>
7.307

$$$$
ligand
 OpenBabel11021811443D
libRbt.so/2013.1/901 2013/11/27
 31 32  0  0  0  0  0  0  0  0999 V2000
    7.6751   16.9585   49.9335 C   0  0  0  0  0  0  0  0  0  0  0  0
    7.2094   15.7029   49.2022 C   0  0  0  0  0  0  0  0  0  0  0  0
    7.2511   14.4311   49.8602 C   0  0  0  0  0  0  0  0  0  0  0  0
    6.8209   13.2694   49.1754 C   0  0  0  0  0  0  0  0  0  0  0  0
    6.3419   13.3547   47.8451 C   0  0  0  0  0  0  0  0  0  0  0  0
    6.2880   14.5987   47.1843 C   0  0  0  0  0  0  0  0  0  0  0  0
    6.7127   15.7643   47.8470 C   0  0  0  0  0  0  0  0  0  0  0  0
    8.3195   17.8167   49.3313 O   0  0  0  0  0  0  0  0  0  0  0  0
    2.8427   15.4206   49.0914 C   0  0  0  0  0  0  0  0  0  0  0  0
    5.7392   18.1412   53.8863 C   0  0  0  0  0  0  0  0  0  0  0  0
   12.1774   19.4847   54.1130 P   0  0  1  0  0  0  0  0  0  0  0  0
    4.4359   17.2082   49.1214 N   0  0  0  0  0  0  0  0  0  0  0  0
   12.0853   18.2593   54.9295 O   0  0  0  0  0  0  0  0  0  0  0  0
    7.3813   17.1445   51.2732 S   0  0  0  0  0  0  0  0  0  0  0  0
    6.0678   21.2887   53.2755 C   0  0  0  0  0  0  0  0  0  0  0  0
    3.3083   16.6636   49.6934 C   0  0  0  0  0  0  0  0  0  0  0  0
   11.9786   20.7498   54.8708 O   0  5  0  0  0  0  0  0  0  0  0  0
    5.6401   20.2339   52.5383 N   0  0  0  0  0  0  0  0  0  0  0  0
    2.6774   17.1885   50.6966 N   0  0  0  0  0  0  0  0  0  0  0  0
   13.4195   19.4702   53.3060 O   0  0  0  0  0  0  0  0  0  0  0  0
    6.3482   18.9701   52.7880 C   0  0  2  0  0  0  0  0  0  0  0  0
    3.1203   18.3708   51.2583 C   0  0  0  0  0  0  0  0  0  0  0  0
    2.4431   18.8851   52.2878 N   0  0  0  0  0  0  0  0  0  0  0  0
    7.5203   18.4635   52.0807 C   0  0  1  0  0  0  0  0  0  0  0  0
    4.3017   19.0136   50.7044 C   0  0  0  0  0  0  0  0  0  0  0  0
    5.1693   21.8220   53.8883 O   0  0  0  0  0  0  0  0  0  0  0  0
    8.8533   19.1238   52.0908 C   0  0  0  0  0  0  0  0  0  0  0  0
    4.9044   18.3689   49.6433 C   0  0  0  0  0  0  0  0  0  0  0  0
    9.6234   19.1909   53.3391 C   0  0  0  0  0  0  0  0  0  0  0  0
    4.8075   20.3279   51.2472 C   0  0  0  0  0  0  0  0  0  0  0  0
   11.0008   19.5106   53.0759 O   0  0  0  0  0  0  0  0  0  0  0  0
  1  2  1  0  0  0  0
  1  8  2  0  0  0  0
  1 14  1  0  0  0  0
  2  3  2  0  0  0  0
  2  7  1  0  0  0  0
  3  4  1  0  0  0  0
  4  5  2  0  0  0  0
  5  6  1  0  0  0  0
  6  7  2  0  0  0  0
  9 16  1  0  0  0  0
 10 21  1  0  0  0  0
 11 13  1  1  0  0  0
 11 17  1  0  0  0  0
 11 20  2  0  0  0  0
 11 31  1  0  0  0  0
 12 16  2  0  0  0  0
 12 28  1  0  0  0  0
 15 26  1  0  0  0  0
 15 18  1  0  0  0  0
 16 19  1  0  0  0  0
 18 30  1  0  0  0  0
 19 22  2  0  0  0  0
 21 18  1  6  0  0  0
 21 24  1  0  0  0  0
 22 23  1  0  0  0  0
 22 25  1  0  0  0  0
 24 14  1  1  0  0  0
 24 27  1  0  0  0  0
 25 28  2  0  0  0  0
 25 30  1  0  0  0  0
 27 29  1  0  0  0  0
 29 31  1  0  0  0  0
M  CHG  1  17  -1
M  END
>  <CHROM.1>
140.47797855,-166.60867737,124.75267009,-125.62755455,89.20483221,-172.41420663
62.38905973,-112.85536434,80.25424909,163.70151956,-171.20746019,44.28688056
7.19954073,18.06274957,51.52271515,-2.48224997,-0.17883703,0.70794264

>  <Name>
ligand

>  <RI>
0

>  <Rbt.Current_Directory>
/home/itssahil/PROJECTS/Mol_Feturizer/New_Systems/rnas/2HOO

>  <Rbt.Executable>
rbdock ($Id: //depot/dev/client3/rdock/2013.1/src/exe/rbdock.cxx#4 $)

>  <Rbt.Library>
libRbt.so (2013.1, Build901 2013/11/27)

>  <Rbt.Parameter_File>
/export/apps/rDock/src/rDock_2013.1_src/data/scripts/dock_solv.prm

>  <Rbt.Receptor>
prm/pocket_docking_3.prm

>  <SCORE>
-28.8644

>  <SCORE.INTER>
-13.4084

>  <SCORE.INTER.CONST>
1

>  <SCORE.INTER.POLAR>
0

>  <SCORE.INTER.ROT>
12

>  <SCORE.INTER.SOLV>
21.8615

>  <SCORE.INTER.VDW>
-27.8261

>  <SCORE.INTER.norm>
-0.43253

>  <SCORE.INTRA>
-15.4885

>  <SCORE.INTRA.DIHEDRAL>
-0.849479

>  <SCORE.INTRA.DIHEDRAL.0>
14.6094

>  <SCORE.INTRA.POLAR>
0

>  <SCORE.INTRA.POLAR.0>
0

>  <SCORE.INTRA.REPUL>
0

>  <SCORE.INTRA.REPUL.0>
0

>  <SCORE.INTRA.SOLV>
1.92122

>  <SCORE.INTRA.SOLV.lig_0>
-65.6478

>  <SCORE.INTRA.VDW>
-16.0244

>  <SCORE.INTRA.VDW.0>
9.35535

>  <SCORE.INTRA.norm>
-0.49963

>  <SCORE.RESTR>
0.0325865

>  <SCORE.RESTR.CAVITY>
0.0325865

>  <SCORE.RESTR.norm>
0.00105118

>  <SCORE.SYSTEM>
0

>  <SCORE.SYSTEM.CONST>
0

>  <SCORE.SYSTEM.DIHEDRAL>
0

>  <SCORE.SYSTEM.SOLV>
0

>  <SCORE.SYSTEM.norm>
0

>  <SCORE.heavy>
31

>  <SCORE.norm>
-0.931108

>  <RMSD>
7.315

$$$$
ligand
 OpenBabel11021811443D
libRbt.so/2013.1/901 2013/11/27
 31 32  0  0  0  0  0  0  0  0999 V2000
    9.1762   19.0619   54.4383 C   0  0  0  0  0  0  0  0  0  0  0  0
   10.6318   19.5005   54.3082 C   0  0  0  0  0  0  0  0  0  0  0  0
   11.6797   18.5238   54.3139 C   0  0  0  0  0  0  0  0  0  0  0  0
   13.0285   18.9372   54.1962 C   0  0  0  0  0  0  0  0  0  0  0  0
   13.3510   20.3102   54.0653 C   0  0  0  0  0  0  0  0  0  0  0  0
   12.3323   21.2845   54.0515 C   0  0  0  0  0  0  0  0  0  0  0  0
   10.9863   20.8941   54.1692 C   0  0  0  0  0  0  0  0  0  0  0  0
    8.9018   17.8670   54.5439 O   0  0  0  0  0  0  0  0  0  0  0  0
    7.9223   17.7012   44.7555 C   0  0  0  0  0  0  0  0  0  0  0  0
    6.2016   18.1307   52.9793 C   0  0  0  0  0  0  0  0  0  0  0  0
    8.0818   24.9296   52.9102 P   0  0  1  0  0  0  0  0  0  0  0  0
    7.5139   19.4324   46.3587 N   0  0  0  0  0  0  0  0  0  0  0  0
    7.4224   24.7832   54.2219 O   0  0  0  0  0  0  0  0  0  0  0  0
    8.1551   19.9963   54.4377 S   0  0  0  0  0  0  0  0  0  0  0  0
    5.4082   19.5550   50.3852 C   0  0  0  0  0  0  0  0  0  0  0  0
    7.9730   18.1531   46.1401 C   0  0  0  0  0  0  0  0  0  0  0  0
    7.9113   26.2654   52.2773 O   0  5  0  0  0  0  0  0  0  0  0  0
    6.6582   19.4090   50.8903 N   0  0  0  0  0  0  0  0  0  0  0  0
    8.4258   17.3751   47.0727 N   0  0  0  0  0  0  0  0  0  0  0  0
    9.4950   24.4942   52.9961 O   0  0  0  0  0  0  0  0  0  0  0  0
    6.7398   19.3910   52.3579 C   0  0  2  0  0  0  0  0  0  0  0  0
    8.4649   17.8075   48.3845 C   0  0  0  0  0  0  0  0  0  0  0  0
    8.9335   16.9778   49.3198 N   0  0  0  0  0  0  0  0  0  0  0  0
    7.2930   20.4301   53.2212 C   0  0  1  0  0  0  0  0  0  0  0  0
    7.9890   19.1457   48.6986 C   0  0  0  0  0  0  0  0  0  0  0  0
    4.8709   18.4927   50.1605 O   0  0  0  0  0  0  0  0  0  0  0  0
    7.0751   21.8878   53.0204 C   0  0  0  0  0  0  0  0  0  0  0  0
    7.5354   19.8962   47.6329 C   0  0  0  0  0  0  0  0  0  0  0  0
    7.5734   22.5377   51.8017 C   0  0  0  0  0  0  0  0  0  0  0  0
    7.9662   19.6576   50.1182 C   0  0  0  0  0  0  0  0  0  0  0  0
    7.4052   23.9642   51.8752 O   0  0  0  0  0  0  0  0  0  0  0  0
  1  2  1  0  0  0  0
  1  8  2  0  0  0  0
  1 14  1  0  0  0  0
  2  3  2  0  0  0  0
  2  7  1  0  0  0  0
  3  4  1  0  0  0  0
  4  5  2  0  0  0  0
  5  6  1  0  0  0  0
  6  7  2  0  0  0  0
  9 16  1  0  0  0  0
 10 21  1  0  0  0  0
 11 13  1  1  0  0  0
 11 17  1  0  0  0  0
 11 20  2  0  0  0  0
 11 31  1  0  0  0  0
 12 16  2  0  0  0  0
 12 28  1  0  0  0  0
 15 26  1  0  0  0  0
 15 18  1  0  0  0  0
 16 19  1  0  0  0  0
 18 30  1  0  0  0  0
 19 22  2  0  0  0  0
 21 18  1  6  0  0  0
 21 24  1  0  0  0  0
 22 23  1  0  0  0  0
 22 25  1  0  0  0  0
 24 14  1  1  0  0  0
 24 27  1  0  0  0  0
 25 28  2  0  0  0  0
 25 30  1  0  0  0  0
 27 29  1  0  0  0  0
 29 31  1  0  0  0  0
M  CHG  1  17  -1
M  END
>  <CHROM.1>
-0.24214276,96.45333487,46.54346487,-92.49325919,71.96794490,-41.78058182
39.79446915,117.58876979,-91.05831981,-173.04569914,63.04421450,-74.85547409
8.35153678,20.47726006,51.65179246,-1.18865194,0.96697424,-2.52067551

>  <Name>
ligand

>  <RI>
0

>  <Rbt.Current_Directory>
/home/itssahil/PROJECTS/Mol_Feturizer/New_Systems/rnas/2HOO

>  <Rbt.Executable>
rbdock ($Id: //depot/dev/client3/rdock/2013.1/src/exe/rbdock.cxx#4 $)

>  <Rbt.Library>
libRbt.so (2013.1, Build901 2013/11/27)

>  <Rbt.Parameter_File>
/export/apps/rDock/src/rDock_2013.1_src/data/scripts/dock_solv.prm

>  <Rbt.Receptor>
prm/blind_docking_100.prm

>  <SCORE>
-31.4212

>  <SCORE.INTER>
-21.4342

>  <SCORE.INTER.CONST>
1

>  <SCORE.INTER.POLAR>
0

>  <SCORE.INTER.ROT>
12

>  <SCORE.INTER.SOLV>
25.3497

>  <SCORE.INTER.VDW>
-34.3394

>  <SCORE.INTER.norm>
-0.691426

>  <SCORE.INTRA>
-10.0048

>  <SCORE.INTRA.DIHEDRAL>
2.65578

>  <SCORE.INTRA.DIHEDRAL.0>
14.6094

>  <SCORE.INTRA.POLAR>
0

>  <SCORE.INTRA.POLAR.0>
0

>  <SCORE.INTRA.REPUL>
0

>  <SCORE.INTRA.REPUL.0>
0

>  <SCORE.INTRA.SOLV>
1.39248

>  <SCORE.INTRA.SOLV.lig_0>
-65.6478

>  <SCORE.INTRA.VDW>
-12.0289

>  <SCORE.INTRA.VDW.0>
9.35535

>  <SCORE.INTRA.norm>
-0.322735

>  <SCORE.RESTR>
0.0177463

>  <SCORE.RESTR.CAVITY>
0.0177463

>  <SCORE.RESTR.norm>
0.000572462

>  <SCORE.SYSTEM>
0

>  <SCORE.SYSTEM.CONST>
0

>  <SCORE.SYSTEM.DIHEDRAL>
0

>  <SCORE.SYSTEM.SOLV>
0

>  <SCORE.SYSTEM.norm>
0

>  <SCORE.heavy>
31

>  <SCORE.norm>
-1.01359

>  <RMSD>
7.326

$$$$
ligand
 OpenBabel11021811443D
libRbt.so/2013.1/901 2013/11/27
 31 32  0  0  0  0  0  0  0  0999 V2000
   10.0158   20.0533   53.1527 C   0  0  0  0  0  0  0  0  0  0  0  0
   11.3584   19.6744   53.7707 C   0  0  0  0  0  0  0  0  0  0  0  0
   12.2657   20.6965   54.2002 C   0  0  0  0  0  0  0  0  0  0  0  0
   13.5112   20.3387   54.7698 C   0  0  0  0  0  0  0  0  0  0  0  0
   13.8659   18.9763   54.9255 C   0  0  0  0  0  0  0  0  0  0  0  0
   12.9829   17.9573   54.5141 C   0  0  0  0  0  0  0  0  0  0  0  0
   11.7416   18.2923   53.9443 C   0  0  0  0  0  0  0  0  0  0  0  0
    9.6664   21.2328   53.1182 O   0  0  0  0  0  0  0  0  0  0  0  0
   10.4249   15.4447   43.9206 C   0  0  0  0  0  0  0  0  0  0  0  0
   10.0136   17.8161   49.9601 C   0  0  0  0  0  0  0  0  0  0  0  0
    3.5820   21.2442   51.9011 P   0  0  1  0  0  0  0  0  0  0  0  0
    9.7081   15.6781   46.1935 N   0  0  0  0  0  0  0  0  0  0  0  0
    3.4157   20.9858   53.3442 O   0  0  0  0  0  0  0  0  0  0  0  0
    9.1810   19.0815   52.6289 S   0  0  0  0  0  0  0  0  0  0  0  0
    6.6936   16.7973   50.0245 C   0  0  0  0  0  0  0  0  0  0  0  0
    9.6301   16.1641   44.9079 C   0  0  0  0  0  0  0  0  0  0  0  0
    2.9446   20.2339   51.0138 O   0  5  0  0  0  0  0  0  0  0  0  0
    7.6006   17.5789   49.3877 N   0  0  0  0  0  0  0  0  0  0  0  0
    8.9123   17.1860   44.5604 N   0  0  0  0  0  0  0  0  0  0  0  0
    3.1931   22.6375   51.5822 O   0  0  0  0  0  0  0  0  0  0  0  0
    8.5952   18.2185   50.2610 C   0  0  2  0  0  0  0  0  0  0  0  0
    8.1663   17.8677   45.5028 C   0  0  0  0  0  0  0  0  0  0  0  0
    7.4421   18.9185   45.1100 N   0  0  0  0  0  0  0  0  0  0  0  0
    8.3398   19.1819   51.3276 C   0  0  1  0  0  0  0  0  0  0  0  0
    8.2023   17.4204   46.8865 C   0  0  0  0  0  0  0  0  0  0  0  0
    6.5666   15.7123   49.5010 O   0  0  0  0  0  0  0  0  0  0  0  0
    7.3116   20.2545   51.2570 C   0  0  0  0  0  0  0  0  0  0  0  0
    8.9904   16.3184   47.1496 C   0  0  0  0  0  0  0  0  0  0  0  0
    5.9219   19.9568   51.6256 C   0  0  0  0  0  0  0  0  0  0  0  0
    7.4435   18.1508   47.9675 C   0  0  0  0  0  0  0  0  0  0  0  0
    5.1002   21.1328   51.5224 O   0  0  0  0  0  0  0  0  0  0  0  0
  1  2  1  0  0  0  0
  1  8  2  0  0  0  0
  1 14  1  0  0  0  0
  2  3  2  0  0  0  0
  2  7  1  0  0  0  0
  3  4  1  0  0  0  0
  4  5  2  0  0  0  0
  5  6  1  0  0  0  0
  6  7  2  0  0  0  0
  9 16  1  0  0  0  0
 10 21  1  0  0  0  0
 11 13  1  1  0  0  0
 11 17  1  0  0  0  0
 11 20  2  0  0  0  0
 11 31  1  0  0  0  0
 12 16  2  0  0  0  0
 12 28  1  0  0  0  0
 15 26  1  0  0  0  0
 15 18  1  0  0  0  0
 16 19  1  0  0  0  0
 18 30  1  0  0  0  0
 19 22  2  0  0  0  0
 21 18  1  6  0  0  0
 21 24  1  0  0  0  0
 22 23  1  0  0  0  0
 22 25  1  0  0  0  0
 24 14  1  1  0  0  0
 24 27  1  0  0  0  0
 25 28  2  0  0  0  0
 25 30  1  0  0  0  0
 27 29  1  0  0  0  0
 29 31  1  0  0  0  0
M  CHG  1  17  -1
M  END
>  <CHROM.1>
-5.67786548,-139.88724795,119.77443972,-131.54442003,118.80399405,-101.34112124
-39.62341938,-94.51190528,-178.75683356,178.46961487,-176.55338518,62.83364528
8.12537648,18.89618200,50.44337447,-1.62134827,0.29963312,-2.01326931

>  <Name>
ligand

>  <RI>
0

>  <Rbt.Current_Directory>
/home/itssahil/PROJECTS/Mol_Feturizer/New_Systems/rnas/2HOO

>  <Rbt.Executable>
rbdock ($Id: //depot/dev/client3/rdock/2013.1/src/exe/rbdock.cxx#4 $)

>  <Rbt.Library>
libRbt.so (2013.1, Build901 2013/11/27)

>  <Rbt.Parameter_File>
/export/apps/rDock/src/rDock_2013.1_src/data/scripts/dock_solv.prm

>  <Rbt.Receptor>
prm/pocket_docking_6.prm

>  <SCORE>
-32.8356

>  <SCORE.INTER>
-20.1899

>  <SCORE.INTER.CONST>
1

>  <SCORE.INTER.POLAR>
0

>  <SCORE.INTER.ROT>
12

>  <SCORE.INTER.SOLV>
17.6892

>  <SCORE.INTER.VDW>
-30.9564

>  <SCORE.INTER.norm>
-0.651289

>  <SCORE.INTRA>
-12.6457

>  <SCORE.INTRA.DIHEDRAL>
0.583151

>  <SCORE.INTRA.DIHEDRAL.0>
14.6094

>  <SCORE.INTRA.POLAR>
0

>  <SCORE.INTRA.POLAR.0>
0

>  <SCORE.INTRA.REPUL>
0

>  <SCORE.INTRA.REPUL.0>
0

>  <SCORE.INTRA.SOLV>
-1.02106

>  <SCORE.INTRA.SOLV.lig_0>
-65.6478

>  <SCORE.INTRA.VDW>
-12.4267

>  <SCORE.INTRA.VDW.0>
9.35535

>  <SCORE.INTRA.norm>
-0.407925

>  <SCORE.RESTR>
0

>  <SCORE.RESTR.CAVITY>
0

>  <SCORE.RESTR.norm>
0

>  <SCORE.SYSTEM>
0

>  <SCORE.SYSTEM.CONST>
0

>  <SCORE.SYSTEM.DIHEDRAL>
0

>  <SCORE.SYSTEM.SOLV>
0

>  <SCORE.SYSTEM.norm>
0

>  <SCORE.heavy>
31

>  <SCORE.norm>
-1.05921

>  <RMSD>
7.328

$$$$
ligand
 OpenBabel11021811443D
libRbt.so/2013.1/901 2013/11/27
 31 32  0  0  0  0  0  0  0  0999 V2000
    8.7385   19.7051   52.5008 C   0  0  0  0  0  0  0  0  0  0  0  0
    9.9123   20.3442   53.2368 C   0  0  0  0  0  0  0  0  0  0  0  0
    9.9181   21.7536   53.4933 C   0  0  0  0  0  0  0  0  0  0  0  0
   11.0116   22.3411   54.1737 C   0  0  0  0  0  0  0  0  0  0  0  0
   12.0988   21.5450   54.6101 C   0  0  0  0  0  0  0  0  0  0  0  0
   12.1070   20.1556   54.3717 C   0  0  0  0  0  0  0  0  0  0  0  0
   11.0308   19.5532   53.6958 C   0  0  0  0  0  0  0  0  0  0  0  0
    8.7444   19.6429   51.2717 O   0  0  0  0  0  0  0  0  0  0  0  0
    0.1049   17.2810   51.7394 C   0  0  0  0  0  0  0  0  0  0  0  0
    6.3561   21.0983   55.1339 C   0  0  0  0  0  0  0  0  0  0  0  0
    4.2373   16.9817   49.7427 P   0  0  1  0  0  0  0  0  0  0  0  0
    1.5777   19.1597   51.5509 N   0  0  0  0  0  0  0  0  0  0  0  0
    3.0608   16.5248   48.9784 O   0  0  0  0  0  0  0  0  0  0  0  0
    7.6606   19.1931   53.2020 S   0  0  0  0  0  0  0  0  0  0  0  0
    4.8345   22.4331   52.3423 C   0  0  0  0  0  0  0  0  0  0  0  0
    0.9019   18.3091   52.3965 C   0  0  0  0  0  0  0  0  0  0  0  0
    4.4168   16.3144   51.0605 O   0  5  0  0  0  0  0  0  0  0  0  0
    4.6140   21.6875   53.4533 N   0  0  0  0  0  0  0  0  0  0  0  0
    0.9459   18.3848   53.6897 N   0  0  0  0  0  0  0  0  0  0  0  0
    5.4487   16.9401   48.8912 O   0  0  0  0  0  0  0  0  0  0  0  0
    5.7052   20.7721   53.8170 C   0  0  2  0  0  0  0  0  0  0  0  0
    1.6982   19.3663   54.3062 C   0  0  0  0  0  0  0  0  0  0  0  0
    1.7168   19.4172   55.6403 N   0  0  0  0  0  0  0  0  0  0  0  0
    6.1733   19.6158   53.0589 C   0  0  1  0  0  0  0  0  0  0  0  0
    2.4355   20.3101   53.4807 C   0  0  0  0  0  0  0  0  0  0  0  0
    5.8668   23.0639   52.4036 O   0  0  0  0  0  0  0  0  0  0  0  0
    5.3185   18.8155   52.1415 C   0  0  0  0  0  0  0  0  0  0  0  0
    2.3287   20.1376   52.1155 C   0  0  0  0  0  0  0  0  0  0  0  0
    5.0170   19.3242   50.7975 C   0  0  0  0  0  0  0  0  0  0  0  0
    3.2392   21.4298   54.0956 C   0  0  0  0  0  0  0  0  0  0  0  0
    4.0505   18.4884   50.1371 O   0  0  0  0  0  0  0  0  0  0  0  0
  1  2  1  0  0  0  0
  1  8  2  0  0  0  0
  1 14  1  0  0  0  0
  2  3  2  0  0  0  0
  2  7  1  0  0  0  0
  3  4  1  0  0  0  0
  4  5  2  0  0  0  0
  5  6  1  0  0  0  0
  6  7  2  0  0  0  0
  9 16  1  0  0  0  0
 10 21  1  0  0  0  0
 11 13  1  6  0  0  0
 11 17  1  0  0  0  0
 11 20  2  0  0  0  0
 11 31  1  0  0  0  0
 12 16  2  0  0  0  0
 12 28  1  0  0  0  0
 15 26  1  0  0  0  0
 15 18  1  0  0  0  0
 16 19  1  0  0  0  0
 18 30  1  0  0  0  0
 19 22  2  0  0  0  0
 21 18  1  1  0  0  0
 21 24  1  0  0  0  0
 22 23  1  0  0  0  0
 22 25  1  0  0  0  0
 24 14  1  6  0  0  0
 24 27  1  0  0  0  0
 25 28  2  0  0  0  0
 25 30  1  0  0  0  0
 27 29  1  0  0  0  0
 29 31  1  0  0  0  0
M  CHG  1  17  -1
M  END
>  <CHROM.1>
88.33288483,121.71060637,-84.75597357,-54.67533216,115.48352747,83.11377476
-29.69183575,-100.97688525,138.17547184,-172.90038757,-63.20072267,-175.03066509
5.44922862,19.49581470,52.44826397,-0.39784978,-0.07630992,-2.32200025

>  <Name>
ligand

>  <RI>
0

>  <Rbt.Current_Directory>
/home/itssahil/PROJECTS/Mol_Feturizer/New_Systems/rnas/2HOO

>  <Rbt.Executable>
rbdock ($Id: //depot/dev/client3/rdock/2013.1/src/exe/rbdock.cxx#4 $)

>  <Rbt.Library>
libRbt.so (2013.1, Build901 2013/11/27)

>  <Rbt.Parameter_File>
/export/apps/rDock/src/rDock_2013.1_src/data/scripts/dock_solv.prm

>  <Rbt.Receptor>
prm/pocket_docking_3.prm

>  <SCORE>
-27.8777

>  <SCORE.INTER>
-15.1603

>  <SCORE.INTER.CONST>
1

>  <SCORE.INTER.POLAR>
0

>  <SCORE.INTER.ROT>
12

>  <SCORE.INTER.SOLV>
11.7926

>  <SCORE.INTER.VDW>
-25.6377

>  <SCORE.INTER.norm>
-0.48904

>  <SCORE.INTRA>
-12.7316

>  <SCORE.INTRA.DIHEDRAL>
0.62364

>  <SCORE.INTRA.DIHEDRAL.0>
14.6094

>  <SCORE.INTRA.POLAR>
0

>  <SCORE.INTRA.POLAR.0>
0

>  <SCORE.INTRA.REPUL>
0

>  <SCORE.INTRA.REPUL.0>
0

>  <SCORE.INTRA.SOLV>
1.87343

>  <SCORE.INTRA.SOLV.lig_0>
-65.6478

>  <SCORE.INTRA.VDW>
-13.9801

>  <SCORE.INTRA.VDW.0>
9.35535

>  <SCORE.INTRA.norm>
-0.410697

>  <SCORE.RESTR>
0.0141567

>  <SCORE.RESTR.CAVITY>
0.0141567

>  <SCORE.RESTR.norm>
0.000456666

>  <SCORE.SYSTEM>
0

>  <SCORE.SYSTEM.CONST>
0

>  <SCORE.SYSTEM.DIHEDRAL>
0

>  <SCORE.SYSTEM.SOLV>
0

>  <SCORE.SYSTEM.norm>
0

>  <SCORE.heavy>
31

>  <SCORE.norm>
-0.899281

>  <RMSD>
7.331

$$$$
ligand
 OpenBabel11021811443D
libRbt.so/2013.1/901 2013/11/27
 31 32  0  0  0  0  0  0  0  0999 V2000
    5.4536   18.2525   50.9193 C   0  0  0  0  0  0  0  0  0  0  0  0
    4.0713   17.6089   50.8632 C   0  0  0  0  0  0  0  0  0  0  0  0
    3.9436   16.1992   50.6426 C   0  0  0  0  0  0  0  0  0  0  0  0
    2.6583   15.6085   50.5882 C   0  0  0  0  0  0  0  0  0  0  0  0
    1.4956   16.3994   50.7574 C   0  0  0  0  0  0  0  0  0  0  0  0
    1.6026   17.7871   50.9814 C   0  0  0  0  0  0  0  0  0  0  0  0
    2.8705   18.3931   51.0371 C   0  0  0  0  0  0  0  0  0  0  0  0
    6.2198   17.9825   51.8437 O   0  0  0  0  0  0  0  0  0  0  0  0
    8.2012   19.6783   42.1283 C   0  0  0  0  0  0  0  0  0  0  0  0
    8.9042   20.6591   48.1435 C   0  0  0  0  0  0  0  0  0  0  0  0
    8.0828   23.4460   52.8017 P   0  0  1  0  0  0  0  0  0  0  0  0
    7.6130   19.9039   44.4386 N   0  0  0  0  0  0  0  0  0  0  0  0
    7.1708   23.9059   51.7370 O   0  0  0  0  0  0  0  0  0  0  0  0
    5.8579   19.1421   49.9391 S   0  0  0  0  0  0  0  0  0  0  0  0
    9.4093   17.5748   49.3543 C   0  0  0  0  0  0  0  0  0  0  0  0
    8.1217   19.0840   43.4567 C   0  0  0  0  0  0  0  0  0  0  0  0
    9.1440   24.4212   53.1718 O   0  5  0  0  0  0  0  0  0  0  0  0
    8.5800   18.2138   48.4924 N   0  0  0  0  0  0  0  0  0  0  0  0
    8.5127   17.8650   43.6594 N   0  0  0  0  0  0  0  0  0  0  0  0
    7.3067   22.9511   53.9623 O   0  0  0  0  0  0  0  0  0  0  0  0
    8.1866   19.5715   48.8960 C   0  0  2  0  0  0  0  0  0  0  0  0
    8.4282   17.3054   44.9200 C   0  0  0  0  0  0  0  0  0  0  0  0
    8.8361   16.0456   45.0912 N   0  0  0  0  0  0  0  0  0  0  0  0
    7.1908   19.9377   49.8986 C   0  0  1  0  0  0  0  0  0  0  0  0
    7.8931   18.1056   46.0105 C   0  0  0  0  0  0  0  0  0  0  0  0
   10.5557   17.5500   48.9637 O   0  0  0  0  0  0  0  0  0  0  0  0
    7.3623   21.0384   50.8845 C   0  0  0  0  0  0  0  0  0  0  0  0
    7.5135   19.3935   45.6911 C   0  0  0  0  0  0  0  0  0  0  0  0
    8.3791   20.9216   51.9371 C   0  0  0  0  0  0  0  0  0  0  0  0
    7.7359   17.5351   47.3989 C   0  0  0  0  0  0  0  0  0  0  0  0
    8.9056   22.2132   52.2879 O   0  0  0  0  0  0  0  0  0  0  0  0
  1  2  1  0  0  0  0
  1  8  2  0  0  0  0
  1 14  1  0  0  0  0
  2  3  2  0  0  0  0
  2  7  1  0  0  0  0
  3  4  1  0  0  0  0
  4  5  2  0  0  0  0
  5  6  1  0  0  0  0
  6  7  2  0  0  0  0
  9 16  1  0  0  0  0
 10 21  1  0  0  0  0
 11 13  1  6  0  0  0
 11 17  1  0  0  0  0
 11 20  2  0  0  0  0
 11 31  1  0  0  0  0
 12 16  2  0  0  0  0
 12 28  1  0  0  0  0
 15 26  1  0  0  0  0
 15 18  1  0  0  0  0
 16 19  1  0  0  0  0
 18 30  1  0  0  0  0
 19 22  2  0  0  0  0
 21 18  1  6  0  0  0
 21 24  1  0  0  0  0
 22 23  1  0  0  0  0
 22 25  1  0  0  0  0
 24 14  1  6  0  0  0
 24 27  1  0  0  0  0
 25 28  2  0  0  0  0
 25 30  1  0  0  0  0
 27 29  1  0  0  0  0
 29 31  1  0  0  0  0
M  CHG  1  17  -1
M  END
>  <CHROM.1>
-66.82103016,176.20975470,109.92422978,-103.69192311,103.67432267,-127.70231691
136.91929658,113.43034998,116.98598960,148.46031631,57.59848840,-65.06778879
7.10650055,19.47517761,49.30787267,1.69181796,0.69199377,1.00184265

>  <Name>
ligand

>  <RI>
0

>  <Rbt.Current_Directory>
/home/itssahil/PROJECTS/Mol_Feturizer/New_Systems/rnas/2HOO

>  <Rbt.Executable>
rbdock ($Id: //depot/dev/client3/rdock/2013.1/src/exe/rbdock.cxx#4 $)

>  <Rbt.Library>
libRbt.so (2013.1, Build901 2013/11/27)

>  <Rbt.Parameter_File>
/export/apps/rDock/src/rDock_2013.1_src/data/scripts/dock_solv.prm

>  <Rbt.Receptor>
prm/pocket_docking_7.prm

>  <SCORE>
-31.352

>  <SCORE.INTER>
-18.6338

>  <SCORE.INTER.CONST>
1

>  <SCORE.INTER.POLAR>
0

>  <SCORE.INTER.ROT>
12

>  <SCORE.INTER.SOLV>
16.2478

>  <SCORE.INTER.VDW>
-29.4385

>  <SCORE.INTER.norm>
-0.601091

>  <SCORE.INTRA>
-12.7182

>  <SCORE.INTRA.DIHEDRAL>
1.18305

>  <SCORE.INTRA.DIHEDRAL.0>
14.6094

>  <SCORE.INTRA.POLAR>
0

>  <SCORE.INTRA.POLAR.0>
0

>  <SCORE.INTRA.REPUL>
0

>  <SCORE.INTRA.REPUL.0>
0

>  <SCORE.INTRA.SOLV>
0.578005

>  <SCORE.INTRA.SOLV.lig_0>
-65.6478

>  <SCORE.INTRA.VDW>
-13.5988

>  <SCORE.INTRA.VDW.0>
9.35535

>  <SCORE.INTRA.norm>
-0.410265

>  <SCORE.RESTR>
0

>  <SCORE.RESTR.CAVITY>
0

>  <SCORE.RESTR.norm>
0

>  <SCORE.SYSTEM>
0

>  <SCORE.SYSTEM.CONST>
0

>  <SCORE.SYSTEM.DIHEDRAL>
0

>  <SCORE.SYSTEM.SOLV>
0

>  <SCORE.SYSTEM.norm>
0

>  <SCORE.heavy>
31

>  <SCORE.norm>
-1.01136

>  <RMSD>
7.342

$$$$
ligand
 OpenBabel11021811443D
libRbt.so/2013.1/901 2013/11/27
 31 32  0  0  0  0  0  0  0  0999 V2000
    7.7526   21.0689   52.0271 C   0  0  0  0  0  0  0  0  0  0  0  0
    7.9856   22.5674   52.1952 C   0  0  0  0  0  0  0  0  0  0  0  0
    9.1946   23.0433   52.7985 C   0  0  0  0  0  0  0  0  0  0  0  0
    9.4036   24.4346   52.9547 C   0  0  0  0  0  0  0  0  0  0  0  0
    8.4290   25.3623   52.5123 C   0  0  0  0  0  0  0  0  0  0  0  0
    7.2362   24.9121   51.9108 C   0  0  0  0  0  0  0  0  0  0  0  0
    7.0090   23.5337   51.7483 C   0  0  0  0  0  0  0  0  0  0  0  0
    8.1766   20.2826   52.8734 O   0  0  0  0  0  0  0  0  0  0  0  0
    3.6197   15.1860   44.4105 C   0  0  0  0  0  0  0  0  0  0  0  0
    4.3409   17.8864   49.9203 C   0  0  0  0  0  0  0  0  0  0  0  0
    1.6776   20.1294   53.1025 P   0  0  1  0  0  0  0  0  0  0  0  0
    4.4918   15.6364   46.5947 N   0  0  0  0  0  0  0  0  0  0  0  0
    0.9190   19.2204   52.2221 O   0  0  0  0  0  0  0  0  0  0  0  0
    7.0677   20.5804   50.9280 S   0  0  0  0  0  0  0  0  0  0  0  0
    7.2994   16.8129   50.0941 C   0  0  0  0  0  0  0  0  0  0  0  0
    4.4800   15.9941   45.2654 C   0  0  0  0  0  0  0  0  0  0  0  0
    0.8353   21.0077   53.9588 O   0  5  0  0  0  0  0  0  0  0  0  0
    6.7839   17.8787   49.4328 N   0  0  0  0  0  0  0  0  0  0  0  0
    5.1705   16.9733   44.7709 N   0  0  0  0  0  0  0  0  0  0  0  0
    2.7003   19.3724   53.8609 O   0  0  0  0  0  0  0  0  0  0  0  0
    5.6731   18.5583   50.1148 C   0  0  2  0  0  0  0  0  0  0  0  0
    5.9893   17.7313   45.5860 C   0  0  0  0  0  0  0  0  0  0  0  0
    6.6896   18.7294   45.0417 N   0  0  0  0  0  0  0  0  0  0  0  0
    5.7511   19.7573   50.9439 C   0  0  1  0  0  0  0  0  0  0  0  0
    6.0632   17.4105   47.0028 C   0  0  0  0  0  0  0  0  0  0  0  0
    7.9209   17.1357   51.0825 O   0  0  0  0  0  0  0  0  0  0  0  0
    4.6505   20.2414   51.8197 C   0  0  0  0  0  0  0  0  0  0  0  0
    5.2824   16.3555   47.4295 C   0  0  0  0  0  0  0  0  0  0  0  0
    3.4533   20.8434   51.2196 C   0  0  0  0  0  0  0  0  0  0  0  0
    6.9726   18.1743   47.9342 C   0  0  0  0  0  0  0  0  0  0  0  0
    2.4764   21.1574   52.2274 O   0  0  0  0  0  0  0  0  0  0  0  0
  1  2  1  0  0  0  0
  1  8  2  0  0  0  0
  1 14  1  0  0  0  0
  2  3  2  0  0  0  0
  2  7  1  0  0  0  0
  3  4  1  0  0  0  0
  4  5  2  0  0  0  0
  5  6  1  0  0  0  0
  6  7  2  0  0  0  0
  9 16  1  0  0  0  0
 10 21  1  0  0  0  0
 11 13  1  6  0  0  0
 11 17  1  0  0  0  0
 11 20  2  0  0  0  0
 11 31  1  0  0  0  0
 12 16  2  0  0  0  0
 12 28  1  0  0  0  0
 15 26  1  0  0  0  0
 15 18  1  0  0  0  0
 16 19  1  0  0  0  0
 18 30  1  0  0  0  0
 19 22  2  0  0  0  0
 21 18  1  1  0  0  0
 21 24  1  0  0  0  0
 22 23  1  0  0  0  0
 22 25  1  0  0  0  0
 24 14  1  1  0  0  0
 24 27  1  0  0  0  0
 25 28  2  0  0  0  0
 25 30  1  0  0  0  0
 27 29  1  0  0  0  0
 29 31  1  0  0  0  0
M  CHG  1  17  -1
M  END
>  <CHROM.1>
34.39711448,-119.93556883,-133.25721590,-70.66669598,-81.52177555,80.87057349
-169.11425324,108.24388197,170.68703369,175.98204497,-67.03745860,-58.09888151
5.44216893,19.58713326,50.32176327,-1.47863848,-0.36222059,-2.25576323

>  <Name>
ligand

>  <RI>
0

>  <Rbt.Current_Directory>
/home/itssahil/PROJECTS/Mol_Feturizer/New_Systems/rnas/2HOO

>  <Rbt.Executable>
rbdock ($Id: //depot/dev/client3/rdock/2013.1/src/exe/rbdock.cxx#4 $)

>  <Rbt.Library>
libRbt.so (2013.1, Build901 2013/11/27)

>  <Rbt.Parameter_File>
/export/apps/rDock/src/rDock_2013.1_src/data/scripts/dock_solv.prm

>  <Rbt.Receptor>
prm/pocket_docking_5.prm

>  <SCORE>
-23.7536

>  <SCORE.INTER>
-12.6419

>  <SCORE.INTER.CONST>
1

>  <SCORE.INTER.POLAR>
0

>  <SCORE.INTER.ROT>
12

>  <SCORE.INTER.SOLV>
9.07798

>  <SCORE.INTER.VDW>
-23.0539

>  <SCORE.INTER.norm>
-0.407804

>  <SCORE.INTRA>
-11.1117

>  <SCORE.INTRA.DIHEDRAL>
0.756479

>  <SCORE.INTRA.DIHEDRAL.0>
14.6094

>  <SCORE.INTRA.POLAR>
0

>  <SCORE.INTRA.POLAR.0>
0

>  <SCORE.INTRA.REPUL>
0

>  <SCORE.INTRA.REPUL.0>
0

>  <SCORE.INTRA.SOLV>
0.678936

>  <SCORE.INTRA.SOLV.lig_0>
-65.6478

>  <SCORE.INTRA.VDW>
-11.8294

>  <SCORE.INTRA.VDW.0>
9.35535

>  <SCORE.INTRA.norm>
-0.358442

>  <SCORE.RESTR>
0

>  <SCORE.RESTR.CAVITY>
0

>  <SCORE.RESTR.norm>
0

>  <SCORE.SYSTEM>
0

>  <SCORE.SYSTEM.CONST>
0

>  <SCORE.SYSTEM.DIHEDRAL>
0

>  <SCORE.SYSTEM.SOLV>
0

>  <SCORE.SYSTEM.norm>
0

>  <SCORE.heavy>
31

>  <SCORE.norm>
-0.766246

>  <RMSD>
7.351

$$$$
ligand
 OpenBabel11021811443D
libRbt.so/2013.1/901 2013/11/27
 31 32  0  0  0  0  0  0  0  0999 V2000
    9.8899   20.4922   53.6572 C   0  0  0  0  0  0  0  0  0  0  0  0
   11.2376   19.9347   54.1057 C   0  0  0  0  0  0  0  0  0  0  0  0
   11.5102   18.5332   53.9889 C   0  0  0  0  0  0  0  0  0  0  0  0
   12.7611   18.0216   54.4098 C   0  0  0  0  0  0  0  0  0  0  0  0
   13.7501   18.8860   54.9398 C   0  0  0  0  0  0  0  0  0  0  0  0
   13.5014   20.2687   55.0564 C   0  0  0  0  0  0  0  0  0  0  0  0
   12.2641   20.7962   54.6454 C   0  0  0  0  0  0  0  0  0  0  0  0
    9.3043   21.3195   54.3551 O   0  0  0  0  0  0  0  0  0  0  0  0
    0.0469   21.5117   55.0911 C   0  0  0  0  0  0  0  0  0  0  0  0
    7.9908   17.9924   54.6040 C   0  0  0  0  0  0  0  0  0  0  0  0
    4.8203   17.6876   50.0391 P   0  0  1  0  0  0  0  0  0  0  0  0
    2.0415   20.3865   55.7911 N   0  0  0  0  0  0  0  0  0  0  0  0
    3.3639   17.8433   50.2162 O   0  0  0  0  0  0  0  0  0  0  0  0
    9.3142   20.0756   52.4695 S   0  0  0  0  0  0  0  0  0  0  0  0
    5.0630   18.0390   53.6150 C   0  0  0  0  0  0  0  0  0  0  0  0
    1.4734   21.2763   54.9075 C   0  0  0  0  0  0  0  0  0  0  0  0
    5.4665   16.7623   51.0088 O   0  5  0  0  0  0  0  0  0  0  0  0
    5.9173   19.0826   53.7563 N   0  0  0  0  0  0  0  0  0  0  0  0
    2.1271   21.8819   53.9662 N   0  0  0  0  0  0  0  0  0  0  0  0
    5.1336   17.3729   48.6259 O   0  0  0  0  0  0  0  0  0  0  0  0
    7.3307   18.7711   53.4985 C   0  0  2  0  0  0  0  0  0  0  0  0
    3.4781   21.6490   53.7934 C   0  0  0  0  0  0  0  0  0  0  0  0
    4.1185   22.2869   52.8107 N   0  0  0  0  0  0  0  0  0  0  0  0
    8.1049   19.1147   52.3097 C   0  0  1  0  0  0  0  0  0  0  0  0
    4.1502   20.7144   54.6826 C   0  0  0  0  0  0  0  0  0  0  0  0
    4.7319   17.5625   54.6783 O   0  0  0  0  0  0  0  0  0  0  0  0
    7.8043   18.6126   50.9420 C   0  0  0  0  0  0  0  0  0  0  0  0
    3.3663   20.1299   55.6565 C   0  0  0  0  0  0  0  0  0  0  0  0
    6.9070   19.3767   50.0664 C   0  0  0  0  0  0  0  0  0  0  0  0
    5.6139   20.3866   54.5156 C   0  0  0  0  0  0  0  0  0  0  0  0
    5.5312   19.0545   50.3343 O   0  0  0  0  0  0  0  0  0  0  0  0
  1  2  1  0  0  0  0
  1  8  2  0  0  0  0
  1 14  1  0  0  0  0
  2  3  2  0  0  0  0
  2  7  1  0  0  0  0
  3  4  1  0  0  0  0
  4  5  2  0  0  0  0
  5  6  1  0  0  0  0
  6  7  2  0  0  0  0
  9 16  1  0  0  0  0
 10 21  1  0  0  0  0
 11 13  1  1  0  0  0
 11 17  1  0  0  0  0
 11 20  2  0  0  0  0
 11 31  1  0  0  0  0
 12 16  2  0  0  0  0
 12 28  1  0  0  0  0
 15 26  1  0  0  0  0
 15 18  1  0  0  0  0
 16 19  1  0  0  0  0
 18 30  1  0  0  0  0
 19 22  2  0  0  0  0
 21 18  1  6  0  0  0
 21 24  1  0  0  0  0
 22 23  1  0  0  0  0
 22 25  1  0  0  0  0
 24 14  1  6  0  0  0
 24 27  1  0  0  0  0
 25 28  2  0  0  0  0
 25 30  1  0  0  0  0
 27 29  1  0  0  0  0
 29 31  1  0  0  0  0
M  CHG  1  17  -1
M  END
>  <CHROM.1>
136.54147209,105.74106480,11.17998032,101.76774868,-74.88364516,-22.25245578
-64.68459632,-89.00952367,-98.22134608,-84.37761805,-68.44797141,-169.22194007
6.59767306,19.44179490,53.05785902,0.04065707,-0.09040112,1.02390565

>  <Name>
ligand

>  <RI>
0

>  <Rbt.Current_Directory>
/home/itssahil/PROJECTS/Mol_Feturizer/New_Systems/rnas/2HOO

>  <Rbt.Executable>
rbdock ($Id: //depot/dev/client3/rdock/2013.1/src/exe/rbdock.cxx#4 $)

>  <Rbt.Library>
libRbt.so (2013.1, Build901 2013/11/27)

>  <Rbt.Parameter_File>
/export/apps/rDock/src/rDock_2013.1_src/data/scripts/dock_solv.prm

>  <Rbt.Receptor>
prm/pocket_docking_3.prm

>  <SCORE>
-28.6425

>  <SCORE.INTER>
-19.803

>  <SCORE.INTER.CONST>
1

>  <SCORE.INTER.POLAR>
0

>  <SCORE.INTER.ROT>
12

>  <SCORE.INTER.SOLV>
14.8733

>  <SCORE.INTER.VDW>
-29.7598

>  <SCORE.INTER.norm>
-0.638806

>  <SCORE.INTRA>
-8.85741

>  <SCORE.INTRA.DIHEDRAL>
4.53583

>  <SCORE.INTRA.DIHEDRAL.0>
14.6094

>  <SCORE.INTRA.POLAR>
0

>  <SCORE.INTRA.POLAR.0>
0

>  <SCORE.INTRA.REPUL>
0

>  <SCORE.INTRA.REPUL.0>
0

>  <SCORE.INTRA.SOLV>
5.64011

>  <SCORE.INTRA.SOLV.lig_0>
-65.6478

>  <SCORE.INTRA.VDW>
-13.9454

>  <SCORE.INTRA.VDW.0>
9.35535

>  <SCORE.INTRA.norm>
-0.285723

>  <SCORE.RESTR>
0.0179418

>  <SCORE.RESTR.CAVITY>
0.0179418

>  <SCORE.RESTR.norm>
0.000578767

>  <SCORE.SYSTEM>
0

>  <SCORE.SYSTEM.CONST>
0

>  <SCORE.SYSTEM.DIHEDRAL>
0

>  <SCORE.SYSTEM.SOLV>
0

>  <SCORE.SYSTEM.norm>
0

>  <SCORE.heavy>
31

>  <SCORE.norm>
-0.923951

>  <RMSD>
7.356

$$$$
ligand
 OpenBabel11021811443D
libRbt.so/2013.1/901 2013/11/27
 31 32  0  0  0  0  0  0  0  0999 V2000
    8.3823   18.6021   48.6593 C   0  0  0  0  0  0  0  0  0  0  0  0
    8.9221   17.5466   47.6987 C   0  0  0  0  0  0  0  0  0  0  0  0
    9.9075   16.6069   48.1437 C   0  0  0  0  0  0  0  0  0  0  0  0
   10.4069   15.6322   47.2469 C   0  0  0  0  0  0  0  0  0  0  0  0
    9.9346   15.5733   45.9129 C   0  0  0  0  0  0  0  0  0  0  0  0
    8.9607   16.4861   45.4595 C   0  0  0  0  0  0  0  0  0  0  0  0
    8.4534   17.4631   46.3347 C   0  0  0  0  0  0  0  0  0  0  0  0
    8.1016   19.7255   48.2428 O   0  0  0  0  0  0  0  0  0  0  0  0
    0.9912   15.9026   55.5106 C   0  0  0  0  0  0  0  0  0  0  0  0
    5.6941   16.9186   48.5342 C   0  0  0  0  0  0  0  0  0  0  0  0
    8.0331   18.9833   54.1847 P   0  0  1  0  0  0  0  0  0  0  0  0
    2.3038   17.2764   54.0531 N   0  0  0  0  0  0  0  0  0  0  0  0
    8.6139   17.9613   55.0763 O   0  0  0  0  0  0  0  0  0  0  0  0
    8.2049   18.3104   50.0006 S   0  0  0  0  0  0  0  0  0  0  0  0
    4.3633   19.3354   50.5061 C   0  0  0  0  0  0  0  0  0  0  0  0
    1.5338   16.1422   54.1793 C   0  0  0  0  0  0  0  0  0  0  0  0
    7.5933   20.2272   54.8726 O   0  5  0  0  0  0  0  0  0  0  0  0
    4.4617   17.9857   50.4180 N   0  0  0  0  0  0  0  0  0  0  0  0
    1.2860   15.3212   53.2074 N   0  0  0  0  0  0  0  0  0  0  0  0
    8.9345   19.2325   53.0358 O   0  0  0  0  0  0  0  0  0  0  0  0
    5.7537   17.4852   49.9269 C   0  0  2  0  0  0  0  0  0  0  0  0
    1.8092   15.5507   51.9492 C   0  0  0  0  0  0  0  0  0  0  0  0
    1.5368   14.6816   50.9729 N   0  0  0  0  0  0  0  0  0  0  0  0
    7.0324   17.5109   50.6307 C   0  0  1  0  0  0  0  0  0  0  0  0
    2.6410   16.7249   51.7367 C   0  0  0  0  0  0  0  0  0  0  0  0
    4.4830   19.7366   51.6428 O   0  0  0  0  0  0  0  0  0  0  0  0
    7.2944   16.8073   51.9148 C   0  0  0  0  0  0  0  0  0  0  0  0
    2.8363   17.5391   52.8338 C   0  0  0  0  0  0  0  0  0  0  0  0
    6.4633   17.1008   53.0891 C   0  0  0  0  0  0  0  0  0  0  0  0
    3.2757   17.0050   50.3964 C   0  0  0  0  0  0  0  0  0  0  0  0
    6.6997   18.4377   53.5640 O   0  0  0  0  0  0  0  0  0  0  0  0
  1  2  1  0  0  0  0
  1  8  2  0  0  0  0
  1 14  1  0  0  0  0
  2  3  2  0  0  0  0
  2  7  1  0  0  0  0
  3  4  1  0  0  0  0
  4  5  2  0  0  0  0
  5  6  1  0  0  0  0
  6  7  2  0  0  0  0
  9 16  1  0  0  0  0
 10 21  1  0  0  0  0
 11 13  1  1  0  0  0
 11 17  1  0  0  0  0
 11 20  2  0  0  0  0
 11 31  1  0  0  0  0
 12 16  2  0  0  0  0
 12 28  1  0  0  0  0
 15 26  1  0  0  0  0
 15 18  1  0  0  0  0
 16 19  1  0  0  0  0
 18 30  1  0  0  0  0
 19 22  2  0  0  0  0
 21 18  1  6  0  0  0
 21 24  1  0  0  0  0
 22 23  1  0  0  0  0
 22 25  1  0  0  0  0
 24 14  1  6  0  0  0
 24 27  1  0  0  0  0
 25 28  2  0  0  0  0
 25 30  1  0  0  0  0
 27 29  1  0  0  0  0
 29 31  1  0  0  0  0
M  CHG  1  17  -1
M  END
>  <CHROM.1>
144.53598988,-78.39431571,-25.66721964,-102.19832052,-108.36278817,-78.04776439
60.07695707,123.06135957,-161.06158039,-68.08814453,-65.89025092,-40.49217714
6.11746855,17.58211504,51.18945687,0.64773868,-0.34937297,-1.88006627

>  <Name>
ligand

>  <RI>
0

>  <Rbt.Current_Directory>
/home/itssahil/PROJECTS/Mol_Feturizer/New_Systems/rnas/2HOO

>  <Rbt.Executable>
rbdock ($Id: //depot/dev/client3/rdock/2013.1/src/exe/rbdock.cxx#4 $)

>  <Rbt.Library>
libRbt.so (2013.1, Build901 2013/11/27)

>  <Rbt.Parameter_File>
/export/apps/rDock/src/rDock_2013.1_src/data/scripts/dock_solv.prm

>  <Rbt.Receptor>
prm/pocket_docking_6.prm

>  <SCORE>
-27.3423

>  <SCORE.INTER>
-15.6849

>  <SCORE.INTER.CONST>
1

>  <SCORE.INTER.POLAR>
0

>  <SCORE.INTER.ROT>
12

>  <SCORE.INTER.SOLV>
16.181

>  <SCORE.INTER.VDW>
-27.4503

>  <SCORE.INTER.norm>
-0.505966

>  <SCORE.INTRA>
-11.6574

>  <SCORE.INTRA.DIHEDRAL>
3.46416

>  <SCORE.INTRA.DIHEDRAL.0>
14.6094

>  <SCORE.INTRA.POLAR>
0

>  <SCORE.INTRA.POLAR.0>
0

>  <SCORE.INTRA.REPUL>
0

>  <SCORE.INTRA.REPUL.0>
0

>  <SCORE.INTRA.SOLV>
2.12363

>  <SCORE.INTRA.SOLV.lig_0>
-65.6478

>  <SCORE.INTRA.VDW>
-14.4513

>  <SCORE.INTRA.VDW.0>
9.35535

>  <SCORE.INTRA.norm>
-0.376044

>  <SCORE.RESTR>
0

>  <SCORE.RESTR.CAVITY>
0

>  <SCORE.RESTR.norm>
0

>  <SCORE.SYSTEM>
0

>  <SCORE.SYSTEM.CONST>
0

>  <SCORE.SYSTEM.DIHEDRAL>
0

>  <SCORE.SYSTEM.SOLV>
0

>  <SCORE.SYSTEM.norm>
0

>  <SCORE.heavy>
31

>  <SCORE.norm>
-0.88201

>  <RMSD>
7.357

$$$$
ligand
 OpenBabel11021811443D
libRbt.so/2013.1/901 2013/11/27
 31 32  0  0  0  0  0  0  0  0999 V2000
    5.2412   18.1331   50.2270 C   0  0  0  0  0  0  0  0  0  0  0  0
    6.3248   18.9668   49.5496 C   0  0  0  0  0  0  0  0  0  0  0  0
    6.5598   18.8332   48.1428 C   0  0  0  0  0  0  0  0  0  0  0  0
    7.5688   19.6069   47.5207 C   0  0  0  0  0  0  0  0  0  0  0  0
    8.3447   20.5190   48.2773 C   0  0  0  0  0  0  0  0  0  0  0  0
    8.1230   20.6679   49.6615 C   0  0  0  0  0  0  0  0  0  0  0  0
    7.1265   19.9069   50.2984 C   0  0  0  0  0  0  0  0  0  0  0  0
    5.5136   17.0208   50.6777 O   0  0  0  0  0  0  0  0  0  0  0  0
   -1.3359   24.0174   51.6252 C   0  0  0  0  0  0  0  0  0  0  0  0
    1.1803   18.4132   51.8371 C   0  0  0  0  0  0  0  0  0  0  0  0
    6.8894   23.2912   52.5794 P   0  0  1  0  0  0  0  0  0  0  0  0
   -0.6990   21.8675   52.4661 N   0  0  0  0  0  0  0  0  0  0  0  0
    8.0151   22.7586   51.7882 O   0  0  0  0  0  0  0  0  0  0  0  0
    3.9484   18.6143   50.3403 S   0  0  0  0  0  0  0  0  0  0  0  0
    2.9401   18.1312   54.4805 C   0  0  0  0  0  0  0  0  0  0  0  0
   -0.3804   23.2030   52.3655 C   0  0  0  0  0  0  0  0  0  0  0  0
    6.9177   22.9242   54.0212 O   0  5  0  0  0  0  0  0  0  0  0  0
    2.4435   19.2125   53.8300 N   0  0  0  0  0  0  0  0  0  0  0  0
    0.6838   23.7360   52.8788 N   0  0  0  0  0  0  0  0  0  0  0  0
    6.7416   24.7463   52.3446 O   0  0  0  0  0  0  0  0  0  0  0  0
    2.4116   19.0986   52.3648 C   0  0  2  0  0  0  0  0  0  0  0  0
    1.5890   22.9569   53.5737 C   0  0  0  0  0  0  0  0  0  0  0  0
    2.6765   23.5388   54.0852 N   0  0  0  0  0  0  0  0  0  0  0  0
    3.4115   19.5905   51.4219 C   0  0  1  0  0  0  0  0  0  0  0  0
    1.3276   21.5331   53.7167 C   0  0  0  0  0  0  0  0  0  0  0  0
    4.1509   18.1271   54.5178 O   0  0  0  0  0  0  0  0  0  0  0  0
    3.9649   20.9713   51.4344 C   0  0  0  0  0  0  0  0  0  0  0  0
    0.1631   21.0672   53.1409 C   0  0  0  0  0  0  0  0  0  0  0  0
    5.1484   21.2743   52.2487 C   0  0  0  0  0  0  0  0  0  0  0  0
    2.3007   20.6239   54.4269 C   0  0  0  0  0  0  0  0  0  0  0  0
    5.5494   22.6454   52.0812 O   0  0  0  0  0  0  0  0  0  0  0  0
  1  2  1  0  0  0  0
  1  8  2  0  0  0  0
  1 14  1  0  0  0  0
  2  3  2  0  0  0  0
  2  7  1  0  0  0  0
  3  4  1  0  0  0  0
  4  5  2  0  0  0  0
  5  6  1  0  0  0  0
  6  7  2  0  0  0  0
  9 16  1  0  0  0  0
 10 21  1  0  0  0  0
 11 13  1  6  0  0  0
 11 17  1  0  0  0  0
 11 20  2  0  0  0  0
 11 31  1  0  0  0  0
 12 16  2  0  0  0  0
 12 28  1  0  0  0  0
 15 26  1  0  0  0  0
 15 18  1  0  0  0  0
 16 19  1  0  0  0  0
 18 30  1  0  0  0  0
 19 22  2  0  0  0  0
 21 18  1  6  0  0  0
 21 24  1  0  0  0  0
 22 23  1  0  0  0  0
 22 25  1  0  0  0  0
 24 14  1  1  0  0  0
 24 27  1  0  0  0  0
 25 28  2  0  0  0  0
 25 30  1  0  0  0  0
 27 29  1  0  0  0  0
 29 31  1  0  0  0  0
M  CHG  1  17  -1
M  END
>  <CHROM.1>
89.13310454,-82.17880039,-114.40365327,82.40142976,85.41843006,-160.35752024
-51.41278501,-90.65032225,-143.41816798,177.80745304,-168.95417681,69.44081989
4.13787146,20.88029655,51.91370498,0.36522582,-0.33089948,-2.76836738

>  <Name>
ligand

>  <RI>
0

>  <Rbt.Current_Directory>
/home/itssahil/PROJECTS/Mol_Feturizer/New_Systems/rnas/2HOO

>  <Rbt.Executable>
rbdock ($Id: //depot/dev/client3/rdock/2013.1/src/exe/rbdock.cxx#4 $)

>  <Rbt.Library>
libRbt.so (2013.1, Build901 2013/11/27)

>  <Rbt.Parameter_File>
/export/apps/rDock/src/rDock_2013.1_src/data/scripts/dock_solv.prm

>  <Rbt.Receptor>
prm/pocket_docking_7.prm

>  <SCORE>
-26.0763

>  <SCORE.INTER>
-12.8747

>  <SCORE.INTER.CONST>
1

>  <SCORE.INTER.POLAR>
0

>  <SCORE.INTER.ROT>
12

>  <SCORE.INTER.SOLV>
12.7718

>  <SCORE.INTER.VDW>
-24.4404

>  <SCORE.INTER.norm>
-0.415313

>  <SCORE.INTRA>
-13.2016

>  <SCORE.INTRA.DIHEDRAL>
2.16372

>  <SCORE.INTRA.DIHEDRAL.0>
14.6094

>  <SCORE.INTRA.POLAR>
0

>  <SCORE.INTRA.POLAR.0>
0

>  <SCORE.INTRA.REPUL>
0

>  <SCORE.INTRA.REPUL.0>
0

>  <SCORE.INTRA.SOLV>
1.83768

>  <SCORE.INTRA.SOLV.lig_0>
-65.6478

>  <SCORE.INTRA.VDW>
-15.2023

>  <SCORE.INTRA.VDW.0>
9.35535

>  <SCORE.INTRA.norm>
-0.425859

>  <SCORE.RESTR>
0

>  <SCORE.RESTR.CAVITY>
0

>  <SCORE.RESTR.norm>
0

>  <SCORE.SYSTEM>
0

>  <SCORE.SYSTEM.CONST>
0

>  <SCORE.SYSTEM.DIHEDRAL>
0

>  <SCORE.SYSTEM.SOLV>
0

>  <SCORE.SYSTEM.norm>
0

>  <SCORE.heavy>
31

>  <SCORE.norm>
-0.841172

>  <RMSD>
7.374

$$$$
ligand
 OpenBabel11021811443D
libRbt.so/2013.1/901 2013/11/27
 31 32  0  0  0  0  0  0  0  0999 V2000
    7.0314   17.1665   53.7551 C   0  0  0  0  0  0  0  0  0  0  0  0
    7.6768   17.4275   52.3974 C   0  0  0  0  0  0  0  0  0  0  0  0
    7.5343   16.4731   51.3386 C   0  0  0  0  0  0  0  0  0  0  0  0
    8.1382   16.7194   50.0823 C   0  0  0  0  0  0  0  0  0  0  0  0
    8.8776   17.9069   49.8603 C   0  0  0  0  0  0  0  0  0  0  0  0
    9.0230   18.8600   50.8888 C   0  0  0  0  0  0  0  0  0  0  0  0
    8.4321   18.6328   52.1446 C   0  0  0  0  0  0  0  0  0  0  0  0
    7.5629   16.3908   54.5489 O   0  0  0  0  0  0  0  0  0  0  0  0
    3.7751   15.2457   46.5045 C   0  0  0  0  0  0  0  0  0  0  0  0
    5.4243   19.5901   51.0356 C   0  0  0  0  0  0  0  0  0  0  0  0
    9.0961   21.5946   53.5462 P   0  0  1  0  0  0  0  0  0  0  0  0
    4.3780   16.7000   48.3089 N   0  0  0  0  0  0  0  0  0  0  0  0
   10.2690   20.7319   53.7848 O   0  0  0  0  0  0  0  0  0  0  0  0
    5.8485   17.7935   54.1061 S   0  0  0  0  0  0  0  0  0  0  0  0
    2.4690   19.7594   51.5150 C   0  0  0  0  0  0  0  0  0  0  0  0
    3.5345   15.7062   47.8662 C   0  0  0  0  0  0  0  0  0  0  0  0
    9.0748   22.8467   54.3500 O   0  5  0  0  0  0  0  0  0  0  0  0
    3.2647   18.7524   51.9527 N   0  0  0  0  0  0  0  0  0  0  0  0
    2.5826   15.1909   48.5793 N   0  0  0  0  0  0  0  0  0  0  0  0
    8.9158   21.8236   52.0938 O   0  0  0  0  0  0  0  0  0  0  0  0
    4.6531   19.1368   52.2455 C   0  0  2  0  0  0  0  0  0  0  0  0
    2.3557   15.6368   49.8673 C   0  0  0  0  0  0  0  0  0  0  0  0
    1.3636   15.0863   50.5713 N   0  0  0  0  0  0  0  0  0  0  0  0
    5.3091   19.1391   53.5495 C   0  0  1  0  0  0  0  0  0  0  0  0
    3.2000   16.6919   50.4055 C   0  0  0  0  0  0  0  0  0  0  0  0
    1.4134   19.8083   52.1073 O   0  0  0  0  0  0  0  0  0  0  0  0
    5.4868   20.3507   54.3941 C   0  0  0  0  0  0  0  0  0  0  0  0
    4.1897   17.1661   49.5685 C   0  0  0  0  0  0  0  0  0  0  0  0
    6.4586   21.3779   53.9989 C   0  0  0  0  0  0  0  0  0  0  0  0
    2.9727   17.2501   51.7892 C   0  0  0  0  0  0  0  0  0  0  0  0
    7.7976   20.8533   54.0207 O   0  0  0  0  0  0  0  0  0  0  0  0
  1  2  1  0  0  0  0
  1  8  2  0  0  0  0
  1 14  1  0  0  0  0
  2  3  2  0  0  0  0
  2  7  1  0  0  0  0
  3  4  1  0  0  0  0
  4  5  2  0  0  0  0
  5  6  1  0  0  0  0
  6  7  2  0  0  0  0
  9 16  1  0  0  0  0
 10 21  1  0  0  0  0
 11 13  1  1  0  0  0
 11 17  1  0  0  0  0
 11 20  2  0  0  0  0
 11 31  1  0  0  0  0
 12 16  2  0  0  0  0
 12 28  1  0  0  0  0
 15 26  1  0  0  0  0
 15 18  1  0  0  0  0
 16 19  1  0  0  0  0
 18 30  1  0  0  0  0
 19 22  2  0  0  0  0
 21 18  1  1  0  0  0
 21 24  1  0  0  0  0
 22 23  1  0  0  0  0
 22 25  1  0  0  0  0
 24 14  1  1  0  0  0
 24 27  1  0  0  0  0
 25 28  2  0  0  0  0
 25 30  1  0  0  0  0
 27 29  1  0  0  0  0
 29 31  1  0  0  0  0
M  CHG  1  17  -1
M  END
>  <CHROM.1>
78.41266816,-24.86546616,79.58556958,-131.33137024,-64.76417296,75.69533299
-100.47892183,108.47736765,-145.28397066,-64.09160202,174.31825831,177.73348007
5.88746707,18.52100110,51.89042435,-0.83668160,-0.08076205,-2.32635424

>  <Name>
ligand

>  <RI>
0

>  <Rbt.Current_Directory>
/home/itssahil/PROJECTS/Mol_Feturizer/New_Systems/rnas/2HOO

>  <Rbt.Executable>
rbdock ($Id: //depot/dev/client3/rdock/2013.1/src/exe/rbdock.cxx#4 $)

>  <Rbt.Library>
libRbt.so (2013.1, Build901 2013/11/27)

>  <Rbt.Parameter_File>
/export/apps/rDock/src/rDock_2013.1_src/data/scripts/dock_solv.prm

>  <Rbt.Receptor>
prm/pocket_docking_5.prm

>  <SCORE>
-28.8913

>  <SCORE.INTER>
-12.4601

>  <SCORE.INTER.CONST>
1

>  <SCORE.INTER.POLAR>
0

>  <SCORE.INTER.ROT>
12

>  <SCORE.INTER.SOLV>
20.3557

>  <SCORE.INTER.VDW>
-26.692

>  <SCORE.INTER.norm>
-0.40194

>  <SCORE.INTRA>
-16.4311

>  <SCORE.INTRA.DIHEDRAL>
-1.14216

>  <SCORE.INTRA.DIHEDRAL.0>
14.6094

>  <SCORE.INTRA.POLAR>
0

>  <SCORE.INTRA.POLAR.0>
0

>  <SCORE.INTRA.REPUL>
0

>  <SCORE.INTRA.REPUL.0>
0

>  <SCORE.INTRA.SOLV>
0.45577

>  <SCORE.INTRA.SOLV.lig_0>
-65.6478

>  <SCORE.INTRA.VDW>
-16.0879

>  <SCORE.INTRA.VDW.0>
9.35535

>  <SCORE.INTRA.norm>
-0.530036

>  <SCORE.RESTR>
0

>  <SCORE.RESTR.CAVITY>
0

>  <SCORE.RESTR.norm>
0

>  <SCORE.SYSTEM>
0

>  <SCORE.SYSTEM.CONST>
0

>  <SCORE.SYSTEM.DIHEDRAL>
0

>  <SCORE.SYSTEM.SOLV>
0

>  <SCORE.SYSTEM.norm>
0

>  <SCORE.heavy>
31

>  <SCORE.norm>
-0.931976

>  <RMSD>
7.375

$$$$
ligand
 OpenBabel11021811443D
libRbt.so/2013.1/901 2013/11/27
 31 32  0  0  0  0  0  0  0  0999 V2000
    8.6856   19.9172   52.9909 C   0  0  0  0  0  0  0  0  0  0  0  0
   10.1038   20.2785   53.4222 C   0  0  0  0  0  0  0  0  0  0  0  0
   11.1183   19.2683   53.4739 C   0  0  0  0  0  0  0  0  0  0  0  0
   12.4315   19.6090   53.8781 C   0  0  0  0  0  0  0  0  0  0  0  0
   12.7534   20.9438   54.2257 C   0  0  0  0  0  0  0  0  0  0  0  0
   11.7692   21.9519   54.1748 C   0  0  0  0  0  0  0  0  0  0  0  0
   10.4583   21.6332   53.7775 C   0  0  0  0  0  0  0  0  0  0  0  0
    7.9853   19.2089   53.7136 O   0  0  0  0  0  0  0  0  0  0  0  0
    6.0672   10.9312   49.5612 C   0  0  0  0  0  0  0  0  0  0  0  0
    7.6467   19.2928   48.5739 C   0  0  0  0  0  0  0  0  0  0  0  0
    5.6697   21.8787   54.9129 P   0  0  1  0  0  0  0  0  0  0  0  0
    7.1868   13.0455   49.4575 N   0  0  0  0  0  0  0  0  0  0  0  0
    6.2489   21.1648   56.0668 O   0  0  0  0  0  0  0  0  0  0  0  0
    8.1747   20.3777   51.7898 S   0  0  0  0  0  0  0  0  0  0  0  0
    8.0787   16.7959   50.9509 C   0  0  0  0  0  0  0  0  0  0  0  0
    5.9829   12.3862   49.5634 C   0  0  0  0  0  0  0  0  0  0  0  0
    4.2111   22.1522   55.0227 O   0  5  0  0  0  0  0  0  0  0  0  0
    7.2149   17.3385   50.0574 N   0  0  0  0  0  0  0  0  0  0  0  0
    4.8354   12.9813   49.6602 N   0  0  0  0  0  0  0  0  0  0  0  0
    6.4731   23.0832   54.6000 O   0  0  0  0  0  0  0  0  0  0  0  0
    7.2707   18.8032   49.9462 C   0  0  2  0  0  0  0  0  0  0  0  0
    4.7621   14.3611   49.6549 C   0  0  0  0  0  0  0  0  0  0  0  0
    3.5629   14.9402   49.7519 N   0  0  0  0  0  0  0  0  0  0  0  0
    6.9835   19.7769   50.9952 C   0  0  1  0  0  0  0  0  0  0  0  0
    5.9910   15.1305   49.5375 C   0  0  0  0  0  0  0  0  0  0  0  0
    7.5956   16.6866   52.0565 O   0  0  0  0  0  0  0  0  0  0  0  0
    5.6152   20.2275   51.3661 C   0  0  0  0  0  0  0  0  0  0  0  0
    7.1595   14.4013   49.4490 C   0  0  0  0  0  0  0  0  0  0  0  0
    5.4453   21.3568   52.2888 C   0  0  0  0  0  0  0  0  0  0  0  0
    5.9706   16.6386   49.4823 C   0  0  0  0  0  0  0  0  0  0  0  0
    5.7590   20.9692   53.6379 O   0  0  0  0  0  0  0  0  0  0  0  0
  1  2  1  0  0  0  0
  1  8  2  0  0  0  0
  1 14  1  0  0  0  0
  2  3  2  0  0  0  0
  2  7  1  0  0  0  0
  3  4  1  0  0  0  0
  4  5  2  0  0  0  0
  5  6  1  0  0  0  0
  6  7  2  0  0  0  0
  9 16  1  0  0  0  0
 10 21  1  0  0  0  0
 11 13  1  1  0  0  0
 11 17  1  0  0  0  0
 11 20  2  0  0  0  0
 11 31  1  0  0  0  0
 12 16  2  0  0  0  0
 12 28  1  0  0  0  0
 15 26  1  0  0  0  0
 15 18  1  0  0  0  0
 16 19  1  0  0  0  0
 18 30  1  0  0  0  0
 19 22  2  0  0  0  0
 21 18  1  6  0  0  0
 21 24  1  0  0  0  0
 22 23  1  0  0  0  0
 22 25  1  0  0  0  0
 24 14  1  1  0  0  0
 24 27  1  0  0  0  0
 25 28  2  0  0  0  0
 25 30  1  0  0  0  0
 27 29  1  0  0  0  0
 29 31  1  0  0  0  0
M  CHG  1  17  -1
M  END
>  <CHROM.1>
68.52509033,159.18276653,-93.64422812,90.77545518,118.94231533,-22.19525248
-83.84825146,9.92105211,150.29196024,-73.86274521,-178.52556267,-172.35123487
7.24663962,18.56698775,52.01934512,-1.33543925,0.02776743,-2.60520480

>  <Name>
ligand

>  <RI>
0

>  <Rbt.Current_Directory>
/home/itssahil/PROJECTS/Mol_Feturizer/New_Systems/rnas/2HOO

>  <Rbt.Executable>
rbdock ($Id: //depot/dev/client3/rdock/2013.1/src/exe/rbdock.cxx#4 $)

>  <Rbt.Library>
libRbt.so (2013.1, Build901 2013/11/27)

>  <Rbt.Parameter_File>
/export/apps/rDock/src/rDock_2013.1_src/data/scripts/dock_solv.prm

>  <Rbt.Receptor>
prm/pocket_docking_5.prm

>  <SCORE>
-33.1025

>  <SCORE.INTER>
-19.9172

>  <SCORE.INTER.CONST>
1

>  <SCORE.INTER.POLAR>
0

>  <SCORE.INTER.ROT>
12

>  <SCORE.INTER.SOLV>
12.5475

>  <SCORE.INTER.VDW>
-29.0606

>  <SCORE.INTER.norm>
-0.642489

>  <SCORE.INTRA>
-13.1853

>  <SCORE.INTRA.DIHEDRAL>
-1.70999

>  <SCORE.INTRA.DIHEDRAL.0>
14.6094

>  <SCORE.INTRA.POLAR>
0

>  <SCORE.INTRA.POLAR.0>
0

>  <SCORE.INTRA.REPUL>
0

>  <SCORE.INTRA.REPUL.0>
0

>  <SCORE.INTRA.SOLV>
2.304

>  <SCORE.INTRA.SOLV.lig_0>
-65.6478

>  <SCORE.INTRA.VDW>
-13.4824

>  <SCORE.INTRA.VDW.0>
9.35535

>  <SCORE.INTRA.norm>
-0.425334

>  <SCORE.RESTR>
0

>  <SCORE.RESTR.CAVITY>
0

>  <SCORE.RESTR.norm>
0

>  <SCORE.SYSTEM>
0

>  <SCORE.SYSTEM.CONST>
0

>  <SCORE.SYSTEM.DIHEDRAL>
0

>  <SCORE.SYSTEM.SOLV>
0

>  <SCORE.SYSTEM.norm>
0

>  <SCORE.heavy>
31

>  <SCORE.norm>
-1.06782

>  <RMSD>
7.383

$$$$
ligand
 OpenBabel11021811443D
libRbt.so/2013.1/901 2013/11/27
 31 32  0  0  0  0  0  0  0  0999 V2000
    1.1223   18.1116   52.0511 C   0  0  0  0  0  0  0  0  0  0  0  0
    1.4552   16.6284   51.9187 C   0  0  0  0  0  0  0  0  0  0  0  0
    0.8985   15.6822   52.8389 C   0  0  0  0  0  0  0  0  0  0  0  0
    1.2137   14.3079   52.7130 C   0  0  0  0  0  0  0  0  0  0  0  0
    2.0707   13.8586   51.6787 C   0  0  0  0  0  0  0  0  0  0  0  0
    2.6227   14.7748   50.7605 C   0  0  0  0  0  0  0  0  0  0  0  0
    2.3231   16.1446   50.8700 C   0  0  0  0  0  0  0  0  0  0  0  0
    0.0094   18.5229   51.7245 O   0  0  0  0  0  0  0  0  0  0  0  0
   -1.6048   25.1263   53.8461 C   0  0  0  0  0  0  0  0  0  0  0  0
    2.4593   22.2412   51.0827 C   0  0  0  0  0  0  0  0  0  0  0  0
    6.7859   17.5915   52.7955 P   0  0  1  0  0  0  0  0  0  0  0  0
   -0.3455   23.1022   53.6189 N   0  0  0  0  0  0  0  0  0  0  0  0
    7.6285   18.7757   53.0493 O   0  0  0  0  0  0  0  0  0  0  0  0
    2.0621   19.0050   52.5351 S   0  0  0  0  0  0  0  0  0  0  0  0
    5.1211   22.4994   52.6209 C   0  0  0  0  0  0  0  0  0  0  0  0
   -0.3418   24.4197   54.0182 C   0  0  0  0  0  0  0  0  0  0  0  0
    7.3391   16.6415   51.7928 O   0  5  0  0  0  0  0  0  0  0  0  0
    3.9732   21.9064   53.0327 N   0  0  0  0  0  0  0  0  0  0  0  0
    0.6908   25.0243   54.5163 N   0  0  0  0  0  0  0  0  0  0  0  0
    6.4113   16.9459   54.0750 O   0  0  0  0  0  0  0  0  0  0  0  0
    3.1855   21.2662   51.9694 C   0  0  2  0  0  0  0  0  0  0  0  0
    1.8872   24.3504   54.6705 C   0  0  0  0  0  0  0  0  0  0  0  0
    2.9314   25.0060   55.1830 N   0  0  0  0  0  0  0  0  0  0  0  0
    3.0717   19.8364   51.6980 C   0  0  1  0  0  0  0  0  0  0  0  0
    1.9666   22.9561   54.2638 C   0  0  0  0  0  0  0  0  0  0  0  0
    5.9373   21.7008   52.2165 O   0  0  0  0  0  0  0  0  0  0  0  0
    3.8725   19.1132   50.6741 C   0  0  0  0  0  0  0  0  0  0  0  0
    0.8092   22.4039   53.7537 C   0  0  0  0  0  0  0  0  0  0  0  0
    5.2861   18.8129   50.9335 C   0  0  0  0  0  0  0  0  0  0  0  0
    3.2573   22.1806   54.3673 C   0  0  0  0  0  0  0  0  0  0  0  0
    5.4345   18.0433   52.1395 O   0  0  0  0  0  0  0  0  0  0  0  0
  1  2  1  0  0  0  0
  1  8  2  0  0  0  0
  1 14  1  0  0  0  0
  2  3  2  0  0  0  0
  2  7  1  0  0  0  0
  3  4  1  0  0  0  0
  4  5  2  0  0  0  0
  5  6  1  0  0  0  0
  6  7  2  0  0  0  0
  9 16  1  0  0  0  0
 10 21  1  0  0  0  0
 11 13  1  1  0  0  0
 11 17  1  0  0  0  0
 11 20  2  0  0  0  0
 11 31  1  0  0  0  0
 12 16  2  0  0  0  0
 12 28  1  0  0  0  0
 15 26  1  0  0  0  0
 15 18  1  0  0  0  0
 16 19  1  0  0  0  0
 18 30  1  0  0  0  0
 19 22  2  0  0  0  0
 21 18  1  6  0  0  0
 21 24  1  0  0  0  0
 22 23  1  0  0  0  0
 22 25  1  0  0  0  0
 24 14  1  1  0  0  0
 24 27  1  0  0  0  0
 25 28  2  0  0  0  0
 25 30  1  0  0  0  0
 27 29  1  0  0  0  0
 29 31  1  0  0  0  0
M  CHG  1  17  -1
M  END
>  <CHROM.1>
-73.68536861,92.22573350,131.37326679,-66.74008163,-74.27713967,108.16102138
-98.93005217,-104.47466196,-106.19762379,57.26269192,-176.51996513,56.04877245
3.12323834,19.82452355,52.68622044,1.15054580,0.01492765,-2.89444341

>  <Name>
ligand

>  <RI>
0

>  <Rbt.Current_Directory>
/home/itssahil/PROJECTS/Mol_Feturizer/New_Systems/rnas/2HOO

>  <Rbt.Executable>
rbdock ($Id: //depot/dev/client3/rdock/2013.1/src/exe/rbdock.cxx#4 $)

>  <Rbt.Library>
libRbt.so (2013.1, Build901 2013/11/27)

>  <Rbt.Parameter_File>
/export/apps/rDock/src/rDock_2013.1_src/data/scripts/dock_solv.prm

>  <Rbt.Receptor>
prm/pocket_docking_7.prm

>  <SCORE>
-24.0676

>  <SCORE.INTER>
-10.3434

>  <SCORE.INTER.CONST>
1

>  <SCORE.INTER.POLAR>
0

>  <SCORE.INTER.ROT>
12

>  <SCORE.INTER.SOLV>
17.2209

>  <SCORE.INTER.VDW>
-24.2359

>  <SCORE.INTER.norm>
-0.333659

>  <SCORE.INTRA>
-13.7242

>  <SCORE.INTRA.DIHEDRAL>
2.08516

>  <SCORE.INTRA.DIHEDRAL.0>
14.6094

>  <SCORE.INTRA.POLAR>
0

>  <SCORE.INTRA.POLAR.0>
0

>  <SCORE.INTRA.REPUL>
0

>  <SCORE.INTRA.REPUL.0>
0

>  <SCORE.INTRA.SOLV>
0.382628

>  <SCORE.INTRA.SOLV.lig_0>
-65.6478

>  <SCORE.INTRA.VDW>
-14.9581

>  <SCORE.INTRA.VDW.0>
9.35535

>  <SCORE.INTRA.norm>
-0.442716

>  <SCORE.RESTR>
0

>  <SCORE.RESTR.CAVITY>
0

>  <SCORE.RESTR.norm>
0

>  <SCORE.SYSTEM>
0

>  <SCORE.SYSTEM.CONST>
0

>  <SCORE.SYSTEM.DIHEDRAL>
0

>  <SCORE.SYSTEM.SOLV>
0

>  <SCORE.SYSTEM.norm>
0

>  <SCORE.heavy>
31

>  <SCORE.norm>
-0.776375

>  <RMSD>
7.387

$$$$
ligand
 OpenBabel11021811443D
libRbt.so/2013.1/901 2013/11/27
 31 32  0  0  0  0  0  0  0  0999 V2000
    3.6142   14.7934   50.3306 C   0  0  0  0  0  0  0  0  0  0  0  0
    4.3372   13.8237   49.4005 C   0  0  0  0  0  0  0  0  0  0  0  0
    4.1194   13.8874   47.9860 C   0  0  0  0  0  0  0  0  0  0  0  0
    4.7905   12.9829   47.1286 C   0  0  0  0  0  0  0  0  0  0  0  0
    5.6827   12.0182   47.6573 C   0  0  0  0  0  0  0  0  0  0  0  0
    5.9138   11.9451   49.0461 C   0  0  0  0  0  0  0  0  0  0  0  0
    5.2552   12.8338   49.9147 C   0  0  0  0  0  0  0  0  0  0  0  0
    2.8840   14.3608   51.2217 O   0  0  0  0  0  0  0  0  0  0  0  0
   -1.0271   15.8407   56.7994 C   0  0  0  0  0  0  0  0  0  0  0  0
    1.8960   17.5556   51.9617 C   0  0  0  0  0  0  0  0  0  0  0  0
    6.7898   18.4607   48.3703 P   0  0  1  0  0  0  0  0  0  0  0  0
    1.1922   15.5485   55.9487 N   0  0  0  0  0  0  0  0  0  0  0  0
    6.7527   19.4019   47.2348 O   0  0  0  0  0  0  0  0  0  0  0  0
    3.7693   16.1608   50.1828 S   0  0  0  0  0  0  0  0  0  0  0  0
    3.4732   19.9623   53.1087 C   0  0  0  0  0  0  0  0  0  0  0  0
    0.1966   16.4392   56.2812 C   0  0  0  0  0  0  0  0  0  0  0  0
    5.9986   17.2167   48.1694 O   0  5  0  0  0  0  0  0  0  0  0  0
    3.6876   18.6388   53.3120 N   0  0  0  0  0  0  0  0  0  0  0  0
    0.3018   17.7251   56.1571 N   0  0  0  0  0  0  0  0  0  0  0  0
    8.1906   18.2082   48.7806 O   0  0  0  0  0  0  0  0  0  0  0  0
    3.3707   17.7726   52.1673 C   0  0  2  0  0  0  0  0  0  0  0  0
    1.4624   18.2855   55.6588 C   0  0  0  0  0  0  0  0  0  0  0  0
    1.5340   19.6136   55.5405 N   0  0  0  0  0  0  0  0  0  0  0  0
    4.3167   17.1540   51.2435 C   0  0  1  0  0  0  0  0  0  0  0  0
    2.5588   17.4095   55.2763 C   0  0  0  0  0  0  0  0  0  0  0  0
    4.4747   20.6249   53.2684 O   0  0  0  0  0  0  0  0  0  0  0  0
    5.7832   17.4031   51.2570 C   0  0  0  0  0  0  0  0  0  0  0  0
    2.3487   16.0574   55.4561 C   0  0  0  0  0  0  0  0  0  0  0  0
    6.2951   18.7536   50.9929 C   0  0  0  0  0  0  0  0  0  0  0  0
    3.8339   17.9601   54.6856 C   0  0  0  0  0  0  0  0  0  0  0  0
    6.0974   19.1173   49.6154 O   0  0  0  0  0  0  0  0  0  0  0  0
  1  2  1  0  0  0  0
  1  8  2  0  0  0  0
  1 14  1  0  0  0  0
  2  3  2  0  0  0  0
  2  7  1  0  0  0  0
  3  4  1  0  0  0  0
  4  5  2  0  0  0  0
  5  6  1  0  0  0  0
  6  7  2  0  0  0  0
  9 16  1  0  0  0  0
 10 21  1  0  0  0  0
 11 13  1  6  0  0  0
 11 17  1  0  0  0  0
 11 20  2  0  0  0  0
 11 31  1  0  0  0  0
 12 16  2  0  0  0  0
 12 28  1  0  0  0  0
 15 26  1  0  0  0  0
 15 18  1  0  0  0  0
 16 19  1  0  0  0  0
 18 30  1  0  0  0  0
 19 22  2  0  0  0  0
 21 18  1  6  0  0  0
 21 24  1  0  0  0  0
 22 23  1  0  0  0  0
 22 25  1  0  0  0  0
 24 14  1  1  0  0  0
 24 27  1  0  0  0  0
 25 28  2  0  0  0  0
 25 30  1  0  0  0  0
 27 29  1  0  0  0  0
 29 31  1  0  0  0  0
M  CHG  1  17  -1
M  END
>  <CHROM.1>
121.34636028,-120.59530495,-89.53053446,-121.77450288,-75.64485797,92.50789297
-7.03875806,117.83304961,-64.98840825,-69.88557648,-66.46291988,-158.14151703
4.01492921,16.88742736,51.54200390,0.53629487,-0.88187481,-2.67252010

>  <Name>
ligand

>  <RI>
0

>  <Rbt.Current_Directory>
/home/itssahil/PROJECTS/Mol_Feturizer/New_Systems/rnas/2HOO

>  <Rbt.Executable>
rbdock ($Id: //depot/dev/client3/rdock/2013.1/src/exe/rbdock.cxx#4 $)

>  <Rbt.Library>
libRbt.so (2013.1, Build901 2013/11/27)

>  <Rbt.Parameter_File>
/export/apps/rDock/src/rDock_2013.1_src/data/scripts/dock_solv.prm

>  <Rbt.Receptor>
prm/pocket_docking_8.prm

>  <SCORE>
-24.8736

>  <SCORE.INTER>
-16.8698

>  <SCORE.INTER.CONST>
1

>  <SCORE.INTER.POLAR>
0

>  <SCORE.INTER.ROT>
12

>  <SCORE.INTER.SOLV>
10.8135

>  <SCORE.INTER.VDW>
-26.4511

>  <SCORE.INTER.norm>
-0.544189

>  <SCORE.INTRA>
-8.00378

>  <SCORE.INTRA.DIHEDRAL>
1.99423

>  <SCORE.INTRA.DIHEDRAL.0>
14.6094

>  <SCORE.INTRA.POLAR>
0

>  <SCORE.INTRA.POLAR.0>
0

>  <SCORE.INTRA.REPUL>
0

>  <SCORE.INTRA.REPUL.0>
0

>  <SCORE.INTRA.SOLV>
7.35382

>  <SCORE.INTRA.SOLV.lig_0>
-65.6478

>  <SCORE.INTRA.VDW>
-12.6778

>  <SCORE.INTRA.VDW.0>
9.35535

>  <SCORE.INTRA.norm>
-0.258186

>  <SCORE.RESTR>
0

>  <SCORE.RESTR.CAVITY>
0

>  <SCORE.RESTR.norm>
0

>  <SCORE.SYSTEM>
0

>  <SCORE.SYSTEM.CONST>
0

>  <SCORE.SYSTEM.DIHEDRAL>
0

>  <SCORE.SYSTEM.SOLV>
0

>  <SCORE.SYSTEM.norm>
0

>  <SCORE.heavy>
31

>  <SCORE.norm>
-0.802375

>  <RMSD>
7.413

$$$$
ligand
 OpenBabel11021811443D
libRbt.so/2013.1/901 2013/11/27
 31 32  0  0  0  0  0  0  0  0999 V2000
    7.3721   21.3543   51.2051 C   0  0  0  0  0  0  0  0  0  0  0  0
    7.8299   22.6893   51.7849 C   0  0  0  0  0  0  0  0  0  0  0  0
    9.0598   22.7718   52.5147 C   0  0  0  0  0  0  0  0  0  0  0  0
    9.4775   24.0126   53.0531 C   0  0  0  0  0  0  0  0  0  0  0  0
    8.6920   25.1769   52.8699 C   0  0  0  0  0  0  0  0  0  0  0  0
    7.4820   25.1155   52.1493 C   0  0  0  0  0  0  0  0  0  0  0  0
    7.0488   23.8918   51.6082 C   0  0  0  0  0  0  0  0  0  0  0  0
    7.9906   20.8460   50.2705 O   0  0  0  0  0  0  0  0  0  0  0  0
    4.6878   16.1880   48.6558 C   0  0  0  0  0  0  0  0  0  0  0  0
    3.5515   22.6447   52.0446 C   0  0  0  0  0  0  0  0  0  0  0  0
    4.7877   24.6923   55.6111 P   0  0  1  0  0  0  0  0  0  0  0  0
    4.4727   18.3639   49.6323 N   0  0  0  0  0  0  0  0  0  0  0  0
    3.3985   25.1184   55.3556 O   0  0  0  0  0  0  0  0  0  0  0  0
    6.2630   20.7051   51.7192 S   0  0  0  0  0  0  0  0  0  0  0  0
    2.5050   20.7001   54.4841 C   0  0  0  0  0  0  0  0  0  0  0  0
    3.9770   17.0815   49.5616 C   0  0  0  0  0  0  0  0  0  0  0  0
    5.8244   25.5373   54.9588 O   0  5  0  0  0  0  0  0  0  0  0  0
    2.8744   20.5382   53.1894 N   0  0  0  0  0  0  0  0  0  0  0  0
    2.9536   16.6606   50.2365 N   0  0  0  0  0  0  0  0  0  0  0  0
    5.0075   24.5068   57.0642 O   0  0  0  0  0  0  0  0  0  0  0  0
    3.9893   21.3884   52.7477 C   0  0  2  0  0  0  0  0  0  0  0  0
    2.2801   17.5150   51.0885 C   0  0  0  0  0  0  0  0  0  0  0  0
    1.2275   17.0485   51.7646 N   0  0  0  0  0  0  0  0  0  0  0  0
    5.4147   21.1427   52.9439 C   0  0  1  0  0  0  0  0  0  0  0  0
    2.7378   18.8901   51.2123 C   0  0  0  0  0  0  0  0  0  0  0  0
    3.3748   20.3701   55.2600 O   0  0  0  0  0  0  0  0  0  0  0  0
    6.1135   21.2720   54.2508 C   0  0  0  0  0  0  0  0  0  0  0  0
    3.8407   19.2348   50.4576 C   0  0  0  0  0  0  0  0  0  0  0  0
    6.2889   22.5987   54.8548 C   0  0  0  0  0  0  0  0  0  0  0  0
    2.0168   19.8810   52.0932 C   0  0  0  0  0  0  0  0  0  0  0  0
    5.0288   23.2833   54.9648 O   0  0  0  0  0  0  0  0  0  0  0  0
  1  2  1  0  0  0  0
  1  8  2  0  0  0  0
  1 14  1  0  0  0  0
  2  3  2  0  0  0  0
  2  7  1  0  0  0  0
  3  4  1  0  0  0  0
  4  5  2  0  0  0  0
  5  6  1  0  0  0  0
  6  7  2  0  0  0  0
  9 16  1  0  0  0  0
 10 21  1  0  0  0  0
 11 13  1  6  0  0  0
 11 17  1  0  0  0  0
 11 20  2  0  0  0  0
 11 31  1  0  0  0  0
 12 16  2  0  0  0  0
 12 28  1  0  0  0  0
 15 26  1  0  0  0  0
 15 18  1  0  0  0  0
 16 19  1  0  0  0  0
 18 30  1  0  0  0  0
 19 22  2  0  0  0  0
 21 18  1  1  0  0  0
 21 24  1  0  0  0  0
 22 23  1  0  0  0  0
 22 25  1  0  0  0  0
 24 14  1  1  0  0  0
 24 27  1  0  0  0  0
 25 28  2  0  0  0  0
 25 30  1  0  0  0  0
 27 29  1  0  0  0  0
 29 31  1  0  0  0  0
M  CHG  1  17  -1
M  END
>  <CHROM.1>
-68.78934757,-4.15285171,121.59282863,-64.70990491,-96.67205394,-134.60367084
-74.46127890,111.72647160,122.64847166,53.71195573,177.17020013,172.08585240
5.05574865,21.45817246,52.73687185,-1.96232777,0.48628354,0.73665697

>  <Name>
ligand

>  <RI>
0

>  <Rbt.Current_Directory>
/home/itssahil/PROJECTS/Mol_Feturizer/New_Systems/rnas/2HOO

>  <Rbt.Executable>
rbdock ($Id: //depot/dev/client3/rdock/2013.1/src/exe/rbdock.cxx#4 $)

>  <Rbt.Library>
libRbt.so (2013.1, Build901 2013/11/27)

>  <Rbt.Parameter_File>
/export/apps/rDock/src/rDock_2013.1_src/data/scripts/dock_solv.prm

>  <Rbt.Receptor>
prm/pocket_docking_5.prm

>  <SCORE>
-30.0067

>  <SCORE.INTER>
-12.9208

>  <SCORE.INTER.CONST>
1

>  <SCORE.INTER.POLAR>
0

>  <SCORE.INTER.ROT>
12

>  <SCORE.INTER.SOLV>
11.1295

>  <SCORE.INTER.VDW>
-23.9237

>  <SCORE.INTER.norm>
-0.416799

>  <SCORE.INTRA>
-17.1043

>  <SCORE.INTRA.DIHEDRAL>
-2.19997

>  <SCORE.INTRA.DIHEDRAL.0>
14.6094

>  <SCORE.INTRA.POLAR>
0

>  <SCORE.INTRA.POLAR.0>
0

>  <SCORE.INTRA.REPUL>
0

>  <SCORE.INTRA.REPUL.0>
0

>  <SCORE.INTRA.SOLV>
1.08042

>  <SCORE.INTRA.SOLV.lig_0>
-65.6478

>  <SCORE.INTRA.VDW>
-16.5446

>  <SCORE.INTRA.VDW.0>
9.35535

>  <SCORE.INTRA.norm>
-0.551753

>  <SCORE.RESTR>
0.0184139

>  <SCORE.RESTR.CAVITY>
0.0184139

>  <SCORE.RESTR.norm>
0.000593998

>  <SCORE.SYSTEM>
0

>  <SCORE.SYSTEM.CONST>
0

>  <SCORE.SYSTEM.DIHEDRAL>
0

>  <SCORE.SYSTEM.SOLV>
0

>  <SCORE.SYSTEM.norm>
0

>  <SCORE.heavy>
31

>  <SCORE.norm>
-0.967958

>  <RMSD>
7.414

$$$$
ligand
 OpenBabel11021811443D
libRbt.so/2013.1/901 2013/11/27
 31 32  0  0  0  0  0  0  0  0999 V2000
    9.2587   19.5529   53.4106 C   0  0  0  0  0  0  0  0  0  0  0  0
   10.7079   19.6284   53.8820 C   0  0  0  0  0  0  0  0  0  0  0  0
   11.4354   18.4268   54.1635 C   0  0  0  0  0  0  0  0  0  0  0  0
   12.7786   18.5035   54.6037 C   0  0  0  0  0  0  0  0  0  0  0  0
   13.4130   19.7600   54.7617 C   0  0  0  0  0  0  0  0  0  0  0  0
   12.7143   20.9524   54.4834 C   0  0  0  0  0  0  0  0  0  0  0  0
   11.3786   20.8974   54.0467 C   0  0  0  0  0  0  0  0  0  0  0  0
    8.3569   19.3609   54.2256 O   0  0  0  0  0  0  0  0  0  0  0  0
    1.8614   16.9906   55.6287 C   0  0  0  0  0  0  0  0  0  0  0  0
    7.5072   22.9802   52.0362 C   0  0  0  0  0  0  0  0  0  0  0  0
    6.4625   17.3045   47.5570 P   0  0  1  0  0  0  0  0  0  0  0  0
    3.3884   17.7682   53.9560 N   0  0  0  0  0  0  0  0  0  0  0  0
    5.8208   17.6112   46.2644 O   0  0  0  0  0  0  0  0  0  0  0  0
    8.9444   19.6972   52.0704 S   0  0  0  0  0  0  0  0  0  0  0  0
    6.6690   21.6985   54.6258 C   0  0  0  0  0  0  0  0  0  0  0  0
    2.5765   18.1030   55.0161 C   0  0  0  0  0  0  0  0  0  0  0  0
    5.6445   16.4603   48.4694 O   0  5  0  0  0  0  0  0  0  0  0  0
    6.1954   21.3606   53.4009 N   0  0  0  0  0  0  0  0  0  0  0  0
    2.4319   19.3097   55.4669 N   0  0  0  0  0  0  0  0  0  0  0  0
    7.8307   16.7807   47.3380 O   0  0  0  0  0  0  0  0  0  0  0  0
    7.1445   21.5426   52.2931 C   0  0  2  0  0  0  0  0  0  0  0  0
    3.1077   20.3607   54.8771 C   0  0  0  0  0  0  0  0  0  0  0  0
    2.9314   21.5911   55.3649 N   0  0  0  0  0  0  0  0  0  0  0  0
    7.7541   20.4979   51.4760 C   0  0  1  0  0  0  0  0  0  0  0  0
    3.9796   20.0896   53.7448 C   0  0  0  0  0  0  0  0  0  0  0  0
    6.2260   20.9935   55.5058 O   0  0  0  0  0  0  0  0  0  0  0  0
    7.3171   20.1535   50.0964 C   0  0  0  0  0  0  0  0  0  0  0  0
    4.0705   18.7707   53.3486 C   0  0  0  0  0  0  0  0  0  0  0  0
    7.1870   18.7446   49.7040 C   0  0  0  0  0  0  0  0  0  0  0  0
    4.7095   21.2020   53.0322 C   0  0  0  0  0  0  0  0  0  0  0  0
    6.6444   18.6294   48.3769 O   0  0  0  0  0  0  0  0  0  0  0  0
  1  2  1  0  0  0  0
  1  8  2  0  0  0  0
  1 14  1  0  0  0  0
  2  3  2  0  0  0  0
  2  7  1  0  0  0  0
  3  4  1  0  0  0  0
  4  5  2  0  0  0  0
  5  6  1  0  0  0  0
  6  7  2  0  0  0  0
  9 16  1  0  0  0  0
 10 21  1  0  0  0  0
 11 13  1  6  0  0  0
 11 17  1  0  0  0  0
 11 20  2  0  0  0  0
 11 31  1  0  0  0  0
 12 16  2  0  0  0  0
 12 28  1  0  0  0  0
 15 26  1  0  0  0  0
 15 18  1  0  0  0  0
 16 19  1  0  0  0  0
 18 30  1  0  0  0  0
 19 22  2  0  0  0  0
 21 18  1  1  0  0  0
 21 24  1  0  0  0  0
 22 23  1  0  0  0  0
 22 25  1  0  0  0  0
 24 14  1  6  0  0  0
 24 27  1  0  0  0  0
 25 28  2  0  0  0  0
 25 30  1  0  0  0  0
 27 29  1  0  0  0  0
 29 31  1  0  0  0  0
M  CHG  1  17  -1
M  END
>  <CHROM.1>
79.29340580,-138.44051261,21.31488779,-145.93972251,-65.87161811,-63.98330370
100.62942809,44.12482377,101.17446951,174.98290757,174.71616269,177.66400121
6.94089138,19.42629487,52.33752547,-0.16878035,0.11200311,1.20876339

>  <Name>
ligand

>  <RI>
0

>  <Rbt.Current_Directory>
/home/itssahil/PROJECTS/Mol_Feturizer/New_Systems/rnas/2HOO

>  <Rbt.Executable>
rbdock ($Id: //depot/dev/client3/rdock/2013.1/src/exe/rbdock.cxx#4 $)

>  <Rbt.Library>
libRbt.so (2013.1, Build901 2013/11/27)

>  <Rbt.Parameter_File>
/export/apps/rDock/src/rDock_2013.1_src/data/scripts/dock_solv.prm

>  <Rbt.Receptor>
prm/pocket_docking_3.prm

>  <SCORE>
-29.2814

>  <SCORE.INTER>
-18.7863

>  <SCORE.INTER.CONST>
1

>  <SCORE.INTER.POLAR>
0

>  <SCORE.INTER.ROT>
12

>  <SCORE.INTER.SOLV>
8.94168

>  <SCORE.INTER.VDW>
-27.1048

>  <SCORE.INTER.norm>
-0.606011

>  <SCORE.INTRA>
-10.5318

>  <SCORE.INTRA.DIHEDRAL>
1.43184

>  <SCORE.INTRA.DIHEDRAL.0>
14.6094

>  <SCORE.INTRA.POLAR>
0

>  <SCORE.INTRA.POLAR.0>
0

>  <SCORE.INTRA.REPUL>
0

>  <SCORE.INTRA.REPUL.0>
0

>  <SCORE.INTRA.SOLV>
3.29709

>  <SCORE.INTRA.SOLV.lig_0>
-65.6478

>  <SCORE.INTRA.VDW>
-12.8963

>  <SCORE.INTRA.VDW.0>
9.35535

>  <SCORE.INTRA.norm>
-0.339735

>  <SCORE.RESTR>
0.036699

>  <SCORE.RESTR.CAVITY>
0.036699

>  <SCORE.RESTR.norm>
0.00118384

>  <SCORE.SYSTEM>
0

>  <SCORE.SYSTEM.CONST>
0

>  <SCORE.SYSTEM.DIHEDRAL>
0

>  <SCORE.SYSTEM.SOLV>
0

>  <SCORE.SYSTEM.norm>
0

>  <SCORE.heavy>
31

>  <SCORE.norm>
-0.944562

>  <RMSD>
7.419

$$$$
ligand
 OpenBabel11021811443D
libRbt.so/2013.1/901 2013/11/27
 31 32  0  0  0  0  0  0  0  0999 V2000
   10.5487   21.0132   53.4867 C   0  0  0  0  0  0  0  0  0  0  0  0
   11.6643   20.1329   54.0424 C   0  0  0  0  0  0  0  0  0  0  0  0
   11.6087   18.7113   53.8749 C   0  0  0  0  0  0  0  0  0  0  0  0
   12.6449   17.8997   54.3956 C   0  0  0  0  0  0  0  0  0  0  0  0
   13.7420   18.4827   55.0758 C   0  0  0  0  0  0  0  0  0  0  0  0
   13.8163   19.8803   55.2445 C   0  0  0  0  0  0  0  0  0  0  0  0
   12.7957   20.7036   54.7360 C   0  0  0  0  0  0  0  0  0  0  0  0
   10.6990   22.2333   53.4311 O   0  0  0  0  0  0  0  0  0  0  0  0
    3.9507   15.1146   46.8409 C   0  0  0  0  0  0  0  0  0  0  0  0
    8.2563   20.3395   49.4960 C   0  0  0  0  0  0  0  0  0  0  0  0
    4.4644   22.2901   53.4904 P   0  0  1  0  0  0  0  0  0  0  0  0
    5.4767   16.8047   47.5819 N   0  0  0  0  0  0  0  0  0  0  0  0
    3.6500   22.3756   52.2631 O   0  0  0  0  0  0  0  0  0  0  0  0
    9.3630   20.4535   53.0433 S   0  0  0  0  0  0  0  0  0  0  0  0
    7.4246   18.0791   52.0932 C   0  0  0  0  0  0  0  0  0  0  0  0
    4.3238   16.1006   47.8471 C   0  0  0  0  0  0  0  0  0  0  0  0
    4.4580   23.5221   54.3248 O   0  5  0  0  0  0  0  0  0  0  0  0
    7.0061   18.9631   51.1539 N   0  0  0  0  0  0  0  0  0  0  0  0
    3.5949   16.2733   48.9049 N   0  0  0  0  0  0  0  0  0  0  0  0
    4.1222   21.0637   54.2475 O   0  0  0  0  0  0  0  0  0  0  0  0
    7.8959   20.1134   50.9394 C   0  0  2  0  0  0  0  0  0  0  0  0
    3.9508   17.2146   49.8518 C   0  0  0  0  0  0  0  0  0  0  0  0
    3.1741   17.3686   50.9269 N   0  0  0  0  0  0  0  0  0  0  0  0
    8.4157   21.0251   51.9539 C   0  0  1  0  0  0  0  0  0  0  0  0
    5.1527   18.0061   49.6398 C   0  0  0  0  0  0  0  0  0  0  0  0
    6.9310   18.2872   53.1797 O   0  0  0  0  0  0  0  0  0  0  0  0
    8.0870   22.4743   52.0231 C   0  0  0  0  0  0  0  0  0  0  0  0
    5.8622   17.7385   48.4866 C   0  0  0  0  0  0  0  0  0  0  0  0
    6.6845   22.8999   52.1091 C   0  0  0  0  0  0  0  0  0  0  0  0
    5.5685   19.0789   50.6165 C   0  0  0  0  0  0  0  0  0  0  0  0
    5.9771   22.1386   53.1035 O   0  0  0  0  0  0  0  0  0  0  0  0
  1  2  1  0  0  0  0
  1  8  2  0  0  0  0
  1 14  1  0  0  0  0
  2  3  2  0  0  0  0
  2  7  1  0  0  0  0
  3  4  1  0  0  0  0
  4  5  2  0  0  0  0
  5  6  1  0  0  0  0
  6  7  2  0  0  0  0
  9 16  1  0  0  0  0
 10 21  1  0  0  0  0
 11 13  1  6  0  0  0
 11 17  1  0  0  0  0
 11 20  2  0  0  0  0
 11 31  1  0  0  0  0
 12 16  2  0  0  0  0
 12 28  1  0  0  0  0
 15 26  1  0  0  0  0
 15 18  1  0  0  0  0
 16 19  1  0  0  0  0
 18 30  1  0  0  0  0
 19 22  2  0  0  0  0
 21 18  1  6  0  0  0
 21 24  1  0  0  0  0
 22 23  1  0  0  0  0
 22 25  1  0  0  0  0
 24 14  1  1  0  0  0
 24 27  1  0  0  0  0
 25 28  2  0  0  0  0
 25 30  1  0  0  0  0
 27 29  1  0  0  0  0
 29 31  1  0  0  0  0
M  CHG  1  17  -1
M  END
>  <CHROM.1>
-167.91707201,-152.06135977,134.70982707,95.51930302,128.64308836,-75.92600632
-117.15164491,-123.01020517,126.28254270,47.11882069,-179.82250283,45.50543149
7.27330976,19.78994177,51.98834337,-0.59985129,0.29218819,-2.49026433

>  <Name>
ligand

>  <RI>
0

>  <Rbt.Current_Directory>
/home/itssahil/PROJECTS/Mol_Feturizer/New_Systems/rnas/2HOO

>  <Rbt.Executable>
rbdock ($Id: //depot/dev/client3/rdock/2013.1/src/exe/rbdock.cxx#4 $)

>  <Rbt.Library>
libRbt.so (2013.1, Build901 2013/11/27)

>  <Rbt.Parameter_File>
/export/apps/rDock/src/rDock_2013.1_src/data/scripts/dock_solv.prm

>  <Rbt.Receptor>
prm/pocket_docking_3.prm

>  <SCORE>
-38.1466

>  <SCORE.INTER>
-24.5827

>  <SCORE.INTER.CONST>
1

>  <SCORE.INTER.POLAR>
0

>  <SCORE.INTER.ROT>
12

>  <SCORE.INTER.SOLV>
11.9297

>  <SCORE.INTER.VDW>
-31.965

>  <SCORE.INTER.norm>
-0.792989

>  <SCORE.INTRA>
-13.5639

>  <SCORE.INTRA.DIHEDRAL>
-0.71017

>  <SCORE.INTRA.DIHEDRAL.0>
14.6094

>  <SCORE.INTRA.POLAR>
0

>  <SCORE.INTRA.POLAR.0>
0

>  <SCORE.INTRA.REPUL>
0

>  <SCORE.INTRA.REPUL.0>
0

>  <SCORE.INTRA.SOLV>
0.210567

>  <SCORE.INTRA.SOLV.lig_0>
-65.6478

>  <SCORE.INTRA.VDW>
-13.3141

>  <SCORE.INTRA.VDW.0>
9.35535

>  <SCORE.INTRA.norm>
-0.437547

>  <SCORE.RESTR>
0

>  <SCORE.RESTR.CAVITY>
0

>  <SCORE.RESTR.norm>
0

>  <SCORE.SYSTEM>
0

>  <SCORE.SYSTEM.CONST>
0

>  <SCORE.SYSTEM.DIHEDRAL>
0

>  <SCORE.SYSTEM.SOLV>
0

>  <SCORE.SYSTEM.norm>
0

>  <SCORE.heavy>
31

>  <SCORE.norm>
-1.23054

>  <RMSD>
7.426

$$$$
ligand
 OpenBabel11021811443D
libRbt.so/2013.1/901 2013/11/27
 31 32  0  0  0  0  0  0  0  0999 V2000
    6.8742   19.9949   51.9307 C   0  0  0  0  0  0  0  0  0  0  0  0
    7.8072   19.6897   50.7626 C   0  0  0  0  0  0  0  0  0  0  0  0
    8.5444   18.4617   50.7338 C   0  0  0  0  0  0  0  0  0  0  0  0
    9.4109   18.1857   49.6490 C   0  0  0  0  0  0  0  0  0  0  0  0
    9.5502   19.1117   48.5863 C   0  0  0  0  0  0  0  0  0  0  0  0
    8.8278   20.3223   48.5950 C   0  0  0  0  0  0  0  0  0  0  0  0
    7.9632   20.6157   49.6648 C   0  0  0  0  0  0  0  0  0  0  0  0
    6.6073   19.1160   52.7496 O   0  0  0  0  0  0  0  0  0  0  0  0
    1.0459   15.0129   50.0251 C   0  0  0  0  0  0  0  0  0  0  0  0
    3.2443   20.6532   51.2545 C   0  0  0  0  0  0  0  0  0  0  0  0
    7.8124   25.2905   52.5703 P   0  0  1  0  0  0  0  0  0  0  0  0
    2.6903   16.6569   50.5978 N   0  0  0  0  0  0  0  0  0  0  0  0
    7.5001   26.5020   53.3523 O   0  0  0  0  0  0  0  0  0  0  0  0
    6.3204   21.2545   52.0807 S   0  0  0  0  0  0  0  0  0  0  0  0
    1.9687   20.5371   54.0935 C   0  0  0  0  0  0  0  0  0  0  0  0
    1.6495   15.8703   51.0374 C   0  0  0  0  0  0  0  0  0  0  0  0
    7.8748   25.5025   51.0988 O   0  5  0  0  0  0  0  0  0  0  0  0
    3.1235   19.9812   53.6504 N   0  0  0  0  0  0  0  0  0  0  0  0
    1.2089   15.8641   52.2564 N   0  0  0  0  0  0  0  0  0  0  0  0
    9.0139   24.6213   53.1207 O   0  0  0  0  0  0  0  0  0  0  0  0
    3.8408   20.7615   52.6317 C   0  0  2  0  0  0  0  0  0  0  0  0
    1.7813   16.6845   53.2096 C   0  0  0  0  0  0  0  0  0  0  0  0
    1.2990   16.6552   54.4544 N   0  0  0  0  0  0  0  0  0  0  0  0
    5.0109   21.6100   52.8357 C   0  0  1  0  0  0  0  0  0  0  0  0
    2.8819   17.5527   52.8213 C   0  0  0  0  0  0  0  0  0  0  0  0
    1.9000   20.5637   55.3026 O   0  0  0  0  0  0  0  0  0  0  0  0
    5.0382   22.7949   53.7347 C   0  0  0  0  0  0  0  0  0  0  0  0
    3.2807   17.4769   51.5022 C   0  0  0  0  0  0  0  0  0  0  0  0
    6.2899   23.5394   53.9208 C   0  0  0  0  0  0  0  0  0  0  0  0
    3.5183   18.5019   53.8071 C   0  0  0  0  0  0  0  0  0  0  0  0
    6.6447   24.2544   52.7244 O   0  0  0  0  0  0  0  0  0  0  0  0
  1  2  1  0  0  0  0
  1  8  2  0  0  0  0
  1 14  1  0  0  0  0
  2  3  2  0  0  0  0
  2  7  1  0  0  0  0
  3  4  1  0  0  0  0
  4  5  2  0  0  0  0
  5  6  1  0  0  0  0
  6  7  2  0  0  0  0
  9 16  1  0  0  0  0
 10 21  1  0  0  0  0
 11 13  1  1  0  0  0
 11 17  1  0  0  0  0
 11 20  2  0  0  0  0
 11 31  1  0  0  0  0
 12 16  2  0  0  0  0
 12 28  1  0  0  0  0
 15 26  1  0  0  0  0
 15 18  1  0  0  0  0
 16 19  1  0  0  0  0
 18 30  1  0  0  0  0
 19 22  2  0  0  0  0
 21 18  1  1  0  0  0
 21 24  1  0  0  0  0
 22 23  1  0  0  0  0
 22 25  1  0  0  0  0
 24 14  1  1  0  0  0
 24 27  1  0  0  0  0
 25 28  2  0  0  0  0
 25 30  1  0  0  0  0
 27 29  1  0  0  0  0
 29 31  1  0  0  0  0
M  CHG  1  17  -1
M  END
>  <CHROM.1>
-10.28159874,155.79560346,-43.94889190,-130.66620938,-77.46597079,79.28837361
-62.16482987,-2.60209556,-103.74742835,69.85602382,172.44442104,-68.14745835
5.29615485,20.49995811,52.18552852,-0.75895586,-0.53428353,-2.65679928

>  <Name>
ligand

>  <RI>
0

>  <Rbt.Current_Directory>
/home/itssahil/PROJECTS/Mol_Feturizer/New_Systems/rnas/2HOO

>  <Rbt.Executable>
rbdock ($Id: //depot/dev/client3/rdock/2013.1/src/exe/rbdock.cxx#4 $)

>  <Rbt.Library>
libRbt.so (2013.1, Build901 2013/11/27)

>  <Rbt.Parameter_File>
/export/apps/rDock/src/rDock_2013.1_src/data/scripts/dock_solv.prm

>  <Rbt.Receptor>
prm/pocket_docking_7.prm

>  <SCORE>
-23.1259

>  <SCORE.INTER>
-11.4305

>  <SCORE.INTER.CONST>
1

>  <SCORE.INTER.POLAR>
0

>  <SCORE.INTER.ROT>
12

>  <SCORE.INTER.SOLV>
18.4031

>  <SCORE.INTER.VDW>
-25.3547

>  <SCORE.INTER.norm>
-0.368727

>  <SCORE.INTRA>
-11.6954

>  <SCORE.INTRA.DIHEDRAL>
-0.882297

>  <SCORE.INTRA.DIHEDRAL.0>
14.6094

>  <SCORE.INTRA.POLAR>
0

>  <SCORE.INTRA.POLAR.0>
0

>  <SCORE.INTRA.REPUL>
0

>  <SCORE.INTRA.REPUL.0>
0

>  <SCORE.INTRA.SOLV>
1.47817

>  <SCORE.INTRA.SOLV.lig_0>
-65.6478

>  <SCORE.INTRA.VDW>
-11.9933

>  <SCORE.INTRA.VDW.0>
9.35535

>  <SCORE.INTRA.norm>
-0.37727

>  <SCORE.RESTR>
0

>  <SCORE.RESTR.CAVITY>
0

>  <SCORE.RESTR.norm>
0

>  <SCORE.SYSTEM>
0

>  <SCORE.SYSTEM.CONST>
0

>  <SCORE.SYSTEM.DIHEDRAL>
0

>  <SCORE.SYSTEM.SOLV>
0

>  <SCORE.SYSTEM.norm>
0

>  <SCORE.heavy>
31

>  <SCORE.norm>
-0.745997

>  <RMSD>
7.426

$$$$
ligand
 OpenBabel11021811443D
libRbt.so/2013.1/901 2013/11/27
 31 32  0  0  0  0  0  0  0  0999 V2000
    5.7171   17.4350   49.5147 C   0  0  0  0  0  0  0  0  0  0  0  0
    6.9722   18.2181   49.1412 C   0  0  0  0  0  0  0  0  0  0  0  0
    6.8655   19.4225   48.3729 C   0  0  0  0  0  0  0  0  0  0  0  0
    8.0338   20.1429   48.0266 C   0  0  0  0  0  0  0  0  0  0  0  0
    9.3092   19.6863   48.4401 C   0  0  0  0  0  0  0  0  0  0  0  0
    9.4325   18.5065   49.2019 C   0  0  0  0  0  0  0  0  0  0  0  0
    8.2839   17.7756   49.5545 C   0  0  0  0  0  0  0  0  0  0  0  0
    5.1575   16.7334   48.6726 O   0  0  0  0  0  0  0  0  0  0  0  0
   -1.5603   15.5580   55.5501 C   0  0  0  0  0  0  0  0  0  0  0  0
    2.3528   18.5832   51.4727 C   0  0  0  0  0  0  0  0  0  0  0  0
    7.9447   22.3377   51.8449 P   0  0  1  0  0  0  0  0  0  0  0  0
    0.5676   15.7742   54.4732 N   0  0  0  0  0  0  0  0  0  0  0  0
    7.0252   23.4516   51.5440 O   0  0  0  0  0  0  0  0  0  0  0  0
    5.1967   17.5053   50.7953 S   0  0  0  0  0  0  0  0  0  0  0  0
    2.7280   20.5890   53.7216 C   0  0  0  0  0  0  0  0  0  0  0  0
   -0.3109   16.2928   55.3975 C   0  0  0  0  0  0  0  0  0  0  0  0
    8.1970   21.4175   50.7031 O   0  5  0  0  0  0  0  0  0  0  0  0
    3.3256   19.3755   53.6250 N   0  0  0  0  0  0  0  0  0  0  0  0
   -0.0800   17.3564   56.1014 N   0  0  0  0  0  0  0  0  0  0  0  0
    9.1842   22.8521   52.4722 O   0  0  0  0  0  0  0  0  0  0  0  0
    3.5943   18.9198   52.2535 C   0  0  2  0  0  0  0  0  0  0  0  0
    1.1038   18.0522   55.9469 C   0  0  0  0  0  0  0  0  0  0  0  0
    1.3061   19.1460   56.6855 N   0  0  0  0  0  0  0  0  0  0  0  0
    4.8972   18.7945   51.6073 C   0  0  1  0  0  0  0  0  0  0  0  0
    2.0813   17.5721   54.9826 C   0  0  0  0  0  0  0  0  0  0  0  0
    3.4092   21.3964   54.3143 O   0  0  0  0  0  0  0  0  0  0  0  0
    5.9712   19.8210   51.6844 C   0  0  0  0  0  0  0  0  0  0  0  0
    1.7423   16.4269   54.2910 C   0  0  0  0  0  0  0  0  0  0  0  0
    6.0063   20.7547   52.8170 C   0  0  0  0  0  0  0  0  0  0  0  0
    3.3728   18.3139   54.7385 C   0  0  0  0  0  0  0  0  0  0  0  0
    7.2904   21.3951   52.9146 O   0  0  0  0  0  0  0  0  0  0  0  0
  1  2  1  0  0  0  0
  1  8  2  0  0  0  0
  1 14  1  0  0  0  0
  2  3  2  0  0  0  0
  2  7  1  0  0  0  0
  3  4  1  0  0  0  0
  4  5  2  0  0  0  0
  5  6  1  0  0  0  0
  6  7  2  0  0  0  0
  9 16  1  0  0  0  0
 10 21  1  0  0  0  0
 11 13  1  6  0  0  0
 11 17  1  0  0  0  0
 11 20  2  0  0  0  0
 11 31  1  0  0  0  0
 12 16  2  0  0  0  0
 12 28  1  0  0  0  0
 15 26  1  0  0  0  0
 15 18  1  0  0  0  0
 16 19  1  0  0  0  0
 18 30  1  0  0  0  0
 19 22  2  0  0  0  0
 21 18  1  6  0  0  0
 21 24  1  0  0  0  0
 22 23  1  0  0  0  0
 22 25  1  0  0  0  0
 24 14  1  1  0  0  0
 24 27  1  0  0  0  0
 25 28  2  0  0  0  0
 25 30  1  0  0  0  0
 27 29  1  0  0  0  0
 29 31  1  0  0  0  0
M  CHG  1  17  -1
M  END
>  <CHROM.1>
76.73847111,49.82886851,131.30303691,-118.38686821,-68.97520504,74.41469869
-46.44428080,-154.95895158,-90.58067311,163.64490596,62.61477992,55.33302295
4.82385738,19.17375143,52.25807045,0.08612343,-0.67470549,-2.41634933

>  <Name>
ligand

>  <RI>
0

>  <Rbt.Current_Directory>
/home/itssahil/PROJECTS/Mol_Feturizer/New_Systems/rnas/2HOO

>  <Rbt.Executable>
rbdock ($Id: //depot/dev/client3/rdock/2013.1/src/exe/rbdock.cxx#4 $)

>  <Rbt.Library>
libRbt.so (2013.1, Build901 2013/11/27)

>  <Rbt.Parameter_File>
/export/apps/rDock/src/rDock_2013.1_src/data/scripts/dock_solv.prm

>  <Rbt.Receptor>
prm/pocket_docking_4.prm

>  <SCORE>
-19.8131

>  <SCORE.INTER>
-9.54592

>  <SCORE.INTER.CONST>
1

>  <SCORE.INTER.POLAR>
0

>  <SCORE.INTER.ROT>
12

>  <SCORE.INTER.SOLV>
18.0967

>  <SCORE.INTER.VDW>
-23.9962

>  <SCORE.INTER.norm>
-0.307933

>  <SCORE.INTRA>
-10.274

>  <SCORE.INTRA.DIHEDRAL>
2.3342

>  <SCORE.INTRA.DIHEDRAL.0>
14.6094

>  <SCORE.INTRA.POLAR>
0

>  <SCORE.INTRA.POLAR.0>
0

>  <SCORE.INTRA.REPUL>
0

>  <SCORE.INTRA.REPUL.0>
0

>  <SCORE.INTRA.SOLV>
3.82471

>  <SCORE.INTRA.SOLV.lig_0>
-65.6478

>  <SCORE.INTRA.VDW>
-13.3535

>  <SCORE.INTRA.VDW.0>
9.35535

>  <SCORE.INTRA.norm>
-0.33142

>  <SCORE.RESTR>
0.0068499

>  <SCORE.RESTR.CAVITY>
0.0068499

>  <SCORE.RESTR.norm>
0.000220964

>  <SCORE.SYSTEM>
0

>  <SCORE.SYSTEM.CONST>
0

>  <SCORE.SYSTEM.DIHEDRAL>
0

>  <SCORE.SYSTEM.SOLV>
0

>  <SCORE.SYSTEM.norm>
0

>  <SCORE.heavy>
31

>  <SCORE.norm>
-0.639132

>  <RMSD>
7.450

$$$$
ligand
 OpenBabel11021811443D
libRbt.so/2013.1/901 2013/11/27
 31 32  0  0  0  0  0  0  0  0999 V2000
    7.4560   21.3098   52.0608 C   0  0  0  0  0  0  0  0  0  0  0  0
    7.8262   22.7778   52.2505 C   0  0  0  0  0  0  0  0  0  0  0  0
    6.9241   23.8069   51.8268 C   0  0  0  0  0  0  0  0  0  0  0  0
    7.2747   25.1670   52.0025 C   0  0  0  0  0  0  0  0  0  0  0  0
    8.5089   25.5200   52.6011 C   0  0  0  0  0  0  0  0  0  0  0  0
    9.4061   24.5206   53.0295 C   0  0  0  0  0  0  0  0  0  0  0  0
    9.0769   23.1635   52.8621 C   0  0  0  0  0  0  0  0  0  0  0  0
    7.0799   20.6418   53.0234 O   0  0  0  0  0  0  0  0  0  0  0  0
    7.6129   12.5046   45.0505 C   0  0  0  0  0  0  0  0  0  0  0  0
    7.6077   19.0944   47.9531 C   0  0  0  0  0  0  0  0  0  0  0  0
    1.9338   17.7625   51.6746 P   0  0  1  0  0  0  0  0  0  0  0  0
    8.1293   14.2973   46.5517 N   0  0  0  0  0  0  0  0  0  0  0  0
    1.7392   16.8461   50.5348 O   0  0  0  0  0  0  0  0  0  0  0  0
    7.5397   20.7167   50.8130 S   0  0  0  0  0  0  0  0  0  0  0  0
    8.0653   16.8380   50.4971 C   0  0  0  0  0  0  0  0  0  0  0  0
    7.1601   13.4513   46.0619 C   0  0  0  0  0  0  0  0  0  0  0  0
    0.7578   18.6184   51.9886 O   0  5  0  0  0  0  0  0  0  0  0  0
    7.1892   17.2139   49.5327 N   0  0  0  0  0  0  0  0  0  0  0  0
    5.9226   13.4646   46.4472 N   0  0  0  0  0  0  0  0  0  0  0  0
    2.4514   17.0192   52.8467 O   0  0  0  0  0  0  0  0  0  0  0  0
    7.0993   18.6630   49.3020 C   0  0  2  0  0  0  0  0  0  0  0  0
    5.4985   14.3693   47.4016 C   0  0  0  0  0  0  0  0  0  0  0  0
    4.2155   14.3574   47.7715 N   0  0  0  0  0  0  0  0  0  0  0  0
    6.5632   19.6678   50.2152 C   0  0  1  0  0  0  0  0  0  0  0  0
    6.4619   15.3037   47.9625 C   0  0  0  0  0  0  0  0  0  0  0  0
    7.5381   16.7139   51.5807 O   0  0  0  0  0  0  0  0  0  0  0  0
    5.1355   19.7485   50.6251 C   0  0  0  0  0  0  0  0  0  0  0  0
    7.7549   15.2010   47.4911 C   0  0  0  0  0  0  0  0  0  0  0  0
    4.4263   18.5310   51.0380 C   0  0  0  0  0  0  0  0  0  0  0  0
    6.0488   16.3432   48.9758 C   0  0  0  0  0  0  0  0  0  0  0  0
    3.0436   18.8120   51.3170 O   0  0  0  0  0  0  0  0  0  0  0  0
  1  2  1  0  0  0  0
  1  8  2  0  0  0  0
  1 14  1  0  0  0  0
  2  3  2  0  0  0  0
  2  7  1  0  0  0  0
  3  4  1  0  0  0  0
  4  5  2  0  0  0  0
  5  6  1  0  0  0  0
  6  7  2  0  0  0  0
  9 16  1  0  0  0  0
 10 21  1  0  0  0  0
 11 13  1  6  0  0  0
 11 17  1  0  0  0  0
 11 20  2  0  0  0  0
 11 31  1  0  0  0  0
 12 16  2  0  0  0  0
 12 28  1  0  0  0  0
 15 26  1  0  0  0  0
 15 18  1  0  0  0  0
 16 19  1  0  0  0  0
 18 30  1  0  0  0  0
 19 22  2  0  0  0  0
 21 18  1  6  0  0  0
 21 24  1  0  0  0  0
 22 23  1  0  0  0  0
 22 25  1  0  0  0  0
 24 14  1  1  0  0  0
 24 27  1  0  0  0  0
 25 28  2  0  0  0  0
 25 30  1  0  0  0  0
 27 29  1  0  0  0  0
 29 31  1  0  0  0  0
M  CHG  1  17  -1
M  END
>  <CHROM.1>
-103.77150698,-142.29733664,-147.84958007,93.56780565,113.30255600,-79.09747888
-67.61904277,-133.15263704,177.01360166,-176.59557210,174.84176216,-63.22288991
6.00754870,18.41083120,50.20438159,-1.41797374,-0.37621625,-2.56729753

>  <Name>
ligand

>  <RI>
0

>  <Rbt.Current_Directory>
/home/itssahil/PROJECTS/Mol_Feturizer/New_Systems/rnas/2HOO

>  <Rbt.Executable>
rbdock ($Id: //depot/dev/client3/rdock/2013.1/src/exe/rbdock.cxx#4 $)

>  <Rbt.Library>
libRbt.so (2013.1, Build901 2013/11/27)

>  <Rbt.Parameter_File>
/export/apps/rDock/src/rDock_2013.1_src/data/scripts/dock_solv.prm

>  <Rbt.Receptor>
prm/pocket_docking_5.prm

>  <SCORE>
-27.5018

>  <SCORE.INTER>
-13.0498

>  <SCORE.INTER.CONST>
1

>  <SCORE.INTER.POLAR>
0

>  <SCORE.INTER.ROT>
12

>  <SCORE.INTER.SOLV>
12.5709

>  <SCORE.INTER.VDW>
-24.4902

>  <SCORE.INTER.norm>
-0.420963

>  <SCORE.INTRA>
-14.4649

>  <SCORE.INTRA.DIHEDRAL>
-0.436494

>  <SCORE.INTRA.DIHEDRAL.0>
14.6094

>  <SCORE.INTRA.POLAR>
0

>  <SCORE.INTRA.POLAR.0>
0

>  <SCORE.INTRA.REPUL>
0

>  <SCORE.INTRA.REPUL.0>
0

>  <SCORE.INTRA.SOLV>
-0.714293

>  <SCORE.INTRA.SOLV.lig_0>
-65.6478

>  <SCORE.INTRA.VDW>
-13.8895

>  <SCORE.INTRA.VDW.0>
9.35535

>  <SCORE.INTRA.norm>
-0.466608

>  <SCORE.RESTR>
0.012907

>  <SCORE.RESTR.CAVITY>
0.012907

>  <SCORE.RESTR.norm>
0.000416355

>  <SCORE.SYSTEM>
0

>  <SCORE.SYSTEM.CONST>
0

>  <SCORE.SYSTEM.DIHEDRAL>
0

>  <SCORE.SYSTEM.SOLV>
0

>  <SCORE.SYSTEM.norm>
0

>  <SCORE.heavy>
31

>  <SCORE.norm>
-0.887155

>  <RMSD>
7.462

$$$$
ligand
 OpenBabel11021811443D
libRbt.so/2013.1/901 2013/11/27
 31 32  0  0  0  0  0  0  0  0999 V2000
    9.5867   19.1262   53.4969 C   0  0  0  0  0  0  0  0  0  0  0  0
   10.9754   19.3707   54.0798 C   0  0  0  0  0  0  0  0  0  0  0  0
   11.4122   20.7059   54.3600 C   0  0  0  0  0  0  0  0  0  0  0  0
   12.7030   20.9265   54.8976 C   0  0  0  0  0  0  0  0  0  0  0  0
   13.5653   19.8359   55.1681 C   0  0  0  0  0  0  0  0  0  0  0  0
   13.1498   18.5149   54.9043 C   0  0  0  0  0  0  0  0  0  0  0  0
   11.8718   18.2751   54.3684 C   0  0  0  0  0  0  0  0  0  0  0  0
    8.6704   18.7528   54.2285 O   0  0  0  0  0  0  0  0  0  0  0  0
    0.5783   18.9005   55.4213 C   0  0  0  0  0  0  0  0  0  0  0  0
    8.0466   22.4197   52.0342 C   0  0  0  0  0  0  0  0  0  0  0  0
    5.2889   16.5188   48.6973 P   0  0  1  0  0  0  0  0  0  0  0  0
    1.7193   20.7314   54.3819 N   0  0  0  0  0  0  0  0  0  0  0  0
    3.9188   16.9158   49.0738 O   0  0  0  0  0  0  0  0  0  0  0  0
    9.3439   19.3190   52.1479 S   0  0  0  0  0  0  0  0  0  0  0  0
    6.3972   21.4185   54.2901 C   0  0  0  0  0  0  0  0  0  0  0  0
    1.6835   19.3720   54.5965 C   0  0  0  0  0  0  0  0  0  0  0  0
    5.8433   15.3845   49.4848 O   0  5  0  0  0  0  0  0  0  0  0  0
    6.2152   21.0356   53.0021 N   0  0  0  0  0  0  0  0  0  0  0  0
    2.5521   18.5382   54.1166 N   0  0  0  0  0  0  0  0  0  0  0  0
    5.3798   16.3191   47.2323 O   0  0  0  0  0  0  0  0  0  0  0  0
    7.4258   21.0555   52.1684 C   0  0  2  0  0  0  0  0  0  0  0  0
    3.6014   18.9928   53.3409 C   0  0  0  0  0  0  0  0  0  0  0  0
    4.4799   18.1060   52.8668 N   0  0  0  0  0  0  0  0  0  0  0  0
    8.0603   19.9171   51.5108 C   0  0  1  0  0  0  0  0  0  0  0  0
    3.7137   20.4185   53.0752 C   0  0  0  0  0  0  0  0  0  0  0  0
    7.0306   20.6084   54.9305 O   0  0  0  0  0  0  0  0  0  0  0  0
    7.5639   19.2935   50.2548 C   0  0  0  0  0  0  0  0  0  0  0  0
    2.7332   21.2193   53.6249 C   0  0  0  0  0  0  0  0  0  0  0  0
    6.4857   18.2986   50.3123 C   0  0  0  0  0  0  0  0  0  0  0  0
    4.8617   20.9791   52.2716 C   0  0  0  0  0  0  0  0  0  0  0  0
    6.2804   17.6892   49.0258 O   0  0  0  0  0  0  0  0  0  0  0  0
  1  2  1  0  0  0  0
  1  8  2  0  0  0  0
  1 14  1  0  0  0  0
  2  3  2  0  0  0  0
  2  7  1  0  0  0  0
  3  4  1  0  0  0  0
  4  5  2  0  0  0  0
  5  6  1  0  0  0  0
  6  7  2  0  0  0  0
  9 16  1  0  0  0  0
 10 21  1  0  0  0  0
 11 13  1  1  0  0  0
 11 17  1  0  0  0  0
 11 20  2  0  0  0  0
 11 31  1  0  0  0  0
 12 16  2  0  0  0  0
 12 28  1  0  0  0  0
 15 26  1  0  0  0  0
 15 18  1  0  0  0  0
 16 19  1  0  0  0  0
 18 30  1  0  0  0  0
 19 22  2  0  0  0  0
 21 18  1  1  0  0  0
 21 24  1  0  0  0  0
 22 23  1  0  0  0  0
 22 25  1  0  0  0  0
 24 14  1  6  0  0  0
 24 27  1  0  0  0  0
 25 28  2  0  0  0  0
 25 30  1  0  0  0  0
 27 29  1  0  0  0  0
 29 31  1  0  0  0  0
M  CHG  1  17  -1
M  END
>  <CHROM.1>
-101.01105792,-141.89151354,40.21465094,-70.11754086,-61.34169070,-41.91039839
75.93541280,97.55660800,-74.48248390,-172.12025925,175.74647030,57.53541489
6.73550087,19.15592154,52.40490385,-0.34607801,0.00625523,-2.13843301

>  <Name>
ligand

>  <RI>
0

>  <Rbt.Current_Directory>
/home/itssahil/PROJECTS/Mol_Feturizer/New_Systems/rnas/2HOO

>  <Rbt.Executable>
rbdock ($Id: //depot/dev/client3/rdock/2013.1/src/exe/rbdock.cxx#4 $)

>  <Rbt.Library>
libRbt.so (2013.1, Build901 2013/11/27)

>  <Rbt.Parameter_File>
/export/apps/rDock/src/rDock_2013.1_src/data/scripts/dock_solv.prm

>  <Rbt.Receptor>
prm/pocket_docking_2.prm

>  <SCORE>
-24.0843

>  <SCORE.INTER>
-13.8904

>  <SCORE.INTER.CONST>
1

>  <SCORE.INTER.POLAR>
0

>  <SCORE.INTER.ROT>
12

>  <SCORE.INTER.SOLV>
11.9005

>  <SCORE.INTER.VDW>
-24.8271

>  <SCORE.INTER.norm>
-0.448078

>  <SCORE.INTRA>
-10.9225

>  <SCORE.INTRA.DIHEDRAL>
0.258324

>  <SCORE.INTRA.DIHEDRAL.0>
14.6094

>  <SCORE.INTRA.POLAR>
0

>  <SCORE.INTRA.POLAR.0>
0

>  <SCORE.INTRA.REPUL>
0

>  <SCORE.INTRA.REPUL.0>
0

>  <SCORE.INTRA.SOLV>
5.02467

>  <SCORE.INTRA.SOLV.lig_0>
-65.6478

>  <SCORE.INTRA.VDW>
-13.564

>  <SCORE.INTRA.VDW.0>
9.35535

>  <SCORE.INTRA.norm>
-0.352338

>  <SCORE.RESTR>
0.72861

>  <SCORE.RESTR.CAVITY>
0.72861

>  <SCORE.RESTR.norm>
0.0235036

>  <SCORE.SYSTEM>
0

>  <SCORE.SYSTEM.CONST>
0

>  <SCORE.SYSTEM.DIHEDRAL>
0

>  <SCORE.SYSTEM.SOLV>
0

>  <SCORE.SYSTEM.norm>
0

>  <SCORE.heavy>
31

>  <SCORE.norm>
-0.776913

>  <RMSD>
7.463

$$$$
ligand
 OpenBabel11021811443D
libRbt.so/2013.1/901 2013/11/27
 31 32  0  0  0  0  0  0  0  0999 V2000
    7.3118   21.2035   51.2386 C   0  0  0  0  0  0  0  0  0  0  0  0
    7.7361   22.5548   51.8062 C   0  0  0  0  0  0  0  0  0  0  0  0
    8.9900   22.6866   52.4864 C   0  0  0  0  0  0  0  0  0  0  0  0
    9.3766   23.9421   53.0138 C   0  0  0  0  0  0  0  0  0  0  0  0
    8.5361   25.0728   52.8683 C   0  0  0  0  0  0  0  0  0  0  0  0
    7.3015   24.9628   52.1966 C   0  0  0  0  0  0  0  0  0  0  0  0
    6.8987   23.7237   51.6672 C   0  0  0  0  0  0  0  0  0  0  0  0
    7.5263   20.9393   50.0560 O   0  0  0  0  0  0  0  0  0  0  0  0
    5.0824   22.7531   57.3141 C   0  0  0  0  0  0  0  0  0  0  0  0
    3.7038   20.9796   51.3959 C   0  0  0  0  0  0  0  0  0  0  0  0
    8.7029   17.5896   49.2472 P   0  0  1  0  0  0  0  0  0  0  0  0
    5.4488   21.2181   55.5130 N   0  0  0  0  0  0  0  0  0  0  0  0
    8.5465   16.1238   49.1877 O   0  0  0  0  0  0  0  0  0  0  0  0
    6.6840   20.2669   52.0412 S   0  0  0  0  0  0  0  0  0  0  0  0
    2.3326   18.1362   51.6178 C   0  0  0  0  0  0  0  0  0  0  0  0
    4.5776   21.6717   56.4775 C   0  0  0  0  0  0  0  0  0  0  0  0
    9.0825   18.1179   50.5855 O   0  5  0  0  0  0  0  0  0  0  0  0
    3.1499   18.8017   52.4712 N   0  0  0  0  0  0  0  0  0  0  0  0
    3.3854   21.1968   56.6601 N   0  0  0  0  0  0  0  0  0  0  0  0
    9.5909   18.0546   48.1566 O   0  0  0  0  0  0  0  0  0  0  0  0
    4.1872   19.6221   51.8294 C   0  0  2  0  0  0  0  0  0  0  0  0
    2.9155   20.1668   55.8677 C   0  0  0  0  0  0  0  0  0  0  0  0
    1.6841   19.6994   56.0868 N   0  0  0  0  0  0  0  0  0  0  0  0
    5.5839   19.2601   51.6085 C   0  0  1  0  0  0  0  0  0  0  0  0
    3.7803   19.6265   54.8304 C   0  0  0  0  0  0  0  0  0  0  0  0
    1.1740   18.1600   51.9707 O   0  0  0  0  0  0  0  0  0  0  0  0
    6.0286   17.9869   50.9806 C   0  0  0  0  0  0  0  0  0  0  0  0
    5.0265   20.2078   54.7129 C   0  0  0  0  0  0  0  0  0  0  0  0
    6.0458   17.8633   49.5177 C   0  0  0  0  0  0  0  0  0  0  0  0
    3.3391   18.4730   53.9628 C   0  0  0  0  0  0  0  0  0  0  0  0
    7.3162   18.2737   48.9827 O   0  0  0  0  0  0  0  0  0  0  0  0
  1  2  1  0  0  0  0
  1  8  2  0  0  0  0
  1 14  1  0  0  0  0
  2  3  2  0  0  0  0
  2  7  1  0  0  0  0
  3  4  1  0  0  0  0
  4  5  2  0  0  0  0
  5  6  1  0  0  0  0
  6  7  2  0  0  0  0
  9 16  1  0  0  0  0
 10 21  1  0  0  0  0
 11 13  1  1  0  0  0
 11 17  1  0  0  0  0
 11 20  2  0  0  0  0
 11 31  1  0  0  0  0
 12 16  2  0  0  0  0
 12 28  1  0  0  0  0
 15 26  1  0  0  0  0
 15 18  1  0  0  0  0
 16 19  1  0  0  0  0
 18 30  1  0  0  0  0
 19 22  2  0  0  0  0
 21 18  1  1  0  0  0
 21 24  1  0  0  0  0
 22 23  1  0  0  0  0
 22 25  1  0  0  0  0
 24 14  1  6  0  0  0
 24 27  1  0  0  0  0
 25 28  2  0  0  0  0
 25 30  1  0  0  0  0
 27 29  1  0  0  0  0
 29 31  1  0  0  0  0
M  CHG  1  17  -1
M  END
>  <CHROM.1>
-95.59239302,145.76862110,-95.67175094,-138.71598733,82.86131977,-154.43786653
48.55265648,-97.10994290,114.12206805,89.97844404,63.72028737,42.47827134
5.97634530,20.05952425,52.22662673,-0.79885267,0.57037558,0.67828898

>  <Name>
ligand

>  <RI>
0

>  <Rbt.Current_Directory>
/home/itssahil/PROJECTS/Mol_Feturizer/New_Systems/rnas/2HOO

>  <Rbt.Executable>
rbdock ($Id: //depot/dev/client3/rdock/2013.1/src/exe/rbdock.cxx#4 $)

>  <Rbt.Library>
libRbt.so (2013.1, Build901 2013/11/27)

>  <Rbt.Parameter_File>
/export/apps/rDock/src/rDock_2013.1_src/data/scripts/dock_solv.prm

>  <Rbt.Receptor>
prm/pocket_docking_5.prm

>  <SCORE>
-24.7709

>  <SCORE.INTER>
-12.7196

>  <SCORE.INTER.CONST>
1

>  <SCORE.INTER.POLAR>
0

>  <SCORE.INTER.ROT>
12

>  <SCORE.INTER.SOLV>
16.3465

>  <SCORE.INTER.VDW>
-25.5286

>  <SCORE.INTER.norm>
-0.41031

>  <SCORE.INTRA>
-12.0513

>  <SCORE.INTRA.DIHEDRAL>
2.31002

>  <SCORE.INTRA.DIHEDRAL.0>
14.6094

>  <SCORE.INTRA.POLAR>
0

>  <SCORE.INTRA.POLAR.0>
0

>  <SCORE.INTRA.REPUL>
0.00419006

>  <SCORE.INTRA.REPUL.0>
0

>  <SCORE.INTRA.SOLV>
3.53132

>  <SCORE.INTRA.SOLV.lig_0>
-65.6478

>  <SCORE.INTRA.VDW>
-14.9929

>  <SCORE.INTRA.VDW.0>
9.35535

>  <SCORE.INTRA.norm>
-0.38875

>  <SCORE.RESTR>
0

>  <SCORE.RESTR.CAVITY>
0

>  <SCORE.RESTR.norm>
0

>  <SCORE.SYSTEM>
0

>  <SCORE.SYSTEM.CONST>
0

>  <SCORE.SYSTEM.DIHEDRAL>
0

>  <SCORE.SYSTEM.SOLV>
0

>  <SCORE.SYSTEM.norm>
0

>  <SCORE.heavy>
31

>  <SCORE.norm>
-0.799061

>  <RMSD>
7.484

$$$$
ligand
 OpenBabel11021811443D
libRbt.so/2013.1/901 2013/11/27
 31 32  0  0  0  0  0  0  0  0999 V2000
    3.5528   16.5747   49.6001 C   0  0  0  0  0  0  0  0  0  0  0  0
    2.4474   17.2206   50.4302 C   0  0  0  0  0  0  0  0  0  0  0  0
    2.6152   18.5483   50.9413 C   0  0  0  0  0  0  0  0  0  0  0  0
    1.5874   19.1408   51.7136 C   0  0  0  0  0  0  0  0  0  0  0  0
    0.3894   18.4336   51.9799 C   0  0  0  0  0  0  0  0  0  0  0  0
    0.2046   17.1286   51.4799 C   0  0  0  0  0  0  0  0  0  0  0  0
    1.2147   16.5219   50.7120 C   0  0  0  0  0  0  0  0  0  0  0  0
    3.2991   16.1251   48.4830 O   0  0  0  0  0  0  0  0  0  0  0  0
   11.3097   15.2183   42.7078 C   0  0  0  0  0  0  0  0  0  0  0  0
    8.4804   16.7863   50.0475 C   0  0  0  0  0  0  0  0  0  0  0  0
    7.0494   21.9550   52.1834 P   0  0  1  0  0  0  0  0  0  0  0  0
   10.5447   15.2858   44.9759 N   0  0  0  0  0  0  0  0  0  0  0  0
    6.7231   23.3306   51.7615 O   0  0  0  0  0  0  0  0  0  0  0  0
    4.8438   16.4866   50.0912 S   0  0  0  0  0  0  0  0  0  0  0  0
    6.7786   15.2351   47.5355 C   0  0  0  0  0  0  0  0  0  0  0  0
   10.4195   15.7993   43.7048 C   0  0  0  0  0  0  0  0  0  0  0  0
    8.4938   21.6077   52.0990 O   0  5  0  0  0  0  0  0  0  0  0  0
    7.4245   16.3916   47.8258 N   0  0  0  0  0  0  0  0  0  0  0  0
    9.5819   16.7330   43.3783 N   0  0  0  0  0  0  0  0  0  0  0  0
    6.4514   21.6704   53.5085 O   0  0  0  0  0  0  0  0  0  0  0  0
    7.2407   16.8807   49.1999 C   0  0  2  0  0  0  0  0  0  0  0  0
    8.7454   17.2843   44.3300 C   0  0  0  0  0  0  0  0  0  0  0  0
    7.8982   18.2473   43.9589 N   0  0  0  0  0  0  0  0  0  0  0  0
    6.0248   17.4449   49.7779 C   0  0  1  0  0  0  0  0  0  0  0  0
    8.8229   16.8008   45.6997 C   0  0  0  0  0  0  0  0  0  0  0  0
    5.7749   15.4152   46.8817 O   0  0  0  0  0  0  0  0  0  0  0  0
    5.8338   18.8892   50.0783 C   0  0  0  0  0  0  0  0  0  0  0  0
    9.7414   15.7991   45.9405 C   0  0  0  0  0  0  0  0  0  0  0  0
    6.5821   19.5094   51.1788 C   0  0  0  0  0  0  0  0  0  0  0  0
    7.9661   17.3942   46.7913 C   0  0  0  0  0  0  0  0  0  0  0  0
    6.3866   20.9343   51.1936 O   0  0  0  0  0  0  0  0  0  0  0  0
  1  2  1  0  0  0  0
  1  8  2  0  0  0  0
  1 14  1  0  0  0  0
  2  3  2  0  0  0  0
  2  7  1  0  0  0  0
  3  4  1  0  0  0  0
  4  5  2  0  0  0  0
  5  6  1  0  0  0  0
  6  7  2  0  0  0  0
  9 16  1  0  0  0  0
 10 21  1  0  0  0  0
 11 13  1  6  0  0  0
 11 17  1  0  0  0  0
 11 20  2  0  0  0  0
 11 31  1  0  0  0  0
 12 16  2  0  0  0  0
 12 28  1  0  0  0  0
 15 26  1  0  0  0  0
 15 18  1  0  0  0  0
 16 19  1  0  0  0  0
 18 30  1  0  0  0  0
 19 22  2  0  0  0  0
 21 18  1  6  0  0  0
 21 24  1  0  0  0  0
 22 23  1  0  0  0  0
 22 25  1  0  0  0  0
 24 14  1  6  0  0  0
 24 27  1  0  0  0  0
 25 28  2  0  0  0  0
 25 30  1  0  0  0  0
 27 29  1  0  0  0  0
 29 31  1  0  0  0  0
M  CHG  1  17  -1
M  END
>  <CHROM.1>
-125.58673807,-97.87732949,-122.31601864,103.03926455,110.37847768,-50.44319416
-108.41098601,110.38961547,141.93743970,172.60302977,-177.96335139,173.02228808
6.34069065,17.94755271,48.93175527,2.22549814,0.44250973,0.78467409

>  <Name>
ligand

>  <RI>
0

>  <Rbt.Current_Directory>
/home/itssahil/PROJECTS/Mol_Feturizer/New_Systems/rnas/2HOO

>  <Rbt.Executable>
rbdock ($Id: //depot/dev/client3/rdock/2013.1/src/exe/rbdock.cxx#4 $)

>  <Rbt.Library>
libRbt.so (2013.1, Build901 2013/11/27)

>  <Rbt.Parameter_File>
/export/apps/rDock/src/rDock_2013.1_src/data/scripts/dock_solv.prm

>  <Rbt.Receptor>
prm/pocket_docking_8.prm

>  <SCORE>
-26.7376

>  <SCORE.INTER>
-13.0277

>  <SCORE.INTER.CONST>
1

>  <SCORE.INTER.POLAR>
0

>  <SCORE.INTER.ROT>
12

>  <SCORE.INTER.SOLV>
12.3505

>  <SCORE.INTER.VDW>
-24.402

>  <SCORE.INTER.norm>
-0.420248

>  <SCORE.INTRA>
-13.7099

>  <SCORE.INTRA.DIHEDRAL>
1.05859

>  <SCORE.INTRA.DIHEDRAL.0>
14.6094

>  <SCORE.INTRA.POLAR>
0

>  <SCORE.INTRA.POLAR.0>
0

>  <SCORE.INTRA.REPUL>
0

>  <SCORE.INTRA.REPUL.0>
0

>  <SCORE.INTRA.SOLV>
0.107473

>  <SCORE.INTRA.SOLV.lig_0>
-65.6478

>  <SCORE.INTRA.VDW>
-14.2929

>  <SCORE.INTRA.VDW.0>
9.35535

>  <SCORE.INTRA.norm>
-0.442255

>  <SCORE.RESTR>
0

>  <SCORE.RESTR.CAVITY>
0

>  <SCORE.RESTR.norm>
0

>  <SCORE.SYSTEM>
0

>  <SCORE.SYSTEM.CONST>
0

>  <SCORE.SYSTEM.DIHEDRAL>
0

>  <SCORE.SYSTEM.SOLV>
0

>  <SCORE.SYSTEM.norm>
0

>  <SCORE.heavy>
31

>  <SCORE.norm>
-0.862503

>  <RMSD>
7.484

$$$$
ligand
 OpenBabel11021811443D
libRbt.so/2013.1/901 2013/11/27
 31 32  0  0  0  0  0  0  0  0999 V2000
    8.4859   17.9711   50.7574 C   0  0  0  0  0  0  0  0  0  0  0  0
    8.8896   17.1649   49.5265 C   0  0  0  0  0  0  0  0  0  0  0  0
    7.9244   16.3460   48.8556 C   0  0  0  0  0  0  0  0  0  0  0  0
    8.3059   15.5978   47.7162 C   0  0  0  0  0  0  0  0  0  0  0  0
    9.6343   15.6575   47.2284 C   0  0  0  0  0  0  0  0  0  0  0  0
   10.5957   16.4627   47.8723 C   0  0  0  0  0  0  0  0  0  0  0  0
   10.2368   17.2121   49.0070 C   0  0  0  0  0  0  0  0  0  0  0  0
    7.9103   17.4166   51.6932 O   0  0  0  0  0  0  0  0  0  0  0  0
    1.2270   15.0555   50.2923 C   0  0  0  0  0  0  0  0  0  0  0  0
    6.1967   21.8282   52.3384 C   0  0  0  0  0  0  0  0  0  0  0  0
   11.7216   19.3419   53.8610 P   0  0  1  0  0  0  0  0  0  0  0  0
    1.8753   17.1159   51.3261 N   0  0  0  0  0  0  0  0  0  0  0  0
   12.3292   20.6788   53.7185 O   0  0  0  0  0  0  0  0  0  0  0  0
    8.7593   19.3257   50.8344 S   0  0  0  0  0  0  0  0  0  0  0  0
    5.5923   18.6553   53.0293 C   0  0  0  0  0  0  0  0  0  0  0  0
    2.1499   16.1818   50.3529 C   0  0  0  0  0  0  0  0  0  0  0  0
   11.6828   18.5426   52.6065 O   0  5  0  0  0  0  0  0  0  0  0  0
    5.7570   19.4126   51.9165 N   0  0  0  0  0  0  0  0  0  0  0  0
    3.1482   16.2628   49.5300 N   0  0  0  0  0  0  0  0  0  0  0  0
   12.3333   18.6202   55.0008 O   0  0  0  0  0  0  0  0  0  0  0  0
    6.7699   20.4722   52.0272 C   0  0  2  0  0  0  0  0  0  0  0  0
    4.0233   17.3300   49.5973 C   0  0  0  0  0  0  0  0  0  0  0  0
    5.0431   17.3787   48.7367 N   0  0  0  0  0  0  0  0  0  0  0  0
    8.2159   20.3249   51.8914 C   0  0  1  0  0  0  0  0  0  0  0  0
    3.8056   18.3558   50.6054 C   0  0  0  0  0  0  0  0  0  0  0  0
    5.4128   19.3237   54.0236 O   0  0  0  0  0  0  0  0  0  0  0  0
    9.2124   21.0640   52.7121 C   0  0  0  0  0  0  0  0  0  0  0  0
    2.7100   18.1801   51.4259 C   0  0  0  0  0  0  0  0  0  0  0  0
    9.4164   20.6939   54.1182 C   0  0  0  0  0  0  0  0  0  0  0  0
    4.7521   19.5218   50.7558 C   0  0  0  0  0  0  0  0  0  0  0  0
   10.2032   19.4946   54.2244 O   0  0  0  0  0  0  0  0  0  0  0  0
  1  2  1  0  0  0  0
  1  8  2  0  0  0  0
  1 14  1  0  0  0  0
  2  3  2  0  0  0  0
  2  7  1  0  0  0  0
  3  4  1  0  0  0  0
  4  5  2  0  0  0  0
  5  6  1  0  0  0  0
  6  7  2  0  0  0  0
  9 16  1  0  0  0  0
 10 21  1  0  0  0  0
 11 13  1  6  0  0  0
 11 17  1  0  0  0  0
 11 20  2  0  0  0  0
 11 31  1  0  0  0  0
 12 16  2  0  0  0  0
 12 28  1  0  0  0  0
 15 26  1  0  0  0  0
 15 18  1  0  0  0  0
 16 19  1  0  0  0  0
 18 30  1  0  0  0  0
 19 22  2  0  0  0  0
 21 18  1  1  0  0  0
 21 24  1  0  0  0  0
 22 23  1  0  0  0  0
 22 25  1  0  0  0  0
 24 14  1  1  0  0  0
 24 27  1  0  0  0  0
 25 28  2  0  0  0  0
 25 30  1  0  0  0  0
 27 29  1  0  0  0  0
 29 31  1  0  0  0  0
M  CHG  1  17  -1
M  END
>  <CHROM.1>
51.47253886,169.06648840,-57.77046755,51.54902876,-98.07527346,-23.56332838
-144.10901461,-106.00816605,-101.31969004,76.88137176,68.56158369,14.44734635
7.52848258,18.44426027,51.44206896,-0.46711217,-0.02195074,-2.22274074

>  <Name>
ligand

>  <RI>
0

>  <Rbt.Current_Directory>
/home/itssahil/PROJECTS/Mol_Feturizer/New_Systems/rnas/2HOO

>  <Rbt.Executable>
rbdock ($Id: //depot/dev/client3/rdock/2013.1/src/exe/rbdock.cxx#4 $)

>  <Rbt.Library>
libRbt.so (2013.1, Build901 2013/11/27)

>  <Rbt.Parameter_File>
/export/apps/rDock/src/rDock_2013.1_src/data/scripts/dock_solv.prm

>  <Rbt.Receptor>
prm/blind_docking_100.prm

>  <SCORE>
-25.1955

>  <SCORE.INTER>
-15.1025

>  <SCORE.INTER.CONST>
1

>  <SCORE.INTER.POLAR>
0

>  <SCORE.INTER.ROT>
12

>  <SCORE.INTER.SOLV>
24.0573

>  <SCORE.INTER.VDW>
-29.6875

>  <SCORE.INTER.norm>
-0.487178

>  <SCORE.INTRA>
-10.1491

>  <SCORE.INTRA.DIHEDRAL>
1.90963

>  <SCORE.INTRA.DIHEDRAL.0>
14.6094

>  <SCORE.INTRA.POLAR>
0

>  <SCORE.INTRA.POLAR.0>
0

>  <SCORE.INTRA.REPUL>
0

>  <SCORE.INTRA.REPUL.0>
0

>  <SCORE.INTRA.SOLV>
5.15525

>  <SCORE.INTRA.SOLV.lig_0>
-65.6478

>  <SCORE.INTRA.VDW>
-13.6815

>  <SCORE.INTRA.VDW.0>
9.35535

>  <SCORE.INTRA.norm>
-0.32739

>  <SCORE.RESTR>
0.0561646

>  <SCORE.RESTR.CAVITY>
0.0561646

>  <SCORE.RESTR.norm>
0.00181176

>  <SCORE.SYSTEM>
0

>  <SCORE.SYSTEM.CONST>
0

>  <SCORE.SYSTEM.DIHEDRAL>
0

>  <SCORE.SYSTEM.SOLV>
0

>  <SCORE.SYSTEM.norm>
0

>  <SCORE.heavy>
31

>  <SCORE.norm>
-0.812757

>  <RMSD>
7.494

$$$$
ligand
 OpenBabel11021811443D
libRbt.so/2013.1/901 2013/11/27
 31 32  0  0  0  0  0  0  0  0999 V2000
    7.3929   18.4951   47.4011 C   0  0  0  0  0  0  0  0  0  0  0  0
    7.5660   18.7518   45.9071 C   0  0  0  0  0  0  0  0  0  0  0  0
    8.3638   17.8654   45.1134 C   0  0  0  0  0  0  0  0  0  0  0  0
    8.5233   18.1108   43.7284 C   0  0  0  0  0  0  0  0  0  0  0  0
    7.8939   19.2233   43.1180 C   0  0  0  0  0  0  0  0  0  0  0  0
    7.1002   20.1025   43.8825 C   0  0  0  0  0  0  0  0  0  0  0  0
    6.9310   19.8768   45.2603 C   0  0  0  0  0  0  0  0  0  0  0  0
    7.2195   17.3478   47.8112 O   0  0  0  0  0  0  0  0  0  0  0  0
   -0.0288   16.2253   52.8757 C   0  0  0  0  0  0  0  0  0  0  0  0
    5.1188   19.3364   51.3249 C   0  0  0  0  0  0  0  0  0  0  0  0
    7.2138   23.0553   53.1221 P   0  0  1  0  0  0  0  0  0  0  0  0
    1.2857   17.6814   51.5023 N   0  0  0  0  0  0  0  0  0  0  0  0
    6.4377   22.8006   54.3508 O   0  0  0  0  0  0  0  0  0  0  0  0
    7.4274   19.5422   48.3055 S   0  0  0  0  0  0  0  0  0  0  0  0
    6.3839   16.3515   50.5711 C   0  0  0  0  0  0  0  0  0  0  0  0
    1.0797   16.3941   51.9446 C   0  0  0  0  0  0  0  0  0  0  0  0
    6.5754   24.0068   52.1727 O   0  5  0  0  0  0  0  0  0  0  0  0
    5.6671   17.3264   49.9589 N   0  0  0  0  0  0  0  0  0  0  0  0
    1.7984   15.3782   51.5822 N   0  0  0  0  0  0  0  0  0  0  0  0
    8.6106   23.4114   53.4633 O   0  0  0  0  0  0  0  0  0  0  0  0
    6.0438   18.6999   50.3232 C   0  0  2  0  0  0  0  0  0  0  0  0
    2.8522   15.5464   50.7043 C   0  0  0  0  0  0  0  0  0  0  0  0
    3.5739   14.4783   50.3562 N   0  0  0  0  0  0  0  0  0  0  0  0
    7.1956   19.4544   49.8384 C   0  0  1  0  0  0  0  0  0  0  0  0
    3.1399   16.8792   50.1978 C   0  0  0  0  0  0  0  0  0  0  0  0
    6.8632   15.5642   49.7851 O   0  0  0  0  0  0  0  0  0  0  0  0
    8.1775   20.1403   50.7206 C   0  0  0  0  0  0  0  0  0  0  0  0
    2.3102   17.8902   50.6385 C   0  0  0  0  0  0  0  0  0  0  0  0
    8.0046   21.5642   51.0342 C   0  0  0  0  0  0  0  0  0  0  0  0
    4.3040   17.1323   49.2711 C   0  0  0  0  0  0  0  0  0  0  0  0
    7.3086   21.7344   52.2813 O   0  0  0  0  0  0  0  0  0  0  0  0
  1  2  1  0  0  0  0
  1  8  2  0  0  0  0
  1 14  1  0  0  0  0
  2  3  2  0  0  0  0
  2  7  1  0  0  0  0
  3  4  1  0  0  0  0
  4  5  2  0  0  0  0
  5  6  1  0  0  0  0
  6  7  2  0  0  0  0
  9 16  1  0  0  0  0
 10 21  1  0  0  0  0
 11 13  1  1  0  0  0
 11 17  1  0  0  0  0
 11 20  2  0  0  0  0
 11 31  1  0  0  0  0
 12 16  2  0  0  0  0
 12 28  1  0  0  0  0
 15 26  1  0  0  0  0
 15 18  1  0  0  0  0
 16 19  1  0  0  0  0
 18 30  1  0  0  0  0
 19 22  2  0  0  0  0
 21 18  1  1  0  0  0
 21 24  1  0  0  0  0
 22 23  1  0  0  0  0
 22 25  1  0  0  0  0
 24 14  1  1  0  0  0
 24 27  1  0  0  0  0
 25 28  2  0  0  0  0
 25 30  1  0  0  0  0
 27 29  1  0  0  0  0
 29 31  1  0  0  0  0
M  CHG  1  17  -1
M  END
>  <CHROM.1>
-41.19515442,176.59822042,-47.32045486,-127.05195446,-100.96429456,71.05053746
-129.95965342,85.90094801,-83.42024699,95.11657117,165.06862912,-178.61285701
5.89197451,18.99202652,49.89091838,-0.22942538,-0.76306045,-2.17143950

>  <Name>
ligand

>  <RI>
0

>  <Rbt.Current_Directory>
/home/itssahil/PROJECTS/Mol_Feturizer/New_Systems/rnas/2HOO

>  <Rbt.Executable>
rbdock ($Id: //depot/dev/client3/rdock/2013.1/src/exe/rbdock.cxx#4 $)

>  <Rbt.Library>
libRbt.so (2013.1, Build901 2013/11/27)

>  <Rbt.Parameter_File>
/export/apps/rDock/src/rDock_2013.1_src/data/scripts/dock_solv.prm

>  <Rbt.Receptor>
prm/blind_docking_60.prm

>  <SCORE>
-21.9504

>  <SCORE.INTER>
-12.4919

>  <SCORE.INTER.CONST>
1

>  <SCORE.INTER.POLAR>
0

>  <SCORE.INTER.ROT>
12

>  <SCORE.INTER.SOLV>
17.5675

>  <SCORE.INTER.VDW>
-25.7838

>  <SCORE.INTER.norm>
-0.402966

>  <SCORE.INTRA>
-9.47184

>  <SCORE.INTRA.DIHEDRAL>
3.89415

>  <SCORE.INTRA.DIHEDRAL.0>
14.6094

>  <SCORE.INTRA.POLAR>
0

>  <SCORE.INTRA.POLAR.0>
0

>  <SCORE.INTRA.REPUL>
0

>  <SCORE.INTRA.REPUL.0>
0

>  <SCORE.INTRA.SOLV>
4.10822

>  <SCORE.INTRA.SOLV.lig_0>
-65.6478

>  <SCORE.INTRA.VDW>
-13.473

>  <SCORE.INTRA.VDW.0>
9.35535

>  <SCORE.INTRA.norm>
-0.305543

>  <SCORE.RESTR>
0.0133559

>  <SCORE.RESTR.CAVITY>
0.0133559

>  <SCORE.RESTR.norm>
0.000430837

>  <SCORE.SYSTEM>
0

>  <SCORE.SYSTEM.CONST>
0

>  <SCORE.SYSTEM.DIHEDRAL>
0

>  <SCORE.SYSTEM.SOLV>
0

>  <SCORE.SYSTEM.norm>
0

>  <SCORE.heavy>
31

>  <SCORE.norm>
-0.708079

>  <RMSD>
7.500

$$$$
ligand
 OpenBabel11021811443D
libRbt.so/2013.1/901 2013/11/27
 31 32  0  0  0  0  0  0  0  0999 V2000
    9.5217   17.6142   50.1209 C   0  0  0  0  0  0  0  0  0  0  0  0
    9.3441   17.3045   48.6375 C   0  0  0  0  0  0  0  0  0  0  0  0
    8.4135   18.0593   47.8523 C   0  0  0  0  0  0  0  0  0  0  0  0
    8.2508   17.7651   46.4773 C   0  0  0  0  0  0  0  0  0  0  0  0
    9.0068   16.7337   45.8682 C   0  0  0  0  0  0  0  0  0  0  0  0
    9.9316   15.9849   46.6241 C   0  0  0  0  0  0  0  0  0  0  0  0
   10.1064   16.2607   47.9921 C   0  0  0  0  0  0  0  0  0  0  0  0
   10.6238   17.9546   50.5498 O   0  0  0  0  0  0  0  0  0  0  0  0
    0.9850   15.0114   50.3384 C   0  0  0  0  0  0  0  0  0  0  0  0
    6.1467   17.6506   53.5277 C   0  0  0  0  0  0  0  0  0  0  0  0
   10.7272   21.9811   53.9983 P   0  0  1  0  0  0  0  0  0  0  0  0
    1.7099   17.2308   50.8704 N   0  0  0  0  0  0  0  0  0  0  0  0
   10.9530   20.6962   54.6874 O   0  0  0  0  0  0  0  0  0  0  0  0
    8.4531   17.5151   50.9951 S   0  0  0  0  0  0  0  0  0  0  0  0
    5.2950   20.5883   52.5182 C   0  0  0  0  0  0  0  0  0  0  0  0
    2.0462   16.0104   50.3294 C   0  0  0  0  0  0  0  0  0  0  0  0
    9.8084   22.9114   54.7086 O   0  5  0  0  0  0  0  0  0  0  0  0
    5.5045   19.4085   51.8834 N   0  0  0  0  0  0  0  0  0  0  0  0
    3.2122   15.7310   49.8372 N   0  0  0  0  0  0  0  0  0  0  0  0
   12.0220   22.5990   53.6295 O   0  0  0  0  0  0  0  0  0  0  0  0
    6.5907   18.5867   52.4365 C   0  0  2  0  0  0  0  0  0  0  0  0
    4.2159   16.6807   49.8379 C   0  0  0  0  0  0  0  0  0  0  0  0
    5.4061   16.3566   49.3267 N   0  0  0  0  0  0  0  0  0  0  0  0
    7.9904   18.5838   52.0221 C   0  0  1  0  0  0  0  0  0  0  0  0
    3.9416   17.9938   50.4003 C   0  0  0  0  0  0  0  0  0  0  0  0
    5.9229   21.4992   52.0247 O   0  0  0  0  0  0  0  0  0  0  0  0
    9.0150   19.5350   52.5303 C   0  0  0  0  0  0  0  0  0  0  0  0
    2.6666   18.1919   50.8902 C   0  0  0  0  0  0  0  0  0  0  0  0
    8.7626   20.9800   52.4664 C   0  0  0  0  0  0  0  0  0  0  0  0
    5.0103   19.0573   50.4687 C   0  0  0  0  0  0  0  0  0  0  0  0
    9.9819   21.7223   52.6424 O   0  0  0  0  0  0  0  0  0  0  0  0
  1  2  1  0  0  0  0
  1  8  2  0  0  0  0
  1 14  1  0  0  0  0
  2  3  2  0  0  0  0
  2  7  1  0  0  0  0
  3  4  1  0  0  0  0
  4  5  2  0  0  0  0
  5  6  1  0  0  0  0
  6  7  2  0  0  0  0
  9 16  1  0  0  0  0
 10 21  1  0  0  0  0
 11 13  1  1  0  0  0
 11 17  1  0  0  0  0
 11 20  2  0  0  0  0
 11 31  1  0  0  0  0
 12 16  2  0  0  0  0
 12 28  1  0  0  0  0
 15 26  1  0  0  0  0
 15 18  1  0  0  0  0
 16 19  1  0  0  0  0
 18 30  1  0  0  0  0
 19 22  2  0  0  0  0
 21 18  1  6  0  0  0
 21 24  1  0  0  0  0
 22 23  1  0  0  0  0
 22 25  1  0  0  0  0
 24 14  1  1  0  0  0
 24 27  1  0  0  0  0
 25 28  2  0  0  0  0
 25 30  1  0  0  0  0
 27 29  1  0  0  0  0
 29 31  1  0  0  0  0
M  CHG  1  17  -1
M  END
>  <CHROM.1>
-120.16713802,-129.99787272,154.27687405,91.91330425,88.98915915,-112.01837825
83.11412074,127.69568244,-111.07009066,-163.74613981,-77.02544494,52.68070284
7.39053342,18.73716140,51.13809855,-0.71741054,-0.22487530,-2.24387324

>  <Name>
ligand

>  <RI>
0

>  <Rbt.Current_Directory>
/home/itssahil/PROJECTS/Mol_Feturizer/New_Systems/rnas/2HOO

>  <Rbt.Executable>
rbdock ($Id: //depot/dev/client3/rdock/2013.1/src/exe/rbdock.cxx#4 $)

>  <Rbt.Library>
libRbt.so (2013.1, Build901 2013/11/27)

>  <Rbt.Parameter_File>
/export/apps/rDock/src/rDock_2013.1_src/data/scripts/dock_solv.prm

>  <Rbt.Receptor>
prm/blind_docking_80.prm

>  <SCORE>
-28.1193

>  <SCORE.INTER>
-16.6383

>  <SCORE.INTER.CONST>
1

>  <SCORE.INTER.POLAR>
0

>  <SCORE.INTER.ROT>
12

>  <SCORE.INTER.SOLV>
24.2637

>  <SCORE.INTER.VDW>
-30.7801

>  <SCORE.INTER.norm>
-0.53672

>  <SCORE.INTRA>
-11.6967

>  <SCORE.INTRA.DIHEDRAL>
2.62324

>  <SCORE.INTRA.DIHEDRAL.0>
14.6094

>  <SCORE.INTRA.POLAR>
0

>  <SCORE.INTRA.POLAR.0>
0

>  <SCORE.INTRA.REPUL>
0

>  <SCORE.INTRA.REPUL.0>
0

>  <SCORE.INTRA.SOLV>
2.64456

>  <SCORE.INTRA.SOLV.lig_0>
-65.6478

>  <SCORE.INTRA.VDW>
-14.3306

>  <SCORE.INTRA.VDW.0>
9.35535

>  <SCORE.INTRA.norm>
-0.377314

>  <SCORE.RESTR>
0.215723

>  <SCORE.RESTR.CAVITY>
0.215723

>  <SCORE.RESTR.norm>
0.00695882

>  <SCORE.SYSTEM>
0

>  <SCORE.SYSTEM.CONST>
0

>  <SCORE.SYSTEM.DIHEDRAL>
0

>  <SCORE.SYSTEM.SOLV>
0

>  <SCORE.SYSTEM.norm>
0

>  <SCORE.heavy>
31

>  <SCORE.norm>
-0.907075

>  <RMSD>
7.505

$$$$
ligand
 OpenBabel11021811443D
libRbt.so/2013.1/901 2013/11/27
 31 32  0  0  0  0  0  0  0  0999 V2000
    9.5796   19.1305   53.8474 C   0  0  0  0  0  0  0  0  0  0  0  0
   11.0644   19.2602   54.1740 C   0  0  0  0  0  0  0  0  0  0  0  0
   11.6379   20.5515   54.4106 C   0  0  0  0  0  0  0  0  0  0  0  0
   13.0167   20.6657   54.7098 C   0  0  0  0  0  0  0  0  0  0  0  0
   13.8344   19.5115   54.7844 C   0  0  0  0  0  0  0  0  0  0  0  0
   13.2857   18.2324   54.5606 C   0  0  0  0  0  0  0  0  0  0  0  0
   11.9184   18.0981   54.2601 C   0  0  0  0  0  0  0  0  0  0  0  0
    8.8390   18.4949   54.5971 O   0  0  0  0  0  0  0  0  0  0  0  0
    0.5073   23.9713   50.7003 C   0  0  0  0  0  0  0  0  0  0  0  0
    7.0460   22.1448   51.8868 C   0  0  0  0  0  0  0  0  0  0  0  0
    4.2858   17.2641   50.4152 P   0  0  1  0  0  0  0  0  0  0  0  0
    2.7244   23.0808   50.8615 N   0  0  0  0  0  0  0  0  0  0  0  0
    4.6882   18.5059   49.7276 O   0  0  0  0  0  0  0  0  0  0  0  0
    9.0529   19.7207   52.7117 S   0  0  0  0  0  0  0  0  0  0  0  0
    5.5982   21.7271   54.4128 C   0  0  0  0  0  0  0  0  0  0  0  0
    1.4117   22.9762   51.2625 C   0  0  0  0  0  0  0  0  0  0  0  0
    3.2210   17.4408   51.4395 O   0  5  0  0  0  0  0  0  0  0  0  0
    5.5321   20.8488   53.3817 N   0  0  0  0  0  0  0  0  0  0  0  0
    0.9723   22.0714   52.0801 N   0  0  0  0  0  0  0  0  0  0  0  0
    3.9807   16.2060   49.4245 O   0  0  0  0  0  0  0  0  0  0  0  0
    6.7174   20.8165   52.5128 C   0  0  2  0  0  0  0  0  0  0  0  0
    1.8364   21.1351   52.6148 C   0  0  0  0  0  0  0  0  0  0  0  0
    1.3499   20.2204   53.4572 N   0  0  0  0  0  0  0  0  0  0  0  0
    7.5753   19.6681   52.2371 C   0  0  1  0  0  0  0  0  0  0  0  0
    3.2426   21.1841   52.2462 C   0  0  0  0  0  0  0  0  0  0  0  0
    5.3333   21.2140   55.4777 O   0  0  0  0  0  0  0  0  0  0  0  0
    7.1302   18.4458   51.5155 C   0  0  0  0  0  0  0  0  0  0  0  0
    3.6059   22.1804   51.3628 C   0  0  0  0  0  0  0  0  0  0  0  0
    6.2805   17.4641   52.2011 C   0  0  0  0  0  0  0  0  0  0  0  0
    4.2417   20.2159   52.8312 C   0  0  0  0  0  0  0  0  0  0  0  0
    5.4923   16.7189   51.2566 O   0  0  0  0  0  0  0  0  0  0  0  0
  1  2  1  0  0  0  0
  1  8  2  0  0  0  0
  1 14  1  0  0  0  0
  2  3  2  0  0  0  0
  2  7  1  0  0  0  0
  3  4  1  0  0  0  0
  4  5  2  0  0  0  0
  5  6  1  0  0  0  0
  6  7  2  0  0  0  0
  9 16  1  0  0  0  0
 10 21  1  0  0  0  0
 11 13  1  6  0  0  0
 11 17  1  0  0  0  0
 11 20  2  0  0  0  0
 11 31  1  0  0  0  0
 12 16  2  0  0  0  0
 12 28  1  0  0  0  0
 15 26  1  0  0  0  0
 15 18  1  0  0  0  0
 16 19  1  0  0  0  0
 18 30  1  0  0  0  0
 19 22  2  0  0  0  0
 21 18  1  1  0  0  0
 21 24  1  0  0  0  0
 22 23  1  0  0  0  0
 22 25  1  0  0  0  0
 24 14  1  6  0  0  0
 24 27  1  0  0  0  0
 25 28  2  0  0  0  0
 25 30  1  0  0  0  0
 27 29  1  0  0  0  0
 29 31  1  0  0  0  0
M  CHG  1  17  -1
M  END
>  <CHROM.1>
-118.30172472,179.35542604,99.79222158,-128.79507085,-58.18810081,62.71124776
63.56616458,105.19382898,-131.42229763,154.35338987,-70.60596266,51.05640102
6.17339440,19.81284016,52.48425226,-0.04187544,-0.33072769,0.42582172

>  <Name>
ligand

>  <RI>
0

>  <Rbt.Current_Directory>
/home/itssahil/PROJECTS/Mol_Feturizer/New_Systems/rnas/2HOO

>  <Rbt.Executable>
rbdock ($Id: //depot/dev/client3/rdock/2013.1/src/exe/rbdock.cxx#4 $)

>  <Rbt.Library>
libRbt.so (2013.1, Build901 2013/11/27)

>  <Rbt.Parameter_File>
/export/apps/rDock/src/rDock_2013.1_src/data/scripts/dock_solv.prm

>  <Rbt.Receptor>
prm/pocket_docking_7.prm

>  <SCORE>
-33.6459

>  <SCORE.INTER>
-21.4935

>  <SCORE.INTER.CONST>
1

>  <SCORE.INTER.POLAR>
0

>  <SCORE.INTER.ROT>
12

>  <SCORE.INTER.SOLV>
11.8764

>  <SCORE.INTER.VDW>
-29.8878

>  <SCORE.INTER.norm>
-0.693339

>  <SCORE.INTRA>
-12.1524

>  <SCORE.INTRA.DIHEDRAL>
0.674221

>  <SCORE.INTRA.DIHEDRAL.0>
14.6094

>  <SCORE.INTRA.POLAR>
0

>  <SCORE.INTRA.POLAR.0>
0

>  <SCORE.INTRA.REPUL>
0

>  <SCORE.INTRA.REPUL.0>
0

>  <SCORE.INTRA.SOLV>
1.78491

>  <SCORE.INTRA.SOLV.lig_0>
-65.6478

>  <SCORE.INTRA.VDW>
-13.382

>  <SCORE.INTRA.VDW.0>
9.35535

>  <SCORE.INTRA.norm>
-0.392013

>  <SCORE.RESTR>
0

>  <SCORE.RESTR.CAVITY>
0

>  <SCORE.RESTR.norm>
0

>  <SCORE.SYSTEM>
0

>  <SCORE.SYSTEM.CONST>
0

>  <SCORE.SYSTEM.DIHEDRAL>
0

>  <SCORE.SYSTEM.SOLV>
0

>  <SCORE.SYSTEM.norm>
0

>  <SCORE.heavy>
31

>  <SCORE.norm>
-1.08535

>  <RMSD>
7.516

$$$$
ligand
 OpenBabel11021811443D
libRbt.so/2013.1/901 2013/11/27
 31 32  0  0  0  0  0  0  0  0999 V2000
    7.7761   17.7533   53.9779 C   0  0  0  0  0  0  0  0  0  0  0  0
    8.3799   19.1033   53.6024 C   0  0  0  0  0  0  0  0  0  0  0  0
    7.6159   20.0448   52.8394 C   0  0  0  0  0  0  0  0  0  0  0  0
    8.1828   21.2943   52.4912 C   0  0  0  0  0  0  0  0  0  0  0  0
    9.4987   21.6252   52.8975 C   0  0  0  0  0  0  0  0  0  0  0  0
   10.2627   20.7134   53.6539 C   0  0  0  0  0  0  0  0  0  0  0  0
    9.7181   19.4661   54.0083 C   0  0  0  0  0  0  0  0  0  0  0  0
    7.7263   17.4097   55.1585 O   0  0  0  0  0  0  0  0  0  0  0  0
    4.0604   11.8413   45.6694 C   0  0  0  0  0  0  0  0  0  0  0  0
    8.5370   17.8936   50.2881 C   0  0  0  0  0  0  0  0  0  0  0  0
    1.3764   16.5301   51.8899 P   0  0  1  0  0  0  0  0  0  0  0  0
    5.4072   13.8075   45.9028 N   0  0  0  0  0  0  0  0  0  0  0  0
    1.5349   15.2001   52.5086 O   0  0  0  0  0  0  0  0  0  0  0  0
    7.2824   16.9052   53.0018 S   0  0  0  0  0  0  0  0  0  0  0  0
    5.9653   17.3979   48.3964 C   0  0  0  0  0  0  0  0  0  0  0  0
    4.9153   12.6727   46.5073 C   0  0  0  0  0  0  0  0  0  0  0  0
    1.0939   16.5036   50.4292 O   0  5  0  0  0  0  0  0  0  0  0  0
    6.7026   16.5997   49.2077 N   0  0  0  0  0  0  0  0  0  0  0  0
    5.1712   12.3333   47.7318 N   0  0  0  0  0  0  0  0  0  0  0  0
    0.4081   17.3422   52.6627 O   0  0  0  0  0  0  0  0  0  0  0  0
    7.1898   17.2404   50.4379 C   0  0  2  0  0  0  0  0  0  0  0  0
    5.9771   13.1297   48.5228 C   0  0  0  0  0  0  0  0  0  0  0  0
    6.2159   12.7515   49.7809 N   0  0  0  0  0  0  0  0  0  0  0  0
    6.5020   17.3144   51.7233 C   0  0  1  0  0  0  0  0  0  0  0  0
    6.5294   14.3516   47.9590 C   0  0  0  0  0  0  0  0  0  0  0  0
    4.9035   16.8991   48.0943 O   0  0  0  0  0  0  0  0  0  0  0  0
    5.0887   17.7470   51.8918 C   0  0  0  0  0  0  0  0  0  0  0  0
    6.2033   14.6170   46.6445 C   0  0  0  0  0  0  0  0  0  0  0  0
    4.0002   16.8734   51.4362 C   0  0  0  0  0  0  0  0  0  0  0  0
    7.3802   15.2834   48.7869 C   0  0  0  0  0  0  0  0  0  0  0  0
    2.7365   17.3078   51.9681 O   0  0  0  0  0  0  0  0  0  0  0  0
  1  2  1  0  0  0  0
  1  8  2  0  0  0  0
  1 14  1  0  0  0  0
  2  3  2  0  0  0  0
  2  7  1  0  0  0  0
  3  4  1  0  0  0  0
  4  5  2  0  0  0  0
  5  6  1  0  0  0  0
  6  7  2  0  0  0  0
  9 16  1  0  0  0  0
 10 21  1  0  0  0  0
 11 13  1  1  0  0  0
 11 17  1  0  0  0  0
 11 20  2  0  0  0  0
 11 31  1  0  0  0  0
 12 16  2  0  0  0  0
 12 28  1  0  0  0  0
 15 26  1  0  0  0  0
 15 18  1  0  0  0  0
 16 19  1  0  0  0  0
 18 30  1  0  0  0  0
 19 22  2  0  0  0  0
 21 18  1  6  0  0  0
 21 24  1  0  0  0  0
 22 23  1  0  0  0  0
 22 25  1  0  0  0  0
 24 14  1  6  0  0  0
 24 27  1  0  0  0  0
 25 28  2  0  0  0  0
 25 30  1  0  0  0  0
 27 29  1  0  0  0  0
 29 31  1  0  0  0  0
M  CHG  1  17  -1
M  END
>  <CHROM.1>
-124.30765879,-38.15249880,106.45850109,-128.08942914,-90.06157298,-45.02176126
-50.84796025,-108.35726968,-106.71285975,166.12638569,-170.48458200,57.37643640
5.66754999,16.59174403,50.77604561,-1.08606340,-0.21373982,-2.24959989

>  <Name>
ligand

>  <RI>
0

>  <Rbt.Current_Directory>
/home/itssahil/PROJECTS/Mol_Feturizer/New_Systems/rnas/2HOO

>  <Rbt.Executable>
rbdock ($Id: //depot/dev/client3/rdock/2013.1/src/exe/rbdock.cxx#4 $)

>  <Rbt.Library>
libRbt.so (2013.1, Build901 2013/11/27)

>  <Rbt.Parameter_File>
/export/apps/rDock/src/rDock_2013.1_src/data/scripts/dock_solv.prm

>  <Rbt.Receptor>
prm/pocket_docking_7.prm

>  <SCORE>
-21.6867

>  <SCORE.INTER>
-7.62783

>  <SCORE.INTER.CONST>
1

>  <SCORE.INTER.POLAR>
0

>  <SCORE.INTER.ROT>
12

>  <SCORE.INTER.SOLV>
20.1362

>  <SCORE.INTER.VDW>
-23.3973

>  <SCORE.INTER.norm>
-0.246059

>  <SCORE.INTRA>
-14.0589

>  <SCORE.INTRA.DIHEDRAL>
0.0883454

>  <SCORE.INTRA.DIHEDRAL.0>
14.6094

>  <SCORE.INTRA.POLAR>
0

>  <SCORE.INTRA.POLAR.0>
0

>  <SCORE.INTRA.REPUL>
0

>  <SCORE.INTRA.REPUL.0>
0

>  <SCORE.INTRA.SOLV>
-0.50251

>  <SCORE.INTRA.SOLV.lig_0>
-65.6478

>  <SCORE.INTRA.VDW>
-13.8518

>  <SCORE.INTRA.VDW.0>
9.35535

>  <SCORE.INTRA.norm>
-0.453512

>  <SCORE.RESTR>
0

>  <SCORE.RESTR.CAVITY>
0

>  <SCORE.RESTR.norm>
0

>  <SCORE.SYSTEM>
0

>  <SCORE.SYSTEM.CONST>
0

>  <SCORE.SYSTEM.DIHEDRAL>
0

>  <SCORE.SYSTEM.SOLV>
0

>  <SCORE.SYSTEM.norm>
0

>  <SCORE.heavy>
31

>  <SCORE.norm>
-0.699571

>  <RMSD>
7.516

$$$$
ligand
 OpenBabel11021811443D
libRbt.so/2013.1/901 2013/11/27
 31 32  0  0  0  0  0  0  0  0999 V2000
    4.4670   17.0398   49.9147 C   0  0  0  0  0  0  0  0  0  0  0  0
    3.2204   16.1734   50.0678 C   0  0  0  0  0  0  0  0  0  0  0  0
    2.6655   15.9362   51.3670 C   0  0  0  0  0  0  0  0  0  0  0  0
    1.5108   15.1287   51.5030 C   0  0  0  0  0  0  0  0  0  0  0  0
    0.8940   14.5581   50.3627 C   0  0  0  0  0  0  0  0  0  0  0  0
    1.4228   14.7860   49.0760 C   0  0  0  0  0  0  0  0  0  0  0  0
    2.5705   15.5838   48.9202 C   0  0  0  0  0  0  0  0  0  0  0  0
    4.3652   18.2662   49.9040 O   0  0  0  0  0  0  0  0  0  0  0  0
    3.2021   15.4885   44.1318 C   0  0  0  0  0  0  0  0  0  0  0  0
    9.4614   17.7240   49.8804 C   0  0  0  0  0  0  0  0  0  0  0  0
    6.5978   20.4308   51.8589 P   0  0  1  0  0  0  0  0  0  0  0  0
    4.3410   16.1270   46.1391 N   0  0  0  0  0  0  0  0  0  0  0  0
    6.4476   20.0778   50.4343 O   0  0  0  0  0  0  0  0  0  0  0  0
    5.7173   16.4604   49.7855 S   0  0  0  0  0  0  0  0  0  0  0  0
    7.8083   19.3266   47.8544 C   0  0  0  0  0  0  0  0  0  0  0  0
    4.4453   15.8675   44.7912 C   0  0  0  0  0  0  0  0  0  0  0  0
    7.6309   21.4656   52.1347 O   0  5  0  0  0  0  0  0  0  0  0  0
    7.8001   17.9836   48.0422 N   0  0  0  0  0  0  0  0  0  0  0  0
    5.5520   15.9440   44.1207 N   0  0  0  0  0  0  0  0  0  0  0  0
    5.2766   20.7447   52.4508 O   0  0  0  0  0  0  0  0  0  0  0  0
    8.0383   17.5457   49.4251 C   0  0  2  0  0  0  0  0  0  0  0  0
    6.7284   16.2973   44.7535 C   0  0  0  0  0  0  0  0  0  0  0  0
    7.8504   16.3618   44.0324 N   0  0  0  0  0  0  0  0  0  0  0  0
    7.0558   17.0013   50.3574 C   0  0  1  0  0  0  0  0  0  0  0  0
    6.7026   16.5793   46.1802 C   0  0  0  0  0  0  0  0  0  0  0  0
    7.0392   19.6791   46.9874 O   0  0  0  0  0  0  0  0  0  0  0  0
    7.2460   16.9400   51.8315 C   0  0  0  0  0  0  0  0  0  0  0  0
    5.4729   16.4780   46.7986 C   0  0  0  0  0  0  0  0  0  0  0  0
    6.5266   17.8816   52.6985 C   0  0  0  0  0  0  0  0  0  0  0  0
    7.9627   16.9276   46.9344 C   0  0  0  0  0  0  0  0  0  0  0  0
    7.1302   19.1863   52.6518 O   0  0  0  0  0  0  0  0  0  0  0  0
  1  2  1  0  0  0  0
  1  8  2  0  0  0  0
  1 14  1  0  0  0  0
  2  3  2  0  0  0  0
  2  7  1  0  0  0  0
  3  4  1  0  0  0  0
  4  5  2  0  0  0  0
  5  6  1  0  0  0  0
  6  7  2  0  0  0  0
  9 16  1  0  0  0  0
 10 21  1  0  0  0  0
 11 13  1  6  0  0  0
 11 17  1  0  0  0  0
 11 20  2  0  0  0  0
 11 31  1  0  0  0  0
 12 16  2  0  0  0  0
 12 28  1  0  0  0  0
 15 26  1  0  0  0  0
 15 18  1  0  0  0  0
 16 19  1  0  0  0  0
 18 30  1  0  0  0  0
 19 22  2  0  0  0  0
 21 18  1  1  0  0  0
 21 24  1  0  0  0  0
 22 23  1  0  0  0  0
 22 25  1  0  0  0  0
 24 14  1  1  0  0  0
 24 27  1  0  0  0  0
 25 28  2  0  0  0  0
 25 30  1  0  0  0  0
 27 29  1  0  0  0  0
 29 31  1  0  0  0  0
M  CHG  1  17  -1
M  END
>  <CHROM.1>
-81.59926265,-144.34353540,-108.80586583,-146.84771584,-72.29844430,-83.40405789
-163.41372263,-74.17412835,143.17334017,-76.23953652,102.65671544,-55.85495928
5.73495805,17.50700795,49.08248062,1.26751130,0.56001481,1.20065270

>  <Name>
ligand

>  <RI>
0

>  <Rbt.Current_Directory>
/home/itssahil/PROJECTS/Mol_Feturizer/New_Systems/rnas/2HOO

>  <Rbt.Executable>
rbdock ($Id: //depot/dev/client3/rdock/2013.1/src/exe/rbdock.cxx#4 $)

>  <Rbt.Library>
libRbt.so (2013.1, Build901 2013/11/27)

>  <Rbt.Parameter_File>
/export/apps/rDock/src/rDock_2013.1_src/data/scripts/dock_solv.prm

>  <Rbt.Receptor>
prm/pocket_docking_7.prm

>  <SCORE>
-20.0092

>  <SCORE.INTER>
-9.19879

>  <SCORE.INTER.CONST>
1

>  <SCORE.INTER.POLAR>
0

>  <SCORE.INTER.ROT>
12

>  <SCORE.INTER.SOLV>
8.46669

>  <SCORE.INTER.VDW>
-20.5548

>  <SCORE.INTER.norm>
-0.296735

>  <SCORE.INTRA>
-10.8104

>  <SCORE.INTRA.DIHEDRAL>
7.90181

>  <SCORE.INTRA.DIHEDRAL.0>
14.6094

>  <SCORE.INTRA.POLAR>
0

>  <SCORE.INTRA.POLAR.0>
0

>  <SCORE.INTRA.REPUL>
0

>  <SCORE.INTRA.REPUL.0>
0

>  <SCORE.INTRA.SOLV>
1.84835

>  <SCORE.INTRA.SOLV.lig_0>
-65.6478

>  <SCORE.INTRA.VDW>
-15.6855

>  <SCORE.INTRA.VDW.0>
9.35535

>  <SCORE.INTRA.norm>
-0.348724

>  <SCORE.RESTR>
0

>  <SCORE.RESTR.CAVITY>
0

>  <SCORE.RESTR.norm>
0

>  <SCORE.SYSTEM>
0

>  <SCORE.SYSTEM.CONST>
0

>  <SCORE.SYSTEM.DIHEDRAL>
0

>  <SCORE.SYSTEM.SOLV>
0

>  <SCORE.SYSTEM.norm>
0

>  <SCORE.heavy>
31

>  <SCORE.norm>
-0.645459

>  <RMSD>
7.517

$$$$
ligand
 OpenBabel11021811443D
libRbt.so/2013.1/901 2013/11/27
 31 32  0  0  0  0  0  0  0  0999 V2000
    9.8196   20.5325   53.4731 C   0  0  0  0  0  0  0  0  0  0  0  0
   11.1347   19.9681   54.0025 C   0  0  0  0  0  0  0  0  0  0  0  0
   12.0991   20.8388   54.6058 C   0  0  0  0  0  0  0  0  0  0  0  0
   13.3187   20.3098   55.0921 C   0  0  0  0  0  0  0  0  0  0  0  0
   13.5912   18.9233   54.9936 C   0  0  0  0  0  0  0  0  0  0  0  0
   12.6511   18.0509   54.4085 C   0  0  0  0  0  0  0  0  0  0  0  0
   11.4343   18.5574   53.9178 C   0  0  0  0  0  0  0  0  0  0  0  0
    9.3282   21.5345   53.9915 O   0  0  0  0  0  0  0  0  0  0  0  0
    0.1719   17.5589   51.8813 C   0  0  0  0  0  0  0  0  0  0  0  0
    6.8649   18.4822   54.0789 C   0  0  0  0  0  0  0  0  0  0  0  0
    5.3077   16.8499   49.9705 P   0  0  1  0  0  0  0  0  0  0  0  0
    2.5218   17.7953   52.2766 N   0  0  0  0  0  0  0  0  0  0  0  0
    4.4466   17.1812   48.8192 O   0  0  0  0  0  0  0  0  0  0  0  0
    9.1685   19.9273   52.4122 S   0  0  0  0  0  0  0  0  0  0  0  0
    5.4639   21.7260   52.9249 C   0  0  0  0  0  0  0  0  0  0  0  0
    1.2519   18.2012   52.6196 C   0  0  0  0  0  0  0  0  0  0  0  0
    4.5849   16.2839   51.1416 O   0  5  0  0  0  0  0  0  0  0  0  0
    5.6234   20.6026   53.6674 N   0  0  0  0  0  0  0  0  0  0  0  0
    0.9941   19.0884   53.5288 N   0  0  0  0  0  0  0  0  0  0  0  0
    6.4553   16.0230   49.5304 O   0  0  0  0  0  0  0  0  0  0  0  0
    6.7272   19.7278   53.2460 C   0  0  2  0  0  0  0  0  0  0  0  0
    2.0232   19.6984   54.2203 C   0  0  0  0  0  0  0  0  0  0  0  0
    1.7209   20.6110   55.1470 N   0  0  0  0  0  0  0  0  0  0  0  0
    7.6419   19.9414   52.1286 C   0  0  1  0  0  0  0  0  0  0  0  0
    3.3954   19.3294   53.9095 C   0  0  0  0  0  0  0  0  0  0  0  0
    4.5710   21.6231   52.1128 O   0  0  0  0  0  0  0  0  0  0  0  0
    7.2072   20.1860   50.7271 C   0  0  0  0  0  0  0  0  0  0  0  0
    3.5611   18.3692   52.9321 C   0  0  0  0  0  0  0  0  0  0  0  0
    6.8405   19.0518   49.8698 C   0  0  0  0  0  0  0  0  0  0  0  0
    4.5622   19.9924   54.6003 C   0  0  0  0  0  0  0  0  0  0  0  0
    5.9340   18.1662   50.5500 O   0  0  0  0  0  0  0  0  0  0  0  0
  1  2  1  0  0  0  0
  1  8  2  0  0  0  0
  1 14  1  0  0  0  0
  2  3  2  0  0  0  0
  2  7  1  0  0  0  0
  3  4  1  0  0  0  0
  4  5  2  0  0  0  0
  5  6  1  0  0  0  0
  6  7  2  0  0  0  0
  9 16  1  0  0  0  0
 10 21  1  0  0  0  0
 11 13  1  6  0  0  0
 11 17  1  0  0  0  0
 11 20  2  0  0  0  0
 11 31  1  0  0  0  0
 12 16  2  0  0  0  0
 12 28  1  0  0  0  0
 15 26  1  0  0  0  0
 15 18  1  0  0  0  0
 16 19  1  0  0  0  0
 18 30  1  0  0  0  0
 19 22  2  0  0  0  0
 21 18  1  6  0  0  0
 21 24  1  0  0  0  0
 22 23  1  0  0  0  0
 22 25  1  0  0  0  0
 24 14  1  1  0  0  0
 24 27  1  0  0  0  0
 25 28  2  0  0  0  0
 25 30  1  0  0  0  0
 27 29  1  0  0  0  0
 29 31  1  0  0  0  0
M  CHG  1  17  -1
M  END
>  <CHROM.1>
-29.28581303,152.07813416,-43.40469739,100.19482732,-179.23006368,72.07110162
-55.96077190,98.69874957,-126.23984210,48.29128858,179.66239422,-63.63951559
6.39647449,19.10598348,52.57647563,0.25670542,-0.00129950,0.89181561

>  <Name>
ligand

>  <RI>
0

>  <Rbt.Current_Directory>
/home/itssahil/PROJECTS/Mol_Feturizer/New_Systems/rnas/2HOO

>  <Rbt.Executable>
rbdock ($Id: //depot/dev/client3/rdock/2013.1/src/exe/rbdock.cxx#4 $)

>  <Rbt.Library>
libRbt.so (2013.1, Build901 2013/11/27)

>  <Rbt.Parameter_File>
/export/apps/rDock/src/rDock_2013.1_src/data/scripts/dock_solv.prm

>  <Rbt.Receptor>
prm/pocket_docking_2.prm

>  <SCORE>
-27.193

>  <SCORE.INTER>
-18.4111

>  <SCORE.INTER.CONST>
1

>  <SCORE.INTER.POLAR>
0

>  <SCORE.INTER.ROT>
12

>  <SCORE.INTER.SOLV>
10.9659

>  <SCORE.INTER.VDW>
-27.5294

>  <SCORE.INTER.norm>
-0.593908

>  <SCORE.INTRA>
-9.80169

>  <SCORE.INTRA.DIHEDRAL>
-0.452469

>  <SCORE.INTRA.DIHEDRAL.0>
14.6094

>  <SCORE.INTRA.POLAR>
0

>  <SCORE.INTRA.POLAR.0>
0

>  <SCORE.INTRA.REPUL>
0

>  <SCORE.INTRA.REPUL.0>
0

>  <SCORE.INTRA.SOLV>
1.95291

>  <SCORE.INTRA.SOLV.lig_0>
-65.6478

>  <SCORE.INTRA.VDW>
-10.5519

>  <SCORE.INTRA.VDW.0>
9.35535

>  <SCORE.INTRA.norm>
-0.316184

>  <SCORE.RESTR>
1.01985

>  <SCORE.RESTR.CAVITY>
1.01985

>  <SCORE.RESTR.norm>
0.0328984

>  <SCORE.SYSTEM>
0

>  <SCORE.SYSTEM.CONST>
0

>  <SCORE.SYSTEM.DIHEDRAL>
0

>  <SCORE.SYSTEM.SOLV>
0

>  <SCORE.SYSTEM.norm>
0

>  <SCORE.heavy>
31

>  <SCORE.norm>
-0.877193

>  <RMSD>
7.524

$$$$
ligand
 OpenBabel11021811443D
libRbt.so/2013.1/901 2013/11/27
 31 32  0  0  0  0  0  0  0  0999 V2000
    9.7660   19.3504   53.6858 C   0  0  0  0  0  0  0  0  0  0  0  0
   11.2237   19.2914   54.1327 C   0  0  0  0  0  0  0  0  0  0  0  0
   11.9157   20.4945   54.4874 C   0  0  0  0  0  0  0  0  0  0  0  0
   13.2690   20.4337   54.8981 C   0  0  0  0  0  0  0  0  0  0  0  0
   13.9439   19.1905   54.9684 C   0  0  0  0  0  0  0  0  0  0  0  0
   13.2768   17.9959   54.6290 C   0  0  0  0  0  0  0  0  0  0  0  0
   11.9327   18.0355   54.2169 C   0  0  0  0  0  0  0  0  0  0  0  0
    8.8923   19.6907   54.4828 O   0  0  0  0  0  0  0  0  0  0  0  0
   -0.4233   19.3515   53.2011 C   0  0  0  0  0  0  0  0  0  0  0  0
    8.0123   21.8490   51.8644 C   0  0  0  0  0  0  0  0  0  0  0  0
    4.5967   16.0233   49.5570 P   0  0  1  0  0  0  0  0  0  0  0  0
    1.5799   18.9874   51.9406 N   0  0  0  0  0  0  0  0  0  0  0  0
    4.5189   14.8403   50.4352 O   0  0  0  0  0  0  0  0  0  0  0  0
    9.4121   19.0228   52.3884 S   0  0  0  0  0  0  0  0  0  0  0  0
    5.9084   20.8025   53.9421 C   0  0  0  0  0  0  0  0  0  0  0  0
    0.9201   19.7896   52.8441 C   0  0  0  0  0  0  0  0  0  0  0  0
    4.6576   15.7122   48.1032 O   0  5  0  0  0  0  0  0  0  0  0  0
    5.9715   20.6237   52.5994 N   0  0  0  0  0  0  0  0  0  0  0  0
    1.4238   20.8653   53.3629 N   0  0  0  0  0  0  0  0  0  0  0  0
    3.5330   16.9926   49.9081 O   0  0  0  0  0  0  0  0  0  0  0  0
    7.3299   20.5204   52.0470 C   0  0  2  0  0  0  0  0  0  0  0  0
    2.6956   21.2787   53.0149 C   0  0  0  0  0  0  0  0  0  0  0  0
    3.1807   22.3941   53.5656 N   0  0  0  0  0  0  0  0  0  0  0  0
    8.0479   19.2979   51.6996 C   0  0  1  0  0  0  0  0  0  0  0  0
    3.4550   20.4885   52.0585 C   0  0  0  0  0  0  0  0  0  0  0  0
    5.2435   19.9529   54.4931 O   0  0  0  0  0  0  0  0  0  0  0  0
    7.5636   18.2952   50.7132 C   0  0  0  0  0  0  0  0  0  0  0  0
    2.8317   19.3572   51.5724 C   0  0  0  0  0  0  0  0  0  0  0  0
    6.2159   17.7293   50.8517 C   0  0  0  0  0  0  0  0  0  0  0  0
    4.8312   20.9129   51.6070 C   0  0  0  0  0  0  0  0  0  0  0  0
    5.9511   16.7732   49.8103 O   0  0  0  0  0  0  0  0  0  0  0  0
  1  2  1  0  0  0  0
  1  8  2  0  0  0  0
  1 14  1  0  0  0  0
  2  3  2  0  0  0  0
  2  7  1  0  0  0  0
  3  4  1  0  0  0  0
  4  5  2  0  0  0  0
  5  6  1  0  0  0  0
  6  7  2  0  0  0  0
  9 16  1  0  0  0  0
 10 21  1  0  0  0  0
 11 13  1  1  0  0  0
 11 17  1  0  0  0  0
 11 20  2  0  0  0  0
 11 31  1  0  0  0  0
 12 16  2  0  0  0  0
 12 28  1  0  0  0  0
 15 26  1  0  0  0  0
 15 18  1  0  0  0  0
 16 19  1  0  0  0  0
 18 30  1  0  0  0  0
 19 22  2  0  0  0  0
 21 18  1  1  0  0  0
 21 24  1  0  0  0  0
 22 23  1  0  0  0  0
 22 25  1  0  0  0  0
 24 14  1  6  0  0  0
 24 27  1  0  0  0  0
 25 28  2  0  0  0  0
 25 30  1  0  0  0  0
 27 29  1  0  0  0  0
 29 31  1  0  0  0  0
M  CHG  1  17  -1
M  END
>  <CHROM.1>
-66.40786336,-166.80625992,34.67292581,-123.87150575,-79.85878128,-41.57947949
56.89424449,127.36485533,78.13455729,-179.35408485,-175.71759264,-83.50745310
6.40224706,19.04549726,52.28663378,0.22996516,-0.16281403,0.68897894

>  <Name>
ligand

>  <RI>
0

>  <Rbt.Current_Directory>
/home/itssahil/PROJECTS/Mol_Feturizer/New_Systems/rnas/2HOO

>  <Rbt.Executable>
rbdock ($Id: //depot/dev/client3/rdock/2013.1/src/exe/rbdock.cxx#4 $)

>  <Rbt.Library>
libRbt.so (2013.1, Build901 2013/11/27)

>  <Rbt.Parameter_File>
/export/apps/rDock/src/rDock_2013.1_src/data/scripts/dock_solv.prm

>  <Rbt.Receptor>
prm/pocket_docking_2.prm

>  <SCORE>
-27.0053

>  <SCORE.INTER>
-16.4524

>  <SCORE.INTER.CONST>
1

>  <SCORE.INTER.POLAR>
0

>  <SCORE.INTER.ROT>
12

>  <SCORE.INTER.SOLV>
13.0467

>  <SCORE.INTER.VDW>
-26.9172

>  <SCORE.INTER.norm>
-0.530724

>  <SCORE.INTRA>
-12.4194

>  <SCORE.INTRA.DIHEDRAL>
-0.932797

>  <SCORE.INTRA.DIHEDRAL.0>
14.6094

>  <SCORE.INTRA.POLAR>
0

>  <SCORE.INTRA.POLAR.0>
0

>  <SCORE.INTRA.REPUL>
0

>  <SCORE.INTRA.REPUL.0>
0

>  <SCORE.INTRA.SOLV>
4.34942

>  <SCORE.INTRA.SOLV.lig_0>
-65.6478

>  <SCORE.INTRA.VDW>
-14.1277

>  <SCORE.INTRA.VDW.0>
9.35535

>  <SCORE.INTRA.norm>
-0.400625

>  <SCORE.RESTR>
1.86656

>  <SCORE.RESTR.CAVITY>
1.86656

>  <SCORE.RESTR.norm>
0.0602117

>  <SCORE.SYSTEM>
0

>  <SCORE.SYSTEM.CONST>
0

>  <SCORE.SYSTEM.DIHEDRAL>
0

>  <SCORE.SYSTEM.SOLV>
0

>  <SCORE.SYSTEM.norm>
0

>  <SCORE.heavy>
31

>  <SCORE.norm>
-0.871138

>  <RMSD>
7.551

$$$$
ligand
 OpenBabel11021811443D
libRbt.so/2013.1/901 2013/11/27
 31 32  0  0  0  0  0  0  0  0999 V2000
    2.5402   18.0658   51.6451 C   0  0  0  0  0  0  0  0  0  0  0  0
    2.2584   17.2383   52.8957 C   0  0  0  0  0  0  0  0  0  0  0  0
    2.7079   17.6960   54.1765 C   0  0  0  0  0  0  0  0  0  0  0  0
    2.4463   16.9222   55.3326 C   0  0  0  0  0  0  0  0  0  0  0  0
    1.7364   15.7005   55.2347 C   0  0  0  0  0  0  0  0  0  0  0  0
    1.2812   15.2377   53.9833 C   0  0  0  0  0  0  0  0  0  0  0  0
    1.5327   15.9912   52.8227 C   0  0  0  0  0  0  0  0  0  0  0  0
    1.7776   18.9777   51.3271 O   0  0  0  0  0  0  0  0  0  0  0  0
    1.2611   24.7872   50.3002 C   0  0  0  0  0  0  0  0  0  0  0  0
    5.9021   18.0615   53.6567 C   0  0  0  0  0  0  0  0  0  0  0  0
    9.2555   17.4541   49.2416 P   0  0  1  0  0  0  0  0  0  0  0  0
    2.3533   22.6609   50.4428 N   0  0  0  0  0  0  0  0  0  0  0  0
   10.0672   16.8306   48.1790 O   0  0  0  0  0  0  0  0  0  0  0  0
    3.6482   17.8011   50.8590 S   0  0  0  0  0  0  0  0  0  0  0  0
    6.1475   21.0438   51.9975 C   0  0  0  0  0  0  0  0  0  0  0  0
    1.9246   23.7807   51.1192 C   0  0  0  0  0  0  0  0  0  0  0  0
   10.0145   17.8138   50.4699 O   0  5  0  0  0  0  0  0  0  0  0  0
    5.2701   20.2617   52.6738 N   0  0  0  0  0  0  0  0  0  0  0  0
    2.0811   23.9637   52.3928 N   0  0  0  0  0  0  0  0  0  0  0  0
    8.4631   18.5768   48.6886 O   0  0  0  0  0  0  0  0  0  0  0  0
    5.4198   18.8168   52.4480 C   0  0  2  0  0  0  0  0  0  0  0  0
    2.7170   23.0083   53.1623 C   0  0  0  0  0  0  0  0  0  0  0  0
    2.8646   23.2323   54.4703 N   0  0  0  0  0  0  0  0  0  0  0  0
    5.1320   18.0839   51.2188 C   0  0  1  0  0  0  0  0  0  0  0  0
    3.2071   21.7991   52.5192 C   0  0  0  0  0  0  0  0  0  0  0  0
    6.6632   21.8817   52.7042 O   0  0  0  0  0  0  0  0  0  0  0  0
    6.1727   17.5744   50.2859 C   0  0  0  0  0  0  0  0  0  0  0  0
    2.9823   21.6980   51.1613 C   0  0  0  0  0  0  0  0  0  0  0  0
    7.2048   16.6536   50.7786 C   0  0  0  0  0  0  0  0  0  0  0  0
    3.9477   20.7403   53.2991 C   0  0  0  0  0  0  0  0  0  0  0  0
    8.2046   16.4172   49.7720 O   0  0  0  0  0  0  0  0  0  0  0  0
  1  2  1  0  0  0  0
  1  8  2  0  0  0  0
  1 14  1  0  0  0  0
  2  3  2  0  0  0  0
  2  7  1  0  0  0  0
  3  4  1  0  0  0  0
  4  5  2  0  0  0  0
  5  6  1  0  0  0  0
  6  7  2  0  0  0  0
  9 16  1  0  0  0  0
 10 21  1  0  0  0  0
 11 13  1  6  0  0  0
 11 17  1  0  0  0  0
 11 20  2  0  0  0  0
 11 31  1  0  0  0  0
 12 16  2  0  0  0  0
 12 28  1  0  0  0  0
 15 26  1  0  0  0  0
 15 18  1  0  0  0  0
 16 19  1  0  0  0  0
 18 30  1  0  0  0  0
 19 22  2  0  0  0  0
 21 18  1  1  0  0  0
 21 24  1  0  0  0  0
 22 23  1  0  0  0  0
 22 25  1  0  0  0  0
 24 14  1  1  0  0  0
 24 27  1  0  0  0  0
 25 28  2  0  0  0  0
 25 30  1  0  0  0  0
 27 29  1  0  0  0  0
 29 31  1  0  0  0  0
M  CHG  1  17  -1
M  END
>  <CHROM.1>
-85.28208610,-71.40904463,-6.30756732,-132.35036741,112.10647527,36.22094237
102.74588611,-121.85554460,-130.81317221,-172.65552357,69.03526438,-178.00687991
4.74827196,19.19981681,51.67076462,2.68239456,0.51592051,-0.19952853

>  <Name>
ligand

>  <RI>
0

>  <Rbt.Current_Directory>
/home/itssahil/PROJECTS/Mol_Feturizer/New_Systems/rnas/2HOO

>  <Rbt.Executable>
rbdock ($Id: //depot/dev/client3/rdock/2013.1/src/exe/rbdock.cxx#4 $)

>  <Rbt.Library>
libRbt.so (2013.1, Build901 2013/11/27)

>  <Rbt.Parameter_File>
/export/apps/rDock/src/rDock_2013.1_src/data/scripts/dock_solv.prm

>  <Rbt.Receptor>
prm/pocket_docking_6.prm

>  <SCORE>
-29.3823

>  <SCORE.INTER>
-15.6754

>  <SCORE.INTER.CONST>
1

>  <SCORE.INTER.POLAR>
0

>  <SCORE.INTER.ROT>
12

>  <SCORE.INTER.SOLV>
13.0955

>  <SCORE.INTER.VDW>
-26.4155

>  <SCORE.INTER.norm>
-0.50566

>  <SCORE.INTRA>
-13.7069

>  <SCORE.INTRA.DIHEDRAL>
1.94913

>  <SCORE.INTRA.DIHEDRAL.0>
14.6094

>  <SCORE.INTRA.POLAR>
0

>  <SCORE.INTRA.POLAR.0>
0

>  <SCORE.INTRA.REPUL>
0

>  <SCORE.INTRA.REPUL.0>
0

>  <SCORE.INTRA.SOLV>
1.71767

>  <SCORE.INTRA.SOLV.lig_0>
-65.6478

>  <SCORE.INTRA.VDW>
-15.5403

>  <SCORE.INTRA.VDW.0>
9.35535

>  <SCORE.INTRA.norm>
-0.442157

>  <SCORE.RESTR>
0

>  <SCORE.RESTR.CAVITY>
0

>  <SCORE.RESTR.norm>
0

>  <SCORE.SYSTEM>
0

>  <SCORE.SYSTEM.CONST>
0

>  <SCORE.SYSTEM.DIHEDRAL>
0

>  <SCORE.SYSTEM.SOLV>
0

>  <SCORE.SYSTEM.norm>
0

>  <SCORE.heavy>
31

>  <SCORE.norm>
-0.947817

>  <RMSD>
7.560

$$$$
ligand
 OpenBabel11021811443D
libRbt.so/2013.1/901 2013/11/27
 31 32  0  0  0  0  0  0  0  0999 V2000
    8.9038   20.3011   52.6850 C   0  0  0  0  0  0  0  0  0  0  0  0
   10.2703   20.3017   53.3639 C   0  0  0  0  0  0  0  0  0  0  0  0
   10.9637   19.0676   53.5841 C   0  0  0  0  0  0  0  0  0  0  0  0
   12.2297   19.0744   54.2174 C   0  0  0  0  0  0  0  0  0  0  0  0
   12.8210   20.2936   54.6297 C   0  0  0  0  0  0  0  0  0  0  0  0
   12.1558   21.5179   54.4155 C   0  0  0  0  0  0  0  0  0  0  0  0
   10.8964   21.5321   53.7896 C   0  0  0  0  0  0  0  0  0  0  0  0
    8.6439   21.1439   51.8268 O   0  0  0  0  0  0  0  0  0  0  0  0
    0.1524   16.6108   53.0109 C   0  0  0  0  0  0  0  0  0  0  0  0
    5.2186   19.8887   54.7280 C   0  0  0  0  0  0  0  0  0  0  0  0
    5.5666   16.7462   48.7818 P   0  0  1  0  0  0  0  0  0  0  0  0
    2.0802   17.4879   51.8934 N   0  0  0  0  0  0  0  0  0  0  0  0
    5.3263   16.6428   47.3298 O   0  0  0  0  0  0  0  0  0  0  0  0
    7.9475   19.3602   53.0253 S   0  0  0  0  0  0  0  0  0  0  0  0
    5.2735   22.5162   52.9087 C   0  0  0  0  0  0  0  0  0  0  0  0
    1.0153   17.7501   52.7255 C   0  0  0  0  0  0  0  0  0  0  0  0
    4.8032   15.7710   49.6067 O   0  5  0  0  0  0  0  0  0  0  0  0
    4.7243   21.2895   52.7281 N   0  0  0  0  0  0  0  0  0  0  0  0
    0.7644   18.9136   53.2388 N   0  0  0  0  0  0  0  0  0  0  0  0
    7.0213   16.7433   49.0616 O   0  0  0  0  0  0  0  0  0  0  0  0
    5.5031   20.1703   53.2775 C   0  0  2  0  0  0  0  0  0  0  0  0
    1.5828   19.9912   52.9587 C   0  0  0  0  0  0  0  0  0  0  0  0
    1.2916   21.1760   53.5013 N   0  0  0  0  0  0  0  0  0  0  0  0
    6.4646   19.3340   52.5655 C   0  0  1  0  0  0  0  0  0  0  0  0
    2.7254   19.7971   52.0797 C   0  0  0  0  0  0  0  0  0  0  0  0
    6.4789   22.5078   52.7886 O   0  0  0  0  0  0  0  0  0  0  0  0
    6.1199   18.4604   51.4118 C   0  0  0  0  0  0  0  0  0  0  0  0
    2.9089   18.5186   51.5933 C   0  0  0  0  0  0  0  0  0  0  0  0
    5.7615   19.0642   50.1224 C   0  0  0  0  0  0  0  0  0  0  0  0
    3.6295   20.9452   51.7026 C   0  0  0  0  0  0  0  0  0  0  0  0
    5.0401   18.1298   49.3008 O   0  0  0  0  0  0  0  0  0  0  0  0
  1  2  1  0  0  0  0
  1  8  2  0  0  0  0
  1 14  1  0  0  0  0
  2  3  2  0  0  0  0
  2  7  1  0  0  0  0
  3  4  1  0  0  0  0
  4  5  2  0  0  0  0
  5  6  1  0  0  0  0
  6  7  2  0  0  0  0
  9 16  1  0  0  0  0
 10 21  1  0  0  0  0
 11 13  1  6  0  0  0
 11 17  1  0  0  0  0
 11 20  2  0  0  0  0
 11 31  1  0  0  0  0
 12 16  2  0  0  0  0
 12 28  1  0  0  0  0
 15 26  1  0  0  0  0
 15 18  1  0  0  0  0
 16 19  1  0  0  0  0
 18 30  1  0  0  0  0
 19 22  2  0  0  0  0
 21 18  1  6  0  0  0
 21 24  1  0  0  0  0
 22 23  1  0  0  0  0
 22 25  1  0  0  0  0
 24 14  1  6  0  0  0
 24 27  1  0  0  0  0
 25 28  2  0  0  0  0
 25 30  1  0  0  0  0
 27 29  1  0  0  0  0
 29 31  1  0  0  0  0
M  CHG  1  17  -1
M  END
>  <CHROM.1>
-137.09089756,171.67068243,-81.95369634,38.09431990,86.30988284,-151.76849144
-64.29802504,-109.53393698,82.75383433,-160.31862043,-60.86627602,-130.40345201
5.91005988,19.23883391,52.02125131,0.35828134,0.03739694,0.83652378

>  <Name>
ligand

>  <RI>
0

>  <Rbt.Current_Directory>
/home/itssahil/PROJECTS/Mol_Feturizer/New_Systems/rnas/2HOO

>  <Rbt.Executable>
rbdock ($Id: //depot/dev/client3/rdock/2013.1/src/exe/rbdock.cxx#4 $)

>  <Rbt.Library>
libRbt.so (2013.1, Build901 2013/11/27)

>  <Rbt.Parameter_File>
/export/apps/rDock/src/rDock_2013.1_src/data/scripts/dock_solv.prm

>  <Rbt.Receptor>
prm/pocket_docking_2.prm

>  <SCORE>
-23.4606

>  <SCORE.INTER>
-14.2965

>  <SCORE.INTER.CONST>
1

>  <SCORE.INTER.POLAR>
0

>  <SCORE.INTER.ROT>
12

>  <SCORE.INTER.SOLV>
7.08747

>  <SCORE.INTER.VDW>
-23.4935

>  <SCORE.INTER.norm>
-0.461176

>  <SCORE.INTRA>
-10.324

>  <SCORE.INTRA.DIHEDRAL>
1.58348

>  <SCORE.INTRA.DIHEDRAL.0>
14.6094

>  <SCORE.INTRA.POLAR>
0

>  <SCORE.INTRA.POLAR.0>
0

>  <SCORE.INTRA.REPUL>
0

>  <SCORE.INTRA.REPUL.0>
0

>  <SCORE.INTRA.SOLV>
4.50236

>  <SCORE.INTRA.SOLV.lig_0>
-65.6478

>  <SCORE.INTRA.VDW>
-13.3669

>  <SCORE.INTRA.VDW.0>
9.35535

>  <SCORE.INTRA.norm>
-0.333033

>  <SCORE.RESTR>
1.1599

>  <SCORE.RESTR.CAVITY>
1.1599

>  <SCORE.RESTR.norm>
0.0374161

>  <SCORE.SYSTEM>
0

>  <SCORE.SYSTEM.CONST>
0

>  <SCORE.SYSTEM.DIHEDRAL>
0

>  <SCORE.SYSTEM.SOLV>
0

>  <SCORE.SYSTEM.norm>
0

>  <SCORE.heavy>
31

>  <SCORE.norm>
-0.756793

>  <RMSD>
7.567

$$$$
ligand
 OpenBabel11021811443D
libRbt.so/2013.1/901 2013/11/27
 31 32  0  0  0  0  0  0  0  0999 V2000
    3.5995   18.8515   50.6289 C   0  0  0  0  0  0  0  0  0  0  0  0
    2.1878   18.6985   51.1874 C   0  0  0  0  0  0  0  0  0  0  0  0
    1.4497   17.4931   50.9542 C   0  0  0  0  0  0  0  0  0  0  0  0
    0.1391   17.3584   51.4721 C   0  0  0  0  0  0  0  0  0  0  0  0
   -0.4471   18.4042   52.2263 C   0  0  0  0  0  0  0  0  0  0  0  0
    0.2670   19.5949   52.4707 C   0  0  0  0  0  0  0  0  0  0  0  0
    1.5695   19.7487   51.9632 C   0  0  0  0  0  0  0  0  0  0  0  0
    4.0894   17.9547   49.9433 O   0  0  0  0  0  0  0  0  0  0  0  0
    0.1547   23.6427   50.4401 C   0  0  0  0  0  0  0  0  0  0  0  0
    7.1338   19.9825   53.3761 C   0  0  0  0  0  0  0  0  0  0  0  0
    9.4355   17.8176   49.3194 P   0  0  1  0  0  0  0  0  0  0  0  0
    2.5211   23.3400   50.6463 N   0  0  0  0  0  0  0  0  0  0  0  0
   10.3678   17.9661   50.4533 O   0  0  0  0  0  0  0  0  0  0  0  0
    4.3402   19.9920   50.8865 S   0  0  0  0  0  0  0  0  0  0  0  0
    6.7848   23.0697   52.0628 C   0  0  0  0  0  0  0  0  0  0  0  0
    1.2986   23.3066   51.2783 C   0  0  0  0  0  0  0  0  0  0  0  0
   10.0744   17.3939   48.0441 O   0  5  0  0  0  0  0  0  0  0  0  0
    6.0671   22.1438   52.7458 N   0  0  0  0  0  0  0  0  0  0  0  0
    1.1354   23.0026   52.5277 N   0  0  0  0  0  0  0  0  0  0  0  0
    8.2837   16.9725   49.7108 O   0  0  0  0  0  0  0  0  0  0  0  0
    6.3255   20.7480   52.3637 C   0  0  2  0  0  0  0  0  0  0  0  0
    2.2250   22.6915   53.3184 C   0  0  0  0  0  0  0  0  0  0  0  0
    2.0200   22.3875   54.6024 N   0  0  0  0  0  0  0  0  0  0  0  0
    5.8675   20.0668   51.1566 C   0  0  1  0  0  0  0  0  0  0  0  0
    3.5532   22.7129   52.7259 C   0  0  0  0  0  0  0  0  0  0  0  0
    7.5878   23.6449   52.7641 O   0  0  0  0  0  0  0  0  0  0  0  0
    6.7713   19.4235   50.1655 C   0  0  0  0  0  0  0  0  0  0  0  0
    3.6171   23.0405   51.3867 C   0  0  0  0  0  0  0  0  0  0  0  0
    8.0491   20.0608   49.8237 C   0  0  0  0  0  0  0  0  0  0  0  0
    4.7848   22.4248   53.5494 C   0  0  0  0  0  0  0  0  0  0  0  0
    8.8276   19.2175   48.9568 O   0  0  0  0  0  0  0  0  0  0  0  0
  1  2  1  0  0  0  0
  1  8  2  0  0  0  0
  1 14  1  0  0  0  0
  2  3  2  0  0  0  0
  2  7  1  0  0  0  0
  3  4  1  0  0  0  0
  4  5  2  0  0  0  0
  5  6  1  0  0  0  0
  6  7  2  0  0  0  0
  9 16  1  0  0  0  0
 10 21  1  0  0  0  0
 11 13  1  1  0  0  0
 11 17  1  0  0  0  0
 11 20  2  0  0  0  0
 11 31  1  0  0  0  0
 12 16  2  0  0  0  0
 12 28  1  0  0  0  0
 15 26  1  0  0  0  0
 15 18  1  0  0  0  0
 16 19  1  0  0  0  0
 18 30  1  0  0  0  0
 19 22  2  0  0  0  0
 21 18  1  1  0  0  0
 21 24  1  0  0  0  0
 22 23  1  0  0  0  0
 22 25  1  0  0  0  0
 24 14  1  1  0  0  0
 24 27  1  0  0  0  0
 25 28  2  0  0  0  0
 25 30  1  0  0  0  0
 27 29  1  0  0  0  0
 29 31  1  0  0  0  0
M  CHG  1  17  -1
M  END
>  <CHROM.1>
2.19226992,142.40563958,-126.77317033,-112.64951532,106.18593158,72.42972226
120.44412777,142.07480954,165.67406854,174.17863404,-65.16684059,-60.14906410
4.91034837,20.28871142,51.24079733,2.67179742,0.12562711,0.41002507

>  <Name>
ligand

>  <RI>
0

>  <Rbt.Current_Directory>
/home/itssahil/PROJECTS/Mol_Feturizer/New_Systems/rnas/2HOO

>  <Rbt.Executable>
rbdock ($Id: //depot/dev/client3/rdock/2013.1/src/exe/rbdock.cxx#4 $)

>  <Rbt.Library>
libRbt.so (2013.1, Build901 2013/11/27)

>  <Rbt.Parameter_File>
/export/apps/rDock/src/rDock_2013.1_src/data/scripts/dock_solv.prm

>  <Rbt.Receptor>
prm/pocket_docking_6.prm

>  <SCORE>
-30.1717

>  <SCORE.INTER>
-15.3653

>  <SCORE.INTER.CONST>
1

>  <SCORE.INTER.POLAR>
0

>  <SCORE.INTER.ROT>
12

>  <SCORE.INTER.SOLV>
16.6009

>  <SCORE.INTER.VDW>
-27.3772

>  <SCORE.INTER.norm>
-0.495655

>  <SCORE.INTRA>
-14.8063

>  <SCORE.INTRA.DIHEDRAL>
-0.247358

>  <SCORE.INTRA.DIHEDRAL.0>
14.6094

>  <SCORE.INTRA.POLAR>
0

>  <SCORE.INTRA.POLAR.0>
0

>  <SCORE.INTRA.REPUL>
0.00781139

>  <SCORE.INTRA.REPUL.0>
0

>  <SCORE.INTRA.SOLV>
0.536403

>  <SCORE.INTRA.SOLV.lig_0>
-65.6478

>  <SCORE.INTRA.VDW>
-14.9899

>  <SCORE.INTRA.VDW.0>
9.35535

>  <SCORE.INTRA.norm>
-0.477624

>  <SCORE.RESTR>
0

>  <SCORE.RESTR.CAVITY>
0

>  <SCORE.RESTR.norm>
0

>  <SCORE.SYSTEM>
0

>  <SCORE.SYSTEM.CONST>
0

>  <SCORE.SYSTEM.DIHEDRAL>
0

>  <SCORE.SYSTEM.SOLV>
0

>  <SCORE.SYSTEM.norm>
0

>  <SCORE.heavy>
31

>  <SCORE.norm>
-0.973279

>  <RMSD>
7.576

$$$$
ligand
 OpenBabel11021811443D
libRbt.so/2013.1/901 2013/11/27
 31 32  0  0  0  0  0  0  0  0999 V2000
   11.3259   21.6006   53.9619 C   0  0  0  0  0  0  0  0  0  0  0  0
   12.1587   20.3687   54.3036 C   0  0  0  0  0  0  0  0  0  0  0  0
   11.7576   19.0768   53.8320 C   0  0  0  0  0  0  0  0  0  0  0  0
   12.5326   17.9372   54.1551 C   0  0  0  0  0  0  0  0  0  0  0  0
   13.7074   18.0643   54.9361 C   0  0  0  0  0  0  0  0  0  0  0  0
   14.1205   19.3285   55.4035 C   0  0  0  0  0  0  0  0  0  0  0  0
   13.3631   20.4726   55.0948 C   0  0  0  0  0  0  0  0  0  0  0  0
   11.8772   22.6179   53.5428 O   0  0  0  0  0  0  0  0  0  0  0  0
    0.6998   24.8983   55.0498 C   0  0  0  0  0  0  0  0  0  0  0  0
    8.9689   24.4237   52.9266 C   0  0  0  0  0  0  0  0  0  0  0  0
    5.2682   19.0176   52.7393 P   0  0  1  0  0  0  0  0  0  0  0  0
    2.4191   23.3254   54.4984 N   0  0  0  0  0  0  0  0  0  0  0  0
    5.3689   17.8047   51.9054 O   0  0  0  0  0  0  0  0  0  0  0  0
    9.9509   21.5885   54.1197 S   0  0  0  0  0  0  0  0  0  0  0  0
    5.9845   23.1067   52.1263 C   0  0  0  0  0  0  0  0  0  0  0  0
    2.1198   24.5754   54.9914 C   0  0  0  0  0  0  0  0  0  0  0  0
    4.0674   19.8547   52.4721 O   0  5  0  0  0  0  0  0  0  0  0  0
    6.7370   23.3584   53.2260 N   0  0  0  0  0  0  0  0  0  0  0  0
    3.0088   25.4324   55.3855 N   0  0  0  0  0  0  0  0  0  0  0  0
    5.4387   18.6713   54.1695 O   0  0  0  0  0  0  0  0  0  0  0  0
    8.1817   23.1478   53.0549 C   0  0  2  0  0  0  0  0  0  0  0  0
    4.3538   25.1223   55.3211 C   0  0  0  0  0  0  0  0  0  0  0  0
    5.2420   26.0309   55.7317 N   0  0  0  0  0  0  0  0  0  0  0  0
    8.8872   21.8702   53.0240 C   0  0  1  0  0  0  0  0  0  0  0  0
    4.7522   23.8226   54.8035 C   0  0  0  0  0  0  0  0  0  0  0  0
    5.0805   23.9014   51.9902 O   0  0  0  0  0  0  0  0  0  0  0  0
    8.6634   20.8159   51.9987 C   0  0  0  0  0  0  0  0  0  0  0  0
    3.7284   22.9808   54.4189 C   0  0  0  0  0  0  0  0  0  0  0  0
    7.8472   19.6408   52.3284 C   0  0  0  0  0  0  0  0  0  0  0  0
    6.2069   23.4438   54.6684 C   0  0  0  0  0  0  0  0  0  0  0  0
    6.4528   19.9870   52.3959 O   0  0  0  0  0  0  0  0  0  0  0  0
  1  2  1  0  0  0  0
  1  8  2  0  0  0  0
  1 14  1  0  0  0  0
  2  3  2  0  0  0  0
  2  7  1  0  0  0  0
  3  4  1  0  0  0  0
  4  5  2  0  0  0  0
  5  6  1  0  0  0  0
  6  7  2  0  0  0  0
  9 16  1  0  0  0  0
 10 21  1  0  0  0  0
 11 13  1  6  0  0  0
 11 17  1  0  0  0  0
 11 20  2  0  0  0  0
 11 31  1  0  0  0  0
 12 16  2  0  0  0  0
 12 28  1  0  0  0  0
 15 26  1  0  0  0  0
 15 18  1  0  0  0  0
 16 19  1  0  0  0  0
 18 30  1  0  0  0  0
 19 22  2  0  0  0  0
 21 18  1  1  0  0  0
 21 24  1  0  0  0  0
 22 23  1  0  0  0  0
 22 25  1  0  0  0  0
 24 14  1  6  0  0  0
 24 27  1  0  0  0  0
 25 28  2  0  0  0  0
 25 30  1  0  0  0  0
 27 29  1  0  0  0  0
 29 31  1  0  0  0  0
M  CHG  1  17  -1
M  END
>  <CHROM.1>
-132.70591375,-122.79374581,-105.68920997,-141.19115920,104.51206173,-25.45787689
60.70913838,78.67139629,-109.22145879,73.21752550,-179.11693765,-49.97078018
7.30729191,21.70700488,53.73259537,-0.41029437,-0.11153342,0.30192101

>  <Name>
ligand

>  <RI>
0

>  <Rbt.Current_Directory>
/home/itssahil/PROJECTS/Mol_Feturizer/New_Systems/rnas/2HOO

>  <Rbt.Executable>
rbdock ($Id: //depot/dev/client3/rdock/2013.1/src/exe/rbdock.cxx#4 $)

>  <Rbt.Library>
libRbt.so (2013.1, Build901 2013/11/27)

>  <Rbt.Parameter_File>
/export/apps/rDock/src/rDock_2013.1_src/data/scripts/dock_solv.prm

>  <Rbt.Receptor>
prm/pocket_docking_6.prm

>  <SCORE>
-33.5982

>  <SCORE.INTER>
-20.4764

>  <SCORE.INTER.CONST>
1

>  <SCORE.INTER.POLAR>
0

>  <SCORE.INTER.ROT>
12

>  <SCORE.INTER.SOLV>
14.5047

>  <SCORE.INTER.VDW>
-30.0858

>  <SCORE.INTER.norm>
-0.660527

>  <SCORE.INTRA>
-13.1219

>  <SCORE.INTRA.DIHEDRAL>
2.20568

>  <SCORE.INTRA.DIHEDRAL.0>
14.6094

>  <SCORE.INTRA.POLAR>
0

>  <SCORE.INTRA.POLAR.0>
0

>  <SCORE.INTRA.REPUL>
0

>  <SCORE.INTRA.REPUL.0>
0

>  <SCORE.INTRA.SOLV>
0.731252

>  <SCORE.INTRA.SOLV.lig_0>
-65.6478

>  <SCORE.INTRA.VDW>
-14.5903

>  <SCORE.INTRA.VDW.0>
9.35535

>  <SCORE.INTRA.norm>
-0.423286

>  <SCORE.RESTR>
0

>  <SCORE.RESTR.CAVITY>
0

>  <SCORE.RESTR.norm>
0

>  <SCORE.SYSTEM>
0

>  <SCORE.SYSTEM.CONST>
0

>  <SCORE.SYSTEM.DIHEDRAL>
0

>  <SCORE.SYSTEM.SOLV>
0

>  <SCORE.SYSTEM.norm>
0

>  <SCORE.heavy>
31

>  <SCORE.norm>
-1.08381

>  <RMSD>
7.585

$$$$
ligand
 OpenBabel11021811443D
libRbt.so/2013.1/901 2013/11/27
 31 32  0  0  0  0  0  0  0  0999 V2000
    3.5571   18.1971   50.4359 C   0  0  0  0  0  0  0  0  0  0  0  0
    2.2771   18.5725   51.1767 C   0  0  0  0  0  0  0  0  0  0  0  0
    2.1299   19.8820   51.7385 C   0  0  0  0  0  0  0  0  0  0  0  0
    0.9413   20.2233   52.4275 C   0  0  0  0  0  0  0  0  0  0  0  0
   -0.1085   19.2817   52.5603 C   0  0  0  0  0  0  0  0  0  0  0  0
    0.0166   17.9906   52.0084 C   0  0  0  0  0  0  0  0  0  0  0  0
    1.1904   17.6317   51.3218 C   0  0  0  0  0  0  0  0  0  0  0  0
    3.7371   17.0360   50.0700 O   0  0  0  0  0  0  0  0  0  0  0  0
    6.9415   10.4324   50.1475 C   0  0  0  0  0  0  0  0  0  0  0  0
    6.9659   16.8315   51.2868 C   0  0  0  0  0  0  0  0  0  0  0  0
    7.9315   23.2048   52.4504 P   0  0  1  0  0  0  0  0  0  0  0  0
    7.3484   12.7920   50.1832 N   0  0  0  0  0  0  0  0  0  0  0  0
    9.0361   22.7195   53.2996 O   0  0  0  0  0  0  0  0  0  0  0  0
    4.5242   19.1511   50.1703 S   0  0  0  0  0  0  0  0  0  0  0  0
    8.0275   16.8453   48.2950 C   0  0  0  0  0  0  0  0  0  0  0  0
    6.5696   11.7670   49.6951 C   0  0  0  0  0  0  0  0  0  0  0  0
    6.6221   23.3253   53.1470 O   0  5  0  0  0  0  0  0  0  0  0  0
    6.7712   16.7982   48.8034 N   0  0  0  0  0  0  0  0  0  0  0  0
    5.5687   11.9363   48.8891 N   0  0  0  0  0  0  0  0  0  0  0  0
    8.3366   24.4396   51.7395 O   0  0  0  0  0  0  0  0  0  0  0  0
    6.5684   17.5705   50.0377 C   0  0  2  0  0  0  0  0  0  0  0  0
    5.2258   13.2037   48.4587 C   0  0  0  0  0  0  0  0  0  0  0  0
    4.1917   13.3403   47.6251 N   0  0  0  0  0  0  0  0  0  0  0  0
    6.0617   18.9349   50.1489 C   0  0  1  0  0  0  0  0  0  0  0  0
    6.0063   14.3397   48.9236 C   0  0  0  0  0  0  0  0  0  0  0  0
    8.7831   16.0799   48.8524 O   0  0  0  0  0  0  0  0  0  0  0  0
    6.9250   20.1435   50.2313 C   0  0  0  0  0  0  0  0  0  0  0  0
    7.0451   14.0526   49.7857 C   0  0  0  0  0  0  0  0  0  0  0  0
    7.0972   20.8294   51.5180 C   0  0  0  0  0  0  0  0  0  0  0  0
    5.7071   15.7425   48.4540 C   0  0  0  0  0  0  0  0  0  0  0  0
    7.6338   22.1502   51.3279 O   0  0  0  0  0  0  0  0  0  0  0  0
  1  2  1  0  0  0  0
  1  8  2  0  0  0  0
  1 14  1  0  0  0  0
  2  3  2  0  0  0  0
  2  7  1  0  0  0  0
  3  4  1  0  0  0  0
  4  5  2  0  0  0  0
  5  6  1  0  0  0  0
  6  7  2  0  0  0  0
  9 16  1  0  0  0  0
 10 21  1  0  0  0  0
 11 13  1  1  0  0  0
 11 17  1  0  0  0  0
 11 20  2  0  0  0  0
 11 31  1  0  0  0  0
 12 16  2  0  0  0  0
 12 28  1  0  0  0  0
 15 26  1  0  0  0  0
 15 18  1  0  0  0  0
 16 19  1  0  0  0  0
 18 30  1  0  0  0  0
 19 22  2  0  0  0  0
 21 18  1  6  0  0  0
 21 24  1  0  0  0  0
 22 23  1  0  0  0  0
 22 25  1  0  0  0  0
 24 14  1  6  0  0  0
 24 27  1  0  0  0  0
 25 28  2  0  0  0  0
 25 30  1  0  0  0  0
 27 29  1  0  0  0  0
 29 31  1  0  0  0  0
M  CHG  1  17  -1
M  END
>  <CHROM.1>
172.82668809,145.28818391,17.78395938,80.98041118,-83.95630945,67.32494036
-96.49191389,75.74965276,-168.48659168,-163.64927157,178.61690558,67.01808348
5.68797166,17.96696306,50.56319418,1.48705182,0.12579312,0.32018353

>  <Name>
ligand

>  <RI>
0

>  <Rbt.Current_Directory>
/home/itssahil/PROJECTS/Mol_Feturizer/New_Systems/rnas/2HOO

>  <Rbt.Executable>
rbdock ($Id: //depot/dev/client3/rdock/2013.1/src/exe/rbdock.cxx#4 $)

>  <Rbt.Library>
libRbt.so (2013.1, Build901 2013/11/27)

>  <Rbt.Parameter_File>
/export/apps/rDock/src/rDock_2013.1_src/data/scripts/dock_solv.prm

>  <Rbt.Receptor>
prm/pocket_docking_6.prm

>  <SCORE>
-27.3564

>  <SCORE.INTER>
-15.6603

>  <SCORE.INTER.CONST>
1

>  <SCORE.INTER.POLAR>
0

>  <SCORE.INTER.ROT>
12

>  <SCORE.INTER.SOLV>
19.832

>  <SCORE.INTER.VDW>
-28.6508

>  <SCORE.INTER.norm>
-0.50517

>  <SCORE.INTRA>
-11.6962

>  <SCORE.INTRA.DIHEDRAL>
1.34354

>  <SCORE.INTRA.DIHEDRAL.0>
14.6094

>  <SCORE.INTRA.POLAR>
0

>  <SCORE.INTRA.POLAR.0>
0

>  <SCORE.INTRA.REPUL>
0

>  <SCORE.INTRA.REPUL.0>
0

>  <SCORE.INTRA.SOLV>
-0.016285

>  <SCORE.INTRA.SOLV.lig_0>
-65.6478

>  <SCORE.INTRA.VDW>
-12.3598

>  <SCORE.INTRA.VDW.0>
9.35535

>  <SCORE.INTRA.norm>
-0.377296

>  <SCORE.RESTR>
0

>  <SCORE.RESTR.CAVITY>
0

>  <SCORE.RESTR.norm>
0

>  <SCORE.SYSTEM>
0

>  <SCORE.SYSTEM.CONST>
0

>  <SCORE.SYSTEM.DIHEDRAL>
0

>  <SCORE.SYSTEM.SOLV>
0

>  <SCORE.SYSTEM.norm>
0

>  <SCORE.heavy>
31

>  <SCORE.norm>
-0.882466

>  <RMSD>
7.595

$$$$
ligand
 OpenBabel11021811443D
libRbt.so/2013.1/901 2013/11/27
 31 32  0  0  0  0  0  0  0  0999 V2000
    5.5679   13.4724   49.4774 C   0  0  0  0  0  0  0  0  0  0  0  0
    6.5822   12.5955   48.7492 C   0  0  0  0  0  0  0  0  0  0  0  0
    6.9068   11.2969   49.2595 C   0  0  0  0  0  0  0  0  0  0  0  0
    7.8511   10.4894   48.5812 C   0  0  0  0  0  0  0  0  0  0  0  0
    8.4737   10.9524   47.3962 C   0  0  0  0  0  0  0  0  0  0  0  0
    8.1619   12.2251   46.8763 C   0  0  0  0  0  0  0  0  0  0  0  0
    7.2276   13.0431   47.5366 C   0  0  0  0  0  0  0  0  0  0  0  0
    4.6747   12.9529   50.1459 O   0  0  0  0  0  0  0  0  0  0  0  0
    4.2147   20.8544   53.3471 C   0  0  0  0  0  0  0  0  0  0  0  0
    2.6165   14.9799   48.2209 C   0  0  0  0  0  0  0  0  0  0  0  0
    7.6977   19.9640   50.1473 P   0  0  1  0  0  0  0  0  0  0  0  0
    3.2360   19.8255   51.4189 N   0  0  0  0  0  0  0  0  0  0  0  0
    8.8701   19.1895   50.5971 O   0  0  0  0  0  0  0  0  0  0  0  0
    5.6395   14.8521   49.3940 S   0  0  0  0  0  0  0  0  0  0  0  0
    2.2345   14.3064   51.4909 C   0  0  0  0  0  0  0  0  0  0  0  0
    3.4447   19.7557   52.7779 C   0  0  0  0  0  0  0  0  0  0  0  0
    7.3799   21.1502   50.9876 O   0  5  0  0  0  0  0  0  0  0  0  0
    2.1028   15.3466   50.6309 N   0  0  0  0  0  0  0  0  0  0  0  0
    3.0040   18.7978   53.5317 N   0  0  0  0  0  0  0  0  0  0  0  0
    7.8144   20.2782   48.7045 O   0  0  0  0  0  0  0  0  0  0  0  0
    3.1197   15.4125   49.5713 C   0  0  2  0  0  0  0  0  0  0  0  0
    2.2803   17.7556   52.9845 C   0  0  0  0  0  0  0  0  0  0  0  0
    1.8458   16.7836   53.7904 N   0  0  0  0  0  0  0  0  0  0  0  0
    4.5020   15.8623   49.7050 C   0  0  1  0  0  0  0  0  0  0  0  0
    2.0245   17.7524   51.5526 C   0  0  0  0  0  0  0  0  0  0  0  0
    1.2378   14.1237   52.1548 O   0  0  0  0  0  0  0  0  0  0  0  0
    4.8985   17.2302   50.1344 C   0  0  0  0  0  0  0  0  0  0  0  0
    2.5295   18.8221   50.8416 C   0  0  0  0  0  0  0  0  0  0  0  0
    6.2319   17.7425   49.7948 C   0  0  0  0  0  0  0  0  0  0  0  0
    1.2780   16.6197   50.8912 C   0  0  0  0  0  0  0  0  0  0  0  0
    6.4066   19.0836   50.2842 O   0  0  0  0  0  0  0  0  0  0  0  0
  1  2  1  0  0  0  0
  1  8  2  0  0  0  0
  1 14  1  0  0  0  0
  2  3  2  0  0  0  0
  2  7  1  0  0  0  0
  3  4  1  0  0  0  0
  4  5  2  0  0  0  0
  5  6  1  0  0  0  0
  6  7  2  0  0  0  0
  9 16  1  0  0  0  0
 10 21  1  0  0  0  0
 11 13  1  1  0  0  0
 11 17  1  0  0  0  0
 11 20  2  0  0  0  0
 11 31  1  0  0  0  0
 12 16  2  0  0  0  0
 12 28  1  0  0  0  0
 15 26  1  0  0  0  0
 15 18  1  0  0  0  0
 16 19  1  0  0  0  0
 18 30  1  0  0  0  0
 19 22  2  0  0  0  0
 21 18  1  6  0  0  0
 21 24  1  0  0  0  0
 22 23  1  0  0  0  0
 22 25  1  0  0  0  0
 24 14  1  1  0  0  0
 24 27  1  0  0  0  0
 25 28  2  0  0  0  0
 25 30  1  0  0  0  0
 27 29  1  0  0  0  0
 29 31  1  0  0  0  0
M  CHG  1  17  -1
M  END
>  <CHROM.1>
-27.97281609,160.92627532,-25.77762428,-165.10159962,104.69715353,90.05971884
-62.62463269,22.23160628,-78.82710846,179.20254243,178.79542986,-50.09904914
4.97320578,16.46495607,50.35115731,1.30419647,-0.43826246,-2.83905332

>  <Name>
ligand

>  <RI>
0

>  <Rbt.Current_Directory>
/home/itssahil/PROJECTS/Mol_Feturizer/New_Systems/rnas/2HOO

>  <Rbt.Executable>
rbdock ($Id: //depot/dev/client3/rdock/2013.1/src/exe/rbdock.cxx#4 $)

>  <Rbt.Library>
libRbt.so (2013.1, Build901 2013/11/27)

>  <Rbt.Parameter_File>
/export/apps/rDock/src/rDock_2013.1_src/data/scripts/dock_solv.prm

>  <Rbt.Receptor>
prm/pocket_docking_6.prm

>  <SCORE>
-21.7993

>  <SCORE.INTER>
-9.30038

>  <SCORE.INTER.CONST>
1

>  <SCORE.INTER.POLAR>
0

>  <SCORE.INTER.ROT>
12

>  <SCORE.INTER.SOLV>
18.6641

>  <SCORE.INTER.VDW>
-24.0216

>  <SCORE.INTER.norm>
-0.300012

>  <SCORE.INTRA>
-12.4989

>  <SCORE.INTRA.DIHEDRAL>
-2.13644

>  <SCORE.INTRA.DIHEDRAL.0>
14.6094

>  <SCORE.INTRA.POLAR>
0

>  <SCORE.INTRA.POLAR.0>
0

>  <SCORE.INTRA.REPUL>
0

>  <SCORE.INTRA.REPUL.0>
0

>  <SCORE.INTRA.SOLV>
3.35351

>  <SCORE.INTRA.SOLV.lig_0>
-65.6478

>  <SCORE.INTRA.VDW>
-13.1074

>  <SCORE.INTRA.VDW.0>
9.35535

>  <SCORE.INTRA.norm>
-0.403191

>  <SCORE.RESTR>
0

>  <SCORE.RESTR.CAVITY>
0

>  <SCORE.RESTR.norm>
0

>  <SCORE.SYSTEM>
0

>  <SCORE.SYSTEM.CONST>
0

>  <SCORE.SYSTEM.DIHEDRAL>
0

>  <SCORE.SYSTEM.SOLV>
0

>  <SCORE.SYSTEM.norm>
0

>  <SCORE.heavy>
31

>  <SCORE.norm>
-0.703203

>  <RMSD>
7.603

$$$$
ligand
 OpenBabel11021811443D
libRbt.so/2013.1/901 2013/11/27
 31 32  0  0  0  0  0  0  0  0999 V2000
    9.2442   19.1077   53.7959 C   0  0  0  0  0  0  0  0  0  0  0  0
   10.7018   19.5167   53.9858 C   0  0  0  0  0  0  0  0  0  0  0  0
   11.7189   18.5154   54.1084 C   0  0  0  0  0  0  0  0  0  0  0  0
   13.0690   18.9012   54.2877 C   0  0  0  0  0  0  0  0  0  0  0  0
   13.4246   20.2712   54.3398 C   0  0  0  0  0  0  0  0  0  0  0  0
   12.4377   21.2701   54.2147 C   0  0  0  0  0  0  0  0  0  0  0  0
   11.0905   20.9072   54.0378 C   0  0  0  0  0  0  0  0  0  0  0  0
    8.5117   18.9718   54.7755 O   0  0  0  0  0  0  0  0  0  0  0  0
   -0.4133   17.5775   51.8139 C   0  0  0  0  0  0  0  0  0  0  0  0
    5.2096   18.0849   53.4694 C   0  0  0  0  0  0  0  0  0  0  0  0
    4.4011   15.3064   49.7690 P   0  0  1  0  0  0  0  0  0  0  0  0
    1.7715   17.5569   50.8340 N   0  0  0  0  0  0  0  0  0  0  0  0
    4.9635   13.9650   49.5216 O   0  0  0  0  0  0  0  0  0  0  0  0
    8.7332   18.8850   52.5290 S   0  0  0  0  0  0  0  0  0  0  0  0
    6.3439   21.1594   52.4190 C   0  0  0  0  0  0  0  0  0  0  0  0
    0.8684   18.2422   51.6149 C   0  0  0  0  0  0  0  0  0  0  0  0
    4.2655   16.1545   48.5539 O   0  5  0  0  0  0  0  0  0  0  0  0
    5.6377   20.0702   52.0266 N   0  0  0  0  0  0  0  0  0  0  0  0
    1.1037   19.3979   52.1526 N   0  0  0  0  0  0  0  0  0  0  0  0
    3.1507   15.2002   50.5561 O   0  0  0  0  0  0  0  0  0  0  0  0
    6.1477   18.7840   52.5232 C   0  0  2  0  0  0  0  0  0  0  0  0
    2.3186   20.0256   51.9543 C   0  0  0  0  0  0  0  0  0  0  0  0
    2.5247   21.2175   52.5198 N   0  0  0  0  0  0  0  0  0  0  0  0
    7.4139   18.1462   52.1757 C   0  0  1  0  0  0  0  0  0  0  0  0
    3.3239   19.3691   51.1332 C   0  0  0  0  0  0  0  0  0  0  0  0
    6.4241   21.2516   53.6242 O   0  0  0  0  0  0  0  0  0  0  0  0
    7.5273   16.8313   51.4893 C   0  0  0  0  0  0  0  0  0  0  0  0
    2.9771   18.1380   50.6147 C   0  0  0  0  0  0  0  0  0  0  0  0
    6.7159   16.5601   50.2960 C   0  0  0  0  0  0  0  0  0  0  0  0
    4.6524   20.0248   50.8451 C   0  0  0  0  0  0  0  0  0  0  0  0
    5.3925   16.1316   50.6616 O   0  0  0  0  0  0  0  0  0  0  0  0
  1  2  1  0  0  0  0
  1  8  2  0  0  0  0
  1 14  1  0  0  0  0
  2  3  2  0  0  0  0
  2  7  1  0  0  0  0
  3  4  1  0  0  0  0
  4  5  2  0  0  0  0
  5  6  1  0  0  0  0
  6  7  2  0  0  0  0
  9 16  1  0  0  0  0
 10 21  1  0  0  0  0
 11 13  1  6  0  0  0
 11 17  1  0  0  0  0
 11 20  2  0  0  0  0
 11 31  1  0  0  0  0
 12 16  2  0  0  0  0
 12 28  1  0  0  0  0
 15 26  1  0  0  0  0
 15 18  1  0  0  0  0
 16 19  1  0  0  0  0
 18 30  1  0  0  0  0
 19 22  2  0  0  0  0
 21 18  1  6  0  0  0
 21 24  1  0  0  0  0
 22 23  1  0  0  0  0
 22 25  1  0  0  0  0
 24 14  1  6  0  0  0
 24 27  1  0  0  0  0
 25 28  2  0  0  0  0
 25 30  1  0  0  0  0
 27 29  1  0  0  0  0
 29 31  1  0  0  0  0
M  CHG  1  17  -1
M  END
>  <CHROM.1>
92.05551837,163.97639640,69.03999946,-57.02763652,114.59783325,-133.12362256
-119.30487212,-131.81085915,72.82225374,-82.83706076,-158.00191402,65.05697482
6.07759993,18.36935900,52.00999166,0.40586933,-0.17506951,0.51961435

>  <Name>
ligand

>  <RI>
0

>  <Rbt.Current_Directory>
/home/itssahil/PROJECTS/Mol_Feturizer/New_Systems/rnas/2HOO

>  <Rbt.Executable>
rbdock ($Id: //depot/dev/client3/rdock/2013.1/src/exe/rbdock.cxx#4 $)

>  <Rbt.Library>
libRbt.so (2013.1, Build901 2013/11/27)

>  <Rbt.Parameter_File>
/export/apps/rDock/src/rDock_2013.1_src/data/scripts/dock_solv.prm

>  <Rbt.Receptor>
prm/pocket_docking_4.prm

>  <SCORE>
-36.1135

>  <SCORE.INTER>
-23.8423

>  <SCORE.INTER.CONST>
1

>  <SCORE.INTER.POLAR>
0

>  <SCORE.INTER.ROT>
12

>  <SCORE.INTER.SOLV>
14.525

>  <SCORE.INTER.VDW>
-32.3365

>  <SCORE.INTER.norm>
-0.769107

>  <SCORE.INTRA>
-12.2712

>  <SCORE.INTRA.DIHEDRAL>
2.20539

>  <SCORE.INTRA.DIHEDRAL.0>
14.6094

>  <SCORE.INTRA.POLAR>
0

>  <SCORE.INTRA.POLAR.0>
0

>  <SCORE.INTRA.REPUL>
0

>  <SCORE.INTRA.REPUL.0>
0

>  <SCORE.INTRA.SOLV>
5.40638

>  <SCORE.INTRA.SOLV.lig_0>
-65.6478

>  <SCORE.INTRA.VDW>
-16.0771

>  <SCORE.INTRA.VDW.0>
9.35535

>  <SCORE.INTRA.norm>
-0.395844

>  <SCORE.RESTR>
0

>  <SCORE.RESTR.CAVITY>
0

>  <SCORE.RESTR.norm>
0

>  <SCORE.SYSTEM>
0

>  <SCORE.SYSTEM.CONST>
0

>  <SCORE.SYSTEM.DIHEDRAL>
0

>  <SCORE.SYSTEM.SOLV>
0

>  <SCORE.SYSTEM.norm>
0

>  <SCORE.heavy>
31

>  <SCORE.norm>
-1.16495

>  <RMSD>
7.611

$$$$
ligand
 OpenBabel11021811443D
libRbt.so/2013.1/901 2013/11/27
 31 32  0  0  0  0  0  0  0  0999 V2000
    9.1763   19.0599   52.7447 C   0  0  0  0  0  0  0  0  0  0  0  0
   10.4758   19.6090   53.3260 C   0  0  0  0  0  0  0  0  0  0  0  0
   11.6368   18.7736   53.4057 C   0  0  0  0  0  0  0  0  0  0  0  0
   12.8385   19.2878   53.9491 C   0  0  0  0  0  0  0  0  0  0  0  0
   12.9051   20.6258   54.4091 C   0  0  0  0  0  0  0  0  0  0  0  0
   11.7742   21.4639   54.3329 C   0  0  0  0  0  0  0  0  0  0  0  0
   10.5704   20.9712   53.7979 C   0  0  0  0  0  0  0  0  0  0  0  0
    8.2025   18.8831   53.4760 O   0  0  0  0  0  0  0  0  0  0  0  0
    2.7521   14.5253   47.4650 C   0  0  0  0  0  0  0  0  0  0  0  0
    8.5819   20.5142   48.3601 C   0  0  0  0  0  0  0  0  0  0  0  0
    3.6206   20.4898   51.8422 P   0  0  1  0  0  0  0  0  0  0  0  0
    4.2847   16.1134   48.3943 N   0  0  0  0  0  0  0  0  0  0  0  0
    3.1578   21.4358   50.8090 O   0  0  0  0  0  0  0  0  0  0  0  0
    9.0792   18.7553   51.3980 S   0  0  0  0  0  0  0  0  0  0  0  0
    8.7731   16.9438   48.4763 C   0  0  0  0  0  0  0  0  0  0  0  0
    3.8579   15.4533   47.2641 C   0  0  0  0  0  0  0  0  0  0  0  0
    4.7459   20.9882   52.6785 O   0  5  0  0  0  0  0  0  0  0  0  0
    8.1593   18.0778   48.0565 N   0  0  0  0  0  0  0  0  0  0  0  0
    4.3765   15.6181   46.0877 N   0  0  0  0  0  0  0  0  0  0  0  0
    2.4713   19.9950   52.6351 O   0  0  0  0  0  0  0  0  0  0  0  0
    8.2145   19.2032   49.0008 C   0  0  2  0  0  0  0  0  0  0  0  0
    5.4292   16.4944   45.9056 C   0  0  0  0  0  0  0  0  0  0  0  0
    5.9416   16.6358   44.6807 N   0  0  0  0  0  0  0  0  0  0  0  0
    7.9338   19.1648   50.4328 C   0  0  1  0  0  0  0  0  0  0  0  0
    5.9436   17.2244   47.0537 C   0  0  0  0  0  0  0  0  0  0  0  0
    8.0346   16.2241   49.1121 O   0  0  0  0  0  0  0  0  0  0  0  0
    6.6109   19.4822   51.0345 C   0  0  0  0  0  0  0  0  0  0  0  0
    5.3161   16.9836   48.2591 C   0  0  0  0  0  0  0  0  0  0  0  0
    5.3817   19.1922   50.2857 C   0  0  0  0  0  0  0  0  0  0  0  0
    7.1192   18.1621   46.9252 C   0  0  0  0  0  0  0  0  0  0  0  0
    4.2339   19.2217   51.1519 O   0  0  0  0  0  0  0  0  0  0  0  0
  1  2  1  0  0  0  0
  1  8  2  0  0  0  0
  1 14  1  0  0  0  0
  2  3  2  0  0  0  0
  2  7  1  0  0  0  0
  3  4  1  0  0  0  0
  4  5  2  0  0  0  0
  5  6  1  0  0  0  0
  6  7  2  0  0  0  0
  9 16  1  0  0  0  0
 10 21  1  0  0  0  0
 11 13  1  6  0  0  0
 11 17  1  0  0  0  0
 11 20  2  0  0  0  0
 11 31  1  0  0  0  0
 12 16  2  0  0  0  0
 12 28  1  0  0  0  0
 15 26  1  0  0  0  0
 15 18  1  0  0  0  0
 16 19  1  0  0  0  0
 18 30  1  0  0  0  0
 19 22  2  0  0  0  0
 21 18  1  6  0  0  0
 21 24  1  0  0  0  0
 22 23  1  0  0  0  0
 22 25  1  0  0  0  0
 24 14  1  6  0  0  0
 24 27  1  0  0  0  0
 25 28  2  0  0  0  0
 25 30  1  0  0  0  0
 27 29  1  0  0  0  0
 29 31  1  0  0  0  0
M  CHG  1  17  -1
M  END
>  <CHROM.1>
111.44854168,-132.43276078,157.41760246,88.47949981,134.31491670,53.05993203
-96.18684517,-148.04822256,-137.45276226,164.24941085,69.06049487,62.03624672
6.93853025,18.65367996,50.30053971,-0.83941709,0.10791633,-2.17019278

>  <Name>
ligand

>  <RI>
0

>  <Rbt.Current_Directory>
/home/itssahil/PROJECTS/Mol_Feturizer/New_Systems/rnas/2HOO

>  <Rbt.Executable>
rbdock ($Id: //depot/dev/client3/rdock/2013.1/src/exe/rbdock.cxx#4 $)

>  <Rbt.Library>
libRbt.so (2013.1, Build901 2013/11/27)

>  <Rbt.Parameter_File>
/export/apps/rDock/src/rDock_2013.1_src/data/scripts/dock_solv.prm

>  <Rbt.Receptor>
prm/pocket_docking_6.prm

>  <SCORE>
-31.5032

>  <SCORE.INTER>
-20.2113

>  <SCORE.INTER.CONST>
1

>  <SCORE.INTER.POLAR>
0

>  <SCORE.INTER.ROT>
12

>  <SCORE.INTER.SOLV>
10.5601

>  <SCORE.INTER.VDW>
-28.5942

>  <SCORE.INTER.norm>
-0.651978

>  <SCORE.INTRA>
-11.2918

>  <SCORE.INTRA.DIHEDRAL>
2.20019

>  <SCORE.INTRA.DIHEDRAL.0>
14.6094

>  <SCORE.INTRA.POLAR>
0

>  <SCORE.INTRA.POLAR.0>
0

>  <SCORE.INTRA.REPUL>
0

>  <SCORE.INTRA.REPUL.0>
0

>  <SCORE.INTRA.SOLV>
0.858583

>  <SCORE.INTRA.SOLV.lig_0>
-65.6478

>  <SCORE.INTRA.VDW>
-12.8212

>  <SCORE.INTRA.VDW.0>
9.35535

>  <SCORE.INTRA.norm>
-0.364253

>  <SCORE.RESTR>
0

>  <SCORE.RESTR.CAVITY>
0

>  <SCORE.RESTR.norm>
0

>  <SCORE.SYSTEM>
0

>  <SCORE.SYSTEM.CONST>
0

>  <SCORE.SYSTEM.DIHEDRAL>
0

>  <SCORE.SYSTEM.SOLV>
0

>  <SCORE.SYSTEM.norm>
0

>  <SCORE.heavy>
31

>  <SCORE.norm>
-1.01623

>  <RMSD>
7.615

$$$$
ligand
 OpenBabel11021811443D
libRbt.so/2013.1/901 2013/11/27
 31 32  0  0  0  0  0  0  0  0999 V2000
    3.7813   18.8835   50.8745 C   0  0  0  0  0  0  0  0  0  0  0  0
    2.3485   18.5225   51.2551 C   0  0  0  0  0  0  0  0  0  0  0  0
    1.7830   17.2782   50.8263 C   0  0  0  0  0  0  0  0  0  0  0  0
    0.4520   16.9504   51.1797 C   0  0  0  0  0  0  0  0  0  0  0  0
   -0.3245   17.8406   51.9612 C   0  0  0  0  0  0  0  0  0  0  0  0
    0.2178   19.0667   52.3971 C   0  0  0  0  0  0  0  0  0  0  0  0
    1.5376   19.4114   52.0548 C   0  0  0  0  0  0  0  0  0  0  0  0
    4.0255   19.9792   50.3703 O   0  0  0  0  0  0  0  0  0  0  0  0
   10.6106   15.5527   43.8107 C   0  0  0  0  0  0  0  0  0  0  0  0
    7.5520   15.8317   49.6552 C   0  0  0  0  0  0  0  0  0  0  0  0
    4.0036   14.7338   46.2275 P   0  0  1  0  0  0  0  0  0  0  0  0
    9.5861   15.8846   45.9495 N   0  0  0  0  0  0  0  0  0  0  0  0
    3.3628   15.8994   45.5891 O   0  0  0  0  0  0  0  0  0  0  0  0
    4.8151   17.9886   51.0893 S   0  0  0  0  0  0  0  0  0  0  0  0
    7.9972   18.7968   49.1626 C   0  0  0  0  0  0  0  0  0  0  0  0
    9.5658   16.1848   44.6061 C   0  0  0  0  0  0  0  0  0  0  0  0
    3.1002   13.5709   46.4419 O   0  5  0  0  0  0  0  0  0  0  0  0
    7.0118   18.0352   48.6261 N   0  0  0  0  0  0  0  0  0  0  0  0
    8.6960   16.9690   44.0507 N   0  0  0  0  0  0  0  0  0  0  0  0
    5.2553   14.3844   45.5167 O   0  0  0  0  0  0  0  0  0  0  0  0
    6.5419   16.9327   49.4774 C   0  0  2  0  0  0  0  0  0  0  0  0
    7.7120   17.5704   44.8119 C   0  0  0  0  0  0  0  0  0  0  0  0
    6.8354   18.3757   44.2069 N   0  0  0  0  0  0  0  0  0  0  0  0
    5.2513   16.8302   50.1517 C   0  0  1  0  0  0  0  0  0  0  0  0
    7.6714   17.3098   46.2423 C   0  0  0  0  0  0  0  0  0  0  0  0
    7.9553   19.9462   48.7822 O   0  0  0  0  0  0  0  0  0  0  0  0
    4.3233   15.6763   50.0104 C   0  0  0  0  0  0  0  0  0  0  0  0
    8.6367   16.4540   46.7328 C   0  0  0  0  0  0  0  0  0  0  0  0
    3.5676   15.4976   48.7642 C   0  0  0  0  0  0  0  0  0  0  0  0
    6.6476   17.9717   47.1320 C   0  0  0  0  0  0  0  0  0  0  0  0
    4.4385   15.1113   47.6867 O   0  0  0  0  0  0  0  0  0  0  0  0
  1  2  1  0  0  0  0
  1  8  2  0  0  0  0
  1 14  1  0  0  0  0
  2  3  2  0  0  0  0
  2  7  1  0  0  0  0
  3  4  1  0  0  0  0
  4  5  2  0  0  0  0
  5  6  1  0  0  0  0
  6  7  2  0  0  0  0
  9 16  1  0  0  0  0
 10 21  1  0  0  0  0
 11 13  1  6  0  0  0
 11 17  1  0  0  0  0
 11 20  2  0  0  0  0
 11 31  1  0  0  0  0
 12 16  2  0  0  0  0
 12 28  1  0  0  0  0
 15 26  1  0  0  0  0
 15 18  1  0  0  0  0
 16 19  1  0  0  0  0
 18 30  1  0  0  0  0
 19 22  2  0  0  0  0
 21 18  1  1  0  0  0
 21 24  1  0  0  0  0
 22 23  1  0  0  0  0
 22 25  1  0  0  0  0
 24 14  1  1  0  0  0
 24 27  1  0  0  0  0
 25 28  2  0  0  0  0
 25 30  1  0  0  0  0
 27 29  1  0  0  0  0
 29 31  1  0  0  0  0
M  CHG  1  17  -1
M  END
>  <CHROM.1>
129.68655612,84.40909024,111.55491352,-149.37085634,-69.18795911,69.11893807
124.17265354,107.36722673,-158.40885068,70.16242091,175.62887503,62.65834567
5.31649106,16.97390412,48.19503157,-2.44185202,-0.39369438,-2.26681408

>  <Name>
ligand

>  <RI>
0

>  <Rbt.Current_Directory>
/home/itssahil/PROJECTS/Mol_Feturizer/New_Systems/rnas/2HOO

>  <Rbt.Executable>
rbdock ($Id: //depot/dev/client3/rdock/2013.1/src/exe/rbdock.cxx#4 $)

>  <Rbt.Library>
libRbt.so (2013.1, Build901 2013/11/27)

>  <Rbt.Parameter_File>
/export/apps/rDock/src/rDock_2013.1_src/data/scripts/dock_solv.prm

>  <Rbt.Receptor>
prm/pocket_docking_8.prm

>  <SCORE>
-25.2098

>  <SCORE.INTER>
-11.3966

>  <SCORE.INTER.CONST>
1

>  <SCORE.INTER.POLAR>
0

>  <SCORE.INTER.ROT>
12

>  <SCORE.INTER.SOLV>
10.0261

>  <SCORE.INTER.VDW>
-22.5397

>  <SCORE.INTER.norm>
-0.367631

>  <SCORE.INTRA>
-13.8132

>  <SCORE.INTRA.DIHEDRAL>
1.53829

>  <SCORE.INTRA.DIHEDRAL.0>
14.6094

>  <SCORE.INTRA.POLAR>
0

>  <SCORE.INTRA.POLAR.0>
0

>  <SCORE.INTRA.REPUL>
0

>  <SCORE.INTRA.REPUL.0>
0

>  <SCORE.INTRA.SOLV>
-0.454869

>  <SCORE.INTRA.SOLV.lig_0>
-65.6478

>  <SCORE.INTRA.VDW>
-14.3549

>  <SCORE.INTRA.VDW.0>
9.35535

>  <SCORE.INTRA.norm>
-0.445588

>  <SCORE.RESTR>
0

>  <SCORE.RESTR.CAVITY>
0

>  <SCORE.RESTR.norm>
0

>  <SCORE.SYSTEM>
0

>  <SCORE.SYSTEM.CONST>
0

>  <SCORE.SYSTEM.DIHEDRAL>
0

>  <SCORE.SYSTEM.SOLV>
0

>  <SCORE.SYSTEM.norm>
0

>  <SCORE.heavy>
31

>  <SCORE.norm>
-0.81322

>  <RMSD>
7.616

$$$$
ligand
 OpenBabel11021811443D
libRbt.so/2013.1/901 2013/11/27
 31 32  0  0  0  0  0  0  0  0999 V2000
    3.9645   20.0537   51.7875 C   0  0  0  0  0  0  0  0  0  0  0  0
    3.5587   21.5081   52.0066 C   0  0  0  0  0  0  0  0  0  0  0  0
    2.7712   22.1903   51.0233 C   0  0  0  0  0  0  0  0  0  0  0  0
    2.4007   23.5407   51.2308 C   0  0  0  0  0  0  0  0  0  0  0  0
    2.7966   24.2223   52.4075 C   0  0  0  0  0  0  0  0  0  0  0  0
    3.5665   23.5649   53.3885 C   0  0  0  0  0  0  0  0  0  0  0  0
    3.9462   22.2239   53.2001 C   0  0  0  0  0  0  0  0  0  0  0  0
    3.6050   19.1887   52.5856 O   0  0  0  0  0  0  0  0  0  0  0  0
    6.5121   10.8955   49.9167 C   0  0  0  0  0  0  0  0  0  0  0  0
    7.1991   17.1826   51.5597 C   0  0  0  0  0  0  0  0  0  0  0  0
    7.4754   24.1287   52.4814 P   0  0  1  0  0  0  0  0  0  0  0  0
    7.3003   13.1400   49.6430 N   0  0  0  0  0  0  0  0  0  0  0  0
    6.1680   24.7055   52.1143 O   0  0  0  0  0  0  0  0  0  0  0  0
    4.7371   19.6934   50.6971 S   0  0  0  0  0  0  0  0  0  0  0  0
    7.9613   17.3733   48.5060 C   0  0  0  0  0  0  0  0  0  0  0  0
    6.2142   12.2942   49.6356 C   0  0  0  0  0  0  0  0  0  0  0  0
    8.6511   24.9003   51.9950 O   0  5  0  0  0  0  0  0  0  0  0  0
    6.7501   17.3623   49.1159 N   0  0  0  0  0  0  0  0  0  0  0  0
    4.9983   12.6761   49.3999 N   0  0  0  0  0  0  0  0  0  0  0  0
    7.5189   23.8420   53.9341 O   0  0  0  0  0  0  0  0  0  0  0  0
    6.7035   18.0343   50.4225 C   0  0  2  0  0  0  0  0  0  0  0  0
    4.7238   14.0027   49.1275 C   0  0  0  0  0  0  0  0  0  0  0  0
    3.4602   14.3597   48.8850 N   0  0  0  0  0  0  0  0  0  0  0  0
    6.2617   19.3986   50.6951 C   0  0  1  0  0  0  0  0  0  0  0  0
    5.8201   14.9584   49.1084 C   0  0  0  0  0  0  0  0  0  0  0  0
    8.7465   16.6065   49.0188 O   0  0  0  0  0  0  0  0  0  0  0  0
    7.1805   20.5377   50.9613 C   0  0  0  0  0  0  0  0  0  0  0  0
    7.0745   14.4513   49.3806 C   0  0  0  0  0  0  0  0  0  0  0  0
    6.7629   21.6137   51.8689 C   0  0  0  0  0  0  0  0  0  0  0  0
    5.5886   16.4119   48.7744 C   0  0  0  0  0  0  0  0  0  0  0  0
    7.6513   22.7407   51.7721 O   0  0  0  0  0  0  0  0  0  0  0  0
  1  2  1  0  0  0  0
  1  8  2  0  0  0  0
  1 14  1  0  0  0  0
  2  3  2  0  0  0  0
  2  7  1  0  0  0  0
  3  4  1  0  0  0  0
  4  5  2  0  0  0  0
  5  6  1  0  0  0  0
  6  7  2  0  0  0  0
  9 16  1  0  0  0  0
 10 21  1  0  0  0  0
 11 13  1  6  0  0  0
 11 17  1  0  0  0  0
 11 20  2  0  0  0  0
 11 31  1  0  0  0  0
 12 16  2  0  0  0  0
 12 28  1  0  0  0  0
 15 26  1  0  0  0  0
 15 18  1  0  0  0  0
 16 19  1  0  0  0  0
 18 30  1  0  0  0  0
 19 22  2  0  0  0  0
 21 18  1  6  0  0  0
 21 24  1  0  0  0  0
 22 23  1  0  0  0  0
 22 25  1  0  0  0  0
 24 14  1  6  0  0  0
 24 27  1  0  0  0  0
 25 28  2  0  0  0  0
 25 30  1  0  0  0  0
 27 29  1  0  0  0  0
 29 31  1  0  0  0  0
M  CHG  1  17  -1
M  END
>  <CHROM.1>
-119.47818025,101.48498894,112.97094756,74.10337983,-81.63711165,67.75698163
-104.96143144,32.78956803,165.93204887,-167.69747259,174.25288887,-56.23355285
5.87572326,19.21975535,50.92840913,1.60309999,0.09043596,0.29603771

>  <Name>
ligand

>  <RI>
0

>  <Rbt.Current_Directory>
/home/itssahil/PROJECTS/Mol_Feturizer/New_Systems/rnas/2HOO

>  <Rbt.Executable>
rbdock ($Id: //depot/dev/client3/rdock/2013.1/src/exe/rbdock.cxx#4 $)

>  <Rbt.Library>
libRbt.so (2013.1, Build901 2013/11/27)

>  <Rbt.Parameter_File>
/export/apps/rDock/src/rDock_2013.1_src/data/scripts/dock_solv.prm

>  <Rbt.Receptor>
prm/pocket_docking_5.prm

>  <SCORE>
-25.1591

>  <SCORE.INTER>
-12.7727

>  <SCORE.INTER.CONST>
1

>  <SCORE.INTER.POLAR>
0

>  <SCORE.INTER.ROT>
12

>  <SCORE.INTER.SOLV>
17.6206

>  <SCORE.INTER.VDW>
-25.9887

>  <SCORE.INTER.norm>
-0.412023

>  <SCORE.INTRA>
-12.393

>  <SCORE.INTRA.DIHEDRAL>
2.72546

>  <SCORE.INTRA.DIHEDRAL.0>
14.6094

>  <SCORE.INTRA.POLAR>
0

>  <SCORE.INTRA.POLAR.0>
0

>  <SCORE.INTRA.REPUL>
0

>  <SCORE.INTRA.REPUL.0>
0

>  <SCORE.INTRA.SOLV>
-0.793258

>  <SCORE.INTRA.SOLV.lig_0>
-65.6478

>  <SCORE.INTRA.VDW>
-13.3591

>  <SCORE.INTRA.VDW.0>
9.35535

>  <SCORE.INTRA.norm>
-0.399774

>  <SCORE.RESTR>
0.00664943

>  <SCORE.RESTR.CAVITY>
0.00664943

>  <SCORE.RESTR.norm>
0.000214498

>  <SCORE.SYSTEM>
0

>  <SCORE.SYSTEM.CONST>
0

>  <SCORE.SYSTEM.DIHEDRAL>
0

>  <SCORE.SYSTEM.SOLV>
0

>  <SCORE.SYSTEM.norm>
0

>  <SCORE.heavy>
31

>  <SCORE.norm>
-0.811582

>  <RMSD>
7.651

$$$$
ligand
 OpenBabel11021811443D
libRbt.so/2013.1/901 2013/11/27
 31 32  0  0  0  0  0  0  0  0999 V2000
    8.0036   22.6629   52.8080 C   0  0  0  0  0  0  0  0  0  0  0  0
    9.3369   22.1075   53.2997 C   0  0  0  0  0  0  0  0  0  0  0  0
    9.4642   20.7150   53.6113 C   0  0  0  0  0  0  0  0  0  0  0  0
   10.7029   20.2063   54.0703 C   0  0  0  0  0  0  0  0  0  0  0  0
   11.8216   21.0625   54.2177 C   0  0  0  0  0  0  0  0  0  0  0  0
   11.7162   22.4341   53.9099 C   0  0  0  0  0  0  0  0  0  0  0  0
   10.4936   22.9591   53.4542 C   0  0  0  0  0  0  0  0  0  0  0  0
    7.4690   23.5963   53.4056 O   0  0  0  0  0  0  0  0  0  0  0  0
    1.6312   16.8394   56.1795 C   0  0  0  0  0  0  0  0  0  0  0  0
    6.5221   18.6989   52.7450 C   0  0  0  0  0  0  0  0  0  0  0  0
    6.9445   18.4969   47.1849 P   0  0  1  0  0  0  0  0  0  0  0  0
    2.6364   17.3217   54.0603 N   0  0  0  0  0  0  0  0  0  0  0  0
    6.5832   19.6255   46.3060 O   0  0  0  0  0  0  0  0  0  0  0  0
    7.3839   22.1260   51.6928 S   0  0  0  0  0  0  0  0  0  0  0  0
    4.4525   19.1596   50.3242 C   0  0  0  0  0  0  0  0  0  0  0  0
    2.2070   17.8211   55.2692 C   0  0  0  0  0  0  0  0  0  0  0  0
    5.8414   17.5304   47.4364 O   0  5  0  0  0  0  0  0  0  0  0  0
    4.8217   19.9139   51.3889 N   0  0  0  0  0  0  0  0  0  0  0  0
    2.2916   19.0686   55.6105 N   0  0  0  0  0  0  0  0  0  0  0  0
    8.1923   17.8561   46.7087 O   0  0  0  0  0  0  0  0  0  0  0  0
    6.2381   19.8072   51.7678 C   0  0  2  0  0  0  0  0  0  0  0  0
    2.8324   19.9953   54.7399 C   0  0  0  0  0  0  0  0  0  0  0  0
    2.8997   21.2727   55.1231 N   0  0  0  0  0  0  0  0  0  0  0  0
    7.3430   20.6288   51.2829 C   0  0  1  0  0  0  0  0  0  0  0  0
    3.3017   19.5473   53.4380 C   0  0  0  0  0  0  0  0  0  0  0  0
    4.3559   17.9838   50.5991 O   0  0  0  0  0  0  0  0  0  0  0  0
    8.4349   20.1283   50.4053 C   0  0  0  0  0  0  0  0  0  0  0  0
    3.1744   18.1982   53.1763 C   0  0  0  0  0  0  0  0  0  0  0  0
    8.2277   20.0568   48.9535 C   0  0  0  0  0  0  0  0  0  0  0  0
    3.8616   20.5194   52.4283 C   0  0  0  0  0  0  0  0  0  0  0  0
    7.2694   19.0371   48.6214 O   0  0  0  0  0  0  0  0  0  0  0  0
  1  2  1  0  0  0  0
  1  8  2  0  0  0  0
  1 14  1  0  0  0  0
  2  3  2  0  0  0  0
  2  7  1  0  0  0  0
  3  4  1  0  0  0  0
  4  5  2  0  0  0  0
  5  6  1  0  0  0  0
  6  7  2  0  0  0  0
  9 16  1  0  0  0  0
 10 21  1  0  0  0  0
 11 13  1  6  0  0  0
 11 17  1  0  0  0  0
 11 20  2  0  0  0  0
 11 31  1  0  0  0  0
 12 16  2  0  0  0  0
 12 28  1  0  0  0  0
 15 26  1  0  0  0  0
 15 18  1  0  0  0  0
 16 19  1  0  0  0  0
 18 30  1  0  0  0  0
 19 22  2  0  0  0  0
 21 18  1  6  0  0  0
 21 24  1  0  0  0  0
 22 23  1  0  0  0  0
 22 25  1  0  0  0  0
 24 14  1  6  0  0  0
 24 27  1  0  0  0  0
 25 28  2  0  0  0  0
 25 30  1  0  0  0  0
 27 29  1  0  0  0  0
 29 31  1  0  0  0  0
M  CHG  1  17  -1
M  END
>  <CHROM.1>
124.06903776,37.35311132,90.43191017,75.11541195,-88.66951482,75.60780169
-113.16208336,-96.19332775,155.78296254,-68.94649365,-169.67808221,-54.64066613
6.33805901,19.88465689,51.72158470,-0.58461454,0.46988828,1.23437153

>  <Name>
ligand

>  <RI>
0

>  <Rbt.Current_Directory>
/home/itssahil/PROJECTS/Mol_Feturizer/New_Systems/rnas/2HOO

>  <Rbt.Executable>
rbdock ($Id: //depot/dev/client3/rdock/2013.1/src/exe/rbdock.cxx#4 $)

>  <Rbt.Library>
libRbt.so (2013.1, Build901 2013/11/27)

>  <Rbt.Parameter_File>
/export/apps/rDock/src/rDock_2013.1_src/data/scripts/dock_solv.prm

>  <Rbt.Receptor>
prm/pocket_docking_7.prm

>  <SCORE>
-33.5134

>  <SCORE.INTER>
-18.6704

>  <SCORE.INTER.CONST>
1

>  <SCORE.INTER.POLAR>
0

>  <SCORE.INTER.ROT>
12

>  <SCORE.INTER.SOLV>
10.947

>  <SCORE.INTER.VDW>
-27.6959

>  <SCORE.INTER.norm>
-0.602271

>  <SCORE.INTRA>
-14.843

>  <SCORE.INTRA.DIHEDRAL>
0.113694

>  <SCORE.INTRA.DIHEDRAL.0>
14.6094

>  <SCORE.INTRA.POLAR>
0

>  <SCORE.INTRA.POLAR.0>
0

>  <SCORE.INTRA.REPUL>
0

>  <SCORE.INTRA.REPUL.0>
0

>  <SCORE.INTRA.SOLV>
0.339542

>  <SCORE.INTRA.SOLV.lig_0>
-65.6478

>  <SCORE.INTRA.VDW>
-15.0696

>  <SCORE.INTRA.VDW.0>
9.35535

>  <SCORE.INTRA.norm>
-0.478807

>  <SCORE.RESTR>
0

>  <SCORE.RESTR.CAVITY>
0

>  <SCORE.RESTR.norm>
0

>  <SCORE.SYSTEM>
0

>  <SCORE.SYSTEM.CONST>
0

>  <SCORE.SYSTEM.DIHEDRAL>
0

>  <SCORE.SYSTEM.SOLV>
0

>  <SCORE.SYSTEM.norm>
0

>  <SCORE.heavy>
31

>  <SCORE.norm>
-1.08108

>  <RMSD>
7.667

$$$$
ligand
 OpenBabel11021811443D
libRbt.so/2013.1/901 2013/11/27
 31 32  0  0  0  0  0  0  0  0999 V2000
    1.9434   23.3306   50.8595 C   0  0  0  0  0  0  0  0  0  0  0  0
    0.7018   23.8639   51.5681 C   0  0  0  0  0  0  0  0  0  0  0  0
    0.7727   24.2567   52.9439 C   0  0  0  0  0  0  0  0  0  0  0  0
   -0.3835   24.7476   53.5967 C   0  0  0  0  0  0  0  0  0  0  0  0
   -1.6104   24.8606   52.8980 C   0  0  0  0  0  0  0  0  0  0  0  0
   -1.6970   24.4845   51.5422 C   0  0  0  0  0  0  0  0  0  0  0  0
   -0.5600   23.9928   50.8764 C   0  0  0  0  0  0  0  0  0  0  0  0
    2.4275   23.9543   49.9155 O   0  0  0  0  0  0  0  0  0  0  0  0
    1.0153   15.7471   50.4588 C   0  0  0  0  0  0  0  0  0  0  0  0
    5.8461   22.6945   52.4365 C   0  0  0  0  0  0  0  0  0  0  0  0
    3.1823   21.8887   57.0682 P   0  0  1  0  0  0  0  0  0  0  0  0
    1.8161   17.9103   51.1019 N   0  0  0  0  0  0  0  0  0  0  0  0
    3.0005   20.5557   56.4624 O   0  0  0  0  0  0  0  0  0  0  0  0
    2.5344   22.1471   51.2667 S   0  0  0  0  0  0  0  0  0  0  0  0
    5.7620   19.5609   53.1570 C   0  0  0  0  0  0  0  0  0  0  0  0
    2.0980   16.7227   50.4651 C   0  0  0  0  0  0  0  0  0  0  0  0
    2.3619   22.1327   58.2854 O   0  5  0  0  0  0  0  0  0  0  0  0
    5.3862   20.2742   52.0666 N   0  0  0  0  0  0  0  0  0  0  0  0
    3.2328   16.4537   49.8996 N   0  0  0  0  0  0  0  0  0  0  0  0
    4.6235   22.1705   57.2627 O   0  0  0  0  0  0  0  0  0  0  0  0
    4.8177   21.5992   52.3535 C   0  0  2  0  0  0  0  0  0  0  0  0
    4.2574   17.3807   49.9151 C   0  0  0  0  0  0  0  0  0  0  0  0
    5.4144   17.0680   49.3265 N   0  0  0  0  0  0  0  0  0  0  0  0
    3.4077   21.9318   52.5325 C   0  0  1  0  0  0  0  0  0  0  0  0
    4.0405   18.6580   50.5764 C   0  0  0  0  0  0  0  0  0  0  0  0
    6.9020   19.7936   53.4940 O   0  0  0  0  0  0  0  0  0  0  0  0
    2.7477   22.0919   53.8560 C   0  0  0  0  0  0  0  0  0  0  0  0
    2.7949   18.8482   51.1395 C   0  0  0  0  0  0  0  0  0  0  0  0
    3.1300   23.2077   54.7303 C   0  0  0  0  0  0  0  0  0  0  0  0
    5.1359   19.6926   50.6638 C   0  0  0  0  0  0  0  0  0  0  0  0
    2.6679   22.9882   56.0745 O   0  0  0  0  0  0  0  0  0  0  0  0
  1  2  1  0  0  0  0
  1  8  2  0  0  0  0
  1 14  1  0  0  0  0
  2  3  2  0  0  0  0
  2  7  1  0  0  0  0
  3  4  1  0  0  0  0
  4  5  2  0  0  0  0
  5  6  1  0  0  0  0
  6  7  2  0  0  0  0
  9 16  1  0  0  0  0
 10 21  1  0  0  0  0
 11 13  1  6  0  0  0
 11 17  1  0  0  0  0
 11 20  2  0  0  0  0
 11 31  1  0  0  0  0
 12 16  2  0  0  0  0
 12 28  1  0  0  0  0
 15 26  1  0  0  0  0
 15 18  1  0  0  0  0
 16 19  1  0  0  0  0
 18 30  1  0  0  0  0
 19 22  2  0  0  0  0
 21 18  1  6  0  0  0
 21 24  1  0  0  0  0
 22 23  1  0  0  0  0
 22 25  1  0  0  0  0
 24 14  1  6  0  0  0
 24 27  1  0  0  0  0
 25 28  2  0  0  0  0
 25 30  1  0  0  0  0
 27 29  1  0  0  0  0
 29 31  1  0  0  0  0
M  CHG  1  17  -1
M  END
>  <CHROM.1>
-115.94296966,-75.07951030,-114.01779028,-88.20531444,88.50062287,60.55468511
97.24111030,-112.73948996,-130.25966144,-164.23605921,67.97115984,-57.85704033
2.93328296,21.16909025,52.77518239,1.98415757,-0.80669637,0.97967863

>  <Name>
ligand

>  <RI>
0

>  <Rbt.Current_Directory>
/home/itssahil/PROJECTS/Mol_Feturizer/New_Systems/rnas/2HOO

>  <Rbt.Executable>
rbdock ($Id: //depot/dev/client3/rdock/2013.1/src/exe/rbdock.cxx#4 $)

>  <Rbt.Library>
libRbt.so (2013.1, Build901 2013/11/27)

>  <Rbt.Parameter_File>
/export/apps/rDock/src/rDock_2013.1_src/data/scripts/dock_solv.prm

>  <Rbt.Receptor>
prm/pocket_docking_7.prm

>  <SCORE>
-25.861

>  <SCORE.INTER>
-11.922

>  <SCORE.INTER.CONST>
1

>  <SCORE.INTER.POLAR>
0

>  <SCORE.INTER.ROT>
12

>  <SCORE.INTER.SOLV>
9.55003

>  <SCORE.INTER.VDW>
-22.7314

>  <SCORE.INTER.norm>
-0.384581

>  <SCORE.INTRA>
-13.939

>  <SCORE.INTRA.DIHEDRAL>
2.62655

>  <SCORE.INTRA.DIHEDRAL.0>
14.6094

>  <SCORE.INTRA.POLAR>
0

>  <SCORE.INTRA.POLAR.0>
0

>  <SCORE.INTRA.REPUL>
0

>  <SCORE.INTRA.REPUL.0>
0

>  <SCORE.INTRA.SOLV>
-0.3353

>  <SCORE.INTRA.SOLV.lig_0>
-65.6478

>  <SCORE.INTRA.VDW>
-15.0846

>  <SCORE.INTRA.VDW.0>
9.35535

>  <SCORE.INTRA.norm>
-0.449644

>  <SCORE.RESTR>
0

>  <SCORE.RESTR.CAVITY>
0

>  <SCORE.RESTR.norm>
0

>  <SCORE.SYSTEM>
0

>  <SCORE.SYSTEM.CONST>
0

>  <SCORE.SYSTEM.DIHEDRAL>
0

>  <SCORE.SYSTEM.SOLV>
0

>  <SCORE.SYSTEM.norm>
0

>  <SCORE.heavy>
31

>  <SCORE.norm>
-0.834226

>  <RMSD>
7.676

$$$$
ligand
 OpenBabel11021811443D
libRbt.so/2013.1/901 2013/11/27
 31 32  0  0  0  0  0  0  0  0999 V2000
   10.1010   19.2669   53.9960 C   0  0  0  0  0  0  0  0  0  0  0  0
   10.3288   20.7729   53.9064 C   0  0  0  0  0  0  0  0  0  0  0  0
    9.2107   21.6658   53.8367 C   0  0  0  0  0  0  0  0  0  0  0  0
    9.4285   23.0618   53.7503 C   0  0  0  0  0  0  0  0  0  0  0  0
   10.7447   23.5849   53.7394 C   0  0  0  0  0  0  0  0  0  0  0  0
   11.8566   22.7215   53.8134 C   0  0  0  0  0  0  0  0  0  0  0  0
   11.6611   21.3314   53.8979 C   0  0  0  0  0  0  0  0  0  0  0  0
   11.0631   18.5037   54.0754 O   0  0  0  0  0  0  0  0  0  0  0  0
   -0.2756   17.3144   51.9336 C   0  0  0  0  0  0  0  0  0  0  0  0
    5.6930   17.7354   53.8285 C   0  0  0  0  0  0  0  0  0  0  0  0
    5.3149   17.4925   49.4349 P   0  0  1  0  0  0  0  0  0  0  0  0
    2.0777   17.7317   52.0820 N   0  0  0  0  0  0  0  0  0  0  0  0
    5.8026   17.6163   48.0480 O   0  0  0  0  0  0  0  0  0  0  0  0
    8.8188   18.7456   53.9876 S   0  0  0  0  0  0  0  0  0  0  0  0
    5.5744   20.9745   52.2170 C   0  0  0  0  0  0  0  0  0  0  0  0
    0.8233   18.0407   52.5574 C   0  0  0  0  0  0  0  0  0  0  0  0
    3.9711   18.0852   49.6739 O   0  5  0  0  0  0  0  0  0  0  0  0
    5.4189   20.1506   53.2829 N   0  0  0  0  0  0  0  0  0  0  0  0
    0.5947   18.9095   53.4918 N   0  0  0  0  0  0  0  0  0  0  0  0
    5.4302   16.0891   49.8949 O   0  0  0  0  0  0  0  0  0  0  0  0
    6.3320   18.9991   53.3198 C   0  0  2  0  0  0  0  0  0  0  0  0
    1.6406   19.5995   54.0742 C   0  0  0  0  0  0  0  0  0  0  0  0
    1.3678   20.4902   55.0308 N   0  0  0  0  0  0  0  0  0  0  0  0
    7.7307   18.9716   52.9032 C   0  0  1  0  0  0  0  0  0  0  0  0
    2.9971   19.3353   53.6203 C   0  0  0  0  0  0  0  0  0  0  0  0
    4.7113   20.8205   51.3811 O   0  0  0  0  0  0  0  0  0  0  0  0
    8.1894   19.1591   51.5005 C   0  0  0  0  0  0  0  0  0  0  0  0
    3.1327   18.3864   52.6274 C   0  0  0  0  0  0  0  0  0  0  0  0
    7.6754   18.2803   50.4425 C   0  0  0  0  0  0  0  0  0  0  0  0
    4.1754   20.0887   54.1877 C   0  0  0  0  0  0  0  0  0  0  0  0
    6.2389   18.3265   50.3896 O   0  0  0  0  0  0  0  0  0  0  0  0
  1  2  1  0  0  0  0
  1  8  2  0  0  0  0
  1 14  1  0  0  0  0
  2  3  2  0  0  0  0
  2  7  1  0  0  0  0
  3  4  1  0  0  0  0
  4  5  2  0  0  0  0
  5  6  1  0  0  0  0
  6  7  2  0  0  0  0
  9 16  1  0  0  0  0
 10 21  1  0  0  0  0
 11 13  1  6  0  0  0
 11 17  1  0  0  0  0
 11 20  2  0  0  0  0
 11 31  1  0  0  0  0
 12 16  2  0  0  0  0
 12 28  1  0  0  0  0
 15 26  1  0  0  0  0
 15 18  1  0  0  0  0
 16 19  1  0  0  0  0
 18 30  1  0  0  0  0
 19 22  2  0  0  0  0
 21 18  1  6  0  0  0
 21 24  1  0  0  0  0
 22 23  1  0  0  0  0
 22 25  1  0  0  0  0
 24 14  1  1  0  0  0
 24 27  1  0  0  0  0
 25 28  2  0  0  0  0
 25 30  1  0  0  0  0
 27 29  1  0  0  0  0
 29 31  1  0  0  0  0
M  CHG  1  17  -1
M  END
>  <CHROM.1>
-178.94151267,56.02777080,-147.49558851,103.66509632,-142.07696327,78.10884967
-67.63585075,124.17371625,-156.27900897,56.61605907,-177.57601559,-49.73956995
6.05825081,19.23061377,52.44511671,-0.33705482,-0.13432034,-2.20279638

>  <Name>
ligand

>  <RI>
0

>  <Rbt.Current_Directory>
/home/itssahil/PROJECTS/Mol_Feturizer/New_Systems/rnas/2HOO

>  <Rbt.Executable>
rbdock ($Id: //depot/dev/client3/rdock/2013.1/src/exe/rbdock.cxx#4 $)

>  <Rbt.Library>
libRbt.so (2013.1, Build901 2013/11/27)

>  <Rbt.Parameter_File>
/export/apps/rDock/src/rDock_2013.1_src/data/scripts/dock_solv.prm

>  <Rbt.Receptor>
prm/pocket_docking_2.prm

>  <SCORE>
-20.6483

>  <SCORE.INTER>
-13.0614

>  <SCORE.INTER.CONST>
1

>  <SCORE.INTER.POLAR>
0

>  <SCORE.INTER.ROT>
12

>  <SCORE.INTER.SOLV>
14.3849

>  <SCORE.INTER.VDW>
-25.1025

>  <SCORE.INTER.norm>
-0.421335

>  <SCORE.INTRA>
-9.46041

>  <SCORE.INTRA.DIHEDRAL>
-0.0355611

>  <SCORE.INTRA.DIHEDRAL.0>
14.6094

>  <SCORE.INTRA.POLAR>
0

>  <SCORE.INTRA.POLAR.0>
0

>  <SCORE.INTRA.REPUL>
0

>  <SCORE.INTRA.REPUL.0>
0

>  <SCORE.INTRA.SOLV>
2.15866

>  <SCORE.INTRA.SOLV.lig_0>
-65.6478

>  <SCORE.INTRA.VDW>
-10.522

>  <SCORE.INTRA.VDW.0>
9.35535

>  <SCORE.INTRA.norm>
-0.305175

>  <SCORE.RESTR>
1.87349

>  <SCORE.RESTR.CAVITY>
1.87349

>  <SCORE.RESTR.norm>
0.0604352

>  <SCORE.SYSTEM>
0

>  <SCORE.SYSTEM.CONST>
0

>  <SCORE.SYSTEM.DIHEDRAL>
0

>  <SCORE.SYSTEM.SOLV>
0

>  <SCORE.SYSTEM.norm>
0

>  <SCORE.heavy>
31

>  <SCORE.norm>
-0.666075

>  <RMSD>
7.686

$$$$
ligand
 OpenBabel11021811443D
libRbt.so/2013.1/901 2013/11/27
 31 32  0  0  0  0  0  0  0  0999 V2000
    4.4970   22.1995   55.5742 C   0  0  0  0  0  0  0  0  0  0  0  0
    3.8544   21.7658   56.8884 C   0  0  0  0  0  0  0  0  0  0  0  0
    4.6259   21.7525   58.0954 C   0  0  0  0  0  0  0  0  0  0  0  0
    4.0250   21.3459   59.3109 C   0  0  0  0  0  0  0  0  0  0  0  0
    2.6631   20.9583   59.3455 C   0  0  0  0  0  0  0  0  0  0  0  0
    1.8872   20.9711   58.1686 C   0  0  0  0  0  0  0  0  0  0  0  0
    2.4664   21.3701   56.9506 C   0  0  0  0  0  0  0  0  0  0  0  0
    3.7886   22.4985   54.6133 O   0  0  0  0  0  0  0  0  0  0  0  0
    7.3991   19.3267   47.0183 C   0  0  0  0  0  0  0  0  0  0  0  0
    7.1732   24.0371   52.2955 C   0  0  0  0  0  0  0  0  0  0  0  0
    5.4937   27.2287   56.8135 P   0  0  1  0  0  0  0  0  0  0  0  0
    8.1100   20.5866   48.9266 N   0  0  0  0  0  0  0  0  0  0  0  0
    5.3649   27.2353   55.3437 O   0  0  0  0  0  0  0  0  0  0  0  0
    5.8740   22.2597   55.4483 S   0  0  0  0  0  0  0  0  0  0  0  0
    9.2292   21.6710   53.4393 C   0  0  0  0  0  0  0  0  0  0  0  0
    7.2782   19.6013   48.4445 C   0  0  0  0  0  0  0  0  0  0  0  0
    6.0323   28.4888   57.3934 O   0  5  0  0  0  0  0  0  0  0  0  0
    7.9428   21.7828   53.0250 N   0  0  0  0  0  0  0  0  0  0  0  0
    6.4343   18.9420   49.1749 N   0  0  0  0  0  0  0  0  0  0  0  0
    4.2240   26.7887   57.4368 O   0  0  0  0  0  0  0  0  0  0  0  0
    7.2694   23.0313   53.4106 C   0  0  2  0  0  0  0  0  0  0  0  0
    6.3200   19.2121   50.5252 C   0  0  0  0  0  0  0  0  0  0  0  0
    5.4371   18.5165   51.2460 N   0  0  0  0  0  0  0  0  0  0  0  0
    6.6930   23.3545   54.7122 C   0  0  1  0  0  0  0  0  0  0  0  0
    7.1594   20.2465   51.1093 C   0  0  0  0  0  0  0  0  0  0  0  0
    9.8263   20.7860   52.8669 O   0  0  0  0  0  0  0  0  0  0  0  0
    6.8274   24.6762   55.3814 C   0  0  0  0  0  0  0  0  0  0  0  0
    8.0299   20.8825   50.2477 C   0  0  0  0  0  0  0  0  0  0  0  0
    6.6069   24.7856   56.8289 C   0  0  0  0  0  0  0  0  0  0  0  0
    7.0488   20.6161   52.5684 C   0  0  0  0  0  0  0  0  0  0  0  0
    6.5638   26.1635   57.2389 O   0  0  0  0  0  0  0  0  0  0  0  0
  1  2  1  0  0  0  0
  1  8  2  0  0  0  0
  1 14  1  0  0  0  0
  2  3  2  0  0  0  0
  2  7  1  0  0  0  0
  3  4  1  0  0  0  0
  4  5  2  0  0  0  0
  5  6  1  0  0  0  0
  6  7  2  0  0  0  0
  9 16  1  0  0  0  0
 10 21  1  0  0  0  0
 11 13  1  6  0  0  0
 11 17  1  0  0  0  0
 11 20  2  0  0  0  0
 11 31  1  0  0  0  0
 12 16  2  0  0  0  0
 12 28  1  0  0  0  0
 15 26  1  0  0  0  0
 15 18  1  0  0  0  0
 16 19  1  0  0  0  0
 18 30  1  0  0  0  0
 19 22  2  0  0  0  0
 21 18  1  6  0  0  0
 21 24  1  0  0  0  0
 22 23  1  0  0  0  0
 22 25  1  0  0  0  0
 24 14  1  6  0  0  0
 24 27  1  0  0  0  0
 25 28  2  0  0  0  0
 25 30  1  0  0  0  0
 27 29  1  0  0  0  0
 29 31  1  0  0  0  0
M  CHG  1  17  -1
M  END
>  <CHROM.1>
-163.76373036,-139.71597911,-104.80320644,-164.93350117,101.92897757,-86.63115662
136.49458693,20.30423243,-176.61382014,-170.39496909,64.28018672,-51.28295480
6.03902887,22.67219149,54.32029084,2.02814136,0.91628982,0.58443877

>  <Name>
ligand

>  <RI>
0

>  <Rbt.Current_Directory>
/home/itssahil/PROJECTS/Mol_Feturizer/New_Systems/rnas/2HOO

>  <Rbt.Executable>
rbdock ($Id: //depot/dev/client3/rdock/2013.1/src/exe/rbdock.cxx#4 $)

>  <Rbt.Library>
libRbt.so (2013.1, Build901 2013/11/27)

>  <Rbt.Parameter_File>
/export/apps/rDock/src/rDock_2013.1_src/data/scripts/dock_solv.prm

>  <Rbt.Receptor>
prm/pocket_docking_8.prm

>  <SCORE>
-24.3014

>  <SCORE.INTER>
-12.8049

>  <SCORE.INTER.CONST>
1

>  <SCORE.INTER.POLAR>
0

>  <SCORE.INTER.ROT>
12

>  <SCORE.INTER.SOLV>
11.2453

>  <SCORE.INTER.VDW>
-23.885

>  <SCORE.INTER.norm>
-0.41306

>  <SCORE.INTRA>
-11.5146

>  <SCORE.INTRA.DIHEDRAL>
0.234171

>  <SCORE.INTRA.DIHEDRAL.0>
14.6094

>  <SCORE.INTRA.POLAR>
0

>  <SCORE.INTRA.POLAR.0>
0

>  <SCORE.INTRA.REPUL>
0

>  <SCORE.INTRA.REPUL.0>
0

>  <SCORE.INTRA.SOLV>
-0.272584

>  <SCORE.INTRA.SOLV.lig_0>
-65.6478

>  <SCORE.INTRA.VDW>
-11.4954

>  <SCORE.INTRA.VDW.0>
9.35535

>  <SCORE.INTRA.norm>
-0.371438

>  <SCORE.RESTR>
0.0180468

>  <SCORE.RESTR.CAVITY>
0.0180468

>  <SCORE.RESTR.norm>
0.000582154

>  <SCORE.SYSTEM>
0

>  <SCORE.SYSTEM.CONST>
0

>  <SCORE.SYSTEM.DIHEDRAL>
0

>  <SCORE.SYSTEM.SOLV>
0

>  <SCORE.SYSTEM.norm>
0

>  <SCORE.heavy>
31

>  <SCORE.norm>
-0.783917

>  <RMSD>
7.692

$$$$
ligand
 OpenBabel11021811443D
libRbt.so/2013.1/901 2013/11/27
 31 32  0  0  0  0  0  0  0  0999 V2000
    7.8553   21.3343   51.6635 C   0  0  0  0  0  0  0  0  0  0  0  0
    7.6678   22.7650   52.1595 C   0  0  0  0  0  0  0  0  0  0  0  0
    6.4137   23.1731   52.7187 C   0  0  0  0  0  0  0  0  0  0  0  0
    6.2448   24.5027   53.1741 C   0  0  0  0  0  0  0  0  0  0  0  0
    7.3095   25.4329   53.0880 C   0  0  0  0  0  0  0  0  0  0  0  0
    8.5524   25.0472   52.5462 C   0  0  0  0  0  0  0  0  0  0  0  0
    8.7394   23.7312   52.0866 C   0  0  0  0  0  0  0  0  0  0  0  0
    8.7011   20.6089   52.1858 O   0  0  0  0  0  0  0  0  0  0  0  0
    8.1060   19.9082   41.7601 C   0  0  0  0  0  0  0  0  0  0  0  0
    8.8413   20.5978   48.2916 C   0  0  0  0  0  0  0  0  0  0  0  0
    2.8659   17.0900   51.4712 P   0  0  1  0  0  0  0  0  0  0  0  0
    7.0627   19.8624   43.9150 N   0  0  0  0  0  0  0  0  0  0  0  0
    2.7177   17.4602   52.8917 O   0  0  0  0  0  0  0  0  0  0  0  0
    7.0827   20.8401   50.6269 S   0  0  0  0  0  0  0  0  0  0  0  0
    9.4769   17.3759   48.6137 C   0  0  0  0  0  0  0  0  0  0  0  0
    8.0106   19.3080   43.0848 C   0  0  0  0  0  0  0  0  0  0  0  0
    2.6209   15.6520   51.1775 O   0  5  0  0  0  0  0  0  0  0  0  0
    8.5081   18.1406   48.0519 N   0  0  0  0  0  0  0  0  0  0  0  0
    8.7822   18.3221   43.4203 N   0  0  0  0  0  0  0  0  0  0  0  0
    2.0771   18.0084   50.6177 O   0  0  0  0  0  0  0  0  0  0  0  0
    8.1602   19.3566   48.8012 C   0  0  2  0  0  0  0  0  0  0  0  0
    8.6819   17.7532   44.6756 C   0  0  0  0  0  0  0  0  0  0  0  0
    9.4898   16.7363   44.9855 N   0  0  0  0  0  0  0  0  0  0  0  0
    7.2375   19.4625   49.9274 C   0  0  1  0  0  0  0  0  0  0  0  0
    7.6974   18.2779   45.6091 C   0  0  0  0  0  0  0  0  0  0  0  0
   10.1460   16.7937   47.7885 O   0  0  0  0  0  0  0  0  0  0  0  0
    6.4379   18.3281   50.4628 C   0  0  0  0  0  0  0  0  0  0  0  0
    6.9319   19.3335   45.1570 C   0  0  0  0  0  0  0  0  0  0  0  0
    5.0359   18.5408   50.8434 C   0  0  0  0  0  0  0  0  0  0  0  0
    7.5114   17.6697   46.9778 C   0  0  0  0  0  0  0  0  0  0  0  0
    4.3595   17.2859   51.0338 O   0  0  0  0  0  0  0  0  0  0  0  0
  1  2  1  0  0  0  0
  1  8  2  0  0  0  0
  1 14  1  0  0  0  0
  2  3  2  0  0  0  0
  2  7  1  0  0  0  0
  3  4  1  0  0  0  0
  4  5  2  0  0  0  0
  5  6  1  0  0  0  0
  6  7  2  0  0  0  0
  9 16  1  0  0  0  0
 10 21  1  0  0  0  0
 11 13  1  1  0  0  0
 11 17  1  0  0  0  0
 11 20  2  0  0  0  0
 11 31  1  0  0  0  0
 12 16  2  0  0  0  0
 12 28  1  0  0  0  0
 15 26  1  0  0  0  0
 15 18  1  0  0  0  0
 16 19  1  0  0  0  0
 18 30  1  0  0  0  0
 19 22  2  0  0  0  0
 21 18  1  6  0  0  0
 21 24  1  0  0  0  0
 22 23  1  0  0  0  0
 22 25  1  0  0  0  0
 24 14  1  1  0  0  0
 24 27  1  0  0  0  0
 25 28  2  0  0  0  0
 25 30  1  0  0  0  0
 27 29  1  0  0  0  0
 29 31  1  0  0  0  0
M  CHG  1  17  -1
M  END
>  <CHROM.1>
-118.13830004,174.05743071,-87.28569412,-148.45450911,97.71788066,-111.18056082
-4.77411423,42.39033599,82.27746550,166.51856555,178.69145487,-71.41755810
6.84485066,19.43297307,49.18097033,-2.04124547,-0.78228153,-2.23218669

>  <Name>
ligand

>  <RI>
0

>  <Rbt.Current_Directory>
/home/itssahil/PROJECTS/Mol_Feturizer/New_Systems/rnas/2HOO

>  <Rbt.Executable>
rbdock ($Id: //depot/dev/client3/rdock/2013.1/src/exe/rbdock.cxx#4 $)

>  <Rbt.Library>
libRbt.so (2013.1, Build901 2013/11/27)

>  <Rbt.Parameter_File>
/export/apps/rDock/src/rDock_2013.1_src/data/scripts/dock_solv.prm

>  <Rbt.Receptor>
prm/blind_docking_60.prm

>  <SCORE>
-24.0252

>  <SCORE.INTER>
-14.7016

>  <SCORE.INTER.CONST>
1

>  <SCORE.INTER.POLAR>
0

>  <SCORE.INTER.ROT>
12

>  <SCORE.INTER.SOLV>
23.1317

>  <SCORE.INTER.VDW>
-29.1116

>  <SCORE.INTER.norm>
-0.474246

>  <SCORE.INTRA>
-9.50911

>  <SCORE.INTRA.DIHEDRAL>
0.837691

>  <SCORE.INTRA.DIHEDRAL.0>
14.6094

>  <SCORE.INTRA.POLAR>
0

>  <SCORE.INTRA.POLAR.0>
0

>  <SCORE.INTRA.REPUL>
0

>  <SCORE.INTRA.REPUL.0>
0

>  <SCORE.INTRA.SOLV>
2.518

>  <SCORE.INTRA.SOLV.lig_0>
-65.6478

>  <SCORE.INTRA.VDW>
-11.187

>  <SCORE.INTRA.VDW.0>
9.35535

>  <SCORE.INTRA.norm>
-0.306745

>  <SCORE.RESTR>
0.185494

>  <SCORE.RESTR.CAVITY>
0.185494

>  <SCORE.RESTR.norm>
0.00598369

>  <SCORE.SYSTEM>
0

>  <SCORE.SYSTEM.CONST>
0

>  <SCORE.SYSTEM.DIHEDRAL>
0

>  <SCORE.SYSTEM.SOLV>
0

>  <SCORE.SYSTEM.norm>
0

>  <SCORE.heavy>
31

>  <SCORE.norm>
-0.775007

>  <RMSD>
7.710

$$$$
ligand
 OpenBabel11021811443D
libRbt.so/2013.1/901 2013/11/27
 31 32  0  0  0  0  0  0  0  0999 V2000
    9.8769   22.9841   53.3190 C   0  0  0  0  0  0  0  0  0  0  0  0
   10.6557   21.7086   53.6264 C   0  0  0  0  0  0  0  0  0  0  0  0
   12.0027   21.7875   54.1075 C   0  0  0  0  0  0  0  0  0  0  0  0
   12.7212   20.6005   54.3878 C   0  0  0  0  0  0  0  0  0  0  0  0
   12.1162   19.3332   54.2031 C   0  0  0  0  0  0  0  0  0  0  0  0
   10.7896   19.2367   53.7363 C   0  0  0  0  0  0  0  0  0  0  0  0
   10.0596   20.4044   53.4504 C   0  0  0  0  0  0  0  0  0  0  0  0
   10.2268   24.0530   53.8184 O   0  0  0  0  0  0  0  0  0  0  0  0
    0.5710   25.9830   56.7289 C   0  0  0  0  0  0  0  0  0  0  0  0
    6.4395   21.4924   54.7897 C   0  0  0  0  0  0  0  0  0  0  0  0
    5.5832   17.8953   49.9720 P   0  0  1  0  0  0  0  0  0  0  0  0
    1.8078   25.4095   54.7603 N   0  0  0  0  0  0  0  0  0  0  0  0
    4.2949   18.5409   49.6553 O   0  0  0  0  0  0  0  0  0  0  0  0
    8.7750   22.9535   52.4819 S   0  0  0  0  0  0  0  0  0  0  0  0
    4.2953   22.6927   52.6911 C   0  0  0  0  0  0  0  0  0  0  0  0
    1.8365   25.5851   56.1254 C   0  0  0  0  0  0  0  0  0  0  0  0
    5.5452   16.9798   51.1444 O   0  5  0  0  0  0  0  0  0  0  0  0
    5.3948   23.1974   53.3037 N   0  0  0  0  0  0  0  0  0  0  0  0
    2.8935   25.4181   56.8567 N   0  0  0  0  0  0  0  0  0  0  0  0
    6.1564   17.2725   48.7564 O   0  0  0  0  0  0  0  0  0  0  0  0
    6.4990   22.2445   53.4878 C   0  0  2  0  0  0  0  0  0  0  0  0
    4.0918   25.0473   56.2771 C   0  0  0  0  0  0  0  0  0  0  0  0
    5.1614   24.8885   57.0605 N   0  0  0  0  0  0  0  0  0  0  0  0
    7.5824   21.9615   52.5514 C   0  0  1  0  0  0  0  0  0  0  0  0
    4.1454   24.8502   54.8369 C   0  0  0  0  0  0  0  0  0  0  0  0
    4.0347   23.2674   51.6571 O   0  0  0  0  0  0  0  0  0  0  0  0
    7.6163   20.7842   51.6427 C   0  0  0  0  0  0  0  0  0  0  0  0
    2.9634   25.0448   54.1515 C   0  0  0  0  0  0  0  0  0  0  0  0
    6.3666   20.0964   51.2948 C   0  0  0  0  0  0  0  0  0  0  0  0
    5.4351   24.4877   54.1418 C   0  0  0  0  0  0  0  0  0  0  0  0
    6.6191   18.9868   50.4151 O   0  0  0  0  0  0  0  0  0  0  0  0
  1  2  1  0  0  0  0
  1  8  2  0  0  0  0
  1 14  1  0  0  0  0
  2  3  2  0  0  0  0
  2  7  1  0  0  0  0
  3  4  1  0  0  0  0
  4  5  2  0  0  0  0
  5  6  1  0  0  0  0
  6  7  2  0  0  0  0
  9 16  1  0  0  0  0
 10 21  1  0  0  0  0
 11 13  1  6  0  0  0
 11 17  1  0  0  0  0
 11 20  2  0  0  0  0
 11 31  1  0  0  0  0
 12 16  2  0  0  0  0
 12 28  1  0  0  0  0
 15 26  1  0  0  0  0
 15 18  1  0  0  0  0
 16 19  1  0  0  0  0
 18 30  1  0  0  0  0
 19 22  2  0  0  0  0
 21 18  1  6  0  0  0
 21 24  1  0  0  0  0
 22 23  1  0  0  0  0
 22 25  1  0  0  0  0
 24 14  1  6  0  0  0
 24 27  1  0  0  0  0
 25 28  2  0  0  0  0
 25 30  1  0  0  0  0
 27 29  1  0  0  0  0
 29 31  1  0  0  0  0
M  CHG  1  17  -1
M  END
>  <CHROM.1>
-20.55056101,48.56309814,83.02677060,-119.61282522,-90.13316130,28.90563528
-101.77872881,-157.85830172,123.72808888,-179.71813757,171.28049503,42.77031162
6.47688209,21.91451618,53.13841222,-0.90052962,-0.14400771,0.69789941

>  <Name>
ligand

>  <RI>
0

>  <Rbt.Current_Directory>
/home/itssahil/PROJECTS/Mol_Feturizer/New_Systems/rnas/2HOO

>  <Rbt.Executable>
rbdock ($Id: //depot/dev/client3/rdock/2013.1/src/exe/rbdock.cxx#4 $)

>  <Rbt.Library>
libRbt.so (2013.1, Build901 2013/11/27)

>  <Rbt.Parameter_File>
/export/apps/rDock/src/rDock_2013.1_src/data/scripts/dock_solv.prm

>  <Rbt.Receptor>
prm/pocket_docking_7.prm

>  <SCORE>
-28.5868

>  <SCORE.INTER>
-17.3085

>  <SCORE.INTER.CONST>
1

>  <SCORE.INTER.POLAR>
0

>  <SCORE.INTER.ROT>
12

>  <SCORE.INTER.SOLV>
11.635

>  <SCORE.INTER.VDW>
-27.0174

>  <SCORE.INTER.norm>
-0.558339

>  <SCORE.INTRA>
-11.2783

>  <SCORE.INTRA.DIHEDRAL>
3.8653

>  <SCORE.INTRA.DIHEDRAL.0>
14.6094

>  <SCORE.INTRA.POLAR>
0

>  <SCORE.INTRA.POLAR.0>
0

>  <SCORE.INTRA.REPUL>
0

>  <SCORE.INTRA.REPUL.0>
0

>  <SCORE.INTRA.SOLV>
-0.459133

>  <SCORE.INTRA.SOLV.lig_0>
-65.6478

>  <SCORE.INTRA.VDW>
-12.9814

>  <SCORE.INTRA.VDW.0>
9.35535

>  <SCORE.INTRA.norm>
-0.363816

>  <SCORE.RESTR>
0

>  <SCORE.RESTR.CAVITY>
0

>  <SCORE.RESTR.norm>
0

>  <SCORE.SYSTEM>
0

>  <SCORE.SYSTEM.CONST>
0

>  <SCORE.SYSTEM.DIHEDRAL>
0

>  <SCORE.SYSTEM.SOLV>
0

>  <SCORE.SYSTEM.norm>
0

>  <SCORE.heavy>
31

>  <SCORE.norm>
-0.922155

>  <RMSD>
7.720

$$$$
ligand
 OpenBabel11021811443D
libRbt.so/2013.1/901 2013/11/27
 31 32  0  0  0  0  0  0  0  0999 V2000
    2.6765   14.9962   49.8621 C   0  0  0  0  0  0  0  0  0  0  0  0
    1.7261   15.4093   50.9819 C   0  0  0  0  0  0  0  0  0  0  0  0
    1.6224   14.6114   52.1673 C   0  0  0  0  0  0  0  0  0  0  0  0
    0.7363   14.9981   53.2012 C   0  0  0  0  0  0  0  0  0  0  0  0
   -0.0449   16.1730   53.0769 C   0  0  0  0  0  0  0  0  0  0  0  0
    0.0488   16.9734   51.9202 C   0  0  0  0  0  0  0  0  0  0  0  0
    0.9219   16.6052   50.8810 C   0  0  0  0  0  0  0  0  0  0  0  0
    2.2529   14.8640   48.7143 O   0  0  0  0  0  0  0  0  0  0  0  0
    2.7009   21.9205   51.2555 C   0  0  0  0  0  0  0  0  0  0  0  0
    5.8329   17.4930   48.3997 C   0  0  0  0  0  0  0  0  0  0  0  0
    7.2589   11.1262   49.9719 P   0  0  1  0  0  0  0  0  0  0  0  0
    3.0497   19.5713   50.9496 N   0  0  0  0  0  0  0  0  0  0  0  0
    6.1243   10.2365   50.2848 O   0  0  0  0  0  0  0  0  0  0  0  0
    4.0162   14.7657   50.1230 S   0  0  0  0  0  0  0  0  0  0  0  0
    7.9618   17.1097   50.4169 C   0  0  0  0  0  0  0  0  0  0  0  0
    3.5418   20.7489   51.4655 C   0  0  0  0  0  0  0  0  0  0  0  0
    8.1091   11.4797   51.1408 O   0  5  0  0  0  0  0  0  0  0  0  0
    6.6594   16.8113   50.6488 N   0  0  0  0  0  0  0  0  0  0  0  0
    4.6682   20.8493   52.0990 N   0  0  0  0  0  0  0  0  0  0  0  0
    8.0277   10.5913   48.8242 O   0  0  0  0  0  0  0  0  0  0  0  0
    5.8864   16.4259   49.4592 C   0  0  2  0  0  0  0  0  0  0  0  0
    5.4639   19.7356   52.2888 C   0  0  0  0  0  0  0  0  0  0  0  0
    6.6198   19.8769   52.9421 N   0  0  0  0  0  0  0  0  0  0  0  0
    5.2186   15.1504   49.2189 C   0  0  1  0  0  0  0  0  0  0  0  0
    5.0170   18.4542   51.7653 C   0  0  0  0  0  0  0  0  0  0  0  0
    8.5783   16.1734   49.9578 O   0  0  0  0  0  0  0  0  0  0  0  0
    5.6226   14.1802   48.1661 C   0  0  0  0  0  0  0  0  0  0  0  0
    3.7999   18.4536   51.1145 C   0  0  0  0  0  0  0  0  0  0  0  0
    5.7187   12.7514   48.4904 C   0  0  0  0  0  0  0  0  0  0  0  0
    5.8628   17.2118   51.9032 C   0  0  0  0  0  0  0  0  0  0  0  0
    6.7148   12.5205   49.5019 O   0  0  0  0  0  0  0  0  0  0  0  0
  1  2  1  0  0  0  0
  1  8  2  0  0  0  0
  1 14  1  0  0  0  0
  2  3  2  0  0  0  0
  2  7  1  0  0  0  0
  3  4  1  0  0  0  0
  4  5  2  0  0  0  0
  5  6  1  0  0  0  0
  6  7  2  0  0  0  0
  9 16  1  0  0  0  0
 10 21  1  0  0  0  0
 11 13  1  1  0  0  0
 11 17  1  0  0  0  0
 11 20  2  0  0  0  0
 11 31  1  0  0  0  0
 12 16  2  0  0  0  0
 12 28  1  0  0  0  0
 15 26  1  0  0  0  0
 15 18  1  0  0  0  0
 16 19  1  0  0  0  0
 18 30  1  0  0  0  0
 19 22  2  0  0  0  0
 21 18  1  6  0  0  0
 21 24  1  0  0  0  0
 22 23  1  0  0  0  0
 22 25  1  0  0  0  0
 24 14  1  1  0  0  0
 24 27  1  0  0  0  0
 25 28  2  0  0  0  0
 25 30  1  0  0  0  0
 27 29  1  0  0  0  0
 29 31  1  0  0  0  0
M  CHG  1  17  -1
M  END
>  <CHROM.1>
125.62593779,-141.25362130,93.58201442,-61.08472993,-60.10251212,97.21797986
-115.15160864,-44.71544812,-100.46329082,-61.90236531,-170.71026691,-50.36255901
4.82564166,15.72218331,50.56379077,2.02657731,0.17490245,0.18290027

>  <Name>
ligand

>  <RI>
0

>  <Rbt.Current_Directory>
/home/itssahil/PROJECTS/Mol_Feturizer/New_Systems/rnas/2HOO

>  <Rbt.Executable>
rbdock ($Id: //depot/dev/client3/rdock/2013.1/src/exe/rbdock.cxx#4 $)

>  <Rbt.Library>
libRbt.so (2013.1, Build901 2013/11/27)

>  <Rbt.Parameter_File>
/export/apps/rDock/src/rDock_2013.1_src/data/scripts/dock_solv.prm

>  <Rbt.Receptor>
prm/pocket_docking_8.prm

>  <SCORE>
-29.1734

>  <SCORE.INTER>
-16.8769

>  <SCORE.INTER.CONST>
1

>  <SCORE.INTER.POLAR>
0

>  <SCORE.INTER.ROT>
12

>  <SCORE.INTER.SOLV>
17.5126

>  <SCORE.INTER.VDW>
-28.6888

>  <SCORE.INTER.norm>
-0.544416

>  <SCORE.INTRA>
-12.3065

>  <SCORE.INTRA.DIHEDRAL>
1.53814

>  <SCORE.INTRA.DIHEDRAL.0>
14.6094

>  <SCORE.INTRA.POLAR>
0

>  <SCORE.INTRA.POLAR.0>
0

>  <SCORE.INTRA.REPUL>
0.00203366

>  <SCORE.INTRA.REPUL.0>
0

>  <SCORE.INTRA.SOLV>
0.579312

>  <SCORE.INTRA.SOLV.lig_0>
-65.6478

>  <SCORE.INTRA.VDW>
-13.3754

>  <SCORE.INTRA.VDW.0>
9.35535

>  <SCORE.INTRA.norm>
-0.396985

>  <SCORE.RESTR>
0.010056

>  <SCORE.RESTR.CAVITY>
0.010056

>  <SCORE.RESTR.norm>
0.000324388

>  <SCORE.SYSTEM>
0

>  <SCORE.SYSTEM.CONST>
0

>  <SCORE.SYSTEM.DIHEDRAL>
0

>  <SCORE.SYSTEM.SOLV>
0

>  <SCORE.SYSTEM.norm>
0

>  <SCORE.heavy>
31

>  <SCORE.norm>
-0.941076

>  <RMSD>
7.720

$$$$
ligand
 OpenBabel11021811443D
libRbt.so/2013.1/901 2013/11/27
 31 32  0  0  0  0  0  0  0  0999 V2000
    9.8337   19.2606   52.8822 C   0  0  0  0  0  0  0  0  0  0  0  0
   11.0945   19.5121   53.7039 C   0  0  0  0  0  0  0  0  0  0  0  0
   11.4300   20.8424   54.1161 C   0  0  0  0  0  0  0  0  0  0  0  0
   12.6029   21.0697   54.8754 C   0  0  0  0  0  0  0  0  0  0  0  0
   13.4453   19.9904   55.2380 C   0  0  0  0  0  0  0  0  0  0  0  0
   13.1275   18.6740   54.8463 C   0  0  0  0  0  0  0  0  0  0  0  0
   11.9676   18.4277   54.0899 C   0  0  0  0  0  0  0  0  0  0  0  0
    9.8983   18.6043   51.8432 O   0  0  0  0  0  0  0  0  0  0  0  0
    0.1824   16.6009   52.3692 C   0  0  0  0  0  0  0  0  0  0  0  0
    6.7520   22.5681   52.9410 C   0  0  0  0  0  0  0  0  0  0  0  0
    5.6062   16.4939   49.3648 P   0  0  1  0  0  0  0  0  0  0  0  0
    2.3638   17.5060   51.9737 N   0  0  0  0  0  0  0  0  0  0  0  0
    6.3396   15.2204   49.2335 O   0  0  0  0  0  0  0  0  0  0  0  0
    8.6120   19.7653   53.2924 S   0  0  0  0  0  0  0  0  0  0  0  0
    5.0409   20.7048   54.8086 C   0  0  0  0  0  0  0  0  0  0  0  0
    1.0919   17.7371   52.4468 C   0  0  0  0  0  0  0  0  0  0  0  0
    5.1449   17.0782   48.0764 O   0  5  0  0  0  0  0  0  0  0  0  0
    5.1037   20.7725   53.4557 N   0  0  0  0  0  0  0  0  0  0  0  0
    0.6933   18.8701   52.9341 N   0  0  0  0  0  0  0  0  0  0  0  0
    4.5279   16.3624   50.3718 O   0  0  0  0  0  0  0  0  0  0  0  0
    6.4283   21.0990   52.9082 C   0  0  2  0  0  0  0  0  0  0  0  0
    1.5588   19.9453   52.9986 C   0  0  0  0  0  0  0  0  0  0  0  0
    1.1128   21.0986   53.5026 N   0  0  0  0  0  0  0  0  0  0  0  0
    7.4183   20.1637   52.3828 C   0  0  1  0  0  0  0  0  0  0  0  0
    2.9193   19.7835   52.5101 C   0  0  0  0  0  0  0  0  0  0  0  0
    4.9794   21.7983   55.3261 O   0  0  0  0  0  0  0  0  0  0  0  0
    7.3676   19.5708   51.0194 C   0  0  0  0  0  0  0  0  0  0  0  0
    3.2454   18.5355   52.0192 C   0  0  0  0  0  0  0  0  0  0  0  0
    6.1866   18.8051   50.6015 C   0  0  0  0  0  0  0  0  0  0  0  0
    3.8967   20.9335   52.5143 C   0  0  0  0  0  0  0  0  0  0  0  0
    6.5719   17.5972   49.9224 O   0  0  0  0  0  0  0  0  0  0  0  0
  1  2  1  0  0  0  0
  1  8  2  0  0  0  0
  1 14  1  0  0  0  0
  2  3  2  0  0  0  0
  2  7  1  0  0  0  0
  3  4  1  0  0  0  0
  4  5  2  0  0  0  0
  5  6  1  0  0  0  0
  6  7  2  0  0  0  0
  9 16  1  0  0  0  0
 10 21  1  0  0  0  0
 11 13  1  6  0  0  0
 11 17  1  0  0  0  0
 11 20  2  0  0  0  0
 11 31  1  0  0  0  0
 12 16  2  0  0  0  0
 12 28  1  0  0  0  0
 15 26  1  0  0  0  0
 15 18  1  0  0  0  0
 16 19  1  0  0  0  0
 18 30  1  0  0  0  0
 19 22  2  0  0  0  0
 21 18  1  1  0  0  0
 21 24  1  0  0  0  0
 22 23  1  0  0  0  0
 22 25  1  0  0  0  0
 24 14  1  6  0  0  0
 24 27  1  0  0  0  0
 25 28  2  0  0  0  0
 25 30  1  0  0  0  0
 27 29  1  0  0  0  0
 29 31  1  0  0  0  0
M  CHG  1  17  -1
M  END
>  <CHROM.1>
129.36765754,151.09338033,-158.22812800,79.08324475,-80.70433936,-64.72980414
78.04533470,123.26395339,114.20171939,-135.78185402,177.97781489,-157.77945074
6.28620377,19.07556403,52.35044149,-0.29092286,0.04432942,-2.35305281

>  <Name>
ligand

>  <RI>
0

>  <Rbt.Current_Directory>
/home/itssahil/PROJECTS/Mol_Feturizer/New_Systems/rnas/2HOO

>  <Rbt.Executable>
rbdock ($Id: //depot/dev/client3/rdock/2013.1/src/exe/rbdock.cxx#4 $)

>  <Rbt.Library>
libRbt.so (2013.1, Build901 2013/11/27)

>  <Rbt.Parameter_File>
/export/apps/rDock/src/rDock_2013.1_src/data/scripts/dock_solv.prm

>  <Rbt.Receptor>
prm/pocket_docking_2.prm

>  <SCORE>
-24.0236

>  <SCORE.INTER>
-14.6724

>  <SCORE.INTER.CONST>
1

>  <SCORE.INTER.POLAR>
0

>  <SCORE.INTER.ROT>
12

>  <SCORE.INTER.SOLV>
10.1774

>  <SCORE.INTER.VDW>
-24.7741

>  <SCORE.INTER.norm>
-0.473303

>  <SCORE.INTRA>
-10.498

>  <SCORE.INTRA.DIHEDRAL>
3.83021

>  <SCORE.INTRA.DIHEDRAL.0>
14.6094

>  <SCORE.INTRA.POLAR>
0

>  <SCORE.INTRA.POLAR.0>
0

>  <SCORE.INTRA.REPUL>
0

>  <SCORE.INTRA.REPUL.0>
0

>  <SCORE.INTRA.SOLV>
1.44534

>  <SCORE.INTRA.SOLV.lig_0>
-65.6478

>  <SCORE.INTRA.VDW>
-13.1358

>  <SCORE.INTRA.VDW.0>
9.35535

>  <SCORE.INTRA.norm>
-0.338645

>  <SCORE.RESTR>
1.14673

>  <SCORE.RESTR.CAVITY>
1.14673

>  <SCORE.RESTR.norm>
0.0369912

>  <SCORE.SYSTEM>
0

>  <SCORE.SYSTEM.CONST>
0

>  <SCORE.SYSTEM.DIHEDRAL>
0

>  <SCORE.SYSTEM.SOLV>
0

>  <SCORE.SYSTEM.norm>
0

>  <SCORE.heavy>
31

>  <SCORE.norm>
-0.774956

>  <RMSD>
7.740

$$$$
ligand
 OpenBabel11021811443D
libRbt.so/2013.1/901 2013/11/27
 31 32  0  0  0  0  0  0  0  0999 V2000
    9.1244   19.2083   54.4832 C   0  0  0  0  0  0  0  0  0  0  0  0
   10.0957   20.3532   54.2115 C   0  0  0  0  0  0  0  0  0  0  0  0
   11.5088   20.1257   54.2699 C   0  0  0  0  0  0  0  0  0  0  0  0
   12.4049   21.1928   54.0201 C   0  0  0  0  0  0  0  0  0  0  0  0
   11.9154   22.4841   53.7055 C   0  0  0  0  0  0  0  0  0  0  0  0
   10.5281   22.7247   53.6377 C   0  0  0  0  0  0  0  0  0  0  0  0
    9.6216   21.6781   53.8844 C   0  0  0  0  0  0  0  0  0  0  0  0
    9.5519   18.0663   54.6488 O   0  0  0  0  0  0  0  0  0  0  0  0
    1.5309   14.8939   49.7044 C   0  0  0  0  0  0  0  0  0  0  0  0
    6.1363   17.6040   52.7631 C   0  0  0  0  0  0  0  0  0  0  0  0
    7.3629   24.5788   53.5307 P   0  0  1  0  0  0  0  0  0  0  0  0
    3.3920   16.2809   49.1154 N   0  0  0  0  0  0  0  0  0  0  0  0
    6.5443   25.7491   53.9010 O   0  0  0  0  0  0  0  0  0  0  0  0
    7.7611   19.4392   54.5446 S   0  0  0  0  0  0  0  0  0  0  0  0
    7.2300   18.9910   50.1403 C   0  0  0  0  0  0  0  0  0  0  0  0
    2.3246   16.0885   49.9633 C   0  0  0  0  0  0  0  0  0  0  0  0
    8.5731   24.8992   52.7264 O   0  5  0  0  0  0  0  0  0  0  0  0
    6.1917   19.3127   50.9511 N   0  0  0  0  0  0  0  0  0  0  0  0
    2.0150   16.8897   50.9340 N   0  0  0  0  0  0  0  0  0  0  0  0
    7.6521   23.7565   54.7284 O   0  0  0  0  0  0  0  0  0  0  0  0
    6.4051   19.0337   52.3786 C   0  0  2  0  0  0  0  0  0  0  0  0
    2.7679   18.0241   51.1697 C   0  0  0  0  0  0  0  0  0  0  0  0
    2.4173   18.8291   52.1757 N   0  0  0  0  0  0  0  0  0  0  0  0
    6.8564   19.9728   53.4009 C   0  0  1  0  0  0  0  0  0  0  0  0
    3.9084   18.3026   50.3109 C   0  0  0  0  0  0  0  0  0  0  0  0
    8.0964   19.8377   50.1370 O   0  0  0  0  0  0  0  0  0  0  0  0
    6.4957   21.4157   53.4287 C   0  0  0  0  0  0  0  0  0  0  0  0
    4.1575   17.3828   49.3125 C   0  0  0  0  0  0  0  0  0  0  0  0
    6.8149   22.2687   52.2771 C   0  0  0  0  0  0  0  0  0  0  0  0
    4.7416   19.5479   50.4918 C   0  0  0  0  0  0  0  0  0  0  0  0
    6.5413   23.6500   52.5699 O   0  0  0  0  0  0  0  0  0  0  0  0
  1  2  1  0  0  0  0
  1  8  2  0  0  0  0
  1 14  1  0  0  0  0
  2  3  2  0  0  0  0
  2  7  1  0  0  0  0
  3  4  1  0  0  0  0
  4  5  2  0  0  0  0
  5  6  1  0  0  0  0
  6  7  2  0  0  0  0
  9 16  1  0  0  0  0
 10 21  1  0  0  0  0
 11 13  1  1  0  0  0
 11 17  1  0  0  0  0
 11 20  2  0  0  0  0
 11 31  1  0  0  0  0
 12 16  2  0  0  0  0
 12 28  1  0  0  0  0
 15 26  1  0  0  0  0
 15 18  1  0  0  0  0
 16 19  1  0  0  0  0
 18 30  1  0  0  0  0
 19 22  2  0  0  0  0
 21 18  1  6  0  0  0
 21 24  1  0  0  0  0
 22 23  1  0  0  0  0
 22 25  1  0  0  0  0
 24 14  1  1  0  0  0
 24 27  1  0  0  0  0
 25 28  2  0  0  0  0
 25 30  1  0  0  0  0
 27 29  1  0  0  0  0
 29 31  1  0  0  0  0
M  CHG  1  17  -1
M  END
>  <CHROM.1>
-5.71196013,62.03660100,80.35414720,-80.97332378,-82.60595946,82.68910658
33.30574282,123.20975837,113.68396500,-172.66358136,71.82937767,-161.80342723
6.80969263,20.29104711,52.49917883,-0.76200676,0.41047738,-2.99568359

>  <Name>
ligand

>  <RI>
0

>  <Rbt.Current_Directory>
/home/itssahil/PROJECTS/Mol_Feturizer/New_Systems/rnas/2HOO

>  <Rbt.Executable>
rbdock ($Id: //depot/dev/client3/rdock/2013.1/src/exe/rbdock.cxx#4 $)

>  <Rbt.Library>
libRbt.so (2013.1, Build901 2013/11/27)

>  <Rbt.Parameter_File>
/export/apps/rDock/src/rDock_2013.1_src/data/scripts/dock_solv.prm

>  <Rbt.Receptor>
prm/blind_docking_100.prm

>  <SCORE>
-31.0288

>  <SCORE.INTER>
-21.3286

>  <SCORE.INTER.CONST>
1

>  <SCORE.INTER.POLAR>
0

>  <SCORE.INTER.ROT>
12

>  <SCORE.INTER.SOLV>
15.6523

>  <SCORE.INTER.VDW>
-31.0365

>  <SCORE.INTER.norm>
-0.688019

>  <SCORE.INTRA>
-10.0763

>  <SCORE.INTRA.DIHEDRAL>
2.50997

>  <SCORE.INTRA.DIHEDRAL.0>
14.6094

>  <SCORE.INTRA.POLAR>
0

>  <SCORE.INTRA.POLAR.0>
0

>  <SCORE.INTRA.REPUL>
0

>  <SCORE.INTRA.REPUL.0>
0

>  <SCORE.INTRA.SOLV>
4.67577

>  <SCORE.INTRA.SOLV.lig_0>
-65.6478

>  <SCORE.INTRA.VDW>
-13.6692

>  <SCORE.INTRA.VDW.0>
9.35535

>  <SCORE.INTRA.norm>
-0.325042

>  <SCORE.RESTR>
0.376123

>  <SCORE.RESTR.CAVITY>
0.376123

>  <SCORE.RESTR.norm>
0.012133

>  <SCORE.SYSTEM>
0

>  <SCORE.SYSTEM.CONST>
0

>  <SCORE.SYSTEM.DIHEDRAL>
0

>  <SCORE.SYSTEM.SOLV>
0

>  <SCORE.SYSTEM.norm>
0

>  <SCORE.heavy>
31

>  <SCORE.norm>
-1.00093

>  <RMSD>
7.745

$$$$
ligand
 OpenBabel11021811443D
libRbt.so/2013.1/901 2013/11/27
 31 32  0  0  0  0  0  0  0  0999 V2000
    6.2364   21.3340   54.5413 C   0  0  0  0  0  0  0  0  0  0  0  0
    4.9718   20.9526   53.7775 C   0  0  0  0  0  0  0  0  0  0  0  0
    4.6177   21.6528   52.5790 C   0  0  0  0  0  0  0  0  0  0  0  0
    3.4414   21.2966   51.8766 C   0  0  0  0  0  0  0  0  0  0  0  0
    2.6138   20.2471   52.3456 C   0  0  0  0  0  0  0  0  0  0  0  0
    2.9500   19.5433   53.5198 C   0  0  0  0  0  0  0  0  0  0  0  0
    4.1136   19.8834   54.2329 C   0  0  0  0  0  0  0  0  0  0  0  0
    6.3566   22.4683   55.0032 O   0  0  0  0  0  0  0  0  0  0  0  0
    3.9693   14.5345   48.9227 C   0  0  0  0  0  0  0  0  0  0  0  0
    6.3350   17.9694   52.5763 C   0  0  0  0  0  0  0  0  0  0  0  0
   12.7865   19.3732   54.1006 P   0  0  1  0  0  0  0  0  0  0  0  0
    6.1907   15.3874   49.1917 N   0  0  0  0  0  0  0  0  0  0  0  0
   12.3519   18.5100   52.9858 O   0  0  0  0  0  0  0  0  0  0  0  0
    7.2561   20.4155   54.7209 S   0  0  0  0  0  0  0  0  0  0  0  0
    7.2800   21.1234   51.0760 C   0  0  0  0  0  0  0  0  0  0  0  0
    4.8428   15.6670   49.2031 C   0  0  0  0  0  0  0  0  0  0  0  0
   13.4820   18.6565   55.2037 O   0  5  0  0  0  0  0  0  0  0  0  0
    7.2341   19.7685   51.1062 N   0  0  0  0  0  0  0  0  0  0  0  0
    4.3468   16.8405   49.4419 N   0  0  0  0  0  0  0  0  0  0  0  0
   13.5448   20.5355   53.5827 O   0  0  0  0  0  0  0  0  0  0  0  0
    7.2275   19.1743   52.4508 C   0  0  2  0  0  0  0  0  0  0  0  0
    5.1809   17.9114   49.7004 C   0  0  0  0  0  0  0  0  0  0  0  0
    4.6353   19.1068   49.9377 N   0  0  0  0  0  0  0  0  0  0  0  0
    7.9934   19.6167   53.6121 C   0  0  1  0  0  0  0  0  0  0  0  0
    6.6199   17.6989   49.6980 C   0  0  0  0  0  0  0  0  0  0  0  0
    8.3642   21.5587   51.3962 O   0  0  0  0  0  0  0  0  0  0  0  0
    9.4469   19.3629   53.8014 C   0  0  0  0  0  0  0  0  0  0  0  0
    7.0445   16.4111   49.4413 C   0  0  0  0  0  0  0  0  0  0  0  0
   10.3366   20.4689   54.1766 C   0  0  0  0  0  0  0  0  0  0  0  0
    7.5819   18.8383   49.9303 C   0  0  0  0  0  0  0  0  0  0  0  0
   11.5271   19.9759   54.8157 O   0  0  0  0  0  0  0  0  0  0  0  0
  1  2  1  0  0  0  0
  1  8  2  0  0  0  0
  1 14  1  0  0  0  0
  2  3  2  0  0  0  0
  2  7  1  0  0  0  0
  3  4  1  0  0  0  0
  4  5  2  0  0  0  0
  5  6  1  0  0  0  0
  6  7  2  0  0  0  0
  9 16  1  0  0  0  0
 10 21  1  0  0  0  0
 11 13  1  6  0  0  0
 11 17  1  0  0  0  0
 11 20  2  0  0  0  0
 11 31  1  0  0  0  0
 12 16  2  0  0  0  0
 12 28  1  0  0  0  0
 15 26  1  0  0  0  0
 15 18  1  0  0  0  0
 16 19  1  0  0  0  0
 18 30  1  0  0  0  0
 19 22  2  0  0  0  0
 21 18  1  6  0  0  0
 21 24  1  0  0  0  0
 22 23  1  0  0  0  0
 22 25  1  0  0  0  0
 24 14  1  6  0  0  0
 24 27  1  0  0  0  0
 25 28  2  0  0  0  0
 25 30  1  0  0  0  0
 27 29  1  0  0  0  0
 29 31  1  0  0  0  0
M  CHG  1  17  -1
M  END
>  <CHROM.1>
61.06003948,54.76990611,-35.65167656,72.22712108,141.77938566,-135.34036142
-77.92102621,-48.47467518,45.90624853,157.01323538,79.94507407,-40.55793093
7.53982496,19.29543647,52.43874472,0.47201219,-0.18679479,0.75737233

>  <Name>
ligand

>  <RI>
0

>  <Rbt.Current_Directory>
/home/itssahil/PROJECTS/Mol_Feturizer/New_Systems/rnas/2HOO

>  <Rbt.Executable>
rbdock ($Id: //depot/dev/client3/rdock/2013.1/src/exe/rbdock.cxx#4 $)

>  <Rbt.Library>
libRbt.so (2013.1, Build901 2013/11/27)

>  <Rbt.Parameter_File>
/export/apps/rDock/src/rDock_2013.1_src/data/scripts/dock_solv.prm

>  <Rbt.Receptor>
prm/pocket_docking_2.prm

>  <SCORE>
-13.341

>  <SCORE.INTER>
-7.18152

>  <SCORE.INTER.CONST>
1

>  <SCORE.INTER.POLAR>
0

>  <SCORE.INTER.ROT>
12

>  <SCORE.INTER.SOLV>
28.8439

>  <SCORE.INTER.VDW>
-26.0023

>  <SCORE.INTER.norm>
-0.231662

>  <SCORE.INTRA>
-7.23469

>  <SCORE.INTRA.DIHEDRAL>
6.44536

>  <SCORE.INTRA.DIHEDRAL.0>
14.6094

>  <SCORE.INTRA.POLAR>
0

>  <SCORE.INTRA.POLAR.0>
0

>  <SCORE.INTRA.REPUL>
0

>  <SCORE.INTRA.REPUL.0>
0

>  <SCORE.INTRA.SOLV>
6.35458

>  <SCORE.INTRA.SOLV.lig_0>
-65.6478

>  <SCORE.INTRA.VDW>
-13.6347

>  <SCORE.INTRA.VDW.0>
9.35535

>  <SCORE.INTRA.norm>
-0.233377

>  <SCORE.RESTR>
1.07518

>  <SCORE.RESTR.CAVITY>
1.07518

>  <SCORE.RESTR.norm>
0.0346832

>  <SCORE.SYSTEM>
0

>  <SCORE.SYSTEM.CONST>
0

>  <SCORE.SYSTEM.DIHEDRAL>
0

>  <SCORE.SYSTEM.SOLV>
0

>  <SCORE.SYSTEM.norm>
0

>  <SCORE.heavy>
31

>  <SCORE.norm>
-0.430356

>  <RMSD>
7.751

$$$$
ligand
 OpenBabel11021811443D
libRbt.so/2013.1/901 2013/11/27
 31 32  0  0  0  0  0  0  0  0999 V2000
    3.1242   15.3528   49.3952 C   0  0  0  0  0  0  0  0  0  0  0  0
    4.0017   14.1875   48.9480 C   0  0  0  0  0  0  0  0  0  0  0  0
    4.7552   13.4438   49.9131 C   0  0  0  0  0  0  0  0  0  0  0  0
    5.5701   12.3658   49.4917 C   0  0  0  0  0  0  0  0  0  0  0  0
    5.6415   12.0108   48.1223 C   0  0  0  0  0  0  0  0  0  0  0  0
    4.9021   12.7276   47.1596 C   0  0  0  0  0  0  0  0  0  0  0  0
    4.0881   13.8031   47.5581 C   0  0  0  0  0  0  0  0  0  0  0  0
    1.9664   15.1464   49.7574 O   0  0  0  0  0  0  0  0  0  0  0  0
    0.4933   18.5037   58.1349 C   0  0  0  0  0  0  0  0  0  0  0  0
    4.7526   19.6867   50.8590 C   0  0  0  0  0  0  0  0  0  0  0  0
    9.6481   17.1183   48.4652 P   0  0  1  0  0  0  0  0  0  0  0  0
    1.6943   17.3962   56.3842 N   0  0  0  0  0  0  0  0  0  0  0  0
   10.5334   17.7436   49.4662 O   0  0  0  0  0  0  0  0  0  0  0  0
    3.6165   16.6464   49.3971 S   0  0  0  0  0  0  0  0  0  0  0  0
    4.8519   18.1481   53.5857 C   0  0  0  0  0  0  0  0  0  0  0  0
    0.9730   18.5073   56.7587 C   0  0  0  0  0  0  0  0  0  0  0  0
    9.1325   18.0505   47.4265 O   0  5  0  0  0  0  0  0  0  0  0  0
    3.9339   18.0921   52.5891 N   0  0  0  0  0  0  0  0  0  0  0  0
    0.7175   19.5059   55.9728 N   0  0  0  0  0  0  0  0  0  0  0  0
   10.2865   15.9052   47.9038 O   0  0  0  0  0  0  0  0  0  0  0  0
    4.4754   18.2556   51.2323 C   0  0  2  0  0  0  0  0  0  0  0  0
    1.1696   19.4997   54.6670 C   0  0  0  0  0  0  0  0  0  0  0  0
    0.8841   20.5433   53.8844 N   0  0  0  0  0  0  0  0  0  0  0  0
    4.7751   17.1986   50.2712 C   0  0  1  0  0  0  0  0  0  0  0  0
    1.9328   18.3562   54.1922 C   0  0  0  0  0  0  0  0  0  0  0  0
    4.9155   19.2442   54.0975 O   0  0  0  0  0  0  0  0  0  0  0  0
    6.1237   16.6008   50.0790 C   0  0  0  0  0  0  0  0  0  0  0  0
    2.1571   17.3504   55.1102 C   0  0  0  0  0  0  0  0  0  0  0  0
    7.2241   17.4325   49.5759 C   0  0  0  0  0  0  0  0  0  0  0  0
    2.4155   18.2727   52.7646 C   0  0  0  0  0  0  0  0  0  0  0  0
    8.3373   16.6186   49.1673 O   0  0  0  0  0  0  0  0  0  0  0  0
  1  2  1  0  0  0  0
  1  8  2  0  0  0  0
  1 14  1  0  0  0  0
  2  3  2  0  0  0  0
  2  7  1  0  0  0  0
  3  4  1  0  0  0  0
  4  5  2  0  0  0  0
  5  6  1  0  0  0  0
  6  7  2  0  0  0  0
  9 16  1  0  0  0  0
 10 21  1  0  0  0  0
 11 13  1  1  0  0  0
 11 17  1  0  0  0  0
 11 20  2  0  0  0  0
 11 31  1  0  0  0  0
 12 16  2  0  0  0  0
 12 28  1  0  0  0  0
 15 26  1  0  0  0  0
 15 18  1  0  0  0  0
 16 19  1  0  0  0  0
 18 30  1  0  0  0  0
 19 22  2  0  0  0  0
 21 18  1  1  0  0  0
 21 24  1  0  0  0  0
 22 23  1  0  0  0  0
 22 25  1  0  0  0  0
 24 14  1  1  0  0  0
 24 27  1  0  0  0  0
 25 28  2  0  0  0  0
 25 30  1  0  0  0  0
 27 29  1  0  0  0  0
 29 31  1  0  0  0  0
M  CHG  1  17  -1
M  END
>  <CHROM.1>
-86.87105141,-64.41992565,-117.03019116,97.36980917,-79.39460884,-7.44971634
-97.81768883,116.11037891,123.31697303,-166.50896178,174.43748625,77.38793171
4.76160965,16.98398881,51.16879231,0.77441621,-0.45591430,-2.38683232

>  <Name>
ligand

>  <RI>
0

>  <Rbt.Current_Directory>
/home/itssahil/PROJECTS/Mol_Feturizer/New_Systems/rnas/2HOO

>  <Rbt.Executable>
rbdock ($Id: //depot/dev/client3/rdock/2013.1/src/exe/rbdock.cxx#4 $)

>  <Rbt.Library>
libRbt.so (2013.1, Build901 2013/11/27)

>  <Rbt.Parameter_File>
/export/apps/rDock/src/rDock_2013.1_src/data/scripts/dock_solv.prm

>  <Rbt.Receptor>
prm/pocket_docking_5.prm

>  <SCORE>
-26.6099

>  <SCORE.INTER>
-13.8355

>  <SCORE.INTER.CONST>
1

>  <SCORE.INTER.POLAR>
0

>  <SCORE.INTER.ROT>
12

>  <SCORE.INTER.SOLV>
18.286

>  <SCORE.INTER.VDW>
-26.919

>  <SCORE.INTER.norm>
-0.446306

>  <SCORE.INTRA>
-12.8177

>  <SCORE.INTRA.DIHEDRAL>
1.8916

>  <SCORE.INTRA.DIHEDRAL.0>
14.6094

>  <SCORE.INTRA.POLAR>
0

>  <SCORE.INTRA.POLAR.0>
0

>  <SCORE.INTRA.REPUL>
0

>  <SCORE.INTRA.REPUL.0>
0

>  <SCORE.INTRA.SOLV>
-0.66881

>  <SCORE.INTRA.SOLV.lig_0>
-65.6478

>  <SCORE.INTRA.VDW>
-13.429

>  <SCORE.INTRA.VDW.0>
9.35535

>  <SCORE.INTRA.norm>
-0.413473

>  <SCORE.RESTR>
0.0432803

>  <SCORE.RESTR.CAVITY>
0.0432803

>  <SCORE.RESTR.norm>
0.00139614

>  <SCORE.SYSTEM>
0

>  <SCORE.SYSTEM.CONST>
0

>  <SCORE.SYSTEM.DIHEDRAL>
0

>  <SCORE.SYSTEM.SOLV>
0

>  <SCORE.SYSTEM.norm>
0

>  <SCORE.heavy>
31

>  <SCORE.norm>
-0.858382

>  <RMSD>
7.768

$$$$
ligand
 OpenBabel11021811443D
libRbt.so/2013.1/901 2013/11/27
 31 32  0  0  0  0  0  0  0  0999 V2000
   10.3311   20.6570   53.7887 C   0  0  0  0  0  0  0  0  0  0  0  0
   11.6405   19.9783   54.1797 C   0  0  0  0  0  0  0  0  0  0  0  0
   11.7956   18.5644   54.0096 C   0  0  0  0  0  0  0  0  0  0  0  0
   13.0117   17.9400   54.3774 C   0  0  0  0  0  0  0  0  0  0  0  0
   14.0809   18.7036   54.9063 C   0  0  0  0  0  0  0  0  0  0  0  0
   13.9480   20.0969   55.0748 C   0  0  0  0  0  0  0  0  0  0  0  0
   12.7472   20.7356   54.7172 C   0  0  0  0  0  0  0  0  0  0  0  0
   10.3512   21.7322   53.1905 O   0  0  0  0  0  0  0  0  0  0  0  0
    1.0012   15.7844   55.6730 C   0  0  0  0  0  0  0  0  0  0  0  0
    7.4325   19.8444   51.1004 C   0  0  0  0  0  0  0  0  0  0  0  0
    6.0561   24.0309   56.1735 P   0  0  1  0  0  0  0  0  0  0  0  0
    2.7895   17.3691   55.5159 N   0  0  0  0  0  0  0  0  0  0  0  0
    6.3662   23.4555   57.4962 O   0  0  0  0  0  0  0  0  0  0  0  0
    9.1144   20.0759   54.1015 S   0  0  0  0  0  0  0  0  0  0  0  0
    6.5570   17.5031   53.4671 C   0  0  0  0  0  0  0  0  0  0  0  0
    1.8868   16.5834   54.8355 C   0  0  0  0  0  0  0  0  0  0  0  0
    5.0295   25.1079   56.1921 O   0  5  0  0  0  0  0  0  0  0  0  0
    6.0983   18.5795   52.7816 N   0  0  0  0  0  0  0  0  0  0  0  0
    1.7996   16.5305   53.5434 N   0  0  0  0  0  0  0  0  0  0  0  0
    7.3052   24.4194   55.4785 O   0  0  0  0  0  0  0  0  0  0  0  0
    7.0890   19.6408   52.5512 C   0  0  2  0  0  0  0  0  0  0  0  0
    2.6469   17.2856   52.7552 C   0  0  0  0  0  0  0  0  0  0  0  0
    2.5317   17.2029   51.4275 N   0  0  0  0  0  0  0  0  0  0  0  0
    7.7199   20.4892   53.5578 C   0  0  1  0  0  0  0  0  0  0  0  0
    3.6356   18.1361   53.3994 C   0  0  0  0  0  0  0  0  0  0  0  0
    7.4787   16.9530   52.9055 O   0  0  0  0  0  0  0  0  0  0  0  0
    7.1074   21.7265   54.1116 C   0  0  0  0  0  0  0  0  0  0  0  0
    3.6398   18.1268   54.7795 C   0  0  0  0  0  0  0  0  0  0  0  0
    5.9275   21.6293   54.9801 C   0  0  0  0  0  0  0  0  0  0  0  0
    4.6167   18.9501   52.5915 C   0  0  0  0  0  0  0  0  0  0  0  0
    5.3940   22.9334   55.2691 O   0  0  0  0  0  0  0  0  0  0  0  0
  1  2  1  0  0  0  0
  1  8  2  0  0  0  0
  1 14  1  0  0  0  0
  2  3  2  0  0  0  0
  2  7  1  0  0  0  0
  3  4  1  0  0  0  0
  4  5  2  0  0  0  0
  5  6  1  0  0  0  0
  6  7  2  0  0  0  0
  9 16  1  0  0  0  0
 10 21  1  0  0  0  0
 11 13  1  1  0  0  0
 11 17  1  0  0  0  0
 11 20  2  0  0  0  0
 11 31  1  0  0  0  0
 12 16  2  0  0  0  0
 12 28  1  0  0  0  0
 15 26  1  0  0  0  0
 15 18  1  0  0  0  0
 16 19  1  0  0  0  0
 18 30  1  0  0  0  0
 19 22  2  0  0  0  0
 21 18  1  6  0  0  0
 21 24  1  0  0  0  0
 22 23  1  0  0  0  0
 22 25  1  0  0  0  0
 24 14  1  1  0  0  0
 24 27  1  0  0  0  0
 25 28  2  0  0  0  0
 25 30  1  0  0  0  0
 27 29  1  0  0  0  0
 29 31  1  0  0  0  0
M  CHG  1  17  -1
M  END
>  <CHROM.1>
-137.48125254,-167.84118022,105.11661057,-59.83321120,114.72896957,8.60459392
-85.30673741,-110.37952224,-116.54475511,-172.75497130,-70.06462224,-53.73027908
6.94033852,19.98089532,54.25197382,-0.34391506,-0.07124313,-2.76680887

>  <Name>
ligand

>  <RI>
0

>  <Rbt.Current_Directory>
/home/itssahil/PROJECTS/Mol_Feturizer/New_Systems/rnas/2HOO

>  <Rbt.Executable>
rbdock ($Id: //depot/dev/client3/rdock/2013.1/src/exe/rbdock.cxx#4 $)

>  <Rbt.Library>
libRbt.so (2013.1, Build901 2013/11/27)

>  <Rbt.Parameter_File>
/export/apps/rDock/src/rDock_2013.1_src/data/scripts/dock_solv.prm

>  <Rbt.Receptor>
prm/pocket_docking_7.prm

>  <SCORE>
-37.2788

>  <SCORE.INTER>
-23.8809

>  <SCORE.INTER.CONST>
1

>  <SCORE.INTER.POLAR>
0

>  <SCORE.INTER.ROT>
12

>  <SCORE.INTER.SOLV>
13.8475

>  <SCORE.INTER.VDW>
-32.1364

>  <SCORE.INTER.norm>
-0.77035

>  <SCORE.INTRA>
-13.3979

>  <SCORE.INTRA.DIHEDRAL>
-1.25505

>  <SCORE.INTRA.DIHEDRAL.0>
14.6094

>  <SCORE.INTRA.POLAR>
0

>  <SCORE.INTRA.POLAR.0>
0

>  <SCORE.INTRA.REPUL>
0

>  <SCORE.INTRA.REPUL.0>
0

>  <SCORE.INTRA.SOLV>
0.880146

>  <SCORE.INTRA.SOLV.lig_0>
-65.6478

>  <SCORE.INTRA.VDW>
-13.2105

>  <SCORE.INTRA.VDW.0>
9.35535

>  <SCORE.INTRA.norm>
-0.432191

>  <SCORE.RESTR>
0

>  <SCORE.RESTR.CAVITY>
0

>  <SCORE.RESTR.norm>
0

>  <SCORE.SYSTEM>
0

>  <SCORE.SYSTEM.CONST>
0

>  <SCORE.SYSTEM.DIHEDRAL>
0

>  <SCORE.SYSTEM.SOLV>
0

>  <SCORE.SYSTEM.norm>
0

>  <SCORE.heavy>
31

>  <SCORE.norm>
-1.20254

>  <RMSD>
7.778

$$$$
ligand
 OpenBabel11021811443D
libRbt.so/2013.1/901 2013/11/27
 31 32  0  0  0  0  0  0  0  0999 V2000
    7.1373   17.9672   51.1696 C   0  0  0  0  0  0  0  0  0  0  0  0
    8.1839   17.5473   50.1418 C   0  0  0  0  0  0  0  0  0  0  0  0
    9.4576   18.2019   50.1047 C   0  0  0  0  0  0  0  0  0  0  0  0
   10.4232   17.8101   49.1467 C   0  0  0  0  0  0  0  0  0  0  0  0
   10.1431   16.7697   48.2273 C   0  0  0  0  0  0  0  0  0  0  0  0
    8.8974   16.1104   48.2533 C   0  0  0  0  0  0  0  0  0  0  0  0
    7.9241   16.4863   49.1963 C   0  0  0  0  0  0  0  0  0  0  0  0
    7.1234   17.4414   52.2822 O   0  0  0  0  0  0  0  0  0  0  0  0
   -1.9512   24.6530   52.4034 C   0  0  0  0  0  0  0  0  0  0  0  0
    4.5887   20.1140   53.7296 C   0  0  0  0  0  0  0  0  0  0  0  0
    8.3239   24.8598   52.5269 P   0  0  1  0  0  0  0  0  0  0  0  0
   -0.3009   23.4648   51.1388 N   0  0  0  0  0  0  0  0  0  0  0  0
    7.9260   25.8084   51.4692 O   0  0  0  0  0  0  0  0  0  0  0  0
    6.1975   18.9362   50.8640 S   0  0  0  0  0  0  0  0  0  0  0  0
    2.4756   20.2058   51.5341 C   0  0  0  0  0  0  0  0  0  0  0  0
   -0.5902   24.1415   52.3023 C   0  0  0  0  0  0  0  0  0  0  0  0
    9.7709   24.8888   52.8722 O   0  5  0  0  0  0  0  0  0  0  0  0
    3.4903   21.0867   51.7162 N   0  0  0  0  0  0  0  0  0  0  0  0
    0.2597   24.3309   53.2624 N   0  0  0  0  0  0  0  0  0  0  0  0
    7.4345   25.0016   53.7030 O   0  0  0  0  0  0  0  0  0  0  0  0
    4.7190   20.5142   52.2849 C   0  0  2  0  0  0  0  0  0  0  0  0
    1.5504   23.8491   53.1571 C   0  0  0  0  0  0  0  0  0  0  0  0
    2.4005   24.0666   54.1636 N   0  0  0  0  0  0  0  0  0  0  0  0
    5.9861   20.2893   51.5957 C   0  0  1  0  0  0  0  0  0  0  0  0
    1.9368   23.1298   51.9533 C   0  0  0  0  0  0  0  0  0  0  0  0
    1.6973   20.1954   52.4623 O   0  0  0  0  0  0  0  0  0  0  0  0
    7.1026   21.2715   51.5567 C   0  0  0  0  0  0  0  0  0  0  0  0
    0.9554   22.9749   50.9954 C   0  0  0  0  0  0  0  0  0  0  0  0
    6.9522   22.5721   52.2213 C   0  0  0  0  0  0  0  0  0  0  0  0
    3.3438   22.6182   51.7622 C   0  0  0  0  0  0  0  0  0  0  0  0
    8.1165   23.3912   52.0159 O   0  0  0  0  0  0  0  0  0  0  0  0
  1  2  1  0  0  0  0
  1  8  2  0  0  0  0
  1 14  1  0  0  0  0
  2  3  2  0  0  0  0
  2  7  1  0  0  0  0
  3  4  1  0  0  0  0
  4  5  2  0  0  0  0
  5  6  1  0  0  0  0
  6  7  2  0  0  0  0
  9 16  1  0  0  0  0
 10 21  1  0  0  0  0
 11 13  1  6  0  0  0
 11 17  1  0  0  0  0
 11 20  2  0  0  0  0
 11 31  1  0  0  0  0
 12 16  2  0  0  0  0
 12 28  1  0  0  0  0
 15 26  1  0  0  0  0
 15 18  1  0  0  0  0
 16 19  1  0  0  0  0
 18 30  1  0  0  0  0
 19 22  2  0  0  0  0
 21 18  1  6  0  0  0
 21 24  1  0  0  0  0
 22 23  1  0  0  0  0
 22 25  1  0  0  0  0
 24 14  1  1  0  0  0
 24 27  1  0  0  0  0
 25 28  2  0  0  0  0
 25 30  1  0  0  0  0
 27 29  1  0  0  0  0
 29 31  1  0  0  0  0
M  CHG  1  17  -1
M  END
>  <CHROM.1>
-88.33909997,-120.09337284,-115.97119531,95.11117389,-70.29175015,15.49796591
90.07133971,179.43377264,114.39606640,-177.47314514,178.01928550,-93.97835418
5.35983397,21.48212459,51.70795433,0.65049030,-0.06372409,-2.81264874

>  <Name>
ligand

>  <RI>
0

>  <Rbt.Current_Directory>
/home/itssahil/PROJECTS/Mol_Feturizer/New_Systems/rnas/2HOO

>  <Rbt.Executable>
rbdock ($Id: //depot/dev/client3/rdock/2013.1/src/exe/rbdock.cxx#4 $)

>  <Rbt.Library>
libRbt.so (2013.1, Build901 2013/11/27)

>  <Rbt.Parameter_File>
/export/apps/rDock/src/rDock_2013.1_src/data/scripts/dock_solv.prm

>  <Rbt.Receptor>
prm/pocket_docking_8.prm

>  <SCORE>
-26.6438

>  <SCORE.INTER>
-16.6583

>  <SCORE.INTER.CONST>
1

>  <SCORE.INTER.POLAR>
0

>  <SCORE.INTER.ROT>
12

>  <SCORE.INTER.SOLV>
18.2888

>  <SCORE.INTER.VDW>
-28.8018

>  <SCORE.INTER.norm>
-0.537365

>  <SCORE.INTRA>
-9.99908

>  <SCORE.INTRA.DIHEDRAL>
4.89238

>  <SCORE.INTRA.DIHEDRAL.0>
14.6094

>  <SCORE.INTRA.POLAR>
0

>  <SCORE.INTRA.POLAR.0>
0

>  <SCORE.INTRA.REPUL>
0

>  <SCORE.INTRA.REPUL.0>
0

>  <SCORE.INTRA.SOLV>
0.0803278

>  <SCORE.INTRA.SOLV.lig_0>
-65.6478

>  <SCORE.INTRA.VDW>
-12.4854

>  <SCORE.INTRA.VDW.0>
9.35535

>  <SCORE.INTRA.norm>
-0.322551

>  <SCORE.RESTR>
0.0135818

>  <SCORE.RESTR.CAVITY>
0.0135818

>  <SCORE.RESTR.norm>
0.000438122

>  <SCORE.SYSTEM>
0

>  <SCORE.SYSTEM.CONST>
0

>  <SCORE.SYSTEM.DIHEDRAL>
0

>  <SCORE.SYSTEM.SOLV>
0

>  <SCORE.SYSTEM.norm>
0

>  <SCORE.heavy>
31

>  <SCORE.norm>
-0.859477

>  <RMSD>
7.783

$$$$
ligand
 OpenBabel11021811443D
libRbt.so/2013.1/901 2013/11/27
 31 32  0  0  0  0  0  0  0  0999 V2000
    0.7967   19.5783   54.5122 C   0  0  0  0  0  0  0  0  0  0  0  0
    1.1531   18.1270   54.8199 C   0  0  0  0  0  0  0  0  0  0  0  0
    2.3501   17.8191   55.5441 C   0  0  0  0  0  0  0  0  0  0  0  0
    2.6770   16.4705   55.8237 C   0  0  0  0  0  0  0  0  0  0  0  0
    1.8256   15.4213   55.3991 C   0  0  0  0  0  0  0  0  0  0  0  0
    0.6405   15.7061   54.6907 C   0  0  0  0  0  0  0  0  0  0  0  0
    0.2991   17.0394   54.4015 C   0  0  0  0  0  0  0  0  0  0  0  0
   -0.3770   19.8956   54.3218 O   0  0  0  0  0  0  0  0  0  0  0  0
    3.4371   14.6871   46.9920 C   0  0  0  0  0  0  0  0  0  0  0  0
    3.3857   20.6240   51.4444 C   0  0  0  0  0  0  0  0  0  0  0  0
    6.7599   22.6906   52.5167 P   0  0  1  0  0  0  0  0  0  0  0  0
    3.9696   16.4626   48.5081 N   0  0  0  0  0  0  0  0  0  0  0  0
    5.9599   23.8734   52.1454 O   0  0  0  0  0  0  0  0  0  0  0  0
    1.7826   20.5473   54.4426 S   0  0  0  0  0  0  0  0  0  0  0  0
    5.0138   17.9278   52.8540 C   0  0  0  0  0  0  0  0  0  0  0  0
    3.2088   15.3391   48.2753 C   0  0  0  0  0  0  0  0  0  0  0  0
    7.2417   21.8825   51.3639 O   0  5  0  0  0  0  0  0  0  0  0  0
    3.8190   18.3538   52.3744 N   0  0  0  0  0  0  0  0  0  0  0  0
    2.3410   14.8638   49.1125 N   0  0  0  0  0  0  0  0  0  0  0  0
    7.8373   23.0759   53.4575 O   0  0  0  0  0  0  0  0  0  0  0  0
    3.4928   19.7566   52.6693 C   0  0  2  0  0  0  0  0  0  0  0  0
    2.1246   15.4908   50.3247 C   0  0  0  0  0  0  0  0  0  0  0  0
    1.2198   14.9759   51.1608 N   0  0  0  0  0  0  0  0  0  0  0  0
    3.2520   20.3467   53.9825 C   0  0  1  0  0  0  0  0  0  0  0  0
    2.8842   16.6901   50.6419 C   0  0  0  0  0  0  0  0  0  0  0  0
    4.9800   17.6913   54.0416 O   0  0  0  0  0  0  0  0  0  0  0  0
    4.3273   20.7841   54.9127 C   0  0  0  0  0  0  0  0  0  0  0  0
    3.7885   17.1082   49.6868 C   0  0  0  0  0  0  0  0  0  0  0  0
    5.1870   21.9180   54.5507 C   0  0  0  0  0  0  0  0  0  0  0  0
    2.6605   17.4429   51.9307 C   0  0  0  0  0  0  0  0  0  0  0  0
    5.8576   21.6755   53.3016 O   0  0  0  0  0  0  0  0  0  0  0  0
  1  2  1  0  0  0  0
  1  8  2  0  0  0  0
  1 14  1  0  0  0  0
  2  3  2  0  0  0  0
  2  7  1  0  0  0  0
  3  4  1  0  0  0  0
  4  5  2  0  0  0  0
  5  6  1  0  0  0  0
  6  7  2  0  0  0  0
  9 16  1  0  0  0  0
 10 21  1  0  0  0  0
 11 13  1  6  0  0  0
 11 17  1  0  0  0  0
 11 20  2  0  0  0  0
 11 31  1  0  0  0  0
 12 16  2  0  0  0  0
 12 28  1  0  0  0  0
 15 26  1  0  0  0  0
 15 18  1  0  0  0  0
 16 19  1  0  0  0  0
 18 30  1  0  0  0  0
 19 22  2  0  0  0  0
 21 18  1  6  0  0  0
 21 24  1  0  0  0  0
 22 23  1  0  0  0  0
 22 25  1  0  0  0  0
 24 14  1  6  0  0  0
 24 27  1  0  0  0  0
 25 28  2  0  0  0  0
 25 30  1  0  0  0  0
 27 29  1  0  0  0  0
 29 31  1  0  0  0  0
M  CHG  1  17  -1
M  END
>  <CHROM.1>
-155.14260479,31.26435269,54.97939309,77.62391276,115.80263330,-71.44138272
80.10221093,-112.81275214,159.08477945,-57.76488655,174.31035502,-61.07935305
3.53115277,18.90373364,52.62830692,2.28216853,-0.76220301,-2.27484720

>  <Name>
ligand

>  <RI>
0

>  <Rbt.Current_Directory>
/home/itssahil/PROJECTS/Mol_Feturizer/New_Systems/rnas/2HOO

>  <Rbt.Executable>
rbdock ($Id: //depot/dev/client3/rdock/2013.1/src/exe/rbdock.cxx#4 $)

>  <Rbt.Library>
libRbt.so (2013.1, Build901 2013/11/27)

>  <Rbt.Parameter_File>
/export/apps/rDock/src/rDock_2013.1_src/data/scripts/dock_solv.prm

>  <Rbt.Receptor>
prm/pocket_docking_6.prm

>  <SCORE>
-27.1895

>  <SCORE.INTER>
-10.4135

>  <SCORE.INTER.CONST>
1

>  <SCORE.INTER.POLAR>
0

>  <SCORE.INTER.ROT>
12

>  <SCORE.INTER.SOLV>
14.33

>  <SCORE.INTER.VDW>
-23.319

>  <SCORE.INTER.norm>
-0.33592

>  <SCORE.INTRA>
-16.776

>  <SCORE.INTRA.DIHEDRAL>
-1.0327

>  <SCORE.INTRA.DIHEDRAL.0>
14.6094

>  <SCORE.INTRA.POLAR>
0

>  <SCORE.INTRA.POLAR.0>
0

>  <SCORE.INTRA.REPUL>
0

>  <SCORE.INTRA.REPUL.0>
0

>  <SCORE.INTRA.SOLV>
0.771266

>  <SCORE.INTRA.SOLV.lig_0>
-65.6478

>  <SCORE.INTRA.VDW>
-16.6453

>  <SCORE.INTRA.VDW.0>
9.35535

>  <SCORE.INTRA.norm>
-0.541162

>  <SCORE.RESTR>
0

>  <SCORE.RESTR.CAVITY>
0

>  <SCORE.RESTR.norm>
0

>  <SCORE.SYSTEM>
0

>  <SCORE.SYSTEM.CONST>
0

>  <SCORE.SYSTEM.DIHEDRAL>
0

>  <SCORE.SYSTEM.SOLV>
0

>  <SCORE.SYSTEM.norm>
0

>  <SCORE.heavy>
31

>  <SCORE.norm>
-0.877082

>  <RMSD>
7.784

$$$$
ligand
 OpenBabel11021811443D
libRbt.so/2013.1/901 2013/11/27
 31 32  0  0  0  0  0  0  0  0999 V2000
    9.9322   19.1284   53.9172 C   0  0  0  0  0  0  0  0  0  0  0  0
   11.4217   19.1331   54.2480 C   0  0  0  0  0  0  0  0  0  0  0  0
   12.1102   20.3740   54.4443 C   0  0  0  0  0  0  0  0  0  0  0  0
   13.4928   20.3719   54.7477 C   0  0  0  0  0  0  0  0  0  0  0  0
   14.2012   19.1511   54.8662 C   0  0  0  0  0  0  0  0  0  0  0  0
   13.5385   17.9205   54.6824 C   0  0  0  0  0  0  0  0  0  0  0  0
   12.1655   17.9015   54.3785 C   0  0  0  0  0  0  0  0  0  0  0  0
    9.1371   18.5686   54.6714 O   0  0  0  0  0  0  0  0  0  0  0  0
    1.0602   15.9289   55.6422 C   0  0  0  0  0  0  0  0  0  0  0  0
    6.2857   20.3509   54.4086 C   0  0  0  0  0  0  0  0  0  0  0  0
    6.6328   24.4719   53.0372 P   0  0  1  0  0  0  0  0  0  0  0  0
    2.9881   17.3158   55.3355 N   0  0  0  0  0  0  0  0  0  0  0  0
    5.6329   23.7624   52.2166 O   0  0  0  0  0  0  0  0  0  0  0  0
    9.4618   19.7481   52.7724 S   0  0  0  0  0  0  0  0  0  0  0  0
    6.8720   17.3737   53.0567 C   0  0  0  0  0  0  0  0  0  0  0  0
    1.9679   16.6157   54.7320 C   0  0  0  0  0  0  0  0  0  0  0  0
    7.2669   25.6398   52.3678 O   0  5  0  0  0  0  0  0  0  0  0  0
    6.2454   18.5261   52.7130 N   0  0  0  0  0  0  0  0  0  0  0  0
    1.7934   16.5482   53.4494 N   0  0  0  0  0  0  0  0  0  0  0  0
    6.0689   24.7909   54.3693 O   0  0  0  0  0  0  0  0  0  0  0  0
    6.9056   19.7563   53.1731 C   0  0  2  0  0  0  0  0  0  0  0  0
    2.6617   17.1962   52.5919 C   0  0  0  0  0  0  0  0  0  0  0  0
    2.4541   17.1013   51.2763 N   0  0  0  0  0  0  0  0  0  0  0  0
    8.0690   20.4063   52.5773 C   0  0  1  0  0  0  0  0  0  0  0  0
    3.7715   17.9512   53.1525 C   0  0  0  0  0  0  0  0  0  0  0  0
    6.5279   16.9641   54.1436 O   0  0  0  0  0  0  0  0  0  0  0  0
    8.0124   21.6732   51.7999 C   0  0  0  0  0  0  0  0  0  0  0  0
    3.8629   17.9670   54.5295 C   0  0  0  0  0  0  0  0  0  0  0  0
    8.6708   22.8777   52.3209 C   0  0  0  0  0  0  0  0  0  0  0  0
    4.7774   18.6435   52.2655 C   0  0  0  0  0  0  0  0  0  0  0  0
    7.8515   23.5229   53.3114 O   0  0  0  0  0  0  0  0  0  0  0  0
  1  2  1  0  0  0  0
  1  8  2  0  0  0  0
  1 14  1  0  0  0  0
  2  3  2  0  0  0  0
  2  7  1  0  0  0  0
  3  4  1  0  0  0  0
  4  5  2  0  0  0  0
  5  6  1  0  0  0  0
  6  7  2  0  0  0  0
  9 16  1  0  0  0  0
 10 21  1  0  0  0  0
 11 13  1  6  0  0  0
 11 17  1  0  0  0  0
 11 20  2  0  0  0  0
 11 31  1  0  0  0  0
 12 16  2  0  0  0  0
 12 28  1  0  0  0  0
 15 26  1  0  0  0  0
 15 18  1  0  0  0  0
 16 19  1  0  0  0  0
 18 30  1  0  0  0  0
 19 22  2  0  0  0  0
 21 18  1  1  0  0  0
 21 24  1  0  0  0  0
 22 23  1  0  0  0  0
 22 25  1  0  0  0  0
 24 14  1  1  0  0  0
 24 27  1  0  0  0  0
 25 28  2  0  0  0  0
 25 30  1  0  0  0  0
 27 29  1  0  0  0  0
 29 31  1  0  0  0  0
M  CHG  1  17  -1
M  END
>  <CHROM.1>
-119.59506989,-149.93694745,-38.68910098,87.73726419,-100.22849544,49.32175628
105.26194851,-64.82363826,-138.39229674,-80.54974479,-80.34990211,57.28015364
7.11975556,19.89927496,53.51240257,-0.42485210,0.08735197,2.95719490

>  <Name>
ligand

>  <RI>
0

>  <Rbt.Current_Directory>
/home/itssahil/PROJECTS/Mol_Feturizer/New_Systems/rnas/2HOO

>  <Rbt.Executable>
rbdock ($Id: //depot/dev/client3/rdock/2013.1/src/exe/rbdock.cxx#4 $)

>  <Rbt.Library>
libRbt.so (2013.1, Build901 2013/11/27)

>  <Rbt.Parameter_File>
/export/apps/rDock/src/rDock_2013.1_src/data/scripts/dock_solv.prm

>  <Rbt.Receptor>
prm/pocket_docking_7.prm

>  <SCORE>
-37.3753

>  <SCORE.INTER>
-26.2562

>  <SCORE.INTER.CONST>
1

>  <SCORE.INTER.POLAR>
0

>  <SCORE.INTER.ROT>
12

>  <SCORE.INTER.SOLV>
19.6237

>  <SCORE.INTER.VDW>
-35.6453

>  <SCORE.INTER.norm>
-0.846973

>  <SCORE.INTRA>
-11.1219

>  <SCORE.INTRA.DIHEDRAL>
4.58233

>  <SCORE.INTRA.DIHEDRAL.0>
14.6094

>  <SCORE.INTRA.POLAR>
0

>  <SCORE.INTRA.POLAR.0>
0

>  <SCORE.INTRA.REPUL>
0

>  <SCORE.INTRA.REPUL.0>
0

>  <SCORE.INTRA.SOLV>
1.28586

>  <SCORE.INTRA.SOLV.lig_0>
-65.6478

>  <SCORE.INTRA.VDW>
-14.056

>  <SCORE.INTRA.VDW.0>
9.35535

>  <SCORE.INTRA.norm>
-0.358772

>  <SCORE.RESTR>
0.00283015

>  <SCORE.RESTR.CAVITY>
0.00283015

>  <SCORE.RESTR.norm>
9.12951e-05

>  <SCORE.SYSTEM>
0

>  <SCORE.SYSTEM.CONST>
0

>  <SCORE.SYSTEM.DIHEDRAL>
0

>  <SCORE.SYSTEM.SOLV>
0

>  <SCORE.SYSTEM.norm>
0

>  <SCORE.heavy>
31

>  <SCORE.norm>
-1.20565

>  <RMSD>
7.790

$$$$
ligand
 OpenBabel11021811443D
libRbt.so/2013.1/901 2013/11/27
 31 32  0  0  0  0  0  0  0  0999 V2000
    8.0264   17.7072   54.8223 C   0  0  0  0  0  0  0  0  0  0  0  0
    8.5698   19.0522   54.3491 C   0  0  0  0  0  0  0  0  0  0  0  0
    7.6978   20.1843   54.2488 C   0  0  0  0  0  0  0  0  0  0  0  0
    8.2071   21.4286   53.8060 C   0  0  0  0  0  0  0  0  0  0  0  0
    9.5756   21.5660   53.4675 C   0  0  0  0  0  0  0  0  0  0  0  0
   10.4495   20.4642   53.5661 C   0  0  0  0  0  0  0  0  0  0  0  0
    9.9622   19.2191   54.0022 C   0  0  0  0  0  0  0  0  0  0  0  0
    8.4651   17.1952   55.8517 O   0  0  0  0  0  0  0  0  0  0  0  0
   -0.2848   22.9824   52.2746 C   0  0  0  0  0  0  0  0  0  0  0  0
    4.2645   18.2458   53.6600 C   0  0  0  0  0  0  0  0  0  0  0  0
    8.7620   17.6769   48.0288 P   0  0  1  0  0  0  0  0  0  0  0  0
    1.2634   21.2483   51.7000 N   0  0  0  0  0  0  0  0  0  0  0  0
   10.1153   18.1759   48.3391 O   0  0  0  0  0  0  0  0  0  0  0  0
    7.0418   17.0518   54.1034 S   0  0  0  0  0  0  0  0  0  0  0  0
    4.6901   18.9619   50.4252 C   0  0  0  0  0  0  0  0  0  0  0  0
    1.0838   22.4816   52.2848 C   0  0  0  0  0  0  0  0  0  0  0  0
    7.7853   18.7326   47.6473 O   0  5  0  0  0  0  0  0  0  0  0  0
    5.1252   19.4060   51.6304 N   0  0  0  0  0  0  0  0  0  0  0  0
    2.0382   23.1784   52.8173 N   0  0  0  0  0  0  0  0  0  0  0  0
    8.8376   16.5641   47.0539 O   0  0  0  0  0  0  0  0  0  0  0  0
    5.3594   18.3577   52.6340 C   0  0  2  0  0  0  0  0  0  0  0  0
    3.3348   22.7006   52.8176 C   0  0  0  0  0  0  0  0  0  0  0  0
    4.2935   23.4473   53.3710 N   0  0  0  0  0  0  0  0  0  0  0  0
    6.4960   17.4444   52.7037 C   0  0  1  0  0  0  0  0  0  0  0  0
    3.6081   21.4074   52.2105 C   0  0  0  0  0  0  0  0  0  0  0  0
    3.5484   18.5590   50.4632 O   0  0  0  0  0  0  0  0  0  0  0  0
    7.1805   16.8689   51.5149 C   0  0  0  0  0  0  0  0  0  0  0  0
    2.5215   20.7424   51.6795 C   0  0  0  0  0  0  0  0  0  0  0  0
    7.8275   17.7606   50.5443 C   0  0  0  0  0  0  0  0  0  0  0  0
    5.0102   20.8531   52.1417 C   0  0  0  0  0  0  0  0  0  0  0  0
    8.1231   17.0615   49.3226 O   0  0  0  0  0  0  0  0  0  0  0  0
  1  2  1  0  0  0  0
  1  8  2  0  0  0  0
  1 14  1  0  0  0  0
  2  3  2  0  0  0  0
  2  7  1  0  0  0  0
  3  4  1  0  0  0  0
  4  5  2  0  0  0  0
  5  6  1  0  0  0  0
  6  7  2  0  0  0  0
  9 16  1  0  0  0  0
 10 21  1  0  0  0  0
 11 13  1  1  0  0  0
 11 17  1  0  0  0  0
 11 20  2  0  0  0  0
 11 31  1  0  0  0  0
 12 16  2  0  0  0  0
 12 28  1  0  0  0  0
 15 26  1  0  0  0  0
 15 18  1  0  0  0  0
 16 19  1  0  0  0  0
 18 30  1  0  0  0  0
 19 22  2  0  0  0  0
 21 18  1  6  0  0  0
 21 24  1  0  0  0  0
 22 23  1  0  0  0  0
 22 25  1  0  0  0  0
 24 14  1  6  0  0  0
 24 27  1  0  0  0  0
 25 28  2  0  0  0  0
 25 30  1  0  0  0  0
 27 29  1  0  0  0  0
 29 31  1  0  0  0  0
M  CHG  1  17  -1
M  END
>  <CHROM.1>
-118.18685263,8.18256921,-89.84901470,71.08119853,-102.35501629,58.34599612
-37.55031381,-118.34986435,172.80426346,-165.24661965,177.54900465,62.35535730
6.23277409,19.31544340,51.85838265,-0.39369799,-0.49972739,1.33591357

>  <Name>
ligand

>  <RI>
0

>  <Rbt.Current_Directory>
/home/itssahil/PROJECTS/Mol_Feturizer/New_Systems/rnas/2HOO

>  <Rbt.Executable>
rbdock ($Id: //depot/dev/client3/rdock/2013.1/src/exe/rbdock.cxx#4 $)

>  <Rbt.Library>
libRbt.so (2013.1, Build901 2013/11/27)

>  <Rbt.Parameter_File>
/export/apps/rDock/src/rDock_2013.1_src/data/scripts/dock_solv.prm

>  <Rbt.Receptor>
prm/pocket_docking_4.prm

>  <SCORE>
-30.0732

>  <SCORE.INTER>
-15.9689

>  <SCORE.INTER.CONST>
1

>  <SCORE.INTER.POLAR>
0

>  <SCORE.INTER.ROT>
12

>  <SCORE.INTER.SOLV>
16.2574

>  <SCORE.INTER.VDW>
-27.6651

>  <SCORE.INTER.norm>
-0.515127

>  <SCORE.INTRA>
-14.1196

>  <SCORE.INTRA.DIHEDRAL>
-1.84874

>  <SCORE.INTRA.DIHEDRAL.0>
14.6094

>  <SCORE.INTRA.POLAR>
0

>  <SCORE.INTRA.POLAR.0>
0

>  <SCORE.INTRA.REPUL>
0

>  <SCORE.INTRA.REPUL.0>
0

>  <SCORE.INTRA.SOLV>
-0.626303

>  <SCORE.INTRA.SOLV.lig_0>
-65.6478

>  <SCORE.INTRA.VDW>
-12.8821

>  <SCORE.INTRA.VDW.0>
9.35535

>  <SCORE.INTRA.norm>
-0.45547

>  <SCORE.RESTR>
0.0153235

>  <SCORE.RESTR.CAVITY>
0.0153235

>  <SCORE.RESTR.norm>
0.000494307

>  <SCORE.SYSTEM>
0

>  <SCORE.SYSTEM.CONST>
0

>  <SCORE.SYSTEM.DIHEDRAL>
0

>  <SCORE.SYSTEM.SOLV>
0

>  <SCORE.SYSTEM.norm>
0

>  <SCORE.heavy>
31

>  <SCORE.norm>
-0.970103

>  <RMSD>
7.794

$$$$
ligand
 OpenBabel11021811443D
libRbt.so/2013.1/901 2013/11/27
 31 32  0  0  0  0  0  0  0  0999 V2000
    8.0268   24.0837   52.0588 C   0  0  0  0  0  0  0  0  0  0  0  0
    9.0208   23.1791   52.7811 C   0  0  0  0  0  0  0  0  0  0  0  0
    8.8661   21.7558   52.7292 C   0  0  0  0  0  0  0  0  0  0  0  0
    9.7896   20.9220   53.4042 C   0  0  0  0  0  0  0  0  0  0  0  0
   10.8713   21.4834   54.1260 C   0  0  0  0  0  0  0  0  0  0  0  0
   11.0425   22.8815   54.1827 C   0  0  0  0  0  0  0  0  0  0  0  0
   10.1346   23.7270   53.5202 C   0  0  0  0  0  0  0  0  0  0  0  0
    8.4259   25.0875   51.4692 O   0  0  0  0  0  0  0  0  0  0  0  0
    1.0644   16.1414   50.6981 C   0  0  0  0  0  0  0  0  0  0  0  0
    3.3396   22.7336   53.1846 C   0  0  0  0  0  0  0  0  0  0  0  0
    5.8602   24.9779   57.6457 P   0  0  1  0  0  0  0  0  0  0  0  0
    1.5486   18.4114   51.2872 N   0  0  0  0  0  0  0  0  0  0  0  0
    6.7388   23.7944   57.7097 O   0  0  0  0  0  0  0  0  0  0  0  0
    6.6746   23.7884   52.0595 S   0  0  0  0  0  0  0  0  0  0  0  0
    5.0026   20.0741   53.7997 C   0  0  0  0  0  0  0  0  0  0  0  0
    2.0403   17.2183   50.8076 C   0  0  0  0  0  0  0  0  0  0  0  0
    4.4051   24.6726   57.7053 O   0  5  0  0  0  0  0  0  0  0  0  0
    4.9740   20.9089   52.7315 N   0  0  0  0  0  0  0  0  0  0  0  0
    3.2762   17.0270   50.4670 N   0  0  0  0  0  0  0  0  0  0  0  0
    6.2910   25.9899   58.6380 O   0  0  0  0  0  0  0  0  0  0  0  0
    4.7834   22.3301   53.0553 C   0  0  2  0  0  0  0  0  0  0  0  0
    4.1977   18.0504   50.5797 C   0  0  0  0  0  0  0  0  0  0  0  0
    5.4632   17.8163   50.2237 N   0  0  0  0  0  0  0  0  0  0  0  0
    5.8242   23.3298   53.2751 C   0  0  1  0  0  0  0  0  0  0  0  0
    3.7576   19.3407   51.0870 C   0  0  0  0  0  0  0  0  0  0  0  0
    5.9814   20.2410   54.4936 O   0  0  0  0  0  0  0  0  0  0  0  0
    6.1363   23.9353   54.5975 C   0  0  0  0  0  0  0  0  0  0  0  0
    2.4204   19.4426   51.4129 C   0  0  0  0  0  0  0  0  0  0  0  0
    5.4870   25.1906   54.9955 C   0  0  0  0  0  0  0  0  0  0  0  0
    4.7265   20.4827   51.2734 C   0  0  0  0  0  0  0  0  0  0  0  0
    6.0149   25.6678   56.2454 O   0  0  0  0  0  0  0  0  0  0  0  0
  1  2  1  0  0  0  0
  1  8  2  0  0  0  0
  1 14  1  0  0  0  0
  2  3  2  0  0  0  0
  2  7  1  0  0  0  0
  3  4  1  0  0  0  0
  4  5  2  0  0  0  0
  5  6  1  0  0  0  0
  6  7  2  0  0  0  0
  9 16  1  0  0  0  0
 10 21  1  0  0  0  0
 11 13  1  1  0  0  0
 11 17  1  0  0  0  0
 11 20  2  0  0  0  0
 11 31  1  0  0  0  0
 12 16  2  0  0  0  0
 12 28  1  0  0  0  0
 15 26  1  0  0  0  0
 15 18  1  0  0  0  0
 16 19  1  0  0  0  0
 18 30  1  0  0  0  0
 19 22  2  0  0  0  0
 21 18  1  1  0  0  0
 21 24  1  0  0  0  0
 22 23  1  0  0  0  0
 22 25  1  0  0  0  0
 24 14  1  1  0  0  0
 24 27  1  0  0  0  0
 25 28  2  0  0  0  0
 25 30  1  0  0  0  0
 27 29  1  0  0  0  0
 29 31  1  0  0  0  0
M  CHG  1  17  -1
M  END
>  <CHROM.1>
-140.40874781,44.21447847,-142.36643937,-67.69826917,-86.31778779,34.86045715
-111.53734786,88.01024945,-113.20140792,-174.65916661,-66.28636630,74.13688809
5.83743631,22.04371682,53.51779589,-1.08446668,-0.33789948,-2.32036748

>  <Name>
ligand

>  <RI>
0

>  <Rbt.Current_Directory>
/home/itssahil/PROJECTS/Mol_Feturizer/New_Systems/rnas/2HOO

>  <Rbt.Executable>
rbdock ($Id: //depot/dev/client3/rdock/2013.1/src/exe/rbdock.cxx#4 $)

>  <Rbt.Library>
libRbt.so (2013.1, Build901 2013/11/27)

>  <Rbt.Parameter_File>
/export/apps/rDock/src/rDock_2013.1_src/data/scripts/dock_solv.prm

>  <Rbt.Receptor>
prm/pocket_docking_8.prm

>  <SCORE>
-33.2471

>  <SCORE.INTER>
-20.757

>  <SCORE.INTER.CONST>
1

>  <SCORE.INTER.POLAR>
0

>  <SCORE.INTER.ROT>
12

>  <SCORE.INTER.SOLV>
13.4459

>  <SCORE.INTER.VDW>
-29.92

>  <SCORE.INTER.norm>
-0.669582

>  <SCORE.INTRA>
-12.4926

>  <SCORE.INTRA.DIHEDRAL>
2.17869

>  <SCORE.INTRA.DIHEDRAL.0>
14.6094

>  <SCORE.INTRA.POLAR>
0

>  <SCORE.INTRA.POLAR.0>
0

>  <SCORE.INTRA.REPUL>
0

>  <SCORE.INTRA.REPUL.0>
0

>  <SCORE.INTRA.SOLV>
0.391616

>  <SCORE.INTRA.SOLV.lig_0>
-65.6478

>  <SCORE.INTRA.VDW>
-13.7778

>  <SCORE.INTRA.VDW.0>
9.35535

>  <SCORE.INTRA.norm>
-0.402989

>  <SCORE.RESTR>
0.00261716

>  <SCORE.RESTR.CAVITY>
0.00261716

>  <SCORE.RESTR.norm>
8.44244e-05

>  <SCORE.SYSTEM>
0

>  <SCORE.SYSTEM.CONST>
0

>  <SCORE.SYSTEM.DIHEDRAL>
0

>  <SCORE.SYSTEM.SOLV>
0

>  <SCORE.SYSTEM.norm>
0

>  <SCORE.heavy>
31

>  <SCORE.norm>
-1.07249

>  <RMSD>
7.794

$$$$
ligand
 OpenBabel11021811443D
libRbt.so/2013.1/901 2013/11/27
 31 32  0  0  0  0  0  0  0  0999 V2000
    5.5679   21.7260   55.2096 C   0  0  0  0  0  0  0  0  0  0  0  0
    4.6231   22.4237   54.2357 C   0  0  0  0  0  0  0  0  0  0  0  0
    4.7081   23.8406   54.0427 C   0  0  0  0  0  0  0  0  0  0  0  0
    3.8265   24.4827   53.1403 C   0  0  0  0  0  0  0  0  0  0  0  0
    2.8641   23.7338   52.4197 C   0  0  0  0  0  0  0  0  0  0  0  0
    2.7704   22.3379   52.5925 C   0  0  0  0  0  0  0  0  0  0  0  0
    3.6360   21.6817   53.4858 C   0  0  0  0  0  0  0  0  0  0  0  0
    5.5290   22.0027   56.4081 O   0  0  0  0  0  0  0  0  0  0  0  0
    5.2275   13.3287   48.8233 C   0  0  0  0  0  0  0  0  0  0  0  0
    7.1849   17.6002   53.3760 C   0  0  0  0  0  0  0  0  0  0  0  0
    8.5158   24.1948   53.2035 P   0  0  1  0  0  0  0  0  0  0  0  0
    5.9024   15.3799   49.8583 N   0  0  0  0  0  0  0  0  0  0  0  0
    9.9173   23.8287   53.4837 O   0  0  0  0  0  0  0  0  0  0  0  0
    6.4741   20.7816   54.7593 S   0  0  0  0  0  0  0  0  0  0  0  0
    4.0909   18.0002   54.5027 C   0  0  0  0  0  0  0  0  0  0  0  0
    4.8786   14.4868   49.6364 C   0  0  0  0  0  0  0  0  0  0  0  0
    7.8365   24.9313   54.3036 O   0  5  0  0  0  0  0  0  0  0  0  0
    4.7379   18.0633   53.3126 N   0  0  0  0  0  0  0  0  0  0  0  0
    3.6767   14.6303   50.1001 N   0  0  0  0  0  0  0  0  0  0  0  0
    8.4166   24.8737   51.8907 O   0  0  0  0  0  0  0  0  0  0  0  0
    6.0915   18.6339   53.3679 C   0  0  2  0  0  0  0  0  0  0  0  0
    3.3509   15.7342   50.8647 C   0  0  0  0  0  0  0  0  0  0  0  0
    2.1020   15.8517   51.3222 N   0  0  0  0  0  0  0  0  0  0  0  0
    6.4497   20.0489   53.3905 C   0  0  1  0  0  0  0  0  0  0  0  0
    4.3766   16.7290   51.1371 C   0  0  0  0  0  0  0  0  0  0  0  0
    3.5074   19.0277   54.7692 O   0  0  0  0  0  0  0  0  0  0  0  0
    6.7839   20.8463   52.1800 C   0  0  0  0  0  0  0  0  0  0  0  0
    5.6249   16.4776   50.6048 C   0  0  0  0  0  0  0  0  0  0  0  0
    7.9229   21.7723   52.2093 C   0  0  0  0  0  0  0  0  0  0  0  0
    4.0695   17.9766   51.9289 C   0  0  0  0  0  0  0  0  0  0  0  0
    7.6524   22.8918   53.0708 O   0  0  0  0  0  0  0  0  0  0  0  0
  1  2  1  0  0  0  0
  1  8  2  0  0  0  0
  1 14  1  0  0  0  0
  2  3  2  0  0  0  0
  2  7  1  0  0  0  0
  3  4  1  0  0  0  0
  4  5  2  0  0  0  0
  5  6  1  0  0  0  0
  6  7  2  0  0  0  0
  9 16  1  0  0  0  0
 10 21  1  0  0  0  0
 11 13  1  1  0  0  0
 11 17  1  0  0  0  0
 11 20  2  0  0  0  0
 11 31  1  0  0  0  0
 12 16  2  0  0  0  0
 12 28  1  0  0  0  0
 15 26  1  0  0  0  0
 15 18  1  0  0  0  0
 16 19  1  0  0  0  0
 18 30  1  0  0  0  0
 19 22  2  0  0  0  0
 21 18  1  6  0  0  0
 21 24  1  0  0  0  0
 22 23  1  0  0  0  0
 22 25  1  0  0  0  0
 24 14  1  6  0  0  0
 24 27  1  0  0  0  0
 25 28  2  0  0  0  0
 25 30  1  0  0  0  0
 27 29  1  0  0  0  0
 29 31  1  0  0  0  0
M  CHG  1  17  -1
M  END
>  <CHROM.1>
63.04791196,-16.25533738,-108.30957151,86.10800819,99.66263841,-111.52669809
-95.71395315,43.81862601,112.05105257,-69.08887259,-170.14539991,-53.10676371
5.68774295,20.17713544,52.83094618,1.24670291,0.35194090,0.45671271

>  <Name>
ligand

>  <RI>
0

>  <Rbt.Current_Directory>
/home/itssahil/PROJECTS/Mol_Feturizer/New_Systems/rnas/2HOO

>  <Rbt.Executable>
rbdock ($Id: //depot/dev/client3/rdock/2013.1/src/exe/rbdock.cxx#4 $)

>  <Rbt.Library>
libRbt.so (2013.1, Build901 2013/11/27)

>  <Rbt.Parameter_File>
/export/apps/rDock/src/rDock_2013.1_src/data/scripts/dock_solv.prm

>  <Rbt.Receptor>
prm/pocket_docking_5.prm

>  <SCORE>
-24.7502

>  <SCORE.INTER>
-9.06916

>  <SCORE.INTER.CONST>
1

>  <SCORE.INTER.POLAR>
0

>  <SCORE.INTER.ROT>
12

>  <SCORE.INTER.SOLV>
18.4945

>  <SCORE.INTER.VDW>
-23.8109

>  <SCORE.INTER.norm>
-0.292553

>  <SCORE.INTRA>
-15.6811

>  <SCORE.INTRA.DIHEDRAL>
0.59937

>  <SCORE.INTRA.DIHEDRAL.0>
14.6094

>  <SCORE.INTRA.POLAR>
0

>  <SCORE.INTRA.POLAR.0>
0

>  <SCORE.INTRA.REPUL>
0

>  <SCORE.INTRA.REPUL.0>
0

>  <SCORE.INTRA.SOLV>
1.61775

>  <SCORE.INTRA.SOLV.lig_0>
-65.6478

>  <SCORE.INTRA.VDW>
-16.7896

>  <SCORE.INTRA.VDW.0>
9.35535

>  <SCORE.INTRA.norm>
-0.505841

>  <SCORE.RESTR>
0

>  <SCORE.RESTR.CAVITY>
0

>  <SCORE.RESTR.norm>
0

>  <SCORE.SYSTEM>
0

>  <SCORE.SYSTEM.CONST>
0

>  <SCORE.SYSTEM.DIHEDRAL>
0

>  <SCORE.SYSTEM.SOLV>
0

>  <SCORE.SYSTEM.norm>
0

>  <SCORE.heavy>
31

>  <SCORE.norm>
-0.798394

>  <RMSD>
7.798

$$$$
ligand
 OpenBabel11021811443D
libRbt.so/2013.1/901 2013/11/27
 31 32  0  0  0  0  0  0  0  0999 V2000
    7.7184   17.7723   51.9549 C   0  0  0  0  0  0  0  0  0  0  0  0
    8.3725   17.7183   50.5775 C   0  0  0  0  0  0  0  0  0  0  0  0
    8.4694   16.4727   49.8765 C   0  0  0  0  0  0  0  0  0  0  0  0
    9.0803   16.4284   48.6003 C   0  0  0  0  0  0  0  0  0  0  0  0
    9.5912   17.6083   48.0063 C   0  0  0  0  0  0  0  0  0  0  0  0
    9.4989   18.8438   48.6789 C   0  0  0  0  0  0  0  0  0  0  0  0
    8.8971   18.9083   49.9484 C   0  0  0  0  0  0  0  0  0  0  0  0
    8.3229   18.2728   52.9028 O   0  0  0  0  0  0  0  0  0  0  0  0
   -1.5613   22.3000   55.2122 C   0  0  0  0  0  0  0  0  0  0  0  0
    4.0985   18.2139   53.7633 C   0  0  0  0  0  0  0  0  0  0  0  0
    5.8639   13.6905   49.3538 P   0  0  1  0  0  0  0  0  0  0  0  0
   -0.3635   21.9395   53.1703 N   0  0  0  0  0  0  0  0  0  0  0  0
    7.1531   13.1309   49.8027 O   0  0  0  0  0  0  0  0  0  0  0  0
    6.4473   17.2615   52.1528 S   0  0  0  0  0  0  0  0  0  0  0  0
    3.7016   20.4838   51.0823 C   0  0  0  0  0  0  0  0  0  0  0  0
   -0.7438   21.4198   54.3870 C   0  0  0  0  0  0  0  0  0  0  0  0
    5.6965   13.7519   47.8765 O   0  5  0  0  0  0  0  0  0  0  0  0
    3.1852   19.4634   51.8111 N   0  0  0  0  0  0  0  0  0  0  0  0
   -0.4184   20.2367   54.8047 N   0  0  0  0  0  0  0  0  0  0  0  0
    4.7429   13.0135   50.0462 O   0  0  0  0  0  0  0  0  0  0  0  0
    4.1658   18.4751   52.2829 C   0  0  2  0  0  0  0  0  0  0  0  0
    0.3626   19.4098   54.0201 C   0  0  0  0  0  0  0  0  0  0  0  0
    0.6822   18.1993   54.4842 N   0  0  0  0  0  0  0  0  0  0  0  0
    5.1361   17.7431   51.4745 C   0  0  1  0  0  0  0  0  0  0  0  0
    0.8123   19.8900   52.7228 C   0  0  0  0  0  0  0  0  0  0  0  0
    3.0932   21.5198   51.2374 O   0  0  0  0  0  0  0  0  0  0  0  0
    4.9585   17.4352   50.0301 C   0  0  0  0  0  0  0  0  0  0  0  0
    0.4038   21.1598   52.3687 C   0  0  0  0  0  0  0  0  0  0  0  0
    4.6375   16.0649   49.6115 C   0  0  0  0  0  0  0  0  0  0  0  0
    1.7030   19.0497   51.8405 C   0  0  0  0  0  0  0  0  0  0  0  0
    5.7730   15.1980   49.7782 O   0  0  0  0  0  0  0  0  0  0  0  0
  1  2  1  0  0  0  0
  1  8  2  0  0  0  0
  1 14  1  0  0  0  0
  2  3  2  0  0  0  0
  2  7  1  0  0  0  0
  3  4  1  0  0  0  0
  4  5  2  0  0  0  0
  5  6  1  0  0  0  0
  6  7  2  0  0  0  0
  9 16  1  0  0  0  0
 10 21  1  0  0  0  0
 11 13  1  1  0  0  0
 11 17  1  0  0  0  0
 11 20  2  0  0  0  0
 11 31  1  0  0  0  0
 12 16  2  0  0  0  0
 12 28  1  0  0  0  0
 15 26  1  0  0  0  0
 15 18  1  0  0  0  0
 16 19  1  0  0  0  0
 18 30  1  0  0  0  0
 19 22  2  0  0  0  0
 21 18  1  6  0  0  0
 21 24  1  0  0  0  0
 22 23  1  0  0  0  0
 22 25  1  0  0  0  0
 24 14  1  6  0  0  0
 24 27  1  0  0  0  0
 25 28  2  0  0  0  0
 25 30  1  0  0  0  0
 27 29  1  0  0  0  0
 29 31  1  0  0  0  0
M  CHG  1  17  -1
M  END
>  <CHROM.1>
126.59217217,-61.73003209,-108.21248322,-147.61029396,127.58177881,-79.91052805
-28.17385397,74.26912155,-103.49254894,-71.37064924,-175.47793560,-175.16598974
4.58850624,17.82520550,51.36883811,-0.68953547,0.31450581,0.32176974

>  <Name>
ligand

>  <RI>
0

>  <Rbt.Current_Directory>
/home/itssahil/PROJECTS/Mol_Feturizer/New_Systems/rnas/2HOO

>  <Rbt.Executable>
rbdock ($Id: //depot/dev/client3/rdock/2013.1/src/exe/rbdock.cxx#4 $)

>  <Rbt.Library>
libRbt.so (2013.1, Build901 2013/11/27)

>  <Rbt.Parameter_File>
/export/apps/rDock/src/rDock_2013.1_src/data/scripts/dock_solv.prm

>  <Rbt.Receptor>
prm/pocket_docking_4.prm

>  <SCORE>
-22.3217

>  <SCORE.INTER>
-11.4095

>  <SCORE.INTER.CONST>
1

>  <SCORE.INTER.POLAR>
0

>  <SCORE.INTER.ROT>
12

>  <SCORE.INTER.SOLV>
19.3332

>  <SCORE.INTER.VDW>
-25.6507

>  <SCORE.INTER.norm>
-0.368047

>  <SCORE.INTRA>
-10.9208

>  <SCORE.INTRA.DIHEDRAL>
3.24713

>  <SCORE.INTRA.DIHEDRAL.0>
14.6094

>  <SCORE.INTRA.POLAR>
0

>  <SCORE.INTRA.POLAR.0>
0

>  <SCORE.INTRA.REPUL>
0

>  <SCORE.INTRA.REPUL.0>
0

>  <SCORE.INTRA.SOLV>
1.9851

>  <SCORE.INTRA.SOLV.lig_0>
-65.6478

>  <SCORE.INTRA.VDW>
-13.5369

>  <SCORE.INTRA.VDW.0>
9.35535

>  <SCORE.INTRA.norm>
-0.352284

>  <SCORE.RESTR>
0.00852309

>  <SCORE.RESTR.CAVITY>
0.00852309

>  <SCORE.RESTR.norm>
0.000274938

>  <SCORE.SYSTEM>
0

>  <SCORE.SYSTEM.CONST>
0

>  <SCORE.SYSTEM.DIHEDRAL>
0

>  <SCORE.SYSTEM.SOLV>
0

>  <SCORE.SYSTEM.norm>
0

>  <SCORE.heavy>
31

>  <SCORE.norm>
-0.720056

>  <RMSD>
7.803

$$$$
ligand
 OpenBabel11021811443D
libRbt.so/2013.1/901 2013/11/27
 31 32  0  0  0  0  0  0  0  0999 V2000
    2.9740   21.4305   55.1814 C   0  0  0  0  0  0  0  0  0  0  0  0
    2.9305   21.9508   53.7477 C   0  0  0  0  0  0  0  0  0  0  0  0
    3.3809   21.1228   52.6689 C   0  0  0  0  0  0  0  0  0  0  0  0
    3.3412   21.6124   51.3414 C   0  0  0  0  0  0  0  0  0  0  0  0
    2.8524   22.9136   51.0691 C   0  0  0  0  0  0  0  0  0  0  0  0
    2.3995   23.7399   52.1176 C   0  0  0  0  0  0  0  0  0  0  0  0
    2.4325   23.2724   53.4436 C   0  0  0  0  0  0  0  0  0  0  0  0
    2.7903   22.2034   56.1213 O   0  0  0  0  0  0  0  0  0  0  0  0
    4.9800   17.3570   49.2597 C   0  0  0  0  0  0  0  0  0  0  0  0
    0.5546   18.0705   55.8492 C   0  0  0  0  0  0  0  0  0  0  0  0
    7.1714   17.7706   52.2647 P   0  0  1  0  0  0  0  0  0  0  0  0
    3.3900   18.7063   50.4368 N   0  0  0  0  0  0  0  0  0  0  0  0
    7.5718   16.5604   51.5218 O   0  0  0  0  0  0  0  0  0  0  0  0
    3.2201   20.0931   55.4394 S   0  0  0  0  0  0  0  0  0  0  0  0
   -0.1444   20.2196   53.4525 C   0  0  0  0  0  0  0  0  0  0  0  0
    3.7721   17.4352   50.0715 C   0  0  0  0  0  0  0  0  0  0  0  0
    7.9721   18.0381   53.4900 O   0  5  0  0  0  0  0  0  0  0  0  0
    0.2941   18.9387   53.5287 N   0  0  0  0  0  0  0  0  0  0  0  0
    3.1300   16.3600   50.4057 N   0  0  0  0  0  0  0  0  0  0  0  0
    7.0918   18.9313   51.3478 O   0  0  0  0  0  0  0  0  0  0  0  0
    1.2204   18.6612   54.6359 C   0  0  2  0  0  0  0  0  0  0  0  0
    1.9817   16.4418   51.1698 C   0  0  0  0  0  0  0  0  0  0  0  0
    1.3436   15.3139   51.4917 N   0  0  0  0  0  0  0  0  0  0  0  0
    2.6641   18.8768   54.6505 C   0  0  1  0  0  0  0  0  0  0  0  0
    1.5076   17.7515   51.5892 C   0  0  0  0  0  0  0  0  0  0  0  0
    0.5154   20.8920   52.6909 O   0  0  0  0  0  0  0  0  0  0  0  0
    3.6461   18.0103   53.9450 C   0  0  0  0  0  0  0  0  0  0  0  0
    2.2678   18.8312   51.1880 C   0  0  0  0  0  0  0  0  0  0  0  0
    4.9416   18.5644   53.5319 C   0  0  0  0  0  0  0  0  0  0  0  0
    0.2363   17.9074   52.3876 C   0  0  0  0  0  0  0  0  0  0  0  0
    5.7208   17.5798   52.8305 O   0  0  0  0  0  0  0  0  0  0  0  0
  1  2  1  0  0  0  0
  1  8  2  0  0  0  0
  1 14  1  0  0  0  0
  2  3  2  0  0  0  0
  2  7  1  0  0  0  0
  3  4  1  0  0  0  0
  4  5  2  0  0  0  0
  5  6  1  0  0  0  0
  6  7  2  0  0  0  0
  9 16  1  0  0  0  0
 10 21  1  0  0  0  0
 11 13  1  6  0  0  0
 11 17  1  0  0  0  0
 11 20  2  0  0  0  0
 11 31  1  0  0  0  0
 12 16  2  0  0  0  0
 12 28  1  0  0  0  0
 15 26  1  0  0  0  0
 15 18  1  0  0  0  0
 16 19  1  0  0  0  0
 18 30  1  0  0  0  0
 19 22  2  0  0  0  0
 21 18  1  6  0  0  0
 21 24  1  0  0  0  0
 22 23  1  0  0  0  0
 22 25  1  0  0  0  0
 24 14  1  6  0  0  0
 24 27  1  0  0  0  0
 25 28  2  0  0  0  0
 25 30  1  0  0  0  0
 27 29  1  0  0  0  0
 29 31  1  0  0  0  0
M  CHG  1  17  -1
M  END
>  <CHROM.1>
168.54061687,-40.31437497,-63.07009553,94.96452409,97.08046942,97.12489333
-76.81881507,-25.20342816,138.91397490,-178.09080670,-178.25939142,-175.52446633
3.39610516,19.11749416,52.79172986,-2.37023257,-0.05357542,-2.58499387

>  <Name>
ligand

>  <RI>
0

>  <Rbt.Current_Directory>
/home/itssahil/PROJECTS/Mol_Feturizer/New_Systems/rnas/2HOO

>  <Rbt.Executable>
rbdock ($Id: //depot/dev/client3/rdock/2013.1/src/exe/rbdock.cxx#4 $)

>  <Rbt.Library>
libRbt.so (2013.1, Build901 2013/11/27)

>  <Rbt.Parameter_File>
/export/apps/rDock/src/rDock_2013.1_src/data/scripts/dock_solv.prm

>  <Rbt.Receptor>
prm/pocket_docking_8.prm

>  <SCORE>
-26.5982

>  <SCORE.INTER>
-10.1419

>  <SCORE.INTER.CONST>
1

>  <SCORE.INTER.POLAR>
0

>  <SCORE.INTER.ROT>
12

>  <SCORE.INTER.SOLV>
13.2311

>  <SCORE.INTER.VDW>
-22.7717

>  <SCORE.INTER.norm>
-0.327159

>  <SCORE.INTRA>
-16.4562

>  <SCORE.INTRA.DIHEDRAL>
-0.0227413

>  <SCORE.INTRA.DIHEDRAL.0>
14.6094

>  <SCORE.INTRA.POLAR>
0

>  <SCORE.INTRA.POLAR.0>
0

>  <SCORE.INTRA.REPUL>
0

>  <SCORE.INTRA.REPUL.0>
0

>  <SCORE.INTRA.SOLV>
2.13946

>  <SCORE.INTRA.SOLV.lig_0>
-65.6478

>  <SCORE.INTRA.VDW>
-17.5146

>  <SCORE.INTRA.VDW.0>
9.35535

>  <SCORE.INTRA.norm>
-0.530847

>  <SCORE.RESTR>
0

>  <SCORE.RESTR.CAVITY>
0

>  <SCORE.RESTR.norm>
0

>  <SCORE.SYSTEM>
0

>  <SCORE.SYSTEM.CONST>
0

>  <SCORE.SYSTEM.DIHEDRAL>
0

>  <SCORE.SYSTEM.SOLV>
0

>  <SCORE.SYSTEM.norm>
0

>  <SCORE.heavy>
31

>  <SCORE.norm>
-0.858006

>  <RMSD>
7.809

$$$$
ligand
 OpenBabel11021811443D
libRbt.so/2013.1/901 2013/11/27
 31 32  0  0  0  0  0  0  0  0999 V2000
    9.8827   19.3078   53.8854 C   0  0  0  0  0  0  0  0  0  0  0  0
   11.3533   19.2407   54.2866 C   0  0  0  0  0  0  0  0  0  0  0  0
   12.0449   17.9862   54.2745 C   0  0  0  0  0  0  0  0  0  0  0  0
   13.4083   17.9298   54.6509 C   0  0  0  0  0  0  0  0  0  0  0  0
   14.0979   19.1064   55.0333 C   0  0  0  0  0  0  0  0  0  0  0  0
   13.4350   20.3505   55.0451 C   0  0  0  0  0  0  0  0  0  0  0  0
   12.0800   20.4270   54.6762 C   0  0  0  0  0  0  0  0  0  0  0  0
    9.0689   18.5446   54.4047 O   0  0  0  0  0  0  0  0  0  0  0  0
    2.7554   25.4514   54.4166 C   0  0  0  0  0  0  0  0  0  0  0  0
    7.3962   22.2965   51.6309 C   0  0  0  0  0  0  0  0  0  0  0  0
    8.5614   16.6705   48.4970 P   0  0  1  0  0  0  0  0  0  0  0  0
    3.6963   23.9153   52.8388 N   0  0  0  0  0  0  0  0  0  0  0  0
    8.3899   16.0406   49.8201 O   0  0  0  0  0  0  0  0  0  0  0  0
    9.4507   20.2203   52.9386 S   0  0  0  0  0  0  0  0  0  0  0  0
    5.4255   19.6305   50.7162 C   0  0  0  0  0  0  0  0  0  0  0  0
    3.3404   24.1437   54.1489 C   0  0  0  0  0  0  0  0  0  0  0  0
    9.4459   15.9208   47.5644 O   0  5  0  0  0  0  0  0  0  0  0  0
    5.8353   20.3608   51.7829 N   0  0  0  0  0  0  0  0  0  0  0  0
    3.4982   23.2825   55.1047 N   0  0  0  0  0  0  0  0  0  0  0  0
    7.2414   17.0066   47.9149 O   0  0  0  0  0  0  0  0  0  0  0  0
    7.2361   20.8039   51.7345 C   0  0  2  0  0  0  0  0  0  0  0  0
    4.0598   22.0469   54.8452 C   0  0  0  0  0  0  0  0  0  0  0  0
    4.2113   21.1863   55.8548 N   0  0  0  0  0  0  0  0  0  0  0  0
    8.4277   19.9632   51.7991 C   0  0  1  0  0  0  0  0  0  0  0  0
    4.4704   21.7323   53.4856 C   0  0  0  0  0  0  0  0  0  0  0  0
    4.2761   19.8598   50.4103 O   0  0  0  0  0  0  0  0  0  0  0  0
    8.7375   18.8759   50.8322 C   0  0  0  0  0  0  0  0  0  0  0  0
    4.2508   22.7141   52.5409 C   0  0  0  0  0  0  0  0  0  0  0  0
    8.8439   19.1829   49.4004 C   0  0  0  0  0  0  0  0  0  0  0  0
    5.1291   20.4167   53.1492 C   0  0  0  0  0  0  0  0  0  0  0  0
    9.3099   18.0390   48.6634 O   0  0  0  0  0  0  0  0  0  0  0  0
  1  2  1  0  0  0  0
  1  8  2  0  0  0  0
  1 14  1  0  0  0  0
  2  3  2  0  0  0  0
  2  7  1  0  0  0  0
  3  4  1  0  0  0  0
  4  5  2  0  0  0  0
  5  6  1  0  0  0  0
  6  7  2  0  0  0  0
  9 16  1  0  0  0  0
 10 21  1  0  0  0  0
 11 13  1  1  0  0  0
 11 17  1  0  0  0  0
 11 20  2  0  0  0  0
 11 31  1  0  0  0  0
 12 16  2  0  0  0  0
 12 28  1  0  0  0  0
 15 26  1  0  0  0  0
 15 18  1  0  0  0  0
 16 19  1  0  0  0  0
 18 30  1  0  0  0  0
 19 22  2  0  0  0  0
 21 18  1  1  0  0  0
 21 24  1  0  0  0  0
 22 23  1  0  0  0  0
 22 25  1  0  0  0  0
 24 14  1  6  0  0  0
 24 27  1  0  0  0  0
 25 28  2  0  0  0  0
 25 30  1  0  0  0  0
 27 29  1  0  0  0  0
 29 31  1  0  0  0  0
M  CHG  1  17  -1
M  END
>  <CHROM.1>
51.10704133,138.41666933,122.66891027,-143.94899407,114.31817293,-111.01289109
57.28509491,-121.68457547,-164.61824506,172.81495869,64.35417813,-62.09644123
7.73794651,19.89725069,52.18490195,-0.62713114,-0.39782109,0.96561046

>  <Name>
ligand

>  <RI>
0

>  <Rbt.Current_Directory>
/home/itssahil/PROJECTS/Mol_Feturizer/New_Systems/rnas/2HOO

>  <Rbt.Executable>
rbdock ($Id: //depot/dev/client3/rdock/2013.1/src/exe/rbdock.cxx#4 $)

>  <Rbt.Library>
libRbt.so (2013.1, Build901 2013/11/27)

>  <Rbt.Parameter_File>
/export/apps/rDock/src/rDock_2013.1_src/data/scripts/dock_solv.prm

>  <Rbt.Receptor>
prm/pocket_docking_7.prm

>  <SCORE>
-33.0721

>  <SCORE.INTER>
-19.4961

>  <SCORE.INTER.CONST>
1

>  <SCORE.INTER.POLAR>
0

>  <SCORE.INTER.ROT>
12

>  <SCORE.INTER.SOLV>
18.1488

>  <SCORE.INTER.VDW>
-30.647

>  <SCORE.INTER.norm>
-0.628907

>  <SCORE.INTRA>
-13.576

>  <SCORE.INTRA.DIHEDRAL>
-0.426031

>  <SCORE.INTRA.DIHEDRAL.0>
14.6094

>  <SCORE.INTRA.POLAR>
0

>  <SCORE.INTRA.POLAR.0>
0

>  <SCORE.INTRA.REPUL>
0

>  <SCORE.INTRA.REPUL.0>
0

>  <SCORE.INTRA.SOLV>
-0.36981

>  <SCORE.INTRA.SOLV.lig_0>
-65.6478

>  <SCORE.INTRA.VDW>
-13.1781

>  <SCORE.INTRA.VDW.0>
9.35535

>  <SCORE.INTRA.norm>
-0.437936

>  <SCORE.RESTR>
0

>  <SCORE.RESTR.CAVITY>
0

>  <SCORE.RESTR.norm>
0

>  <SCORE.SYSTEM>
0

>  <SCORE.SYSTEM.CONST>
0

>  <SCORE.SYSTEM.DIHEDRAL>
0

>  <SCORE.SYSTEM.SOLV>
0

>  <SCORE.SYSTEM.norm>
0

>  <SCORE.heavy>
31

>  <SCORE.norm>
-1.06684

>  <RMSD>
7.880

$$$$
ligand
 OpenBabel11021811443D
libRbt.so/2013.1/901 2013/11/27
 31 32  0  0  0  0  0  0  0  0999 V2000
    8.8260   20.3571   51.9996 C   0  0  0  0  0  0  0  0  0  0  0  0
   10.0204   20.3214   52.9484 C   0  0  0  0  0  0  0  0  0  0  0  0
   10.6534   19.0746   53.2600 C   0  0  0  0  0  0  0  0  0  0  0  0
   11.7590   19.0475   54.1436 C   0  0  0  0  0  0  0  0  0  0  0  0
   12.2502   20.2455   54.7178 C   0  0  0  0  0  0  0  0  0  0  0  0
   11.6435   21.4821   54.4176 C   0  0  0  0  0  0  0  0  0  0  0  0
   10.5428   21.5298   53.5434 C   0  0  0  0  0  0  0  0  0  0  0  0
    8.3335   21.4364   51.6723 O   0  0  0  0  0  0  0  0  0  0  0  0
   -1.0576   21.5430   54.9555 C   0  0  0  0  0  0  0  0  0  0  0  0
    6.2637   18.5367   54.0374 C   0  0  0  0  0  0  0  0  0  0  0  0
    5.6605   15.5352   48.3904 P   0  0  1  0  0  0  0  0  0  0  0  0
    0.0559   20.9506   52.9199 N   0  0  0  0  0  0  0  0  0  0  0  0
    6.4901   14.5079   49.0486 O   0  0  0  0  0  0  0  0  0  0  0  0
    8.2859   19.1844   51.5008 S   0  0  0  0  0  0  0  0  0  0  0  0
    5.2500   21.4203   52.8844 C   0  0  0  0  0  0  0  0  0  0  0  0
    0.1375   21.0383   54.2913 C   0  0  0  0  0  0  0  0  0  0  0  0
    5.3157   15.2382   46.9737 O   0  5  0  0  0  0  0  0  0  0  0  0
    4.8833   20.1269   52.7063 N   0  0  0  0  0  0  0  0  0  0  0  0
    1.1846   20.7055   54.9790 N   0  0  0  0  0  0  0  0  0  0  0  0
    4.4822   15.8564   49.2287 O   0  0  0  0  0  0  0  0  0  0  0  0
    5.9909   19.1604   52.6955 C   0  0  2  0  0  0  0  0  0  0  0  0
    2.3168   20.2340   54.3424 C   0  0  0  0  0  0  0  0  0  0  0  0
    3.3785   19.9048   55.0821 N   0  0  0  0  0  0  0  0  0  0  0  0
    6.7942   18.7554   51.5459 C   0  0  1  0  0  0  0  0  0  0  0  0
    2.3126   20.1201   52.8923 C   0  0  0  0  0  0  0  0  0  0  0  0
    4.4611   22.0371   53.5659 O   0  0  0  0  0  0  0  0  0  0  0  0
    6.2738   17.9635   50.3993 C   0  0  0  0  0  0  0  0  0  0  0  0
    1.1457   20.4919   52.2559 C   0  0  0  0  0  0  0  0  0  0  0  0
    7.1915   17.5258   49.3400 C   0  0  0  0  0  0  0  0  0  0  0  0
    3.5337   19.6532   52.1381 C   0  0  0  0  0  0  0  0  0  0  0  0
    6.4752   16.8711   48.2784 O   0  0  0  0  0  0  0  0  0  0  0  0
  1  2  1  0  0  0  0
  1  8  2  0  0  0  0
  1 14  1  0  0  0  0
  2  3  2  0  0  0  0
  2  7  1  0  0  0  0
  3  4  1  0  0  0  0
  4  5  2  0  0  0  0
  5  6  1  0  0  0  0
  6  7  2  0  0  0  0
  9 16  1  0  0  0  0
 10 21  1  0  0  0  0
 11 13  1  1  0  0  0
 11 17  1  0  0  0  0
 11 20  2  0  0  0  0
 11 31  1  0  0  0  0
 12 16  2  0  0  0  0
 12 28  1  0  0  0  0
 15 26  1  0  0  0  0
 15 18  1  0  0  0  0
 16 19  1  0  0  0  0
 18 30  1  0  0  0  0
 19 22  2  0  0  0  0
 21 18  1  6  0  0  0
 21 24  1  0  0  0  0
 22 23  1  0  0  0  0
 22 25  1  0  0  0  0
 24 14  1  6  0  0  0
 24 27  1  0  0  0  0
 25 28  2  0  0  0  0
 25 30  1  0  0  0  0
 27 29  1  0  0  0  0
 29 31  1  0  0  0  0
M  CHG  1  17  -1
M  END
>  <CHROM.1>
-175.75461166,127.79324661,-33.44297234,-142.88813491,94.03341377,-57.92590121
-69.80204518,5.01304460,-36.72123705,-175.39200702,-63.60865964,-49.79712269
5.83369978,19.14574608,52.00625233,-0.36739842,-0.00372667,0.82736599

>  <Name>
ligand

>  <RI>
0

>  <Rbt.Current_Directory>
/home/itssahil/PROJECTS/Mol_Feturizer/New_Systems/rnas/2HOO

>  <Rbt.Executable>
rbdock ($Id: //depot/dev/client3/rdock/2013.1/src/exe/rbdock.cxx#4 $)

>  <Rbt.Library>
libRbt.so (2013.1, Build901 2013/11/27)

>  <Rbt.Parameter_File>
/export/apps/rDock/src/rDock_2013.1_src/data/scripts/dock_solv.prm

>  <Rbt.Receptor>
prm/pocket_docking_2.prm

>  <SCORE>
-15.8828

>  <SCORE.INTER>
-8.339

>  <SCORE.INTER.CONST>
1

>  <SCORE.INTER.POLAR>
0

>  <SCORE.INTER.ROT>
12

>  <SCORE.INTER.SOLV>
9.2453

>  <SCORE.INTER.VDW>
-20.2411

>  <SCORE.INTER.norm>
-0.269

>  <SCORE.INTRA>
-8.34626

>  <SCORE.INTRA.DIHEDRAL>
-0.00218179

>  <SCORE.INTRA.DIHEDRAL.0>
14.6094

>  <SCORE.INTRA.POLAR>
0

>  <SCORE.INTRA.POLAR.0>
0

>  <SCORE.INTRA.REPUL>
0

>  <SCORE.INTRA.REPUL.0>
0

>  <SCORE.INTRA.SOLV>
7.34794

>  <SCORE.INTRA.SOLV.lig_0>
-65.6478

>  <SCORE.INTRA.VDW>
-12.0191

>  <SCORE.INTRA.VDW.0>
9.35535

>  <SCORE.INTRA.norm>
-0.269234

>  <SCORE.RESTR>
0.802426

>  <SCORE.RESTR.CAVITY>
0.802426

>  <SCORE.RESTR.norm>
0.0258847

>  <SCORE.SYSTEM>
0

>  <SCORE.SYSTEM.CONST>
0

>  <SCORE.SYSTEM.DIHEDRAL>
0

>  <SCORE.SYSTEM.SOLV>
0

>  <SCORE.SYSTEM.norm>
0

>  <SCORE.heavy>
31

>  <SCORE.norm>
-0.51235

>  <RMSD>
7.886

$$$$
ligand
 OpenBabel11021811443D
libRbt.so/2013.1/901 2013/11/27
 31 32  0  0  0  0  0  0  0  0999 V2000
    9.3211   19.2914   53.3083 C   0  0  0  0  0  0  0  0  0  0  0  0
   10.7036   19.5903   53.8805 C   0  0  0  0  0  0  0  0  0  0  0  0
   11.0912   20.9420   54.1538 C   0  0  0  0  0  0  0  0  0  0  0  0
   12.3764   21.2132   54.6815 C   0  0  0  0  0  0  0  0  0  0  0  0
   13.2815   20.1571   54.9488 C   0  0  0  0  0  0  0  0  0  0  0  0
   12.9148   18.8204   54.6918 C   0  0  0  0  0  0  0  0  0  0  0  0
   11.6431   18.5305   54.1658 C   0  0  0  0  0  0  0  0  0  0  0  0
    8.3580   19.1642   54.0637 O   0  0  0  0  0  0  0  0  0  0  0  0
   -0.2495   17.1344   52.0878 C   0  0  0  0  0  0  0  0  0  0  0  0
    7.5805   19.0166   48.7461 C   0  0  0  0  0  0  0  0  0  0  0  0
    6.7064   24.5942   52.9581 P   0  0  1  0  0  0  0  0  0  0  0  0
    1.7512   17.0843   50.7729 N   0  0  0  0  0  0  0  0  0  0  0  0
    5.2683   24.5018   52.6415 O   0  0  0  0  0  0  0  0  0  0  0  0
    9.1361   19.1594   51.9430 S   0  0  0  0  0  0  0  0  0  0  0  0
    6.0331   17.4928   51.3549 C   0  0  0  0  0  0  0  0  0  0  0  0
    1.0070   17.7678   51.7078 C   0  0  0  0  0  0  0  0  0  0  0  0
    7.3489   25.8731   52.5512 O   0  5  0  0  0  0  0  0  0  0  0  0
    5.9417   18.5986   50.5753 N   0  0  0  0  0  0  0  0  0  0  0  0
    1.3640   18.8963   52.2359 N   0  0  0  0  0  0  0  0  0  0  0  0
    6.9419   24.2417   54.3774 O   0  0  0  0  0  0  0  0  0  0  0  0
    7.2272   19.2030   50.1968 C   0  0  2  0  0  0  0  0  0  0  0  0
    2.5533   19.4947   51.8661 C   0  0  0  0  0  0  0  0  0  0  0  0
    2.8872   20.6593   52.4274 N   0  0  0  0  0  0  0  0  0  0  0  0
    8.1351   19.9526   51.0598 C   0  0  1  0  0  0  0  0  0  0  0  0
    3.3931   18.8384   50.8762 C   0  0  0  0  0  0  0  0  0  0  0  0
    6.6428   16.5946   50.8174 O   0  0  0  0  0  0  0  0  0  0  0  0
    8.1586   21.4365   51.1607 C   0  0  0  0  0  0  0  0  0  0  0  0
    2.9265   17.6371   50.3825 C   0  0  0  0  0  0  0  0  0  0  0  0
    7.1934   22.1230   52.0285 C   0  0  0  0  0  0  0  0  0  0  0  0
    4.6813   19.4645   50.4006 C   0  0  0  0  0  0  0  0  0  0  0  0
    7.4945   23.5263   52.1219 O   0  0  0  0  0  0  0  0  0  0  0  0
  1  2  1  0  0  0  0
  1  8  2  0  0  0  0
  1 14  1  0  0  0  0
  2  3  2  0  0  0  0
  2  7  1  0  0  0  0
  3  4  1  0  0  0  0
  4  5  2  0  0  0  0
  5  6  1  0  0  0  0
  6  7  2  0  0  0  0
  9 16  1  0  0  0  0
 10 21  1  0  0  0  0
 11 13  1  6  0  0  0
 11 17  1  0  0  0  0
 11 20  2  0  0  0  0
 11 31  1  0  0  0  0
 12 16  2  0  0  0  0
 12 28  1  0  0  0  0
 15 26  1  0  0  0  0
 15 18  1  0  0  0  0
 16 19  1  0  0  0  0
 18 30  1  0  0  0  0
 19 22  2  0  0  0  0
 21 18  1  6  0  0  0
 21 24  1  0  0  0  0
 22 23  1  0  0  0  0
 22 25  1  0  0  0  0
 24 14  1  1  0  0  0
 24 27  1  0  0  0  0
 25 28  2  0  0  0  0
 25 30  1  0  0  0  0
 27 29  1  0  0  0  0
 29 31  1  0  0  0  0
M  CHG  1  17  -1
M  END
>  <CHROM.1>
-85.54754524,-124.69257258,-127.68322053,-60.46633030,108.76228421,-15.02021846
-97.64260795,-97.28934855,123.51565743,172.39944854,-179.52417040,-51.09469430
6.77450279,20.25419768,52.21568570,-0.36760863,0.22147222,-2.95588406

>  <Name>
ligand

>  <RI>
0

>  <Rbt.Current_Directory>
/home/itssahil/PROJECTS/Mol_Feturizer/New_Systems/rnas/2HOO

>  <Rbt.Executable>
rbdock ($Id: //depot/dev/client3/rdock/2013.1/src/exe/rbdock.cxx#4 $)

>  <Rbt.Library>
libRbt.so (2013.1, Build901 2013/11/27)

>  <Rbt.Parameter_File>
/export/apps/rDock/src/rDock_2013.1_src/data/scripts/dock_solv.prm

>  <Rbt.Receptor>
prm/pocket_docking_5.prm

>  <SCORE>
-38.9675

>  <SCORE.INTER>
-25.3616

>  <SCORE.INTER.CONST>
1

>  <SCORE.INTER.POLAR>
0

>  <SCORE.INTER.ROT>
12

>  <SCORE.INTER.SOLV>
17.9314

>  <SCORE.INTER.VDW>
-34.4849

>  <SCORE.INTER.norm>
-0.818116

>  <SCORE.INTRA>
-13.6059

>  <SCORE.INTRA.DIHEDRAL>
0.814663

>  <SCORE.INTRA.DIHEDRAL.0>
14.6094

>  <SCORE.INTRA.POLAR>
0

>  <SCORE.INTRA.POLAR.0>
0

>  <SCORE.INTRA.REPUL>
0

>  <SCORE.INTRA.REPUL.0>
0

>  <SCORE.INTRA.SOLV>
-0.170882

>  <SCORE.INTRA.SOLV.lig_0>
-65.6478

>  <SCORE.INTRA.VDW>
-13.9278

>  <SCORE.INTRA.VDW.0>
9.35535

>  <SCORE.INTRA.norm>
-0.4389

>  <SCORE.RESTR>
0

>  <SCORE.RESTR.CAVITY>
0

>  <SCORE.RESTR.norm>
0

>  <SCORE.SYSTEM>
0

>  <SCORE.SYSTEM.CONST>
0

>  <SCORE.SYSTEM.DIHEDRAL>
0

>  <SCORE.SYSTEM.SOLV>
0

>  <SCORE.SYSTEM.norm>
0

>  <SCORE.heavy>
31

>  <SCORE.norm>
-1.25702

>  <RMSD>
7.887

$$$$
ligand
 OpenBabel11021811443D
libRbt.so/2013.1/901 2013/11/27
 31 32  0  0  0  0  0  0  0  0999 V2000
    9.2176   22.7161   53.3967 C   0  0  0  0  0  0  0  0  0  0  0  0
   10.2718   21.6435   53.6541 C   0  0  0  0  0  0  0  0  0  0  0  0
   11.6361   22.0168   53.8808 C   0  0  0  0  0  0  0  0  0  0  0  0
   12.6102   21.0169   54.1157 C   0  0  0  0  0  0  0  0  0  0  0  0
   12.2455   19.6484   54.1357 C   0  0  0  0  0  0  0  0  0  0  0  0
   10.9066   19.2632   53.9207 C   0  0  0  0  0  0  0  0  0  0  0  0
    9.9244   20.2415   53.6837 C   0  0  0  0  0  0  0  0  0  0  0  0
    8.9516   23.5388   54.2725 O   0  0  0  0  0  0  0  0  0  0  0  0
    0.6088   16.0581   51.9078 C   0  0  0  0  0  0  0  0  0  0  0  0
    5.5898   23.1204   52.6310 C   0  0  0  0  0  0  0  0  0  0  0  0
    7.5269   18.4502   48.4917 P   0  0  1  0  0  0  0  0  0  0  0  0
    2.4792   17.2125   50.9572 N   0  0  0  0  0  0  0  0  0  0  0  0
    6.1077   18.5429   48.8845 O   0  0  0  0  0  0  0  0  0  0  0  0
    8.5522   22.7748   52.1844 S   0  0  0  0  0  0  0  0  0  0  0  0
    5.4242   19.9456   53.4851 C   0  0  0  0  0  0  0  0  0  0  0  0
    1.4395   17.2547   51.8586 C   0  0  0  0  0  0  0  0  0  0  0  0
    7.9346   17.1247   47.9524 O   0  5  0  0  0  0  0  0  0  0  0  0
    5.2335   20.6703   52.3549 N   0  0  0  0  0  0  0  0  0  0  0  0
    1.1848   18.2676   52.6261 N   0  0  0  0  0  0  0  0  0  0  0  0
    7.8886   19.5825   47.6078 O   0  0  0  0  0  0  0  0  0  0  0  0
    6.1547   21.8019   52.1765 C   0  0  2  0  0  0  0  0  0  0  0  0
    1.9723   19.4016   52.5696 C   0  0  0  0  0  0  0  0  0  0  0  0
    1.6780   20.4277   53.3717 N   0  0  0  0  0  0  0  0  0  0  0  0
    7.5132   21.7552   51.6443 C   0  0  1  0  0  0  0  0  0  0  0  0
    3.0868   19.4382   51.6355 C   0  0  0  0  0  0  0  0  0  0  0  0
    5.6260   18.7732   53.2566 O   0  0  0  0  0  0  0  0  0  0  0  0
    7.9706   20.7973   50.6021 C   0  0  0  0  0  0  0  0  0  0  0  0
    3.2772   18.3055   50.8704 C   0  0  0  0  0  0  0  0  0  0  0  0
    8.1307   19.3770   50.9381 C   0  0  0  0  0  0  0  0  0  0  0  0
    3.9553   20.6649   51.4975 C   0  0  0  0  0  0  0  0  0  0  0  0
    8.4317   18.6025   49.7641 O   0  0  0  0  0  0  0  0  0  0  0  0
  1  2  1  0  0  0  0
  1  8  2  0  0  0  0
  1 14  1  0  0  0  0
  2  3  2  0  0  0  0
  2  7  1  0  0  0  0
  3  4  1  0  0  0  0
  4  5  2  0  0  0  0
  5  6  1  0  0  0  0
  6  7  2  0  0  0  0
  9 16  1  0  0  0  0
 10 21  1  0  0  0  0
 11 13  1  1  0  0  0
 11 17  1  0  0  0  0
 11 20  2  0  0  0  0
 11 31  1  0  0  0  0
 12 16  2  0  0  0  0
 12 28  1  0  0  0  0
 15 26  1  0  0  0  0
 15 18  1  0  0  0  0
 16 19  1  0  0  0  0
 18 30  1  0  0  0  0
 19 22  2  0  0  0  0
 21 18  1  1  0  0  0
 21 24  1  0  0  0  0
 22 23  1  0  0  0  0
 22 25  1  0  0  0  0
 24 14  1  6  0  0  0
 24 27  1  0  0  0  0
 25 28  2  0  0  0  0
 25 30  1  0  0  0  0
 27 29  1  0  0  0  0
 29 31  1  0  0  0  0
M  CHG  1  17  -1
M  END
>  <CHROM.1>
-63.77057265,69.11833940,77.31291859,-122.96051134,-96.82230422,-22.80384774
30.68291225,109.24874468,94.10126607,173.50132652,-60.82734682,-31.07230190
6.62401002,19.97386204,51.73276720,0.37330834,0.21001683,0.92207315

>  <Name>
ligand

>  <RI>
0

>  <Rbt.Current_Directory>
/home/itssahil/PROJECTS/Mol_Feturizer/New_Systems/rnas/2HOO

>  <Rbt.Executable>
rbdock ($Id: //depot/dev/client3/rdock/2013.1/src/exe/rbdock.cxx#4 $)

>  <Rbt.Library>
libRbt.so (2013.1, Build901 2013/11/27)

>  <Rbt.Parameter_File>
/export/apps/rDock/src/rDock_2013.1_src/data/scripts/dock_solv.prm

>  <Rbt.Receptor>
prm/pocket_docking_3.prm

>  <SCORE>
-32.9407

>  <SCORE.INTER>
-21.837

>  <SCORE.INTER.CONST>
1

>  <SCORE.INTER.POLAR>
0

>  <SCORE.INTER.ROT>
12

>  <SCORE.INTER.SOLV>
10.4853

>  <SCORE.INTER.VDW>
-29.6531

>  <SCORE.INTER.norm>
-0.704421

>  <SCORE.INTRA>
-11.1241

>  <SCORE.INTRA.DIHEDRAL>
3.06705

>  <SCORE.INTRA.DIHEDRAL.0>
14.6094

>  <SCORE.INTRA.POLAR>
0

>  <SCORE.INTRA.POLAR.0>
0

>  <SCORE.INTRA.REPUL>
0

>  <SCORE.INTRA.REPUL.0>
0

>  <SCORE.INTRA.SOLV>
1.80684

>  <SCORE.INTRA.SOLV.lig_0>
-65.6478

>  <SCORE.INTRA.VDW>
-13.561

>  <SCORE.INTRA.VDW.0>
9.35535

>  <SCORE.INTRA.norm>
-0.358841

>  <SCORE.RESTR>
0.0203942

>  <SCORE.RESTR.CAVITY>
0.0203942

>  <SCORE.RESTR.norm>
0.000657878

>  <SCORE.SYSTEM>
0

>  <SCORE.SYSTEM.CONST>
0

>  <SCORE.SYSTEM.DIHEDRAL>
0

>  <SCORE.SYSTEM.SOLV>
0

>  <SCORE.SYSTEM.norm>
0

>  <SCORE.heavy>
31

>  <SCORE.norm>
-1.0626

>  <RMSD>
7.907

$$$$
ligand
 OpenBabel11021811443D
libRbt.so/2013.1/901 2013/11/27
 31 32  0  0  0  0  0  0  0  0999 V2000
    0.0632   17.8734   52.5758 C   0  0  0  0  0  0  0  0  0  0  0  0
    0.1654   17.3841   54.0174 C   0  0  0  0  0  0  0  0  0  0  0  0
   -0.2109   16.0422   54.3491 C   0  0  0  0  0  0  0  0  0  0  0  0
   -0.1170   15.5952   55.6889 C   0  0  0  0  0  0  0  0  0  0  0  0
    0.3534   16.4625   56.7051 C   0  0  0  0  0  0  0  0  0  0  0  0
    0.7338   17.7842   56.3958 C   0  0  0  0  0  0  0  0  0  0  0  0
    0.6461   18.2478   55.0710 C   0  0  0  0  0  0  0  0  0  0  0  0
   -0.6603   17.2809   51.7758 O   0  0  0  0  0  0  0  0  0  0  0  0
    0.2397   13.9969   48.4760 C   0  0  0  0  0  0  0  0  0  0  0  0
    4.0667   18.3063   53.8036 C   0  0  0  0  0  0  0  0  0  0  0  0
    2.7831   24.6413   53.6941 P   0  0  1  0  0  0  0  0  0  0  0  0
    0.9639   15.5284   50.1685 N   0  0  0  0  0  0  0  0  0  0  0  0
    2.3300   25.1100   52.3705 O   0  0  0  0  0  0  0  0  0  0  0  0
    0.7790   18.9805   52.1542 S   0  0  0  0  0  0  0  0  0  0  0  0
    4.5460   19.6031   50.7084 C   0  0  0  0  0  0  0  0  0  0  0  0
    1.3196   14.7705   49.0757 C   0  0  0  0  0  0  0  0  0  0  0  0
    4.2604   24.5457   53.8446 O   0  5  0  0  0  0  0  0  0  0  0  0
    3.9894   18.5304   51.3236 N   0  0  0  0  0  0  0  0  0  0  0  0
    2.5184   14.7217   48.5852 N   0  0  0  0  0  0  0  0  0  0  0  0
    2.1312   25.4280   54.7667 O   0  0  0  0  0  0  0  0  0  0  0  0
    3.3225   18.8206   52.6011 C   0  0  2  0  0  0  0  0  0  0  0  0
    3.5391   15.4525   49.1628 C   0  0  0  0  0  0  0  0  0  0  0  0
    4.7626   15.3748   48.6336 N   0  0  0  0  0  0  0  0  0  0  0  0
    2.0731   19.5501   52.7959 C   0  0  1  0  0  0  0  0  0  0  0  0
    3.2452   16.2727   50.3275 C   0  0  0  0  0  0  0  0  0  0  0  0
    5.7130   19.7508   50.9979 O   0  0  0  0  0  0  0  0  0  0  0  0
    1.9566   20.8190   53.5633 C   0  0  0  0  0  0  0  0  0  0  0  0
    1.9363   16.2615   50.7652 C   0  0  0  0  0  0  0  0  0  0  0  0
    2.5579   22.0490   53.0328 C   0  0  0  0  0  0  0  0  0  0  0  0
    4.3271   17.0583   51.0275 C   0  0  0  0  0  0  0  0  0  0  0  0
    2.3136   23.1605   53.9123 O   0  0  0  0  0  0  0  0  0  0  0  0
  1  2  1  0  0  0  0
  1  8  2  0  0  0  0
  1 14  1  0  0  0  0
  2  3  2  0  0  0  0
  2  7  1  0  0  0  0
  3  4  1  0  0  0  0
  4  5  2  0  0  0  0
  5  6  1  0  0  0  0
  6  7  2  0  0  0  0
  9 16  1  0  0  0  0
 10 21  1  0  0  0  0
 11 13  1  6  0  0  0
 11 17  1  0  0  0  0
 11 20  2  0  0  0  0
 11 31  1  0  0  0  0
 12 16  2  0  0  0  0
 12 28  1  0  0  0  0
 15 26  1  0  0  0  0
 15 18  1  0  0  0  0
 16 19  1  0  0  0  0
 18 30  1  0  0  0  0
 19 22  2  0  0  0  0
 21 18  1  1  0  0  0
 21 24  1  0  0  0  0
 22 23  1  0  0  0  0
 22 25  1  0  0  0  0
 24 14  1  6  0  0  0
 24 27  1  0  0  0  0
 25 28  2  0  0  0  0
 25 30  1  0  0  0  0
 27 29  1  0  0  0  0
 29 31  1  0  0  0  0
M  CHG  1  17  -1
M  END
>  <CHROM.1>
19.81522885,23.15415773,73.46301607,92.91457697,-108.21014332,-109.57856421
-120.12010960,-110.56596250,131.81857567,179.05372913,-179.58801790,53.77947570
2.18317537,18.98859908,52.34983062,1.73034051,-0.86608737,-2.64049975

>  <Name>
ligand

>  <RI>
0

>  <Rbt.Current_Directory>
/home/itssahil/PROJECTS/Mol_Feturizer/New_Systems/rnas/2HOO

>  <Rbt.Executable>
rbdock ($Id: //depot/dev/client3/rdock/2013.1/src/exe/rbdock.cxx#4 $)

>  <Rbt.Library>
libRbt.so (2013.1, Build901 2013/11/27)

>  <Rbt.Parameter_File>
/export/apps/rDock/src/rDock_2013.1_src/data/scripts/dock_solv.prm

>  <Rbt.Receptor>
prm/pocket_docking_8.prm

>  <SCORE>
-26.9939

>  <SCORE.INTER>
-11.9811

>  <SCORE.INTER.CONST>
1

>  <SCORE.INTER.POLAR>
0

>  <SCORE.INTER.ROT>
12

>  <SCORE.INTER.SOLV>
13.499

>  <SCORE.INTER.VDW>
-24.0871

>  <SCORE.INTER.norm>
-0.386487

>  <SCORE.INTRA>
-15.0128

>  <SCORE.INTRA.DIHEDRAL>
-0.869081

>  <SCORE.INTRA.DIHEDRAL.0>
14.6094

>  <SCORE.INTRA.POLAR>
0

>  <SCORE.INTRA.POLAR.0>
0

>  <SCORE.INTRA.REPUL>
0

>  <SCORE.INTRA.REPUL.0>
0

>  <SCORE.INTRA.SOLV>
-0.74557

>  <SCORE.INTRA.SOLV.lig_0>
-65.6478

>  <SCORE.INTRA.VDW>
-14.2055

>  <SCORE.INTRA.VDW.0>
9.35535

>  <SCORE.INTRA.norm>
-0.484285

>  <SCORE.RESTR>
0

>  <SCORE.RESTR.CAVITY>
0

>  <SCORE.RESTR.norm>
0

>  <SCORE.SYSTEM>
0

>  <SCORE.SYSTEM.CONST>
0

>  <SCORE.SYSTEM.DIHEDRAL>
0

>  <SCORE.SYSTEM.SOLV>
0

>  <SCORE.SYSTEM.norm>
0

>  <SCORE.heavy>
31

>  <SCORE.norm>
-0.870772

>  <RMSD>
7.912

$$$$
ligand
 OpenBabel11021811443D
libRbt.so/2013.1/901 2013/11/27
 31 32  0  0  0  0  0  0  0  0999 V2000
    1.3780   15.1799   52.8867 C   0  0  0  0  0  0  0  0  0  0  0  0
    0.9924   15.6971   54.2694 C   0  0  0  0  0  0  0  0  0  0  0  0
   -0.3823   15.7159   54.6720 C   0  0  0  0  0  0  0  0  0  0  0  0
   -0.7340   16.2000   55.9548 C   0  0  0  0  0  0  0  0  0  0  0  0
    0.2641   16.6603   56.8482 C   0  0  0  0  0  0  0  0  0  0  0  0
    1.6223   16.6434   56.4712 C   0  0  0  0  0  0  0  0  0  0  0  0
    1.9919   16.1679   55.2003 C   0  0  0  0  0  0  0  0  0  0  0  0
    1.4688   13.9690   52.6871 O   0  0  0  0  0  0  0  0  0  0  0  0
    2.0991   21.3230   59.0177 C   0  0  0  0  0  0  0  0  0  0  0  0
    3.8086   18.9930   50.8483 C   0  0  0  0  0  0  0  0  0  0  0  0
    5.0480   13.6232   48.4875 P   0  0  1  0  0  0  0  0  0  0  0  0
    1.3394   19.9271   57.2265 N   0  0  0  0  0  0  0  0  0  0  0  0
    4.7947   13.0281   49.8136 O   0  0  0  0  0  0  0  0  0  0  0  0
    1.6295   16.0606   51.8490 S   0  0  0  0  0  0  0  0  0  0  0  0
    4.4642   18.2056   53.9738 C   0  0  0  0  0  0  0  0  0  0  0  0
    2.2165   20.9105   57.6248 C   0  0  0  0  0  0  0  0  0  0  0  0
    6.3860   13.3131   47.9151 O   0  5  0  0  0  0  0  0  0  0  0  0
    3.3566   18.4961   53.2473 N   0  0  0  0  0  0  0  0  0  0  0  0
    3.0982   21.4555   56.8466 N   0  0  0  0  0  0  0  0  0  0  0  0
    3.9282   13.3182   47.5670 O   0  0  0  0  0  0  0  0  0  0  0  0
    3.3617   17.9826   51.8699 C   0  0  2  0  0  0  0  0  0  0  0  0
    3.1996   21.0644   55.5252 C   0  0  0  0  0  0  0  0  0  0  0  0
    4.1164   21.6505   54.7513 N   0  0  0  0  0  0  0  0  0  0  0  0
    3.0105   16.6351   51.4318 C   0  0  1  0  0  0  0  0  0  0  0  0
    2.3014   20.0354   55.0251 C   0  0  0  0  0  0  0  0  0  0  0  0
    5.3243   19.0520   53.8680 O   0  0  0  0  0  0  0  0  0  0  0  0
    3.8977   15.7630   50.6163 C   0  0  0  0  0  0  0  0  0  0  0  0
    1.4059   19.5138   55.9366 C   0  0  0  0  0  0  0  0  0  0  0  0
    4.0459   16.0164   49.1777 C   0  0  0  0  0  0  0  0  0  0  0  0
    2.3353   19.5981   53.5810 C   0  0  0  0  0  0  0  0  0  0  0  0
    5.0764   15.1866   48.6137 O   0  0  0  0  0  0  0  0  0  0  0  0
  1  2  1  0  0  0  0
  1  8  2  0  0  0  0
  1 14  1  0  0  0  0
  2  3  2  0  0  0  0
  2  7  1  0  0  0  0
  3  4  1  0  0  0  0
  4  5  2  0  0  0  0
  5  6  1  0  0  0  0
  6  7  2  0  0  0  0
  9 16  1  0  0  0  0
 10 21  1  0  0  0  0
 11 13  1  1  0  0  0
 11 17  1  0  0  0  0
 11 20  2  0  0  0  0
 11 31  1  0  0  0  0
 12 16  2  0  0  0  0
 12 28  1  0  0  0  0
 15 26  1  0  0  0  0
 15 18  1  0  0  0  0
 16 19  1  0  0  0  0
 18 30  1  0  0  0  0
 19 22  2  0  0  0  0
 21 18  1  1  0  0  0
 21 24  1  0  0  0  0
 22 23  1  0  0  0  0
 22 25  1  0  0  0  0
 24 14  1  1  0  0  0
 24 27  1  0  0  0  0
 25 28  2  0  0  0  0
 25 30  1  0  0  0  0
 27 29  1  0  0  0  0
 29 31  1  0  0  0  0
M  CHG  1  17  -1
M  END
>  <CHROM.1>
-80.70273463,93.13701317,-99.94606352,89.79669142,-96.52295697,-22.26301130
-127.09803385,104.14173247,86.11510700,172.17108965,65.90806523,-54.54329213
2.95363464,17.07708151,52.93657082,1.21963316,-0.75900444,-2.46430639

>  <Name>
ligand

>  <RI>
0

>  <Rbt.Current_Directory>
/home/itssahil/PROJECTS/Mol_Feturizer/New_Systems/rnas/2HOO

>  <Rbt.Executable>
rbdock ($Id: //depot/dev/client3/rdock/2013.1/src/exe/rbdock.cxx#4 $)

>  <Rbt.Library>
libRbt.so (2013.1, Build901 2013/11/27)

>  <Rbt.Parameter_File>
/export/apps/rDock/src/rDock_2013.1_src/data/scripts/dock_solv.prm

>  <Rbt.Receptor>
prm/pocket_docking_6.prm

>  <SCORE>
-28.5826

>  <SCORE.INTER>
-16.0561

>  <SCORE.INTER.CONST>
1

>  <SCORE.INTER.POLAR>
0

>  <SCORE.INTER.ROT>
12

>  <SCORE.INTER.SOLV>
10.1765

>  <SCORE.INTER.VDW>
-25.6962

>  <SCORE.INTER.norm>
-0.517938

>  <SCORE.INTRA>
-12.5266

>  <SCORE.INTRA.DIHEDRAL>
1.9092

>  <SCORE.INTRA.DIHEDRAL.0>
14.6094

>  <SCORE.INTRA.POLAR>
0

>  <SCORE.INTRA.POLAR.0>
0

>  <SCORE.INTRA.REPUL>
0

>  <SCORE.INTRA.REPUL.0>
0

>  <SCORE.INTRA.SOLV>
3.07594

>  <SCORE.INTRA.SOLV.lig_0>
-65.6478

>  <SCORE.INTRA.VDW>
-15.0191

>  <SCORE.INTRA.VDW.0>
9.35535

>  <SCORE.INTRA.norm>
-0.404083

>  <SCORE.RESTR>
0

>  <SCORE.RESTR.CAVITY>
0

>  <SCORE.RESTR.norm>
0

>  <SCORE.SYSTEM>
0

>  <SCORE.SYSTEM.CONST>
0

>  <SCORE.SYSTEM.DIHEDRAL>
0

>  <SCORE.SYSTEM.SOLV>
0

>  <SCORE.SYSTEM.norm>
0

>  <SCORE.heavy>
31

>  <SCORE.norm>
-0.92202

>  <RMSD>
7.916

$$$$
ligand
 OpenBabel11021811443D
libRbt.so/2013.1/901 2013/11/27
 31 32  0  0  0  0  0  0  0  0999 V2000
    9.5469   19.4538   52.5564 C   0  0  0  0  0  0  0  0  0  0  0  0
   10.7954   19.6844   53.4026 C   0  0  0  0  0  0  0  0  0  0  0  0
   11.2031   21.0173   53.7332 C   0  0  0  0  0  0  0  0  0  0  0  0
   12.3643   21.2249   54.5158 C   0  0  0  0  0  0  0  0  0  0  0  0
   13.1238   20.1239   54.9817 C   0  0  0  0  0  0  0  0  0  0  0  0
   12.7339   18.8052   54.6712 C   0  0  0  0  0  0  0  0  0  0  0  0
   11.5844   18.5782   53.8933 C   0  0  0  0  0  0  0  0  0  0  0  0
    9.5460   18.5823   51.6874 O   0  0  0  0  0  0  0  0  0  0  0  0
    1.2326   14.5390   50.8556 C   0  0  0  0  0  0  0  0  0  0  0  0
    8.1415   20.0776   49.3834 C   0  0  0  0  0  0  0  0  0  0  0  0
    7.8413   24.6211   53.5773 P   0  0  1  0  0  0  0  0  0  0  0  0
    2.8639   15.5707   49.4383 N   0  0  0  0  0  0  0  0  0  0  0  0
    8.5050   24.5781   54.8943 O   0  0  0  0  0  0  0  0  0  0  0  0
    8.4097   20.2176   52.7540 S   0  0  0  0  0  0  0  0  0  0  0  0
    6.9268   17.2895   50.6836 C   0  0  0  0  0  0  0  0  0  0  0  0
    2.1891   15.6168   50.6373 C   0  0  0  0  0  0  0  0  0  0  0  0
    6.5683   25.3911   53.5504 O   0  5  0  0  0  0  0  0  0  0  0  0
    6.4352   18.4606   50.2082 N   0  0  0  0  0  0  0  0  0  0  0  0
    2.3640   16.5363   51.5339 N   0  0  0  0  0  0  0  0  0  0  0  0
    8.8044   25.0380   52.5319 O   0  0  0  0  0  0  0  0  0  0  0  0
    7.2465   19.6477   50.5141 C   0  0  2  0  0  0  0  0  0  0  0  0
    3.2676   17.5591   51.3177 C   0  0  0  0  0  0  0  0  0  0  0  0
    3.4187   18.4918   52.2612 N   0  0  0  0  0  0  0  0  0  0  0  0
    7.2415   20.4220   51.7516 C   0  0  1  0  0  0  0  0  0  0  0  0
    4.0147   17.5857   50.0699 C   0  0  0  0  0  0  0  0  0  0  0  0
    6.6380   17.1018   51.8450 O   0  0  0  0  0  0  0  0  0  0  0  0
    6.1784   21.3925   52.1265 C   0  0  0  0  0  0  0  0  0  0  0  0
    3.7609   16.5562   49.1864 C   0  0  0  0  0  0  0  0  0  0  0  0
    6.4702   22.8314   52.1193 C   0  0  0  0  0  0  0  0  0  0  0  0
    4.9830   18.7007   49.7584 C   0  0  0  0  0  0  0  0  0  0  0  0
    7.3830   23.1754   53.1763 O   0  0  0  0  0  0  0  0  0  0  0  0
  1  2  1  0  0  0  0
  1  8  2  0  0  0  0
  1 14  1  0  0  0  0
  2  3  2  0  0  0  0
  2  7  1  0  0  0  0
  3  4  1  0  0  0  0
  4  5  2  0  0  0  0
  5  6  1  0  0  0  0
  6  7  2  0  0  0  0
  9 16  1  0  0  0  0
 10 21  1  0  0  0  0
 11 13  1  1  0  0  0
 11 17  1  0  0  0  0
 11 20  2  0  0  0  0
 11 31  1  0  0  0  0
 12 16  2  0  0  0  0
 12 28  1  0  0  0  0
 15 26  1  0  0  0  0
 15 18  1  0  0  0  0
 16 19  1  0  0  0  0
 18 30  1  0  0  0  0
 19 22  2  0  0  0  0
 21 18  1  6  0  0  0
 21 24  1  0  0  0  0
 22 23  1  0  0  0  0
 22 25  1  0  0  0  0
 24 14  1  1  0  0  0
 24 27  1  0  0  0  0
 25 28  2  0  0  0  0
 25 30  1  0  0  0  0
 27 29  1  0  0  0  0
 29 31  1  0  0  0  0
M  CHG  1  17  -1
M  END
>  <CHROM.1>
139.69284601,160.24015142,6.25084021,82.75350125,98.58034511,9.16463325,-78.26776116
71.38107755,90.55961948,-69.09386898,-174.38080079,166.19814378,7.16794305
19.94779575,52.12674706,-0.77883593,0.29114686,-2.92929276

>  <Name>
ligand

>  <RI>
0

>  <Rbt.Current_Directory>
/home/itssahil/PROJECTS/Mol_Feturizer/New_Systems/rnas/2HOO

>  <Rbt.Executable>
rbdock ($Id: //depot/dev/client3/rdock/2013.1/src/exe/rbdock.cxx#4 $)

>  <Rbt.Library>
libRbt.so (2013.1, Build901 2013/11/27)

>  <Rbt.Parameter_File>
/export/apps/rDock/src/rDock_2013.1_src/data/scripts/dock_solv.prm

>  <Rbt.Receptor>
prm/blind_docking_80.prm

>  <SCORE>
-35.8267

>  <SCORE.INTER>
-24.5696

>  <SCORE.INTER.CONST>
1

>  <SCORE.INTER.POLAR>
0

>  <SCORE.INTER.ROT>
12

>  <SCORE.INTER.SOLV>
15.2906

>  <SCORE.INTER.VDW>
-33.0766

>  <SCORE.INTER.norm>
-0.792567

>  <SCORE.INTRA>
-11.2571

>  <SCORE.INTRA.DIHEDRAL>
0.922561

>  <SCORE.INTRA.DIHEDRAL.0>
14.6094

>  <SCORE.INTRA.POLAR>
0

>  <SCORE.INTRA.POLAR.0>
0

>  <SCORE.INTRA.REPUL>
0

>  <SCORE.INTRA.REPUL.0>
0

>  <SCORE.INTRA.SOLV>
4.49762

>  <SCORE.INTRA.SOLV.lig_0>
-65.6478

>  <SCORE.INTRA.VDW>
-13.9672

>  <SCORE.INTRA.VDW.0>
9.35535

>  <SCORE.INTRA.norm>
-0.363132

>  <SCORE.RESTR>
0

>  <SCORE.RESTR.CAVITY>
0

>  <SCORE.RESTR.norm>
0

>  <SCORE.SYSTEM>
0

>  <SCORE.SYSTEM.CONST>
0

>  <SCORE.SYSTEM.DIHEDRAL>
0

>  <SCORE.SYSTEM.SOLV>
0

>  <SCORE.SYSTEM.norm>
0

>  <SCORE.heavy>
31

>  <SCORE.norm>
-1.1557

>  <RMSD>
7.924

$$$$
ligand
 OpenBabel11021811443D
libRbt.so/2013.1/901 2013/11/27
 31 32  0  0  0  0  0  0  0  0999 V2000
    8.6045   19.4633   54.1572 C   0  0  0  0  0  0  0  0  0  0  0  0
   10.0695   19.8803   54.0673 C   0  0  0  0  0  0  0  0  0  0  0  0
   10.4271   21.2661   54.1286 C   0  0  0  0  0  0  0  0  0  0  0  0
   11.7876   21.6470   54.0413 C   0  0  0  0  0  0  0  0  0  0  0  0
   12.8010   20.6674   53.9007 C   0  0  0  0  0  0  0  0  0  0  0  0
   12.4679   19.2988   53.8448 C   0  0  0  0  0  0  0  0  0  0  0  0
   11.1217   18.9002   53.9280 C   0  0  0  0  0  0  0  0  0  0  0  0
    7.8584   20.0114   54.9680 O   0  0  0  0  0  0  0  0  0  0  0  0
    2.3239   16.2928   55.8311 C   0  0  0  0  0  0  0  0  0  0  0  0
    7.2590   21.0538   51.3433 C   0  0  0  0  0  0  0  0  0  0  0  0
    9.1912   16.4365   47.9559 P   0  0  1  0  0  0  0  0  0  0  0  0
    4.1090   17.6063   54.9242 N   0  0  0  0  0  0  0  0  0  0  0  0
    8.7037   17.4588   47.0103 O   0  0  0  0  0  0  0  0  0  0  0  0
    8.1021   18.4698   53.3349 S   0  0  0  0  0  0  0  0  0  0  0  0
    5.1760   18.4533   50.1211 C   0  0  0  0  0  0  0  0  0  0  0  0
    2.7802   17.2570   54.8380 C   0  0  0  0  0  0  0  0  0  0  0  0
    8.1190   15.6999   48.6783 O   0  5  0  0  0  0  0  0  0  0  0  0
    5.4030   19.4188   51.0459 N   0  0  0  0  0  0  0  0  0  0  0  0
    1.9613   17.7299   53.9516 N   0  0  0  0  0  0  0  0  0  0  0  0
   10.1703   15.5473   47.2888 O   0  0  0  0  0  0  0  0  0  0  0  0
    6.8142   19.6177   51.4065 C   0  0  2  0  0  0  0  0  0  0  0  0
    2.4021   18.6387   53.0087 C   0  0  0  0  0  0  0  0  0  0  0  0
    1.5320   19.1015   52.1078 N   0  0  0  0  0  0  0  0  0  0  0  0
    7.7685   18.5948   51.8235 C   0  0  1  0  0  0  0  0  0  0  0  0
    3.7966   19.0520   53.0280 C   0  0  0  0  0  0  0  0  0  0  0  0
    5.7698   18.6542   49.0845 O   0  0  0  0  0  0  0  0  0  0  0  0
    8.4582   17.6644   50.8900 C   0  0  0  0  0  0  0  0  0  0  0  0
    4.5825   18.4965   54.0173 C   0  0  0  0  0  0  0  0  0  0  0  0
    9.4873   18.1782   49.9775 C   0  0  0  0  0  0  0  0  0  0  0  0
    4.3464   20.0079   51.9975 C   0  0  0  0  0  0  0  0  0  0  0  0
    9.9794   17.1346   49.1188 O   0  0  0  0  0  0  0  0  0  0  0  0
  1  2  1  0  0  0  0
  1  8  2  0  0  0  0
  1 14  1  0  0  0  0
  2  3  2  0  0  0  0
  2  7  1  0  0  0  0
  3  4  1  0  0  0  0
  4  5  2  0  0  0  0
  5  6  1  0  0  0  0
  6  7  2  0  0  0  0
  9 16  1  0  0  0  0
 10 21  1  0  0  0  0
 11 13  1  6  0  0  0
 11 17  1  0  0  0  0
 11 20  2  0  0  0  0
 11 31  1  0  0  0  0
 12 16  2  0  0  0  0
 12 28  1  0  0  0  0
 15 26  1  0  0  0  0
 15 18  1  0  0  0  0
 16 19  1  0  0  0  0
 18 30  1  0  0  0  0
 19 22  2  0  0  0  0
 21 18  1  1  0  0  0
 21 24  1  0  0  0  0
 22 23  1  0  0  0  0
 22 25  1  0  0  0  0
 24 14  1  6  0  0  0
 24 27  1  0  0  0  0
 25 28  2  0  0  0  0
 25 30  1  0  0  0  0
 27 29  1  0  0  0  0
 29 31  1  0  0  0  0
M  CHG  1  17  -1
M  END
>  <CHROM.1>
-41.87902201,-75.02007238,-57.37097488,-57.78601012,129.69752489,66.36292009
76.66218489,-109.23661430,-114.32231216,-177.14079402,69.84343531,55.42102911
7.28457873,18.47256624,51.86824941,-0.44525989,0.17435324,1.14721076

>  <Name>
ligand

>  <RI>
0

>  <Rbt.Current_Directory>
/home/itssahil/PROJECTS/Mol_Feturizer/New_Systems/rnas/2HOO

>  <Rbt.Executable>
rbdock ($Id: //depot/dev/client3/rdock/2013.1/src/exe/rbdock.cxx#4 $)

>  <Rbt.Library>
libRbt.so (2013.1, Build901 2013/11/27)

>  <Rbt.Parameter_File>
/export/apps/rDock/src/rDock_2013.1_src/data/scripts/dock_solv.prm

>  <Rbt.Receptor>
prm/blind_docking_60.prm

>  <SCORE>
-33.2508

>  <SCORE.INTER>
-20.6895

>  <SCORE.INTER.CONST>
1

>  <SCORE.INTER.POLAR>
0

>  <SCORE.INTER.ROT>
12

>  <SCORE.INTER.SOLV>
21.5333

>  <SCORE.INTER.VDW>
-32.5708

>  <SCORE.INTER.norm>
-0.667404

>  <SCORE.INTRA>
-12.5612

>  <SCORE.INTRA.DIHEDRAL>
2.02556

>  <SCORE.INTRA.DIHEDRAL.0>
14.6094

>  <SCORE.INTRA.POLAR>
0

>  <SCORE.INTRA.POLAR.0>
0

>  <SCORE.INTRA.REPUL>
0

>  <SCORE.INTRA.REPUL.0>
0

>  <SCORE.INTRA.SOLV>
1.98647

>  <SCORE.INTRA.SOLV.lig_0>
-65.6478

>  <SCORE.INTRA.VDW>
-14.5673

>  <SCORE.INTRA.VDW.0>
9.35535

>  <SCORE.INTRA.norm>
-0.405202

>  <SCORE.RESTR>
0

>  <SCORE.RESTR.CAVITY>
0

>  <SCORE.RESTR.norm>
0

>  <SCORE.SYSTEM>
0

>  <SCORE.SYSTEM.CONST>
0

>  <SCORE.SYSTEM.DIHEDRAL>
0

>  <SCORE.SYSTEM.SOLV>
0

>  <SCORE.SYSTEM.norm>
0

>  <SCORE.heavy>
31

>  <SCORE.norm>
-1.07261

>  <RMSD>
7.950

$$$$
ligand
 OpenBabel11021811443D
libRbt.so/2013.1/901 2013/11/27
 31 32  0  0  0  0  0  0  0  0999 V2000
    8.9521   19.6873   53.5103 C   0  0  0  0  0  0  0  0  0  0  0  0
   10.4175   19.8740   53.8922 C   0  0  0  0  0  0  0  0  0  0  0  0
   10.9202   21.1807   54.1953 C   0  0  0  0  0  0  0  0  0  0  0  0
   12.2815   21.3479   54.5458 C   0  0  0  0  0  0  0  0  0  0  0  0
   13.1508   20.2313   54.6064 C   0  0  0  0  0  0  0  0  0  0  0  0
   12.6719   18.9373   54.3173 C   0  0  0  0  0  0  0  0  0  0  0  0
   11.3231   18.7507   53.9653 C   0  0  0  0  0  0  0  0  0  0  0  0
    8.4770   18.5548   53.4326 O   0  0  0  0  0  0  0  0  0  0  0  0
    1.0161   14.9876   50.1255 C   0  0  0  0  0  0  0  0  0  0  0  0
    5.1172   22.3247   52.6066 C   0  0  0  0  0  0  0  0  0  0  0  0
    6.9189   17.9944   48.5164 P   0  0  1  0  0  0  0  0  0  0  0  0
    2.8585   16.4698   49.7476 N   0  0  0  0  0  0  0  0  0  0  0  0
    5.5434   17.8025   48.0186 O   0  0  0  0  0  0  0  0  0  0  0  0
    8.1468   20.7818   53.2473 S   0  0  0  0  0  0  0  0  0  0  0  0
    4.7762   19.1362   53.3471 C   0  0  0  0  0  0  0  0  0  0  0  0
    1.6826   16.2479   50.4280 C   0  0  0  0  0  0  0  0  0  0  0  0
    7.3774   16.9602   49.4830 O   0  5  0  0  0  0  0  0  0  0  0  0
    4.8304   19.8811   52.2153 N   0  0  0  0  0  0  0  0  0  0  0  0
    1.1719   17.0762   51.2842 N   0  0  0  0  0  0  0  0  0  0  0  0
    7.8505   18.1954   47.3824 O   0  0  0  0  0  0  0  0  0  0  0  0
    5.7672   21.0132   52.2578 C   0  0  2  0  0  0  0  0  0  0  0  0
    1.8055   18.2725   51.5614 C   0  0  0  0  0  0  0  0  0  0  0  0
    1.2485   19.1037   52.4456 N   0  0  0  0  0  0  0  0  0  0  0  0
    7.2078   20.9725   52.0254 C   0  0  1  0  0  0  0  0  0  0  0  0
    3.0500   18.5847   50.8762 C   0  0  0  0  0  0  0  0  0  0  0  0
    4.9835   17.9608   53.1400 O   0  0  0  0  0  0  0  0  0  0  0  0
    7.8434   21.1148   50.6880 C   0  0  0  0  0  0  0  0  0  0  0  0
    3.5129   17.6325   49.9909 C   0  0  0  0  0  0  0  0  0  0  0  0
    8.1756   19.9160   49.9081 C   0  0  0  0  0  0  0  0  0  0  0  0
    3.7648   19.8942   51.1048 C   0  0  0  0  0  0  0  0  0  0  0  0
    6.9894   19.3155   49.3594 O   0  0  0  0  0  0  0  0  0  0  0  0
  1  2  1  0  0  0  0
  1  8  2  0  0  0  0
  1 14  1  0  0  0  0
  2  3  2  0  0  0  0
  2  7  1  0  0  0  0
  3  4  1  0  0  0  0
  4  5  2  0  0  0  0
  5  6  1  0  0  0  0
  6  7  2  0  0  0  0
  9 16  1  0  0  0  0
 10 21  1  0  0  0  0
 11 13  1  6  0  0  0
 11 17  1  0  0  0  0
 11 20  2  0  0  0  0
 11 31  1  0  0  0  0
 12 16  2  0  0  0  0
 12 28  1  0  0  0  0
 15 26  1  0  0  0  0
 15 18  1  0  0  0  0
 16 19  1  0  0  0  0
 18 30  1  0  0  0  0
 19 22  2  0  0  0  0
 21 18  1  1  0  0  0
 21 24  1  0  0  0  0
 22 23  1  0  0  0  0
 22 25  1  0  0  0  0
 24 14  1  1  0  0  0
 24 27  1  0  0  0  0
 25 28  2  0  0  0  0
 25 30  1  0  0  0  0
 27 29  1  0  0  0  0
 29 31  1  0  0  0  0
M  CHG  1  17  -1
M  END
>  <CHROM.1>
-169.87676793,131.60933519,113.55786460,-125.06035971,-96.72984750,-32.89298964
86.59135451,86.44769928,92.01877139,73.79078874,-177.48319928,-173.78176056
6.44423266,19.02941908,51.52724932,0.47143164,0.13392034,1.10653308

>  <Name>
ligand

>  <RI>
0

>  <Rbt.Current_Directory>
/home/itssahil/PROJECTS/Mol_Feturizer/New_Systems/rnas/2HOO

>  <Rbt.Executable>
rbdock ($Id: //depot/dev/client3/rdock/2013.1/src/exe/rbdock.cxx#4 $)

>  <Rbt.Library>
libRbt.so (2013.1, Build901 2013/11/27)

>  <Rbt.Parameter_File>
/export/apps/rDock/src/rDock_2013.1_src/data/scripts/dock_solv.prm

>  <Rbt.Receptor>
prm/blind_docking_60.prm

>  <SCORE>
-36.0699

>  <SCORE.INTER>
-23.388

>  <SCORE.INTER.CONST>
1

>  <SCORE.INTER.POLAR>
0

>  <SCORE.INTER.ROT>
12

>  <SCORE.INTER.SOLV>
10.6012

>  <SCORE.INTER.VDW>
-30.7257

>  <SCORE.INTER.norm>
-0.754451

>  <SCORE.INTRA>
-12.692

>  <SCORE.INTRA.DIHEDRAL>
1.77374

>  <SCORE.INTRA.DIHEDRAL.0>
14.6094

>  <SCORE.INTRA.POLAR>
0

>  <SCORE.INTRA.POLAR.0>
0

>  <SCORE.INTRA.REPUL>
0

>  <SCORE.INTRA.REPUL.0>
0

>  <SCORE.INTRA.SOLV>
2.65255

>  <SCORE.INTRA.SOLV.lig_0>
-65.6478

>  <SCORE.INTRA.VDW>
-14.9051

>  <SCORE.INTRA.VDW.0>
9.35535

>  <SCORE.INTRA.norm>
-0.409419

>  <SCORE.RESTR>
0.0100772

>  <SCORE.RESTR.CAVITY>
0.0100772

>  <SCORE.RESTR.norm>
0.000325071

>  <SCORE.SYSTEM>
0

>  <SCORE.SYSTEM.CONST>
0

>  <SCORE.SYSTEM.DIHEDRAL>
0

>  <SCORE.SYSTEM.SOLV>
0

>  <SCORE.SYSTEM.norm>
0

>  <SCORE.heavy>
31

>  <SCORE.norm>
-1.16355

>  <RMSD>
7.956

$$$$
ligand
 OpenBabel11021811443D
libRbt.so/2013.1/901 2013/11/27
 31 32  0  0  0  0  0  0  0  0999 V2000
    3.0786   23.2516   52.1473 C   0  0  0  0  0  0  0  0  0  0  0  0
    1.9945   23.5050   51.1039 C   0  0  0  0  0  0  0  0  0  0  0  0
    2.3532   23.9296   49.7836 C   0  0  0  0  0  0  0  0  0  0  0  0
    1.3426   24.1663   48.8210 C   0  0  0  0  0  0  0  0  0  0  0  0
   -0.0222   23.9798   49.1505 C   0  0  0  0  0  0  0  0  0  0  0  0
   -0.3931   23.5565   50.4430 C   0  0  0  0  0  0  0  0  0  0  0  0
    0.5959   23.3178   51.4140 C   0  0  0  0  0  0  0  0  0  0  0  0
    3.4199   24.1547   52.9103 O   0  0  0  0  0  0  0  0  0  0  0  0
    3.1283   27.0194   55.5353 C   0  0  0  0  0  0  0  0  0  0  0  0
    2.2666   18.8054   53.8163 C   0  0  0  0  0  0  0  0  0  0  0  0
    4.9349   16.6551   49.4036 P   0  0  1  0  0  0  0  0  0  0  0  0
    1.6157   25.2938   54.8505 N   0  0  0  0  0  0  0  0  0  0  0  0
    4.9381   16.4378   47.9443 O   0  0  0  0  0  0  0  0  0  0  0  0
    3.6871   22.0124   52.2457 S   0  0  0  0  0  0  0  0  0  0  0  0
   -0.1087   20.9421   53.5060 C   0  0  0  0  0  0  0  0  0  0  0  0
    2.7585   25.6097   55.5501 C   0  0  0  0  0  0  0  0  0  0  0  0
    4.1737   15.6386   50.1792 O   0  5  0  0  0  0  0  0  0  0  0  0
    1.1511   21.0252   54.0011 N   0  0  0  0  0  0  0  0  0  0  0  0
    3.4811   24.7439   56.1891 N   0  0  0  0  0  0  0  0  0  0  0  0
    6.3179   16.8565   49.8945 O   0  0  0  0  0  0  0  0  0  0  0  0
    2.1532   20.2128   53.2963 C   0  0  2  0  0  0  0  0  0  0  0  0
    3.1286   23.4079   56.1934 C   0  0  0  0  0  0  0  0  0  0  0  0
    3.8987   22.5433   56.8585 N   0  0  0  0  0  0  0  0  0  0  0  0
    2.9903   20.6265   52.1742 C   0  0  1  0  0  0  0  0  0  0  0  0
    1.9374   22.9923   55.4694 C   0  0  0  0  0  0  0  0  0  0  0  0
   -0.6870   22.0063   53.5264 O   0  0  0  0  0  0  0  0  0  0  0  0
    3.2133   19.8094   50.9514 C   0  0  0  0  0  0  0  0  0  0  0  0
    1.2338   23.9927   54.8298 C   0  0  0  0  0  0  0  0  0  0  0  0
    4.0236   18.5875   51.0296 C   0  0  0  0  0  0  0  0  0  0  0  0
    1.5262   21.5417   55.4016 C   0  0  0  0  0  0  0  0  0  0  0  0
    4.1729   17.9866   49.7314 O   0  0  0  0  0  0  0  0  0  0  0  0
  1  2  1  0  0  0  0
  1  8  2  0  0  0  0
  1 14  1  0  0  0  0
  2  3  2  0  0  0  0
  2  7  1  0  0  0  0
  3  4  1  0  0  0  0
  4  5  2  0  0  0  0
  5  6  1  0  0  0  0
  6  7  2  0  0  0  0
  9 16  1  0  0  0  0
 10 21  1  0  0  0  0
 11 13  1  6  0  0  0
 11 17  1  0  0  0  0
 11 20  2  0  0  0  0
 11 31  1  0  0  0  0
 12 16  2  0  0  0  0
 12 28  1  0  0  0  0
 15 26  1  0  0  0  0
 15 18  1  0  0  0  0
 16 19  1  0  0  0  0
 18 30  1  0  0  0  0
 19 22  2  0  0  0  0
 21 18  1  6  0  0  0
 21 24  1  0  0  0  0
 22 23  1  0  0  0  0
 22 25  1  0  0  0  0
 24 14  1  6  0  0  0
 24 27  1  0  0  0  0
 25 28  2  0  0  0  0
 25 30  1  0  0  0  0
 27 29  1  0  0  0  0
 29 31  1  0  0  0  0
M  CHG  1  17  -1
M  END
>  <CHROM.1>
92.61307812,-42.62257140,-71.13688177,-141.70370263,-87.78737978,-96.19905995
-136.08452770,110.03783327,-132.89030040,-177.01763005,-178.34839811,-175.94305122
2.73469244,21.42056346,52.37471893,2.17858326,-1.06584699,1.14265443

>  <Name>
ligand

>  <RI>
0

>  <Rbt.Current_Directory>
/home/itssahil/PROJECTS/Mol_Feturizer/New_Systems/rnas/2HOO

>  <Rbt.Executable>
rbdock ($Id: //depot/dev/client3/rdock/2013.1/src/exe/rbdock.cxx#4 $)

>  <Rbt.Library>
libRbt.so (2013.1, Build901 2013/11/27)

>  <Rbt.Parameter_File>
/export/apps/rDock/src/rDock_2013.1_src/data/scripts/dock_solv.prm

>  <Rbt.Receptor>
prm/pocket_docking_7.prm

>  <SCORE>
-24.2032

>  <SCORE.INTER>
-8.71015

>  <SCORE.INTER.CONST>
1

>  <SCORE.INTER.POLAR>
0

>  <SCORE.INTER.ROT>
12

>  <SCORE.INTER.SOLV>
9.26048

>  <SCORE.INTER.VDW>
-20.4936

>  <SCORE.INTER.norm>
-0.280972

>  <SCORE.INTRA>
-15.493

>  <SCORE.INTRA.DIHEDRAL>
0.709135

>  <SCORE.INTRA.DIHEDRAL.0>
14.6094

>  <SCORE.INTRA.POLAR>
0

>  <SCORE.INTRA.POLAR.0>
0

>  <SCORE.INTRA.REPUL>
0

>  <SCORE.INTRA.REPUL.0>
0

>  <SCORE.INTRA.SOLV>
0.739924

>  <SCORE.INTRA.SOLV.lig_0>
-65.6478

>  <SCORE.INTRA.VDW>
-16.2176

>  <SCORE.INTRA.VDW.0>
9.35535

>  <SCORE.INTRA.norm>
-0.499775

>  <SCORE.RESTR>
0

>  <SCORE.RESTR.CAVITY>
0

>  <SCORE.RESTR.norm>
0

>  <SCORE.SYSTEM>
0

>  <SCORE.SYSTEM.CONST>
0

>  <SCORE.SYSTEM.DIHEDRAL>
0

>  <SCORE.SYSTEM.SOLV>
0

>  <SCORE.SYSTEM.norm>
0

>  <SCORE.heavy>
31

>  <SCORE.norm>
-0.780747

>  <RMSD>
7.972

$$$$
ligand
 OpenBabel11021811443D
libRbt.so/2013.1/901 2013/11/27
 31 32  0  0  0  0  0  0  0  0999 V2000
    9.9183   19.5699   53.9096 C   0  0  0  0  0  0  0  0  0  0  0  0
   11.3890   19.3435   54.2470 C   0  0  0  0  0  0  0  0  0  0  0  0
   11.9249   18.0151   54.2688 C   0  0  0  0  0  0  0  0  0  0  0  0
   13.2894   17.8112   54.5859 C   0  0  0  0  0  0  0  0  0  0  0  0
   14.1326   18.9119   54.8753 C   0  0  0  0  0  0  0  0  0  0  0  0
   13.6237   20.2263   54.8525 C   0  0  0  0  0  0  0  0  0  0  0  0
   12.2704   20.4496   54.5416 C   0  0  0  0  0  0  0  0  0  0  0  0
    9.0604   18.8133   54.3634 O   0  0  0  0  0  0  0  0  0  0  0  0
    1.6586   15.0216   49.6842 C   0  0  0  0  0  0  0  0  0  0  0  0
    8.3319   18.8086   50.6715 C   0  0  0  0  0  0  0  0  0  0  0  0
    7.2555   25.0803   53.5582 P   0  0  1  0  0  0  0  0  0  0  0  0
    3.4250   16.5643   49.2003 N   0  0  0  0  0  0  0  0  0  0  0  0
    7.1750   26.5511   53.4737 O   0  0  0  0  0  0  0  0  0  0  0  0
    9.5353   20.6204   53.0939 S   0  0  0  0  0  0  0  0  0  0  0  0
    6.2158   18.4525   53.3580 C   0  0  0  0  0  0  0  0  0  0  0  0
    2.5223   16.1063   50.1333 C   0  0  0  0  0  0  0  0  0  0  0  0
    8.2776   24.5701   54.5116 O   0  5  0  0  0  0  0  0  0  0  0  0
    6.2983   18.9585   52.1026 N   0  0  0  0  0  0  0  0  0  0  0  0
    2.4172   16.5798   51.3353 N   0  0  0  0  0  0  0  0  0  0  0  0
    5.9078   24.5054   53.7757 O   0  0  0  0  0  0  0  0  0  0  0  0
    7.5969   19.5524   51.7535 C   0  0  2  0  0  0  0  0  0  0  0  0
    3.2347   17.6129   51.7524 C   0  0  0  0  0  0  0  0  0  0  0  0
    3.0957   18.0788   52.9959 N   0  0  0  0  0  0  0  0  0  0  0  0
    8.1950   20.7566   52.3217 C   0  0  1  0  0  0  0  0  0  0  0  0
    4.2101   18.1580   50.8211 C   0  0  0  0  0  0  0  0  0  0  0  0
    6.8380   17.4208   53.4848 O   0  0  0  0  0  0  0  0  0  0  0  0
    7.5969   22.1149   52.2210 C   0  0  0  0  0  0  0  0  0  0  0  0
    4.2471   17.5778   49.5694 C   0  0  0  0  0  0  0  0  0  0  0  0
    8.4625   23.2759   51.9786 C   0  0  0  0  0  0  0  0  0  0  0  0
    5.1001   19.3150   51.2047 C   0  0  0  0  0  0  0  0  0  0  0  0
    7.7429   24.5043   52.1829 O   0  0  0  0  0  0  0  0  0  0  0  0
  1  2  1  0  0  0  0
  1  8  2  0  0  0  0
  1 14  1  0  0  0  0
  2  3  2  0  0  0  0
  2  7  1  0  0  0  0
  3  4  1  0  0  0  0
  4  5  2  0  0  0  0
  5  6  1  0  0  0  0
  6  7  2  0  0  0  0
  9 16  1  0  0  0  0
 10 21  1  0  0  0  0
 11 13  1  6  0  0  0
 11 17  1  0  0  0  0
 11 20  2  0  0  0  0
 11 31  1  0  0  0  0
 12 16  2  0  0  0  0
 12 28  1  0  0  0  0
 15 26  1  0  0  0  0
 15 18  1  0  0  0  0
 16 19  1  0  0  0  0
 18 30  1  0  0  0  0
 19 22  2  0  0  0  0
 21 18  1  6  0  0  0
 21 24  1  0  0  0  0
 22 23  1  0  0  0  0
 22 25  1  0  0  0  0
 24 14  1  1  0  0  0
 24 27  1  0  0  0  0
 25 28  2  0  0  0  0
 25 30  1  0  0  0  0
 27 29  1  0  0  0  0
 29 31  1  0  0  0  0
M  CHG  1  17  -1
M  END
>  <CHROM.1>
41.05714519,160.54525201,-36.37584409,-72.78250211,114.22282163,-62.87376570
-63.83054101,40.49636552,77.88938580,-168.34941758,70.62143869,152.48529610
7.43128915,20.13567842,52.65859268,-0.63974237,0.35101170,-3.00925813

>  <Name>
ligand

>  <RI>
0

>  <Rbt.Current_Directory>
/home/itssahil/PROJECTS/Mol_Feturizer/New_Systems/rnas/2HOO

>  <Rbt.Executable>
rbdock ($Id: //depot/dev/client3/rdock/2013.1/src/exe/rbdock.cxx#4 $)

>  <Rbt.Library>
libRbt.so (2013.1, Build901 2013/11/27)

>  <Rbt.Parameter_File>
/export/apps/rDock/src/rDock_2013.1_src/data/scripts/dock_solv.prm

>  <Rbt.Receptor>
prm/blind_docking_100.prm

>  <SCORE>
-36.702

>  <SCORE.INTER>
-27.6564

>  <SCORE.INTER.CONST>
1

>  <SCORE.INTER.POLAR>
0

>  <SCORE.INTER.ROT>
12

>  <SCORE.INTER.SOLV>
16.7037

>  <SCORE.INTER.VDW>
-35.6055

>  <SCORE.INTER.norm>
-0.89214

>  <SCORE.INTRA>
-9.04561

>  <SCORE.INTRA.DIHEDRAL>
2.40925

>  <SCORE.INTRA.DIHEDRAL.0>
14.6094

>  <SCORE.INTRA.POLAR>
0

>  <SCORE.INTRA.POLAR.0>
0

>  <SCORE.INTRA.REPUL>
0

>  <SCORE.INTRA.REPUL.0>
0

>  <SCORE.INTRA.SOLV>
5.33295

>  <SCORE.INTRA.SOLV.lig_0>
-65.6478

>  <SCORE.INTRA.VDW>
-12.9167

>  <SCORE.INTRA.VDW.0>
9.35535

>  <SCORE.INTRA.norm>
-0.291794

>  <SCORE.RESTR>
0

>  <SCORE.RESTR.CAVITY>
0

>  <SCORE.RESTR.norm>
0

>  <SCORE.SYSTEM>
0

>  <SCORE.SYSTEM.CONST>
0

>  <SCORE.SYSTEM.DIHEDRAL>
0

>  <SCORE.SYSTEM.SOLV>
0

>  <SCORE.SYSTEM.norm>
0

>  <SCORE.heavy>
31

>  <SCORE.norm>
-1.18393

>  <RMSD>
7.976

$$$$
ligand
 OpenBabel11021811443D
libRbt.so/2013.1/901 2013/11/27
 31 32  0  0  0  0  0  0  0  0999 V2000
    5.6928   17.8177   50.4214 C   0  0  0  0  0  0  0  0  0  0  0  0
    6.8581   18.5470   49.7593 C   0  0  0  0  0  0  0  0  0  0  0  0
    7.7849   17.8251   48.9395 C   0  0  0  0  0  0  0  0  0  0  0  0
    8.8659   18.5066   48.3307 C   0  0  0  0  0  0  0  0  0  0  0  0
    9.0354   19.9001   48.5196 C   0  0  0  0  0  0  0  0  0  0  0  0
    8.1296   20.6276   49.3181 C   0  0  0  0  0  0  0  0  0  0  0  0
    7.0502   19.9683   49.9331 C   0  0  0  0  0  0  0  0  0  0  0  0
    5.9091   16.9890   51.3050 O   0  0  0  0  0  0  0  0  0  0  0  0
   -1.7188   22.5073   55.3289 C   0  0  0  0  0  0  0  0  0  0  0  0
    1.0109   16.4269   51.3171 C   0  0  0  0  0  0  0  0  0  0  0  0
    4.0090   14.3569   46.5661 P   0  0  1  0  0  0  0  0  0  0  0  0
   -0.9906   20.5299   54.1913 N   0  0  0  0  0  0  0  0  0  0  0  0
    3.1160   15.4570   46.1545 O   0  0  0  0  0  0  0  0  0  0  0  0
    4.3886   18.0771   50.0374 S   0  0  0  0  0  0  0  0  0  0  0  0
    2.9772   17.9804   53.3935 C   0  0  0  0  0  0  0  0  0  0  0  0
   -0.7470   21.8584   54.4579 C   0  0  0  0  0  0  0  0  0  0  0  0
    3.7655   13.0670   45.8654 O   0  5  0  0  0  0  0  0  0  0  0  0
    2.2839   18.3376   52.2842 N   0  0  0  0  0  0  0  0  0  0  0  0
    0.2633   22.5199   53.9870 N   0  0  0  0  0  0  0  0  0  0  0  0
    5.4221   14.7979   46.5146 O   0  0  0  0  0  0  0  0  0  0  0  0
    2.2229   17.3145   51.2303 C   0  0  2  0  0  0  0  0  0  0  0  0
    1.1772   21.9003   53.1562 C   0  0  0  0  0  0  0  0  0  0  0  0
    2.2034   22.6136   52.6860 N   0  0  0  0  0  0  0  0  0  0  0  0
    3.1782   17.1105   50.1456 C   0  0  1  0  0  0  0  0  0  0  0  0
    0.9847   20.4982   52.8200 C   0  0  0  0  0  0  0  0  0  0  0  0
    4.1129   18.4020   53.3873 O   0  0  0  0  0  0  0  0  0  0  0  0
    3.0635   16.0383   49.1209 C   0  0  0  0  0  0  0  0  0  0  0  0
   -0.1168   19.8837   53.3801 C   0  0  0  0  0  0  0  0  0  0  0  0
    3.9310   14.8566   49.2028 C   0  0  0  0  0  0  0  0  0  0  0  0
    1.9247   19.7795   51.8832 C   0  0  0  0  0  0  0  0  0  0  0  0
    3.7343   13.9956   48.0677 O   0  0  0  0  0  0  0  0  0  0  0  0
  1  2  1  0  0  0  0
  1  8  2  0  0  0  0
  1 14  1  0  0  0  0
  2  3  2  0  0  0  0
  2  7  1  0  0  0  0
  3  4  1  0  0  0  0
  4  5  2  0  0  0  0
  5  6  1  0  0  0  0
  6  7  2  0  0  0  0
  9 16  1  0  0  0  0
 10 21  1  0  0  0  0
 11 13  1  6  0  0  0
 11 17  1  0  0  0  0
 11 20  2  0  0  0  0
 11 31  1  0  0  0  0
 12 16  2  0  0  0  0
 12 28  1  0  0  0  0
 15 26  1  0  0  0  0
 15 18  1  0  0  0  0
 16 19  1  0  0  0  0
 18 30  1  0  0  0  0
 19 22  2  0  0  0  0
 21 18  1  6  0  0  0
 21 24  1  0  0  0  0
 22 23  1  0  0  0  0
 22 25  1  0  0  0  0
 24 14  1  6  0  0  0
 24 27  1  0  0  0  0
 25 28  2  0  0  0  0
 25 30  1  0  0  0  0
 27 29  1  0  0  0  0
 29 31  1  0  0  0  0
M  CHG  1  17  -1
M  END
>  <CHROM.1>
67.03055147,153.72609519,102.48494028,97.88228459,92.65782296,-64.85017807
177.32286949,76.16224267,139.72048764,-175.56844807,62.49051718,-63.30166256
3.52247890,18.04780266,50.47146096,-1.01756412,0.32457664,0.64999468

>  <Name>
ligand

>  <RI>
0

>  <Rbt.Current_Directory>
/home/itssahil/PROJECTS/Mol_Feturizer/New_Systems/rnas/2HOO

>  <Rbt.Executable>
rbdock ($Id: //depot/dev/client3/rdock/2013.1/src/exe/rbdock.cxx#4 $)

>  <Rbt.Library>
libRbt.so (2013.1, Build901 2013/11/27)

>  <Rbt.Parameter_File>
/export/apps/rDock/src/rDock_2013.1_src/data/scripts/dock_solv.prm

>  <Rbt.Receptor>
prm/pocket_docking_5.prm

>  <SCORE>
-25.3812

>  <SCORE.INTER>
-12.4644

>  <SCORE.INTER.CONST>
1

>  <SCORE.INTER.POLAR>
0

>  <SCORE.INTER.ROT>
12

>  <SCORE.INTER.SOLV>
7.1538

>  <SCORE.INTER.VDW>
-22.2942

>  <SCORE.INTER.norm>
-0.402076

>  <SCORE.INTRA>
-12.9168

>  <SCORE.INTRA.DIHEDRAL>
-0.0364041

>  <SCORE.INTRA.DIHEDRAL.0>
14.6094

>  <SCORE.INTRA.POLAR>
0

>  <SCORE.INTRA.POLAR.0>
0

>  <SCORE.INTRA.REPUL>
0

>  <SCORE.INTRA.REPUL.0>
0

>  <SCORE.INTRA.SOLV>
0.910317

>  <SCORE.INTRA.SOLV.lig_0>
-65.6478

>  <SCORE.INTRA.VDW>
-13.3538

>  <SCORE.INTRA.VDW.0>
9.35535

>  <SCORE.INTRA.norm>
-0.416672

>  <SCORE.RESTR>
0

>  <SCORE.RESTR.CAVITY>
0

>  <SCORE.RESTR.norm>
0

>  <SCORE.SYSTEM>
0

>  <SCORE.SYSTEM.CONST>
0

>  <SCORE.SYSTEM.DIHEDRAL>
0

>  <SCORE.SYSTEM.SOLV>
0

>  <SCORE.SYSTEM.norm>
0

>  <SCORE.heavy>
31

>  <SCORE.norm>
-0.818748

>  <RMSD>
7.976

$$$$
ligand
 OpenBabel11021811443D
libRbt.so/2013.1/901 2013/11/27
 31 32  0  0  0  0  0  0  0  0999 V2000
   10.5100   20.1888   53.5676 C   0  0  0  0  0  0  0  0  0  0  0  0
   11.8377   19.6787   54.1199 C   0  0  0  0  0  0  0  0  0  0  0  0
   12.7986   20.6012   54.6470 C   0  0  0  0  0  0  0  0  0  0  0  0
   14.0299   20.1222   55.1549 C   0  0  0  0  0  0  0  0  0  0  0  0
   14.3178   18.7353   55.1531 C   0  0  0  0  0  0  0  0  0  0  0  0
   13.3815   17.8126   54.6441 C   0  0  0  0  0  0  0  0  0  0  0  0
   12.1531   18.2689   54.1333 C   0  0  0  0  0  0  0  0  0  0  0  0
   10.2040   21.3733   53.7002 O   0  0  0  0  0  0  0  0  0  0  0  0
    1.2961   16.9038   55.4614 C   0  0  0  0  0  0  0  0  0  0  0  0
    6.9089   18.6421   54.1834 C   0  0  0  0  0  0  0  0  0  0  0  0
    7.2735   18.5405   47.3417 P   0  0  1  0  0  0  0  0  0  0  0  0
    2.6938   18.8397   55.2801 N   0  0  0  0  0  0  0  0  0  0  0  0
    5.9863   17.8651   47.5945 O   0  0  0  0  0  0  0  0  0  0  0  0
    9.6402   19.3308   52.9171 S   0  0  0  0  0  0  0  0  0  0  0  0
    6.3929   21.9914   53.4642 C   0  0  0  0  0  0  0  0  0  0  0  0
    2.1443   17.7542   54.6359 C   0  0  0  0  0  0  0  0  0  0  0  0
    8.4363   17.6232   47.1986 O   0  5  0  0  0  0  0  0  0  0  0  0
    6.0140   20.7268   53.1541 N   0  0  0  0  0  0  0  0  0  0  0  0
    2.3432   17.4746   53.3860 N   0  0  0  0  0  0  0  0  0  0  0  0
    7.1374   19.4988   46.2203 O   0  0  0  0  0  0  0  0  0  0  0  0
    7.0958   19.7316   53.1625 C   0  0  2  0  0  0  0  0  0  0  0  0
    3.1541   18.2813   52.6108 C   0  0  0  0  0  0  0  0  0  0  0  0
    3.3401   17.9605   51.3281 N   0  0  0  0  0  0  0  0  0  0  0  0
    8.2670   19.6976   52.2919 C   0  0  1  0  0  0  0  0  0  0  0  0
    3.7791   19.4445   53.2210 C   0  0  0  0  0  0  0  0  0  0  0  0
    6.7348   22.1034   54.6209 O   0  0  0  0  0  0  0  0  0  0  0  0
    8.2365   20.0050   50.8367 C   0  0  0  0  0  0  0  0  0  0  0  0
    3.4961   19.6580   54.5548 C   0  0  0  0  0  0  0  0  0  0  0  0
    8.1157   18.9121   49.8637 C   0  0  0  0  0  0  0  0  0  0  0  0
    4.7090   20.3378   52.4368 C   0  0  0  0  0  0  0  0  0  0  0  0
    7.6632   19.4057   48.5909 O   0  0  0  0  0  0  0  0  0  0  0  0
  1  2  1  0  0  0  0
  1  8  2  0  0  0  0
  1 14  1  0  0  0  0
  2  3  2  0  0  0  0
  2  7  1  0  0  0  0
  3  4  1  0  0  0  0
  4  5  2  0  0  0  0
  5  6  1  0  0  0  0
  6  7  2  0  0  0  0
  9 16  1  0  0  0  0
 10 21  1  0  0  0  0
 11 13  1  1  0  0  0
 11 17  1  0  0  0  0
 11 20  2  0  0  0  0
 11 31  1  0  0  0  0
 12 16  2  0  0  0  0
 12 28  1  0  0  0  0
 15 26  1  0  0  0  0
 15 18  1  0  0  0  0
 16 19  1  0  0  0  0
 18 30  1  0  0  0  0
 19 22  2  0  0  0  0
 21 18  1  6  0  0  0
 21 24  1  0  0  0  0
 22 23  1  0  0  0  0
 22 25  1  0  0  0  0
 24 14  1  1  0  0  0
 24 27  1  0  0  0  0
 25 28  2  0  0  0  0
 25 30  1  0  0  0  0
 27 29  1  0  0  0  0
 29 31  1  0  0  0  0
M  CHG  1  17  -1
M  END
>  <CHROM.1>
-7.56214132,-179.39843706,-83.90873205,-68.00458998,117.59541964,-118.96304011
-42.57273723,85.16991086,-134.27607874,160.81206006,-173.42828341,72.21466910
7.40823345,19.25721506,52.23899761,0.16538437,0.10951817,1.45772539

>  <Name>
ligand

>  <RI>
0

>  <Rbt.Current_Directory>
/home/itssahil/PROJECTS/Mol_Feturizer/New_Systems/rnas/2HOO

>  <Rbt.Executable>
rbdock ($Id: //depot/dev/client3/rdock/2013.1/src/exe/rbdock.cxx#4 $)

>  <Rbt.Library>
libRbt.so (2013.1, Build901 2013/11/27)

>  <Rbt.Parameter_File>
/export/apps/rDock/src/rDock_2013.1_src/data/scripts/dock_solv.prm

>  <Rbt.Receptor>
prm/pocket_docking_3.prm

>  <SCORE>
-32.212

>  <SCORE.INTER>
-20.1587

>  <SCORE.INTER.CONST>
1

>  <SCORE.INTER.POLAR>
0

>  <SCORE.INTER.ROT>
12

>  <SCORE.INTER.SOLV>
13.7383

>  <SCORE.INTER.VDW>
-29.6186

>  <SCORE.INTER.norm>
-0.650279

>  <SCORE.INTRA>
-12.0534

>  <SCORE.INTRA.DIHEDRAL>
1.48465

>  <SCORE.INTRA.DIHEDRAL.0>
14.6094

>  <SCORE.INTRA.POLAR>
0

>  <SCORE.INTRA.POLAR.0>
0

>  <SCORE.INTRA.REPUL>
0

>  <SCORE.INTRA.REPUL.0>
0

>  <SCORE.INTRA.SOLV>
-0.329748

>  <SCORE.INTRA.SOLV.lig_0>
-65.6478

>  <SCORE.INTRA.VDW>
-12.6308

>  <SCORE.INTRA.VDW.0>
9.35535

>  <SCORE.INTRA.norm>
-0.388818

>  <SCORE.RESTR>
0

>  <SCORE.RESTR.CAVITY>
0

>  <SCORE.RESTR.norm>
0

>  <SCORE.SYSTEM>
0

>  <SCORE.SYSTEM.CONST>
0

>  <SCORE.SYSTEM.DIHEDRAL>
0

>  <SCORE.SYSTEM.SOLV>
0

>  <SCORE.SYSTEM.norm>
0

>  <SCORE.heavy>
31

>  <SCORE.norm>
-1.0391

>  <RMSD>
7.996

$$$$
ligand
 OpenBabel11021811443D
libRbt.so/2013.1/901 2013/11/27
 31 32  0  0  0  0  0  0  0  0999 V2000
   -0.1102   21.0665   52.8961 C   0  0  0  0  0  0  0  0  0  0  0  0
   -0.6402   22.4773   52.6575 C   0  0  0  0  0  0  0  0  0  0  0  0
   -0.7944   22.9704   51.3213 C   0  0  0  0  0  0  0  0  0  0  0  0
   -1.2834   24.2813   51.1065 C   0  0  0  0  0  0  0  0  0  0  0  0
   -1.6289   25.1087   52.2029 C   0  0  0  0  0  0  0  0  0  0  0  0
   -1.4893   24.6377   53.5243 C   0  0  0  0  0  0  0  0  0  0  0  0
   -1.0035   23.3389   53.7587 C   0  0  0  0  0  0  0  0  0  0  0  0
   -0.8319   20.0940   52.6773 O   0  0  0  0  0  0  0  0  0  0  0  0
    5.7030   12.6733   49.5071 C   0  0  0  0  0  0  0  0  0  0  0  0
    3.2701   18.2952   53.7790 C   0  0  0  0  0  0  0  0  0  0  0  0
    5.5565   23.4001   52.4659 P   0  0  1  0  0  0  0  0  0  0  0  0
    3.8968   14.1258   50.1089 N   0  0  0  0  0  0  0  0  0  0  0  0
    6.1616   22.1001   52.1186 O   0  0  0  0  0  0  0  0  0  0  0  0
    1.1785   20.8660   53.3596 S   0  0  0  0  0  0  0  0  0  0  0  0
    1.1957   17.5205   51.3027 C   0  0  0  0  0  0  0  0  0  0  0  0
    5.2056   14.0306   49.6930 C   0  0  0  0  0  0  0  0  0  0  0  0
    5.2009   23.5534   53.9026 O   0  5  0  0  0  0  0  0  0  0  0  0
    2.4677   17.9692   51.4431 N   0  0  0  0  0  0  0  0  0  0  0  0
    5.9731   15.0514   49.4717 N   0  0  0  0  0  0  0  0  0  0  0  0
    6.3891   24.5084   51.9434 O   0  0  0  0  0  0  0  0  0  0  0  0
    2.6759   18.9192   52.5454 C   0  0  2  0  0  0  0  0  0  0  0  0
    5.4973   16.3354   49.6565 C   0  0  0  0  0  0  0  0  0  0  0  0
    6.3172   17.3632   49.4233 N   0  0  0  0  0  0  0  0  0  0  0  0
    2.3917   20.3510   52.5386 C   0  0  1  0  0  0  0  0  0  0  0  0
    4.1254   16.5198   50.1034 C   0  0  0  0  0  0  0  0  0  0  0  0
    0.9237   16.6413   52.0904 O   0  0  0  0  0  0  0  0  0  0  0  0
    3.1846   21.3574   51.7826 C   0  0  0  0  0  0  0  0  0  0  0  0
    3.3900   15.3688   50.3018 C   0  0  0  0  0  0  0  0  0  0  0  0
    2.9777   22.7885   52.0372 C   0  0  0  0  0  0  0  0  0  0  0  0
    3.5631   17.8958   50.3644 C   0  0  0  0  0  0  0  0  0  0  0  0
    4.1695   23.5392   51.7463 O   0  0  0  0  0  0  0  0  0  0  0  0
  1  2  1  0  0  0  0
  1  8  2  0  0  0  0
  1 14  1  0  0  0  0
  2  3  2  0  0  0  0
  2  7  1  0  0  0  0
  3  4  1  0  0  0  0
  4  5  2  0  0  0  0
  5  6  1  0  0  0  0
  6  7  2  0  0  0  0
  9 16  1  0  0  0  0
 10 21  1  0  0  0  0
 11 13  1  6  0  0  0
 11 17  1  0  0  0  0
 11 20  2  0  0  0  0
 11 31  1  0  0  0  0
 12 16  2  0  0  0  0
 12 28  1  0  0  0  0
 15 26  1  0  0  0  0
 15 18  1  0  0  0  0
 16 19  1  0  0  0  0
 18 30  1  0  0  0  0
 19 22  2  0  0  0  0
 21 18  1  6  0  0  0
 21 24  1  0  0  0  0
 22 23  1  0  0  0  0
 22 25  1  0  0  0  0
 24 14  1  6  0  0  0
 24 27  1  0  0  0  0
 25 28  2  0  0  0  0
 25 30  1  0  0  0  0
 27 29  1  0  0  0  0
 29 31  1  0  0  0  0
M  CHG  1  17  -1
M  END
>  <CHROM.1>
-73.93951875,-106.02351645,-93.30561213,-79.70430350,100.23088085,-72.68133031
-73.45366215,12.02774276,-150.18390081,152.66011266,-62.82545691,69.15731673
2.85767463,20.01163682,51.78802363,1.95977629,0.13897416,0.24292902

>  <Name>
ligand

>  <RI>
0

>  <Rbt.Current_Directory>
/home/itssahil/PROJECTS/Mol_Feturizer/New_Systems/rnas/2HOO

>  <Rbt.Executable>
rbdock ($Id: //depot/dev/client3/rdock/2013.1/src/exe/rbdock.cxx#4 $)

>  <Rbt.Library>
libRbt.so (2013.1, Build901 2013/11/27)

>  <Rbt.Parameter_File>
/export/apps/rDock/src/rDock_2013.1_src/data/scripts/dock_solv.prm

>  <Rbt.Receptor>
prm/pocket_docking_6.prm

>  <SCORE>
-24.7814

>  <SCORE.INTER>
-14.0296

>  <SCORE.INTER.CONST>
1

>  <SCORE.INTER.POLAR>
0

>  <SCORE.INTER.ROT>
12

>  <SCORE.INTER.SOLV>
16.3427

>  <SCORE.INTER.VDW>
-26.4007

>  <SCORE.INTER.norm>
-0.452569

>  <SCORE.INTRA>
-10.7517

>  <SCORE.INTRA.DIHEDRAL>
4.58431

>  <SCORE.INTRA.DIHEDRAL.0>
14.6094

>  <SCORE.INTRA.POLAR>
0

>  <SCORE.INTRA.POLAR.0>
0

>  <SCORE.INTRA.REPUL>
0

>  <SCORE.INTRA.REPUL.0>
0

>  <SCORE.INTRA.SOLV>
0.206623

>  <SCORE.INTRA.SOLV.lig_0>
-65.6478

>  <SCORE.INTRA.VDW>
-13.1472

>  <SCORE.INTRA.VDW.0>
9.35535

>  <SCORE.INTRA.norm>
-0.34683

>  <SCORE.RESTR>
0

>  <SCORE.RESTR.CAVITY>
0

>  <SCORE.RESTR.norm>
0

>  <SCORE.SYSTEM>
0

>  <SCORE.SYSTEM.CONST>
0

>  <SCORE.SYSTEM.DIHEDRAL>
0

>  <SCORE.SYSTEM.SOLV>
0

>  <SCORE.SYSTEM.norm>
0

>  <SCORE.heavy>
31

>  <SCORE.norm>
-0.799398

>  <RMSD>
8.018

$$$$
ligand
 OpenBabel11021811443D
libRbt.so/2013.1/901 2013/11/27
 31 32  0  0  0  0  0  0  0  0999 V2000
    3.9559   21.3559   52.5550 C   0  0  0  0  0  0  0  0  0  0  0  0
    2.7955   22.2783   52.1935 C   0  0  0  0  0  0  0  0  0  0  0  0
    1.4896   21.7349   51.9663 C   0  0  0  0  0  0  0  0  0  0  0  0
    0.4178   22.5955   51.6279 C   0  0  0  0  0  0  0  0  0  0  0  0
    0.6242   23.9925   51.5188 C   0  0  0  0  0  0  0  0  0  0  0  0
    1.9011   24.5452   51.7450 C   0  0  0  0  0  0  0  0  0  0  0  0
    2.9793   23.7068   52.0804 C   0  0  0  0  0  0  0  0  0  0  0  0
    3.7735   20.4107   53.3217 O   0  0  0  0  0  0  0  0  0  0  0  0
    2.4400   14.3776   47.2451 C   0  0  0  0  0  0  0  0  0  0  0  0
    7.3190   19.6812   49.9075 C   0  0  0  0  0  0  0  0  0  0  0  0
    8.1796   24.0168   52.5451 P   0  0  1  0  0  0  0  0  0  0  0  0
    4.0264   16.0227   47.9600 N   0  0  0  0  0  0  0  0  0  0  0  0
    8.0124   24.9457   51.4111 O   0  0  0  0  0  0  0  0  0  0  0  0
    5.2182   21.5710   52.0296 S   0  0  0  0  0  0  0  0  0  0  0  0
    6.6247   17.2343   51.8902 C   0  0  0  0  0  0  0  0  0  0  0  0
    2.8908   15.3094   48.2710 C   0  0  0  0  0  0  0  0  0  0  0  0
    9.2613   24.3897   53.4964 O   0  5  0  0  0  0  0  0  0  0  0  0
    5.8762   18.1906   51.2868 N   0  0  0  0  0  0  0  0  0  0  0  0
    2.2406   15.4296   49.3858 N   0  0  0  0  0  0  0  0  0  0  0  0
    6.8752   23.7716   53.2028 O   0  0  0  0  0  0  0  0  0  0  0  0
    6.5207   19.5067   51.1710 C   0  0  2  0  0  0  0  0  0  0  0  0
    2.6697   16.3200   50.3515 C   0  0  0  0  0  0  0  0  0  0  0  0
    1.9729   16.4208   51.4861 N   0  0  0  0  0  0  0  0  0  0  0  0
    6.4375   20.6137   52.1189 C   0  0  1  0  0  0  0  0  0  0  0  0
    3.8585   17.1177   50.0945 C   0  0  0  0  0  0  0  0  0  0  0  0
    6.4562   17.2004   53.0894 O   0  0  0  0  0  0  0  0  0  0  0  0
    7.4561   20.8968   53.1654 C   0  0  0  0  0  0  0  0  0  0  0  0
    4.4819   16.9077   48.8812 C   0  0  0  0  0  0  0  0  0  0  0  0
    8.7761   21.4095   52.7774 C   0  0  0  0  0  0  0  0  0  0  0  0
    4.3503   18.1376   51.0924 C   0  0  0  0  0  0  0  0  0  0  0  0
    8.6516   22.6197   52.0103 O   0  0  0  0  0  0  0  0  0  0  0  0
  1  2  1  0  0  0  0
  1  8  2  0  0  0  0
  1 14  1  0  0  0  0
  2  3  2  0  0  0  0
  2  7  1  0  0  0  0
  3  4  1  0  0  0  0
  4  5  2  0  0  0  0
  5  6  1  0  0  0  0
  6  7  2  0  0  0  0
  9 16  1  0  0  0  0
 10 21  1  0  0  0  0
 11 13  1  6  0  0  0
 11 17  1  0  0  0  0
 11 20  2  0  0  0  0
 11 31  1  0  0  0  0
 12 16  2  0  0  0  0
 12 28  1  0  0  0  0
 15 26  1  0  0  0  0
 15 18  1  0  0  0  0
 16 19  1  0  0  0  0
 18 30  1  0  0  0  0
 19 22  2  0  0  0  0
 21 18  1  6  0  0  0
 21 24  1  0  0  0  0
 22 23  1  0  0  0  0
 22 25  1  0  0  0  0
 24 14  1  6  0  0  0
 24 27  1  0  0  0  0
 25 28  2  0  0  0  0
 25 30  1  0  0  0  0
 27 29  1  0  0  0  0
 29 31  1  0  0  0  0
M  CHG  1  17  -1
M  END
>  <CHROM.1>
-39.55141385,-169.85675411,81.54504463,90.09099376,89.42631698,-70.03068802
94.87566532,-108.69016450,139.14289293,56.18137104,69.64159350,-172.26829644
5.09579935,20.31146446,51.46023941,1.11211452,-0.12846385,0.33326500

>  <Name>
ligand

>  <RI>
0

>  <Rbt.Current_Directory>
/home/itssahil/PROJECTS/Mol_Feturizer/New_Systems/rnas/2HOO

>  <Rbt.Executable>
rbdock ($Id: //depot/dev/client3/rdock/2013.1/src/exe/rbdock.cxx#4 $)

>  <Rbt.Library>
libRbt.so (2013.1, Build901 2013/11/27)

>  <Rbt.Parameter_File>
/export/apps/rDock/src/rDock_2013.1_src/data/scripts/dock_solv.prm

>  <Rbt.Receptor>
prm/pocket_docking_5.prm

>  <SCORE>
-25.8548

>  <SCORE.INTER>
-11.9405

>  <SCORE.INTER.CONST>
1

>  <SCORE.INTER.POLAR>
0

>  <SCORE.INTER.ROT>
12

>  <SCORE.INTER.SOLV>
13.2998

>  <SCORE.INTER.VDW>
-23.9936

>  <SCORE.INTER.norm>
-0.385178

>  <SCORE.INTRA>
-13.9143

>  <SCORE.INTRA.DIHEDRAL>
-1.70342

>  <SCORE.INTRA.DIHEDRAL.0>
14.6094

>  <SCORE.INTRA.POLAR>
0

>  <SCORE.INTRA.POLAR.0>
0

>  <SCORE.INTRA.REPUL>
0

>  <SCORE.INTRA.REPUL.0>
0

>  <SCORE.INTRA.SOLV>
3.66719

>  <SCORE.INTRA.SOLV.lig_0>
-65.6478

>  <SCORE.INTRA.VDW>
-14.8962

>  <SCORE.INTRA.VDW.0>
9.35535

>  <SCORE.INTRA.norm>
-0.448847

>  <SCORE.RESTR>
2.65856e-05

>  <SCORE.RESTR.CAVITY>
2.65856e-05

>  <SCORE.RESTR.norm>
8.576e-07

>  <SCORE.SYSTEM>
0

>  <SCORE.SYSTEM.CONST>
0

>  <SCORE.SYSTEM.DIHEDRAL>
0

>  <SCORE.SYSTEM.SOLV>
0

>  <SCORE.SYSTEM.norm>
0

>  <SCORE.heavy>
31

>  <SCORE.norm>
-0.834024

>  <RMSD>
8.019

$$$$
ligand
 OpenBabel11021811443D
libRbt.so/2013.1/901 2013/11/27
 31 32  0  0  0  0  0  0  0  0999 V2000
    7.3886   18.8387   47.3985 C   0  0  0  0  0  0  0  0  0  0  0  0
    6.9554   18.9656   45.9410 C   0  0  0  0  0  0  0  0  0  0  0  0
    7.7100   19.7796   45.0354 C   0  0  0  0  0  0  0  0  0  0  0  0
    7.3012   19.8961   43.6852 C   0  0  0  0  0  0  0  0  0  0  0  0
    6.1544   19.2077   43.2192 C   0  0  0  0  0  0  0  0  0  0  0  0
    5.4034   18.3973   44.0947 C   0  0  0  0  0  0  0  0  0  0  0  0
    5.7922   18.2702   45.4403 C   0  0  0  0  0  0  0  0  0  0  0  0
    7.2913   19.8047   48.1546 O   0  0  0  0  0  0  0  0  0  0  0  0
    0.0721   16.2291   53.8551 C   0  0  0  0  0  0  0  0  0  0  0  0
    6.6790   14.9559   49.3861 C   0  0  0  0  0  0  0  0  0  0  0  0
   10.2987   19.4562   53.3964 P   0  0  1  0  0  0  0  0  0  0  0  0
    1.9546   17.5042   53.1037 N   0  0  0  0  0  0  0  0  0  0  0  0
    9.5048   18.7535   54.4225 O   0  0  0  0  0  0  0  0  0  0  0  0
    7.8936   17.6445   47.8830 S   0  0  0  0  0  0  0  0  0  0  0  0
    6.2247   17.1938   52.0262 C   0  0  0  0  0  0  0  0  0  0  0  0
    1.1466   16.4108   52.8873 C   0  0  0  0  0  0  0  0  0  0  0  0
    9.8275   20.8326   53.0843 O   0  5  0  0  0  0  0  0  0  0  0  0
    5.7784   16.7904   50.8109 N   0  0  0  0  0  0  0  0  0  0  0  0
    1.2983   15.5792   51.9048 N   0  0  0  0  0  0  0  0  0  0  0  0
   11.7405   19.3882   53.7292 O   0  0  0  0  0  0  0  0  0  0  0  0
    6.8266   16.3736   49.8683 C   0  0  2  0  0  0  0  0  0  0  0  0
    2.3233   15.7536   50.9947 C   0  0  0  0  0  0  0  0  0  0  0  0
    2.4522   14.8749   49.9975 N   0  0  0  0  0  0  0  0  0  0  0  0
    7.9313   17.1848   49.3657 C   0  0  1  0  0  0  0  0  0  0  0  0
    3.2263   16.8820   51.1597 C   0  0  0  0  0  0  0  0  0  0  0  0
    5.8082   18.2889   52.3340 O   0  0  0  0  0  0  0  0  0  0  0  0
    9.1065   17.5942   50.1806 C   0  0  0  0  0  0  0  0  0  0  0  0
    2.9730   17.7123   52.2327 C   0  0  0  0  0  0  0  0  0  0  0  0
    8.9417   18.5882   51.2486 C   0  0  0  0  0  0  0  0  0  0  0  0
    4.3898   17.0996   50.2235 C   0  0  0  0  0  0  0  0  0  0  0  0
   10.1477   18.7155   52.0218 O   0  0  0  0  0  0  0  0  0  0  0  0
  1  2  1  0  0  0  0
  1  8  2  0  0  0  0
  1 14  1  0  0  0  0
  2  3  2  0  0  0  0
  2  7  1  0  0  0  0
  3  4  1  0  0  0  0
  4  5  2  0  0  0  0
  5  6  1  0  0  0  0
  6  7  2  0  0  0  0
  9 16  1  0  0  0  0
 10 21  1  0  0  0  0
 11 13  1  1  0  0  0
 11 17  1  0  0  0  0
 11 20  2  0  0  0  0
 11 31  1  0  0  0  0
 12 16  2  0  0  0  0
 12 28  1  0  0  0  0
 15 26  1  0  0  0  0
 15 18  1  0  0  0  0
 16 19  1  0  0  0  0
 18 30  1  0  0  0  0
 19 22  2  0  0  0  0
 21 18  1  6  0  0  0
 21 24  1  0  0  0  0
 22 23  1  0  0  0  0
 22 25  1  0  0  0  0
 24 14  1  6  0  0  0
 24 27  1  0  0  0  0
 25 28  2  0  0  0  0
 25 30  1  0  0  0  0
 27 29  1  0  0  0  0
 29 31  1  0  0  0  0
M  CHG  1  17  -1
M  END
>  <CHROM.1>
69.18083226,-157.89669253,93.22168565,126.85740797,121.15926885,-46.32329072
70.14934894,109.93934067,-106.88324155,172.58296026,-167.64428969,65.30762318
6.47548509,17.90531123,50.20432812,0.37756269,-0.36034803,-1.49584527

>  <Name>
ligand

>  <RI>
0

>  <Rbt.Current_Directory>
/home/itssahil/PROJECTS/Mol_Feturizer/New_Systems/rnas/2HOO

>  <Rbt.Executable>
rbdock ($Id: //depot/dev/client3/rdock/2013.1/src/exe/rbdock.cxx#4 $)

>  <Rbt.Library>
libRbt.so (2013.1, Build901 2013/11/27)

>  <Rbt.Parameter_File>
/export/apps/rDock/src/rDock_2013.1_src/data/scripts/dock_solv.prm

>  <Rbt.Receptor>
prm/blind_docking_80.prm

>  <SCORE>
-24.4071

>  <SCORE.INTER>
-11.2003

>  <SCORE.INTER.CONST>
1

>  <SCORE.INTER.POLAR>
0

>  <SCORE.INTER.ROT>
12

>  <SCORE.INTER.SOLV>
20.4648

>  <SCORE.INTER.VDW>
-25.8885

>  <SCORE.INTER.norm>
-0.361299

>  <SCORE.INTRA>
-13.3607

>  <SCORE.INTRA.DIHEDRAL>
-0.704515

>  <SCORE.INTRA.DIHEDRAL.0>
14.6094

>  <SCORE.INTRA.POLAR>
0

>  <SCORE.INTRA.POLAR.0>
0

>  <SCORE.INTRA.REPUL>
0

>  <SCORE.INTRA.REPUL.0>
0

>  <SCORE.INTRA.SOLV>
0.564924

>  <SCORE.INTRA.SOLV.lig_0>
-65.6478

>  <SCORE.INTRA.VDW>
-13.2909

>  <SCORE.INTRA.VDW.0>
9.35535

>  <SCORE.INTRA.norm>
-0.43099

>  <SCORE.RESTR>
0.153838

>  <SCORE.RESTR.CAVITY>
0.153838

>  <SCORE.RESTR.norm>
0.00496252

>  <SCORE.SYSTEM>
0

>  <SCORE.SYSTEM.CONST>
0

>  <SCORE.SYSTEM.DIHEDRAL>
0

>  <SCORE.SYSTEM.SOLV>
0

>  <SCORE.SYSTEM.norm>
0

>  <SCORE.heavy>
31

>  <SCORE.norm>
-0.787326

>  <RMSD>
8.026

$$$$
ligand
 OpenBabel11021811443D
libRbt.so/2013.1/901 2013/11/27
 31 32  0  0  0  0  0  0  0  0999 V2000
    7.8946   21.1454   51.5943 C   0  0  0  0  0  0  0  0  0  0  0  0
    8.0653   22.6123   51.9780 C   0  0  0  0  0  0  0  0  0  0  0  0
    7.0566   23.5681   51.6299 C   0  0  0  0  0  0  0  0  0  0  0  0
    7.2222   24.9281   51.9857 C   0  0  0  0  0  0  0  0  0  0  0  0
    8.3755   25.3517   52.6906 C   0  0  0  0  0  0  0  0  0  0  0  0
    9.3753   24.4239   53.0467 C   0  0  0  0  0  0  0  0  0  0  0  0
    9.2301   23.0685   52.7007 C   0  0  0  0  0  0  0  0  0  0  0  0
    8.1565   20.2624   52.4105 O   0  0  0  0  0  0  0  0  0  0  0  0
    1.9131   15.6645   44.9384 C   0  0  0  0  0  0  0  0  0  0  0  0
    9.2406   18.4934   48.9091 C   0  0  0  0  0  0  0  0  0  0  0  0
    3.3309   21.4375   51.6634 P   0  0  1  0  0  0  0  0  0  0  0  0
    4.0986   16.6243   44.7469 N   0  0  0  0  0  0  0  0  0  0  0  0
    2.7543   22.3688   50.6750 O   0  0  0  0  0  0  0  0  0  0  0  0
    7.4478   20.7937   50.3325 S   0  0  0  0  0  0  0  0  0  0  0  0
    7.3289   19.3905   46.4842 C   0  0  0  0  0  0  0  0  0  0  0  0
    3.2088   15.9418   45.5454 C   0  0  0  0  0  0  0  0  0  0  0  0
    4.1834   22.0829   52.6982 O   0  5  0  0  0  0  0  0  0  0  0  0
    7.2429   18.4154   47.4227 N   0  0  0  0  0  0  0  0  0  0  0  0
    3.4675   15.5562   46.7555 N   0  0  0  0  0  0  0  0  0  0  0  0
    2.2712   20.5710   52.2295 O   0  0  0  0  0  0  0  0  0  0  0  0
    7.7715   18.7751   48.7464 C   0  0  2  0  0  0  0  0  0  0  0  0
    4.6956   15.8283   47.3273 C   0  0  0  0  0  0  0  0  0  0  0  0
    4.9258   15.4198   48.5776 N   0  0  0  0  0  0  0  0  0  0  0  0
    7.0349   19.3751   49.8547 C   0  0  1  0  0  0  0  0  0  0  0  0
    5.6882   16.5539   46.5501 C   0  0  0  0  0  0  0  0  0  0  0  0
    6.2998   19.5260   45.8596 O   0  0  0  0  0  0  0  0  0  0  0  0
    5.9142   18.7095   50.5716 C   0  0  0  0  0  0  0  0  0  0  0  0
    5.3165   16.9113   45.2699 C   0  0  0  0  0  0  0  0  0  0  0  0
    5.1424   19.4580   51.5715 C   0  0  0  0  0  0  0  0  0  0  0  0
    7.0307   16.9182   47.1357 C   0  0  0  0  0  0  0  0  0  0  0  0
    4.3306   20.4660   50.9440 O   0  0  0  0  0  0  0  0  0  0  0  0
  1  2  1  0  0  0  0
  1  8  2  0  0  0  0
  1 14  1  0  0  0  0
  2  3  2  0  0  0  0
  2  7  1  0  0  0  0
  3  4  1  0  0  0  0
  4  5  2  0  0  0  0
  5  6  1  0  0  0  0
  6  7  2  0  0  0  0
  9 16  1  0  0  0  0
 10 21  1  0  0  0  0
 11 13  1  6  0  0  0
 11 17  1  0  0  0  0
 11 20  2  0  0  0  0
 11 31  1  0  0  0  0
 12 16  2  0  0  0  0
 12 28  1  0  0  0  0
 15 26  1  0  0  0  0
 15 18  1  0  0  0  0
 16 19  1  0  0  0  0
 18 30  1  0  0  0  0
 19 22  2  0  0  0  0
 21 18  1  6  0  0  0
 21 24  1  0  0  0  0
 22 23  1  0  0  0  0
 22 25  1  0  0  0  0
 24 14  1  1  0  0  0
 24 27  1  0  0  0  0
 25 28  2  0  0  0  0
 25 30  1  0  0  0  0
 27 29  1  0  0  0  0
 29 31  1  0  0  0  0
M  CHG  1  17  -1
M  END
>  <CHROM.1>
-136.01713329,-170.79023246,-119.72001850,-133.87616581,-88.39172150,-67.00619483
62.61960182,7.43465065,-109.40338999,70.12371645,177.80285951,176.78275206
5.87214448,19.76760439,49.56003307,-1.29725934,-0.15150814,-2.34506331

>  <Name>
ligand

>  <RI>
0

>  <Rbt.Current_Directory>
/home/itssahil/PROJECTS/Mol_Feturizer/New_Systems/rnas/2HOO

>  <Rbt.Executable>
rbdock ($Id: //depot/dev/client3/rdock/2013.1/src/exe/rbdock.cxx#4 $)

>  <Rbt.Library>
libRbt.so (2013.1, Build901 2013/11/27)

>  <Rbt.Parameter_File>
/export/apps/rDock/src/rDock_2013.1_src/data/scripts/dock_solv.prm

>  <Rbt.Receptor>
prm/pocket_docking_6.prm

>  <SCORE>
-28.839

>  <SCORE.INTER>
-16.4687

>  <SCORE.INTER.CONST>
1

>  <SCORE.INTER.POLAR>
0

>  <SCORE.INTER.ROT>
12

>  <SCORE.INTER.SOLV>
12.2872

>  <SCORE.INTER.VDW>
-26.6749

>  <SCORE.INTER.norm>
-0.531249

>  <SCORE.INTRA>
-12.3703

>  <SCORE.INTRA.DIHEDRAL>
-1.97536

>  <SCORE.INTRA.DIHEDRAL.0>
14.6094

>  <SCORE.INTRA.POLAR>
0

>  <SCORE.INTRA.POLAR.0>
0

>  <SCORE.INTRA.REPUL>
0

>  <SCORE.INTRA.REPUL.0>
0

>  <SCORE.INTRA.SOLV>
2.49379

>  <SCORE.INTRA.SOLV.lig_0>
-65.6478

>  <SCORE.INTRA.VDW>
-12.6295

>  <SCORE.INTRA.VDW.0>
9.35535

>  <SCORE.INTRA.norm>
-0.399043

>  <SCORE.RESTR>
0

>  <SCORE.RESTR.CAVITY>
0

>  <SCORE.RESTR.norm>
0

>  <SCORE.SYSTEM>
0

>  <SCORE.SYSTEM.CONST>
0

>  <SCORE.SYSTEM.DIHEDRAL>
0

>  <SCORE.SYSTEM.SOLV>
0

>  <SCORE.SYSTEM.norm>
0

>  <SCORE.heavy>
31

>  <SCORE.norm>
-0.930292

>  <RMSD>
8.028

$$$$
ligand
 OpenBabel11021811443D
libRbt.so/2013.1/901 2013/11/27
 31 32  0  0  0  0  0  0  0  0999 V2000
    9.9524   18.9098   53.7954 C   0  0  0  0  0  0  0  0  0  0  0  0
   11.4201   19.0371   54.1924 C   0  0  0  0  0  0  0  0  0  0  0  0
   12.2399   17.8670   54.2981 C   0  0  0  0  0  0  0  0  0  0  0  0
   13.6001   17.9913   54.6701 C   0  0  0  0  0  0  0  0  0  0  0  0
   14.1603   19.2655   54.9323 C   0  0  0  0  0  0  0  0  0  0  0  0
   13.3700   20.4281   54.8273 C   0  0  0  0  0  0  0  0  0  0  0  0
   12.0161   20.3254   54.4608 C   0  0  0  0  0  0  0  0  0  0  0  0
    9.1331   18.4733   54.6033 O   0  0  0  0  0  0  0  0  0  0  0  0
    1.1432   15.7965   50.9143 C   0  0  0  0  0  0  0  0  0  0  0  0
    8.2020   20.4511   49.6446 C   0  0  0  0  0  0  0  0  0  0  0  0
    7.5470   25.3332   52.9748 P   0  0  1  0  0  0  0  0  0  0  0  0
    2.2260   17.9309   50.8351 N   0  0  0  0  0  0  0  0  0  0  0  0
    8.6244   26.2492   52.5539 O   0  0  0  0  0  0  0  0  0  0  0  0
    9.5290   19.2798   52.5307 S   0  0  0  0  0  0  0  0  0  0  0  0
    5.4560   20.5045   51.9238 C   0  0  0  0  0  0  0  0  0  0  0  0
    2.3321   16.5787   50.5998 C   0  0  0  0  0  0  0  0  0  0  0  0
    6.8277   25.7493   54.2091 O   0  5  0  0  0  0  0  0  0  0  0  0
    6.2269   19.8344   51.0320 N   0  0  0  0  0  0  0  0  0  0  0  0
    3.3960   16.0044   50.1325 N   0  0  0  0  0  0  0  0  0  0  0  0
    6.6449   25.0460   51.8355 O   0  0  0  0  0  0  0  0  0  0  0  0
    7.6463   20.2167   51.0231 C   0  0  2  0  0  0  0  0  0  0  0  0
    4.5221   16.7510   49.8427 C   0  0  0  0  0  0  0  0  0  0  0  0
    5.6016   16.1255   49.3669 N   0  0  0  0  0  0  0  0  0  0  0  0
    8.5148   20.4026   52.1816 C   0  0  1  0  0  0  0  0  0  0  0  0
    4.4923   18.1871   50.0723 C   0  0  0  0  0  0  0  0  0  0  0  0
    5.6471   21.7004   51.8967 O   0  0  0  0  0  0  0  0  0  0  0  0
    8.4857   21.5990   53.0651 C   0  0  0  0  0  0  0  0  0  0  0  0
    3.3091   18.7005   50.5635 C   0  0  0  0  0  0  0  0  0  0  0  0
    8.6548   22.9372   52.4851 C   0  0  0  0  0  0  0  0  0  0  0  0
    5.7049   19.0482   49.8161 C   0  0  0  0  0  0  0  0  0  0  0  0
    8.1666   23.9506   53.3813 O   0  0  0  0  0  0  0  0  0  0  0  0
  1  2  1  0  0  0  0
  1  8  2  0  0  0  0
  1 14  1  0  0  0  0
  2  3  2  0  0  0  0
  2  7  1  0  0  0  0
  3  4  1  0  0  0  0
  4  5  2  0  0  0  0
  5  6  1  0  0  0  0
  6  7  2  0  0  0  0
  9 16  1  0  0  0  0
 10 21  1  0  0  0  0
 11 13  1  6  0  0  0
 11 17  1  0  0  0  0
 11 20  2  0  0  0  0
 11 31  1  0  0  0  0
 12 16  2  0  0  0  0
 12 28  1  0  0  0  0
 15 26  1  0  0  0  0
 15 18  1  0  0  0  0
 16 19  1  0  0  0  0
 18 30  1  0  0  0  0
 19 22  2  0  0  0  0
 21 18  1  1  0  0  0
 21 24  1  0  0  0  0
 22 23  1  0  0  0  0
 22 25  1  0  0  0  0
 24 14  1  1  0  0  0
 24 27  1  0  0  0  0
 25 28  2  0  0  0  0
 25 30  1  0  0  0  0
 27 29  1  0  0  0  0
 29 31  1  0  0  0  0
M  CHG  1  17  -1
M  END
>  <CHROM.1>
73.93132814,-117.79733050,-146.64128010,46.84711473,-132.93772812,-43.33108092
-78.43005056,125.17858110,-121.10837922,160.88854783,-149.59112905,-75.83276335
7.55416512,20.34085487,52.23745776,-0.57858771,0.39662079,-3.03306315

>  <Name>
ligand

>  <RI>
0

>  <Rbt.Current_Directory>
/home/itssahil/PROJECTS/Mol_Feturizer/New_Systems/rnas/2HOO

>  <Rbt.Executable>
rbdock ($Id: //depot/dev/client3/rdock/2013.1/src/exe/rbdock.cxx#4 $)

>  <Rbt.Library>
libRbt.so (2013.1, Build901 2013/11/27)

>  <Rbt.Parameter_File>
/export/apps/rDock/src/rDock_2013.1_src/data/scripts/dock_solv.prm

>  <Rbt.Receptor>
prm/blind_docking_100.prm

>  <SCORE>
-36.0259

>  <SCORE.INTER>
-29.1874

>  <SCORE.INTER.CONST>
1

>  <SCORE.INTER.POLAR>
0

>  <SCORE.INTER.ROT>
12

>  <SCORE.INTER.SOLV>
21.6622

>  <SCORE.INTER.VDW>
-38.279

>  <SCORE.INTER.norm>
-0.94153

>  <SCORE.INTRA>
-6.97911

>  <SCORE.INTRA.DIHEDRAL>
5.81719

>  <SCORE.INTRA.DIHEDRAL.0>
14.6094

>  <SCORE.INTRA.POLAR>
0

>  <SCORE.INTRA.POLAR.0>
0

>  <SCORE.INTRA.REPUL>
0

>  <SCORE.INTRA.REPUL.0>
0

>  <SCORE.INTRA.SOLV>
0.409046

>  <SCORE.INTRA.SOLV.lig_0>
-65.6478

>  <SCORE.INTRA.VDW>
-10.0922

>  <SCORE.INTRA.VDW.0>
9.35535

>  <SCORE.INTRA.norm>
-0.225133

>  <SCORE.RESTR>
0.14064

>  <SCORE.RESTR.CAVITY>
0.14064

>  <SCORE.RESTR.norm>
0.00453678

>  <SCORE.SYSTEM>
0

>  <SCORE.SYSTEM.CONST>
0

>  <SCORE.SYSTEM.DIHEDRAL>
0

>  <SCORE.SYSTEM.SOLV>
0

>  <SCORE.SYSTEM.norm>
0

>  <SCORE.heavy>
31

>  <SCORE.norm>
-1.16213

>  <RMSD>
8.051

$$$$
ligand
 OpenBabel11021811443D
libRbt.so/2013.1/901 2013/11/27
 31 32  0  0  0  0  0  0  0  0999 V2000
    6.3673   14.5544   49.4108 C   0  0  0  0  0  0  0  0  0  0  0  0
    7.5357   15.5231   49.2533 C   0  0  0  0  0  0  0  0  0  0  0  0
    8.0798   16.1852   50.4012 C   0  0  0  0  0  0  0  0  0  0  0  0
    9.1615   17.0854   50.2482 C   0  0  0  0  0  0  0  0  0  0  0  0
    9.7163   17.3320   48.9685 C   0  0  0  0  0  0  0  0  0  0  0  0
    9.1975   16.6846   47.8288 C   0  0  0  0  0  0  0  0  0  0  0  0
    8.1218   15.7881   47.9597 C   0  0  0  0  0  0  0  0  0  0  0  0
    6.5676   13.4121   49.8225 O   0  0  0  0  0  0  0  0  0  0  0  0
   -1.2301   16.2031   57.0160 C   0  0  0  0  0  0  0  0  0  0  0  0
    1.9557   14.9314   48.9339 C   0  0  0  0  0  0  0  0  0  0  0  0
    6.4715   19.8115   50.6943 P   0  0  1  0  0  0  0  0  0  0  0  0
   -1.0411   15.9558   54.6416 N   0  0  0  0  0  0  0  0  0  0  0  0
    5.7480   20.8289   51.4806 O   0  0  0  0  0  0  0  0  0  0  0  0
    5.0784   14.9462   49.0934 S   0  0  0  0  0  0  0  0  0  0  0  0
    1.8781   14.0181   51.9221 C   0  0  0  0  0  0  0  0  0  0  0  0
   -0.4099   16.3014   55.8153 C   0  0  0  0  0  0  0  0  0  0  0  0
    7.5128   20.3587   49.7830 O   0  5  0  0  0  0  0  0  0  0  0  0
    1.9941   15.2653   51.4024 N   0  0  0  0  0  0  0  0  0  0  0  0
    0.8241   16.6913   55.8884 N   0  0  0  0  0  0  0  0  0  0  0  0
    6.9719   18.7375   51.5833 O   0  0  0  0  0  0  0  0  0  0  0  0
    2.7480   15.3487   50.1432 C   0  0  2  0  0  0  0  0  0  0  0  0
    1.5941   16.7888   54.7452 C   0  0  0  0  0  0  0  0  0  0  0  0
    2.8601   17.1980   54.8575 N   0  0  0  0  0  0  0  0  0  0  0  0
    4.1247   15.8022   49.9702 C   0  0  1  0  0  0  0  0  0  0  0  0
    0.9965   16.4489   53.4633 C   0  0  0  0  0  0  0  0  0  0  0  0
    1.8800   14.0176   53.1335 O   0  0  0  0  0  0  0  0  0  0  0  0
    4.6843   17.0324   50.5918 C   0  0  0  0  0  0  0  0  0  0  0  0
   -0.3204   16.0371   53.4957 C   0  0  0  0  0  0  0  0  0  0  0  0
    4.3090   18.3503   50.0646 C   0  0  0  0  0  0  0  0  0  0  0  0
    1.7740   16.5774   52.1761 C   0  0  0  0  0  0  0  0  0  0  0  0
    5.4757   19.1107   49.7053 O   0  0  0  0  0  0  0  0  0  0  0  0
  1  2  1  0  0  0  0
  1  8  2  0  0  0  0
  1 14  1  0  0  0  0
  2  3  2  0  0  0  0
  2  7  1  0  0  0  0
  3  4  1  0  0  0  0
  4  5  2  0  0  0  0
  5  6  1  0  0  0  0
  6  7  2  0  0  0  0
  9 16  1  0  0  0  0
 10 21  1  0  0  0  0
 11 13  1  1  0  0  0
 11 17  1  0  0  0  0
 11 20  2  0  0  0  0
 11 31  1  0  0  0  0
 12 16  2  0  0  0  0
 12 28  1  0  0  0  0
 15 26  1  0  0  0  0
 15 18  1  0  0  0  0
 16 19  1  0  0  0  0
 18 30  1  0  0  0  0
 19 22  2  0  0  0  0
 21 18  1  6  0  0  0
 21 24  1  0  0  0  0
 22 23  1  0  0  0  0
 22 25  1  0  0  0  0
 24 14  1  1  0  0  0
 24 27  1  0  0  0  0
 25 28  2  0  0  0  0
 25 30  1  0  0  0  0
 27 29  1  0  0  0  0
 29 31  1  0  0  0  0
M  CHG  1  17  -1
M  END
>  <CHROM.1>
-78.36230973,-79.42855398,-132.78939733,145.97388479,78.65857238,-18.46290936
-47.93381976,106.62605494,117.82044520,-124.62697126,-74.61347322,-61.33821985
4.29607283,16.66115877,51.33342702,0.14371622,-0.61571854,-2.63285445

>  <Name>
ligand

>  <RI>
0

>  <Rbt.Current_Directory>
/home/itssahil/PROJECTS/Mol_Feturizer/New_Systems/rnas/2HOO

>  <Rbt.Executable>
rbdock ($Id: //depot/dev/client3/rdock/2013.1/src/exe/rbdock.cxx#4 $)

>  <Rbt.Library>
libRbt.so (2013.1, Build901 2013/11/27)

>  <Rbt.Parameter_File>
/export/apps/rDock/src/rDock_2013.1_src/data/scripts/dock_solv.prm

>  <Rbt.Receptor>
prm/blind_docking_60.prm

>  <SCORE>
-25.1107

>  <SCORE.INTER>
-17.5423

>  <SCORE.INTER.CONST>
1

>  <SCORE.INTER.POLAR>
0

>  <SCORE.INTER.ROT>
12

>  <SCORE.INTER.SOLV>
20.0293

>  <SCORE.INTER.VDW>
-29.9713

>  <SCORE.INTER.norm>
-0.565881

>  <SCORE.INTRA>
-7.56983

>  <SCORE.INTRA.DIHEDRAL>
8.39749

>  <SCORE.INTRA.DIHEDRAL.0>
14.6094

>  <SCORE.INTRA.POLAR>
0

>  <SCORE.INTRA.POLAR.0>
0

>  <SCORE.INTRA.REPUL>
0

>  <SCORE.INTRA.REPUL.0>
0

>  <SCORE.INTRA.SOLV>
2.4617

>  <SCORE.INTRA.SOLV.lig_0>
-65.6478

>  <SCORE.INTRA.VDW>
-12.9994

>  <SCORE.INTRA.VDW.0>
9.35535

>  <SCORE.INTRA.norm>
-0.244188

>  <SCORE.RESTR>
0.00142621

>  <SCORE.RESTR.CAVITY>
0.00142621

>  <SCORE.RESTR.norm>
4.60067e-05

>  <SCORE.SYSTEM>
0

>  <SCORE.SYSTEM.CONST>
0

>  <SCORE.SYSTEM.DIHEDRAL>
0

>  <SCORE.SYSTEM.SOLV>
0

>  <SCORE.SYSTEM.norm>
0

>  <SCORE.heavy>
31

>  <SCORE.norm>
-0.810023

>  <RMSD>
8.063

$$$$
ligand
 OpenBabel11021811443D
libRbt.so/2013.1/901 2013/11/27
 31 32  0  0  0  0  0  0  0  0999 V2000
   10.1319   20.1491   53.5960 C   0  0  0  0  0  0  0  0  0  0  0  0
   11.5081   19.7055   54.0832 C   0  0  0  0  0  0  0  0  0  0  0  0
   12.4638   20.6791   54.5204 C   0  0  0  0  0  0  0  0  0  0  0  0
   13.7401   20.2616   54.9681 C   0  0  0  0  0  0  0  0  0  0  0  0
   14.0786   18.8865   54.9943 C   0  0  0  0  0  0  0  0  0  0  0  0
   13.1486   17.9142   54.5736 C   0  0  0  0  0  0  0  0  0  0  0  0
   11.8759   18.3090   54.1236 C   0  0  0  0  0  0  0  0  0  0  0  0
    9.5637   21.0959   54.1393 O   0  0  0  0  0  0  0  0  0  0  0  0
    0.0298   21.2948   55.3244 C   0  0  0  0  0  0  0  0  0  0  0  0
    7.9971   17.8574   54.9084 C   0  0  0  0  0  0  0  0  0  0  0  0
    7.3694   16.9352   48.3590 P   0  0  1  0  0  0  0  0  0  0  0  0
    2.1977   21.3061   54.3073 N   0  0  0  0  0  0  0  0  0  0  0  0
    8.4861   15.9719   48.3156 O   0  0  0  0  0  0  0  0  0  0  0  0
    9.5108   19.4955   52.5459 S   0  0  0  0  0  0  0  0  0  0  0  0
    6.2126   20.6482   54.6000 C   0  0  0  0  0  0  0  0  0  0  0  0
    1.2272   20.5598   54.9370 C   0  0  0  0  0  0  0  0  0  0  0  0
    7.7834   18.3643   48.3392 O   0  5  0  0  0  0  0  0  0  0  0  0
    6.1269   19.3505   54.2159 N   0  0  0  0  0  0  0  0  0  0  0  0
    1.3335   19.2921   55.1854 N   0  0  0  0  0  0  0  0  0  0  0  0
    6.3628   16.5990   47.3256 O   0  0  0  0  0  0  0  0  0  0  0  0
    7.4025   18.7274   53.8342 C   0  0  2  0  0  0  0  0  0  0  0  0
    2.4744   18.6028   54.8214 C   0  0  0  0  0  0  0  0  0  0  0  0
    2.5512   17.2986   55.0971 N   0  0  0  0  0  0  0  0  0  0  0  0
    8.0965   18.8548   52.5563 C   0  0  1  0  0  0  0  0  0  0  0  0
    3.5502   19.3232   54.1586 C   0  0  0  0  0  0  0  0  0  0  0  0
    6.2225   21.4114   53.6593 O   0  0  0  0  0  0  0  0  0  0  0  0
    7.5312   18.4201   51.2508 C   0  0  0  0  0  0  0  0  0  0  0  0
    3.3339   20.6675   53.9328 C   0  0  0  0  0  0  0  0  0  0  0  0
    7.1945   17.0070   51.0371 C   0  0  0  0  0  0  0  0  0  0  0  0
    4.8375   18.6341   53.7766 C   0  0  0  0  0  0  0  0  0  0  0  0
    6.6227   16.8072   49.7326 O   0  0  0  0  0  0  0  0  0  0  0  0
  1  2  1  0  0  0  0
  1  8  2  0  0  0  0
  1 14  1  0  0  0  0
  2  3  2  0  0  0  0
  2  7  1  0  0  0  0
  3  4  1  0  0  0  0
  4  5  2  0  0  0  0
  5  6  1  0  0  0  0
  6  7  2  0  0  0  0
  9 16  1  0  0  0  0
 10 21  1  0  0  0  0
 11 13  1  6  0  0  0
 11 17  1  0  0  0  0
 11 20  2  0  0  0  0
 11 31  1  0  0  0  0
 12 16  2  0  0  0  0
 12 28  1  0  0  0  0
 15 26  1  0  0  0  0
 15 18  1  0  0  0  0
 16 19  1  0  0  0  0
 18 30  1  0  0  0  0
 19 22  2  0  0  0  0
 21 18  1  6  0  0  0
 21 24  1  0  0  0  0
 22 23  1  0  0  0  0
 22 25  1  0  0  0  0
 24 14  1  6  0  0  0
 24 27  1  0  0  0  0
 25 28  2  0  0  0  0
 25 30  1  0  0  0  0
 27 29  1  0  0  0  0
 29 31  1  0  0  0  0
M  CHG  1  17  -1
M  END
>  <CHROM.1>
-36.84269189,124.90472636,-10.18526925,82.83003499,100.79840696,-17.05571855
-63.06480760,119.24214034,-130.07913284,178.04337517,68.77847070,59.85720253
7.14050224,18.94763273,52.80817791,-0.21546131,-0.01732158,1.09892036

>  <Name>
ligand

>  <RI>
0

>  <Rbt.Current_Directory>
/home/itssahil/PROJECTS/Mol_Feturizer/New_Systems/rnas/2HOO

>  <Rbt.Executable>
rbdock ($Id: //depot/dev/client3/rdock/2013.1/src/exe/rbdock.cxx#4 $)

>  <Rbt.Library>
libRbt.so (2013.1, Build901 2013/11/27)

>  <Rbt.Parameter_File>
/export/apps/rDock/src/rDock_2013.1_src/data/scripts/dock_solv.prm

>  <Rbt.Receptor>
prm/pocket_docking_3.prm

>  <SCORE>
-30.1742

>  <SCORE.INTER>
-18.0193

>  <SCORE.INTER.CONST>
1

>  <SCORE.INTER.POLAR>
0

>  <SCORE.INTER.ROT>
12

>  <SCORE.INTER.SOLV>
14.1201

>  <SCORE.INTER.VDW>
-28.3196

>  <SCORE.INTER.norm>
-0.581268

>  <SCORE.INTRA>
-12.5383

>  <SCORE.INTRA.DIHEDRAL>
-0.28961

>  <SCORE.INTRA.DIHEDRAL.0>
14.6094

>  <SCORE.INTRA.POLAR>
0

>  <SCORE.INTRA.POLAR.0>
0

>  <SCORE.INTRA.REPUL>
0

>  <SCORE.INTRA.REPUL.0>
0

>  <SCORE.INTRA.SOLV>
1.43637

>  <SCORE.INTRA.SOLV.lig_0>
-65.6478

>  <SCORE.INTRA.VDW>
-13.1116

>  <SCORE.INTRA.VDW.0>
9.35535

>  <SCORE.INTRA.norm>
-0.40446

>  <SCORE.RESTR>
0.383404

>  <SCORE.RESTR.CAVITY>
0.383404

>  <SCORE.RESTR.norm>
0.0123679

>  <SCORE.SYSTEM>
0

>  <SCORE.SYSTEM.CONST>
0

>  <SCORE.SYSTEM.DIHEDRAL>
0

>  <SCORE.SYSTEM.SOLV>
0

>  <SCORE.SYSTEM.norm>
0

>  <SCORE.heavy>
31

>  <SCORE.norm>
-0.97336

>  <RMSD>
8.081

$$$$
ligand
 OpenBabel11021811443D
libRbt.so/2013.1/901 2013/11/27
 31 32  0  0  0  0  0  0  0  0999 V2000
    8.5373   21.7063   52.9513 C   0  0  0  0  0  0  0  0  0  0  0  0
    9.8863   21.3059   53.5412 C   0  0  0  0  0  0  0  0  0  0  0  0
   10.2709   19.9266   53.5840 C   0  0  0  0  0  0  0  0  0  0  0  0
   11.5223   19.5611   54.1356 C   0  0  0  0  0  0  0  0  0  0  0  0
   12.4022   20.5498   54.6400 C   0  0  0  0  0  0  0  0  0  0  0  0
   12.0428   21.9124   54.6005 C   0  0  0  0  0  0  0  0  0  0  0  0
   10.8030   22.2956   54.0581 C   0  0  0  0  0  0  0  0  0  0  0  0
    8.4820   22.5660   52.0725 O   0  0  0  0  0  0  0  0  0  0  0  0
    0.9581   15.4125   53.0057 C   0  0  0  0  0  0  0  0  0  0  0  0
    4.6816   23.1389   52.7205 C   0  0  0  0  0  0  0  0  0  0  0  0
    8.1736   19.0768   48.2740 P   0  0  1  0  0  0  0  0  0  0  0  0
    1.0032   17.5066   54.1662 N   0  0  0  0  0  0  0  0  0  0  0  0
    9.3295   19.9752   48.4568 O   0  0  0  0  0  0  0  0  0  0  0  0
    7.3688   21.1124   53.3957 S   0  0  0  0  0  0  0  0  0  0  0  0
    4.0377   21.2893   55.2967 C   0  0  0  0  0  0  0  0  0  0  0  0
    1.3430   16.8180   53.0236 C   0  0  0  0  0  0  0  0  0  0  0  0
    7.4421   19.2621   46.9916 O   0  5  0  0  0  0  0  0  0  0  0  0
    3.8035   21.1685   53.9665 N   0  0  0  0  0  0  0  0  0  0  0  0
    1.9611   17.3465   52.0143 N   0  0  0  0  0  0  0  0  0  0  0  0
    8.5712   17.6726   48.5280 O   0  0  0  0  0  0  0  0  0  0  0  0
    4.8653   21.6934   53.0959 C   0  0  2  0  0  0  0  0  0  0  0  0
    2.3292   18.6781   52.0407 C   0  0  0  0  0  0  0  0  0  0  0  0
    2.9685   19.1880   50.9851 N   0  0  0  0  0  0  0  0  0  0  0  0
    6.0382   20.9747   52.6073 C   0  0  1  0  0  0  0  0  0  0  0  0
    2.0130   19.4722   53.2177 C   0  0  0  0  0  0  0  0  0  0  0  0
    3.7078   20.3030   55.9179 O   0  0  0  0  0  0  0  0  0  0  0  0
    6.0487   20.1220   51.3884 C   0  0  0  0  0  0  0  0  0  0  0  0
    1.3459   18.8171   54.2328 C   0  0  0  0  0  0  0  0  0  0  0  0
    7.3158   19.8575   50.6954 C   0  0  0  0  0  0  0  0  0  0  0  0
    2.4278   20.9196   53.3226 C   0  0  0  0  0  0  0  0  0  0  0  0
    7.0807   19.4068   49.3499 O   0  0  0  0  0  0  0  0  0  0  0  0
  1  2  1  0  0  0  0
  1  8  2  0  0  0  0
  1 14  1  0  0  0  0
  2  3  2  0  0  0  0
  2  7  1  0  0  0  0
  3  4  1  0  0  0  0
  4  5  2  0  0  0  0
  5  6  1  0  0  0  0
  6  7  2  0  0  0  0
  9 16  1  0  0  0  0
 10 21  1  0  0  0  0
 11 13  1  1  0  0  0
 11 17  1  0  0  0  0
 11 20  2  0  0  0  0
 11 31  1  0  0  0  0
 12 16  2  0  0  0  0
 12 28  1  0  0  0  0
 15 26  1  0  0  0  0
 15 18  1  0  0  0  0
 16 19  1  0  0  0  0
 18 30  1  0  0  0  0
 19 22  2  0  0  0  0
 21 18  1  1  0  0  0
 21 24  1  0  0  0  0
 22 23  1  0  0  0  0
 22 25  1  0  0  0  0
 24 14  1  6  0  0  0
 24 27  1  0  0  0  0
 25 28  2  0  0  0  0
 25 30  1  0  0  0  0
 27 29  1  0  0  0  0
 29 31  1  0  0  0  0
M  CHG  1  17  -1
M  END
>  <CHROM.1>
-127.43207394,-155.18542740,-114.31779708,-138.71594426,-90.64777596,-86.27499280
83.61543448,-22.38161431,-90.66947417,-161.22174809,177.40991994,-33.57253771
6.17189673,19.96326144,52.22817523,-0.05888734,0.30288799,1.14826553

>  <Name>
ligand

>  <RI>
0

>  <Rbt.Current_Directory>
/home/itssahil/PROJECTS/Mol_Feturizer/New_Systems/rnas/2HOO

>  <Rbt.Executable>
rbdock ($Id: //depot/dev/client3/rdock/2013.1/src/exe/rbdock.cxx#4 $)

>  <Rbt.Library>
libRbt.so (2013.1, Build901 2013/11/27)

>  <Rbt.Parameter_File>
/export/apps/rDock/src/rDock_2013.1_src/data/scripts/dock_solv.prm

>  <Rbt.Receptor>
prm/pocket_docking_3.prm

>  <SCORE>
-24.1767

>  <SCORE.INTER>
-14.3653

>  <SCORE.INTER.CONST>
1

>  <SCORE.INTER.POLAR>
0

>  <SCORE.INTER.ROT>
12

>  <SCORE.INTER.SOLV>
15.7145

>  <SCORE.INTER.VDW>
-26.4151

>  <SCORE.INTER.norm>
-0.463398

>  <SCORE.INTRA>
-10.4454

>  <SCORE.INTRA.DIHEDRAL>
1.39873

>  <SCORE.INTRA.DIHEDRAL.0>
14.6094

>  <SCORE.INTRA.POLAR>
0

>  <SCORE.INTRA.POLAR.0>
0

>  <SCORE.INTRA.REPUL>
0.0128276

>  <SCORE.INTRA.REPUL.0>
0

>  <SCORE.INTRA.SOLV>
3.16312

>  <SCORE.INTRA.SOLV.lig_0>
-65.6478

>  <SCORE.INTRA.VDW>
-12.7905

>  <SCORE.INTRA.VDW.0>
9.35535

>  <SCORE.INTRA.norm>
-0.33695

>  <SCORE.RESTR>
0.634119

>  <SCORE.RESTR.CAVITY>
0.634119

>  <SCORE.RESTR.norm>
0.0204555

>  <SCORE.SYSTEM>
0

>  <SCORE.SYSTEM.CONST>
0

>  <SCORE.SYSTEM.DIHEDRAL>
0

>  <SCORE.SYSTEM.SOLV>
0

>  <SCORE.SYSTEM.norm>
0

>  <SCORE.heavy>
31

>  <SCORE.norm>
-0.779892

>  <RMSD>
8.091

$$$$
ligand
 OpenBabel11021811443D
libRbt.so/2013.1/901 2013/11/27
 31 32  0  0  0  0  0  0  0  0999 V2000
    9.6423   19.7865   52.9574 C   0  0  0  0  0  0  0  0  0  0  0  0
    9.4143   21.2950   52.9362 C   0  0  0  0  0  0  0  0  0  0  0  0
    8.5554   21.8781   51.9490 C   0  0  0  0  0  0  0  0  0  0  0  0
    8.3505   23.2786   51.9323 C   0  0  0  0  0  0  0  0  0  0  0  0
    8.9830   24.1093   52.8895 C   0  0  0  0  0  0  0  0  0  0  0  0
    9.8266   23.5522   53.8719 C   0  0  0  0  0  0  0  0  0  0  0  0
   10.0443   22.1631   53.9040 C   0  0  0  0  0  0  0  0  0  0  0  0
   10.7243   19.3339   53.3299 O   0  0  0  0  0  0  0  0  0  0  0  0
    1.0483   14.8234   49.7750 C   0  0  0  0  0  0  0  0  0  0  0  0
    5.9640   20.7444   53.7043 C   0  0  0  0  0  0  0  0  0  0  0  0
    7.3151   19.0453   47.3741 P   0  0  1  0  0  0  0  0  0  0  0  0
    2.9975   16.0751   50.3815 N   0  0  0  0  0  0  0  0  0  0  0  0
    6.8819   19.6659   46.1076 O   0  0  0  0  0  0  0  0  0  0  0  0
    8.6423   18.9163   52.5594 S   0  0  0  0  0  0  0  0  0  0  0  0
    5.6077   17.4957   54.2575 C   0  0  0  0  0  0  0  0  0  0  0  0
    1.6742   15.8068   50.6498 C   0  0  0  0  0  0  0  0  0  0  0  0
    7.6198   17.5919   47.2788 O   0  5  0  0  0  0  0  0  0  0  0  0
    5.1631   18.4105   53.3606 N   0  0  0  0  0  0  0  0  0  0  0  0
    0.9985   16.3677   51.6031 N   0  0  0  0  0  0  0  0  0  0  0  0
    8.4074   19.8375   47.9852 O   0  0  0  0  0  0  0  0  0  0  0  0
    6.1430   19.4379   52.9795 C   0  0  2  0  0  0  0  0  0  0  0  0
    1.5963   17.3043   52.4246 C   0  0  0  0  0  0  0  0  0  0  0  0
    0.8687   17.8651   53.3937 N   0  0  0  0  0  0  0  0  0  0  0  0
    7.2365   19.2991   52.0225 C   0  0  1  0  0  0  0  0  0  0  0  0
    2.9914   17.6490   52.1998 C   0  0  0  0  0  0  0  0  0  0  0  0
    6.5170   16.8233   53.8232 O   0  0  0  0  0  0  0  0  0  0  0  0
    7.0974   19.5131   50.5570 C   0  0  0  0  0  0  0  0  0  0  0  0
    3.6225   16.9886   51.1652 C   0  0  0  0  0  0  0  0  0  0  0  0
    6.1864   18.6634   49.7800 C   0  0  0  0  0  0  0  0  0  0  0  0
    3.6859   18.6959   53.0362 C   0  0  0  0  0  0  0  0  0  0  0  0
    6.1349   19.0874   48.4066 O   0  0  0  0  0  0  0  0  0  0  0  0
  1  2  1  0  0  0  0
  1  8  2  0  0  0  0
  1 14  1  0  0  0  0
  2  3  2  0  0  0  0
  2  7  1  0  0  0  0
  3  4  1  0  0  0  0
  4  5  2  0  0  0  0
  5  6  1  0  0  0  0
  6  7  2  0  0  0  0
  9 16  1  0  0  0  0
 10 21  1  0  0  0  0
 11 13  1  6  0  0  0
 11 17  1  0  0  0  0
 11 20  2  0  0  0  0
 11 31  1  0  0  0  0
 12 16  2  0  0  0  0
 12 28  1  0  0  0  0
 15 26  1  0  0  0  0
 15 18  1  0  0  0  0
 16 19  1  0  0  0  0
 18 30  1  0  0  0  0
 19 22  2  0  0  0  0
 21 18  1  1  0  0  0
 21 24  1  0  0  0  0
 22 23  1  0  0  0  0
 22 25  1  0  0  0  0
 24 14  1  1  0  0  0
 24 27  1  0  0  0  0
 25 28  2  0  0  0  0
 25 30  1  0  0  0  0
 27 29  1  0  0  0  0
 29 31  1  0  0  0  0
M  CHG  1  17  -1
M  END
>  <CHROM.1>
147.91086582,1.85456428,-90.70334067,-63.88740609,-99.39518734,-74.27020451
84.30135975,118.98582072,143.57401174,176.33610438,65.24231662,-175.61469823
6.26517642,18.99608127,51.35253074,0.23313149,0.57080373,1.38350512

>  <Name>
ligand

>  <RI>
0

>  <Rbt.Current_Directory>
/home/itssahil/PROJECTS/Mol_Feturizer/New_Systems/rnas/2HOO

>  <Rbt.Executable>
rbdock ($Id: //depot/dev/client3/rdock/2013.1/src/exe/rbdock.cxx#4 $)

>  <Rbt.Library>
libRbt.so (2013.1, Build901 2013/11/27)

>  <Rbt.Parameter_File>
/export/apps/rDock/src/rDock_2013.1_src/data/scripts/dock_solv.prm

>  <Rbt.Receptor>
prm/blind_docking_60.prm

>  <SCORE>
-28.3377

>  <SCORE.INTER>
-14.9321

>  <SCORE.INTER.CONST>
1

>  <SCORE.INTER.POLAR>
0

>  <SCORE.INTER.ROT>
12

>  <SCORE.INTER.SOLV>
13.6063

>  <SCORE.INTER.VDW>
-26.0902

>  <SCORE.INTER.norm>
-0.481681

>  <SCORE.INTRA>
-13.5858

>  <SCORE.INTRA.DIHEDRAL>
-1.86488

>  <SCORE.INTRA.DIHEDRAL.0>
14.6094

>  <SCORE.INTRA.POLAR>
0

>  <SCORE.INTRA.POLAR.0>
0

>  <SCORE.INTRA.REPUL>
0

>  <SCORE.INTRA.REPUL.0>
0

>  <SCORE.INTRA.SOLV>
1.06424

>  <SCORE.INTRA.SOLV.lig_0>
-65.6478

>  <SCORE.INTRA.VDW>
-13.1855

>  <SCORE.INTRA.VDW.0>
9.35535

>  <SCORE.INTRA.norm>
-0.438252

>  <SCORE.RESTR>
0.180229

>  <SCORE.RESTR.CAVITY>
0.180229

>  <SCORE.RESTR.norm>
0.00581385

>  <SCORE.SYSTEM>
0

>  <SCORE.SYSTEM.CONST>
0

>  <SCORE.SYSTEM.DIHEDRAL>
0

>  <SCORE.SYSTEM.SOLV>
0

>  <SCORE.SYSTEM.norm>
0

>  <SCORE.heavy>
31

>  <SCORE.norm>
-0.914119

>  <RMSD>
8.097

$$$$
ligand
 OpenBabel11021811443D
libRbt.so/2013.1/901 2013/11/27
 31 32  0  0  0  0  0  0  0  0999 V2000
    9.8989   19.5641   52.7823 C   0  0  0  0  0  0  0  0  0  0  0  0
   11.1991   19.5293   53.5800 C   0  0  0  0  0  0  0  0  0  0  0  0
   11.9043   18.2941   53.7509 C   0  0  0  0  0  0  0  0  0  0  0  0
   13.1083   18.2677   54.4949 C   0  0  0  0  0  0  0  0  0  0  0  0
   13.6264   19.4553   55.0669 C   0  0  0  0  0  0  0  0  0  0  0  0
   12.9489   20.6808   54.9037 C   0  0  0  0  0  0  0  0  0  0  0  0
   11.7503   20.7275   54.1696 C   0  0  0  0  0  0  0  0  0  0  0  0
    9.6418   18.6609   51.9869 O   0  0  0  0  0  0  0  0  0  0  0  0
    1.2189   15.1455   50.2915 C   0  0  0  0  0  0  0  0  0  0  0  0
    8.0630   19.9512   49.6355 C   0  0  0  0  0  0  0  0  0  0  0  0
    7.8983   25.5445   52.5564 P   0  0  1  0  0  0  0  0  0  0  0  0
    1.8963   17.3227   51.0233 N   0  0  0  0  0  0  0  0  0  0  0  0
    9.3011   25.2682   52.9206 O   0  0  0  0  0  0  0  0  0  0  0  0
    9.0009   20.6051   52.9420 S   0  0  0  0  0  0  0  0  0  0  0  0
    6.3718   18.3112   52.2422 C   0  0  0  0  0  0  0  0  0  0  0  0
    2.2075   16.2161   50.2658 C   0  0  0  0  0  0  0  0  0  0  0  0
    7.3619   26.8268   53.0877 O   0  5  0  0  0  0  0  0  0  0  0  0
    6.2763   19.1283   51.1641 N   0  0  0  0  0  0  0  0  0  0  0  0
    3.2920   16.0971   49.5660 N   0  0  0  0  0  0  0  0  0  0  0  0
    7.7077   25.3860   51.0960 O   0  0  0  0  0  0  0  0  0  0  0  0
    7.4019   20.0563   50.9831 C   0  0  2  0  0  0  0  0  0  0  0  0
    4.2283   17.1132   49.5514 C   0  0  0  0  0  0  0  0  0  0  0  0
    5.3359   16.9545   48.8228 N   0  0  0  0  0  0  0  0  0  0  0  0
    7.8947   21.0398   51.9427 C   0  0  1  0  0  0  0  0  0  0  0  0
    3.9763   18.3133   50.3338 C   0  0  0  0  0  0  0  0  0  0  0  0
    6.3641   17.1386   51.9384 O   0  0  0  0  0  0  0  0  0  0  0  0
    7.3964   22.4382   52.0374 C   0  0  0  0  0  0  0  0  0  0  0  0
    2.7887   18.3437   51.0362 C   0  0  0  0  0  0  0  0  0  0  0  0
    7.2383   23.0675   53.3545 C   0  0  0  0  0  0  0  0  0  0  0  0
    4.9813   19.4377   50.3920 C   0  0  0  0  0  0  0  0  0  0  0  0
    6.9654   24.4735   53.2222 O   0  0  0  0  0  0  0  0  0  0  0  0
  1  2  1  0  0  0  0
  1  8  2  0  0  0  0
  1 14  1  0  0  0  0
  2  3  2  0  0  0  0
  2  7  1  0  0  0  0
  3  4  1  0  0  0  0
  4  5  2  0  0  0  0
  5  6  1  0  0  0  0
  6  7  2  0  0  0  0
  9 16  1  0  0  0  0
 10 21  1  0  0  0  0
 11 13  1  1  0  0  0
 11 17  1  0  0  0  0
 11 20  2  0  0  0  0
 11 31  1  0  0  0  0
 12 16  2  0  0  0  0
 12 28  1  0  0  0  0
 15 26  1  0  0  0  0
 15 18  1  0  0  0  0
 16 19  1  0  0  0  0
 18 30  1  0  0  0  0
 19 22  2  0  0  0  0
 21 18  1  6  0  0  0
 21 24  1  0  0  0  0
 22 23  1  0  0  0  0
 22 25  1  0  0  0  0
 24 14  1  1  0  0  0
 24 27  1  0  0  0  0
 25 28  2  0  0  0  0
 25 30  1  0  0  0  0
 27 29  1  0  0  0  0
 29 31  1  0  0  0  0
M  CHG  1  17  -1
M  END
>  <CHROM.1>
-20.26958658,159.32073341,23.23523543,-120.33375446,124.38973566,-32.56327592
-90.91912068,-37.76372663,-69.88121721,170.34059869,-61.03628066,-39.71970109
7.40522700,20.33146657,51.99986410,-0.72587952,0.38461358,-3.06613423

>  <Name>
ligand

>  <RI>
0

>  <Rbt.Current_Directory>
/home/itssahil/PROJECTS/Mol_Feturizer/New_Systems/rnas/2HOO

>  <Rbt.Executable>
rbdock ($Id: //depot/dev/client3/rdock/2013.1/src/exe/rbdock.cxx#4 $)

>  <Rbt.Library>
libRbt.so (2013.1, Build901 2013/11/27)

>  <Rbt.Parameter_File>
/export/apps/rDock/src/rDock_2013.1_src/data/scripts/dock_solv.prm

>  <Rbt.Receptor>
prm/blind_docking_80.prm

>  <SCORE>
-38.5851

>  <SCORE.INTER>
-28.7501

>  <SCORE.INTER.CONST>
1

>  <SCORE.INTER.POLAR>
0

>  <SCORE.INTER.ROT>
12

>  <SCORE.INTER.SOLV>
26.572

>  <SCORE.INTER.VDW>
-39.6241

>  <SCORE.INTER.norm>
-0.927424

>  <SCORE.INTRA>
-9.83491

>  <SCORE.INTRA.DIHEDRAL>
0.569946

>  <SCORE.INTRA.DIHEDRAL.0>
14.6094

>  <SCORE.INTRA.POLAR>
0

>  <SCORE.INTRA.POLAR.0>
0

>  <SCORE.INTRA.REPUL>
0

>  <SCORE.INTRA.REPUL.0>
0

>  <SCORE.INTRA.SOLV>
4.96801

>  <SCORE.INTRA.SOLV.lig_0>
-65.6478

>  <SCORE.INTRA.VDW>
-12.6039

>  <SCORE.INTRA.VDW.0>
9.35535

>  <SCORE.INTRA.norm>
-0.317255

>  <SCORE.RESTR>
0

>  <SCORE.RESTR.CAVITY>
0

>  <SCORE.RESTR.norm>
0

>  <SCORE.SYSTEM>
0

>  <SCORE.SYSTEM.CONST>
0

>  <SCORE.SYSTEM.DIHEDRAL>
0

>  <SCORE.SYSTEM.SOLV>
0

>  <SCORE.SYSTEM.norm>
0

>  <SCORE.heavy>
31

>  <SCORE.norm>
-1.24468

>  <RMSD>
8.103

$$$$
ligand
 OpenBabel11021811443D
libRbt.so/2013.1/901 2013/11/27
 31 32  0  0  0  0  0  0  0  0999 V2000
    6.8996   21.9087   51.9510 C   0  0  0  0  0  0  0  0  0  0  0  0
    7.0917   23.3346   52.4588 C   0  0  0  0  0  0  0  0  0  0  0  0
    7.3535   24.3973   51.5346 C   0  0  0  0  0  0  0  0  0  0  0  0
    7.5342   25.7176   52.0121 C   0  0  0  0  0  0  0  0  0  0  0  0
    7.4511   25.9987   53.3978 C   0  0  0  0  0  0  0  0  0  0  0  0
    7.1881   24.9664   54.3211 C   0  0  0  0  0  0  0  0  0  0  0  0
    7.0075   23.6478   53.8667 C   0  0  0  0  0  0  0  0  0  0  0  0
    7.6692   21.4477   51.1086 O   0  0  0  0  0  0  0  0  0  0  0  0
    1.9053   14.2497   51.5226 C   0  0  0  0  0  0  0  0  0  0  0  0
    2.8011   22.3645   51.2680 C   0  0  0  0  0  0  0  0  0  0  0  0
    5.7656   15.9406   49.6244 P   0  0  1  0  0  0  0  0  0  0  0  0
    1.9096   16.5247   50.7753 N   0  0  0  0  0  0  0  0  0  0  0  0
    6.9830   15.7379   50.4328 O   0  0  0  0  0  0  0  0  0  0  0  0
    5.8643   21.1235   52.4277 S   0  0  0  0  0  0  0  0  0  0  0  0
    2.5259   21.1582   54.2251 C   0  0  0  0  0  0  0  0  0  0  0  0
    1.7213   15.6620   51.8315 C   0  0  0  0  0  0  0  0  0  0  0  0
    5.9419   15.6953   48.1674 O   0  5  0  0  0  0  0  0  0  0  0  0
    2.3961   20.6114   52.9910 N   0  0  0  0  0  0  0  0  0  0  0  0
    1.4026   16.0401   53.0296 N   0  0  0  0  0  0  0  0  0  0  0  0
    4.6293   15.1954   50.2142 O   0  0  0  0  0  0  0  0  0  0  0  0
    3.3169   21.1401   51.9743 C   0  0  2  0  0  0  0  0  0  0  0  0
    1.2230   17.3803   53.3140 C   0  0  0  0  0  0  0  0  0  0  0  0
    0.8907   17.7332   54.5582 N   0  0  0  0  0  0  0  0  0  0  0  0
    4.6348   20.6189   51.6246 C   0  0  1  0  0  0  0  0  0  0  0  0
    1.3958   18.3550   52.2482 C   0  0  0  0  0  0  0  0  0  0  0  0
    3.5827   20.8796   54.7478 O   0  0  0  0  0  0  0  0  0  0  0  0
    4.8839   19.6384   50.5340 C   0  0  0  0  0  0  0  0  0  0  0  0
    1.7434   17.8497   51.0118 C   0  0  0  0  0  0  0  0  0  0  0  0
    5.0510   18.2160   50.8575 C   0  0  0  0  0  0  0  0  0  0  0  0
    1.1706   19.8280   52.4875 C   0  0  0  0  0  0  0  0  0  0  0  0
    5.3505   17.4526   49.6759 O   0  0  0  0  0  0  0  0  0  0  0  0
  1  2  1  0  0  0  0
  1  8  2  0  0  0  0
  1 14  1  0  0  0  0
  2  3  2  0  0  0  0
  2  7  1  0  0  0  0
  3  4  1  0  0  0  0
  4  5  2  0  0  0  0
  5  6  1  0  0  0  0
  6  7  2  0  0  0  0
  9 16  1  0  0  0  0
 10 21  1  0  0  0  0
 11 13  1  1  0  0  0
 11 17  1  0  0  0  0
 11 20  2  0  0  0  0
 11 31  1  0  0  0  0
 12 16  2  0  0  0  0
 12 28  1  0  0  0  0
 15 26  1  0  0  0  0
 15 18  1  0  0  0  0
 16 19  1  0  0  0  0
 18 30  1  0  0  0  0
 19 22  2  0  0  0  0
 21 18  1  1  0  0  0
 21 24  1  0  0  0  0
 22 23  1  0  0  0  0
 22 25  1  0  0  0  0
 24 14  1  6  0  0  0
 24 27  1  0  0  0  0
 25 28  2  0  0  0  0
 25 30  1  0  0  0  0
 27 29  1  0  0  0  0
 29 31  1  0  0  0  0
M  CHG  1  17  -1
M  END
>  <CHROM.1>
45.17230828,113.10382186,-112.61803411,-66.90603956,-87.30540254,-111.91186301
91.35931651,81.20505106,87.95061858,-176.98407027,172.16111926,-57.93886183
4.46442605,19.46026105,51.81313016,-1.12514420,-0.47541270,-2.70243248

>  <Name>
ligand

>  <RI>
0

>  <Rbt.Current_Directory>
/home/itssahil/PROJECTS/Mol_Feturizer/New_Systems/rnas/2HOO

>  <Rbt.Executable>
rbdock ($Id: //depot/dev/client3/rdock/2013.1/src/exe/rbdock.cxx#4 $)

>  <Rbt.Library>
libRbt.so (2013.1, Build901 2013/11/27)

>  <Rbt.Parameter_File>
/export/apps/rDock/src/rDock_2013.1_src/data/scripts/dock_solv.prm

>  <Rbt.Receptor>
prm/pocket_docking_5.prm

>  <SCORE>
-26.5296

>  <SCORE.INTER>
-14.2256

>  <SCORE.INTER.CONST>
1

>  <SCORE.INTER.POLAR>
0

>  <SCORE.INTER.ROT>
12

>  <SCORE.INTER.SOLV>
10.9423

>  <SCORE.INTER.VDW>
-24.7312

>  <SCORE.INTER.norm>
-0.458891

>  <SCORE.INTRA>
-12.304

>  <SCORE.INTRA.DIHEDRAL>
3.68542

>  <SCORE.INTRA.DIHEDRAL.0>
14.6094

>  <SCORE.INTRA.POLAR>
0

>  <SCORE.INTRA.POLAR.0>
0

>  <SCORE.INTRA.REPUL>
0

>  <SCORE.INTRA.REPUL.0>
0

>  <SCORE.INTRA.SOLV>
2.59598

>  <SCORE.INTRA.SOLV.lig_0>
-65.6478

>  <SCORE.INTRA.VDW>
-15.4447

>  <SCORE.INTRA.VDW.0>
9.35535

>  <SCORE.INTRA.norm>
-0.396904

>  <SCORE.RESTR>
0

>  <SCORE.RESTR.CAVITY>
0

>  <SCORE.RESTR.norm>
0

>  <SCORE.SYSTEM>
0

>  <SCORE.SYSTEM.CONST>
0

>  <SCORE.SYSTEM.DIHEDRAL>
0

>  <SCORE.SYSTEM.SOLV>
0

>  <SCORE.SYSTEM.norm>
0

>  <SCORE.heavy>
31

>  <SCORE.norm>
-0.855795

>  <RMSD>
8.117

$$$$
ligand
 OpenBabel11021811443D
libRbt.so/2013.1/901 2013/11/27
 31 32  0  0  0  0  0  0  0  0999 V2000
    9.1365   20.5249   53.4500 C   0  0  0  0  0  0  0  0  0  0  0  0
   10.5618   20.1713   53.8643 C   0  0  0  0  0  0  0  0  0  0  0  0
   11.5123   21.2103   54.1273 C   0  0  0  0  0  0  0  0  0  0  0  0
   12.8340   20.8759   54.5080 C   0  0  0  0  0  0  0  0  0  0  0  0
   13.2236   19.5204   54.6384 C   0  0  0  0  0  0  0  0  0  0  0  0
   12.2998   18.4850   54.3896 C   0  0  0  0  0  0  0  0  0  0  0  0
   10.9824   18.7967   54.0084 C   0  0  0  0  0  0  0  0  0  0  0  0
    8.3688   21.0358   54.2648 O   0  0  0  0  0  0  0  0  0  0  0  0
   -0.8592   21.4263   54.6710 C   0  0  0  0  0  0  0  0  0  0  0  0
    7.3296   23.1807   51.9907 C   0  0  0  0  0  0  0  0  0  0  0  0
    7.4603   16.7886   48.0750 P   0  0  1  0  0  0  0  0  0  0  0  0
    0.6513   22.5473   53.1892 N   0  0  0  0  0  0  0  0  0  0  0  0
    8.5691   17.2831   47.2366 O   0  0  0  0  0  0  0  0  0  0  0  0
    8.6937   20.2756   52.1626 S   0  0  0  0  0  0  0  0  0  0  0  0
    5.3097   22.4843   53.9569 C   0  0  0  0  0  0  0  0  0  0  0  0
    0.4112   21.4300   53.9567 C   0  0  0  0  0  0  0  0  0  0  0  0
    6.2658   16.3311   47.3148 O   0  5  0  0  0  0  0  0  0  0  0  0
    5.3219   21.9050   52.7308 N   0  0  0  0  0  0  0  0  0  0  0  0
    1.2313   20.4318   54.0624 N   0  0  0  0  0  0  0  0  0  0  0  0
    7.9597   15.7876   49.0461 O   0  0  0  0  0  0  0  0  0  0  0  0
    6.6394   21.8467   52.0815 C   0  0  2  0  0  0  0  0  0  0  0  0
    2.4371   20.4449   53.3877 C   0  0  0  0  0  0  0  0  0  0  0  0
    3.2593   19.4015   53.5232 N   0  0  0  0  0  0  0  0  0  0  0  0
    7.3136   20.6600   51.5637 C   0  0  1  0  0  0  0  0  0  0  0  0
    2.7686   21.5952   52.5615 C   0  0  0  0  0  0  0  0  0  0  0  0
    4.8164   21.7710   54.8027 O   0  0  0  0  0  0  0  0  0  0  0  0
    6.7696   19.7934   50.4838 C   0  0  0  0  0  0  0  0  0  0  0  0
    1.8239   22.6000   52.5099 C   0  0  0  0  0  0  0  0  0  0  0  0
    7.6464   18.8218   49.8184 C   0  0  0  0  0  0  0  0  0  0  0  0
    4.0889   21.6861   51.8359 C   0  0  0  0  0  0  0  0  0  0  0  0
    6.8930   17.9684   48.9393 O   0  0  0  0  0  0  0  0  0  0  0  0
  1  2  1  0  0  0  0
  1  8  2  0  0  0  0
  1 14  1  0  0  0  0
  2  3  2  0  0  0  0
  2  7  1  0  0  0  0
  3  4  1  0  0  0  0
  4  5  2  0  0  0  0
  5  6  1  0  0  0  0
  6  7  2  0  0  0  0
  9 16  1  0  0  0  0
 10 21  1  0  0  0  0
 11 13  1  6  0  0  0
 11 17  1  0  0  0  0
 11 20  2  0  0  0  0
 11 31  1  0  0  0  0
 12 16  2  0  0  0  0
 12 28  1  0  0  0  0
 15 26  1  0  0  0  0
 15 18  1  0  0  0  0
 16 19  1  0  0  0  0
 18 30  1  0  0  0  0
 19 22  2  0  0  0  0
 21 18  1  1  0  0  0
 21 24  1  0  0  0  0
 22 23  1  0  0  0  0
 22 25  1  0  0  0  0
 24 14  1  6  0  0  0
 24 27  1  0  0  0  0
 25 28  2  0  0  0  0
 25 30  1  0  0  0  0
 27 29  1  0  0  0  0
 29 31  1  0  0  0  0
M  CHG  1  17  -1
M  END
>  <CHROM.1>
-69.78277715,-175.67433319,29.62443144,-125.64026594,-53.68349618,-25.24291211
58.93631972,-13.77676830,-70.39710299,172.32010262,-178.64263129,-54.31018579
6.55677358,20.04596109,52.07866239,-0.38326140,-0.13476582,0.94059087

>  <Name>
ligand

>  <RI>
0

>  <Rbt.Current_Directory>
/home/itssahil/PROJECTS/Mol_Feturizer/New_Systems/rnas/2HOO

>  <Rbt.Executable>
rbdock ($Id: //depot/dev/client3/rdock/2013.1/src/exe/rbdock.cxx#4 $)

>  <Rbt.Library>
libRbt.so (2013.1, Build901 2013/11/27)

>  <Rbt.Parameter_File>
/export/apps/rDock/src/rDock_2013.1_src/data/scripts/dock_solv.prm

>  <Rbt.Receptor>
prm/pocket_docking_3.prm

>  <SCORE>
-23.1659

>  <SCORE.INTER>
-13.6449

>  <SCORE.INTER.CONST>
1

>  <SCORE.INTER.POLAR>
0

>  <SCORE.INTER.ROT>
12

>  <SCORE.INTER.SOLV>
9.41985

>  <SCORE.INTER.VDW>
-23.8365

>  <SCORE.INTER.norm>
-0.440157

>  <SCORE.INTRA>
-9.52809

>  <SCORE.INTRA.DIHEDRAL>
-1.8475

>  <SCORE.INTRA.DIHEDRAL.0>
14.6094

>  <SCORE.INTRA.POLAR>
0

>  <SCORE.INTRA.POLAR.0>
0

>  <SCORE.INTRA.REPUL>
0

>  <SCORE.INTRA.REPUL.0>
0

>  <SCORE.INTRA.SOLV>
3.26389

>  <SCORE.INTRA.SOLV.lig_0>
-65.6478

>  <SCORE.INTRA.VDW>
-10.2363

>  <SCORE.INTRA.VDW.0>
9.35535

>  <SCORE.INTRA.norm>
-0.307358

>  <SCORE.RESTR>
0.00705085

>  <SCORE.RESTR.CAVITY>
0.00705085

>  <SCORE.RESTR.norm>
0.000227447

>  <SCORE.SYSTEM>
0

>  <SCORE.SYSTEM.CONST>
0

>  <SCORE.SYSTEM.DIHEDRAL>
0

>  <SCORE.SYSTEM.SOLV>
0

>  <SCORE.SYSTEM.norm>
0

>  <SCORE.heavy>
31

>  <SCORE.norm>
-0.747287

>  <RMSD>
8.128

$$$$
ligand
 OpenBabel11021811443D
libRbt.so/2013.1/901 2013/11/27
 31 32  0  0  0  0  0  0  0  0999 V2000
    7.0034   21.5457   51.9830 C   0  0  0  0  0  0  0  0  0  0  0  0
    7.5050   22.9762   52.1568 C   0  0  0  0  0  0  0  0  0  0  0  0
    6.6748   24.0799   51.7763 C   0  0  0  0  0  0  0  0  0  0  0  0
    7.1470   25.4046   51.9369 C   0  0  0  0  0  0  0  0  0  0  0  0
    8.4329   25.6490   52.4781 C   0  0  0  0  0  0  0  0  0  0  0  0
    9.2610   24.5753   52.8637 C   0  0  0  0  0  0  0  0  0  0  0  0
    8.8107   23.2517   52.7104 C   0  0  0  0  0  0  0  0  0  0  0  0
    7.0689   21.0013   50.8813 O   0  0  0  0  0  0  0  0  0  0  0  0
    0.2556   17.9000   59.0073 C   0  0  0  0  0  0  0  0  0  0  0  0
    4.3039   21.0375   55.2299 C   0  0  0  0  0  0  0  0  0  0  0  0
    6.2918   18.3469   49.2177 P   0  0  1  0  0  0  0  0  0  0  0  0
    0.8457   19.4636   57.2923 N   0  0  0  0  0  0  0  0  0  0  0  0
    7.3908   18.2442   50.1967 O   0  0  0  0  0  0  0  0  0  0  0  0
    6.4716   20.8495   53.0546 S   0  0  0  0  0  0  0  0  0  0  0  0
    2.1891   21.4597   52.7373 C   0  0  0  0  0  0  0  0  0  0  0  0
    0.6561   18.1418   57.6270 C   0  0  0  0  0  0  0  0  0  0  0  0
    6.6090   19.1623   48.0141 O   0  5  0  0  0  0  0  0  0  0  0  0
    2.6196   20.4242   53.4998 N   0  0  0  0  0  0  0  0  0  0  0  0
    0.8127   17.1543   56.8021 N   0  0  0  0  0  0  0  0  0  0  0  0
    5.7657   17.0002   48.8952 O   0  0  0  0  0  0  0  0  0  0  0  0
    4.0436   20.4663   53.8624 C   0  0  2  0  0  0  0  0  0  0  0  0
    1.1991   17.3901   55.4965 C   0  0  0  0  0  0  0  0  0  0  0  0
    1.3550   16.3487   54.6756 N   0  0  0  0  0  0  0  0  0  0  0  0
    5.1704   20.0022   53.0588 C   0  0  1  0  0  0  0  0  0  0  0  0
    1.4277   18.7610   55.0672 C   0  0  0  0  0  0  0  0  0  0  0  0
    1.2015   21.9929   53.1930 O   0  0  0  0  0  0  0  0  0  0  0  0
    5.1526   18.7691   52.2269 C   0  0  0  0  0  0  0  0  0  0  0  0
    1.2252   19.7389   56.0198 C   0  0  0  0  0  0  0  0  0  0  0  0
    4.3299   18.7220   51.0117 C   0  0  0  0  0  0  0  0  0  0  0  0
    1.8930   19.0777   53.6668 C   0  0  0  0  0  0  0  0  0  0  0  0
    5.0913   19.1259   49.8603 O   0  0  0  0  0  0  0  0  0  0  0  0
  1  2  1  0  0  0  0
  1  8  2  0  0  0  0
  1 14  1  0  0  0  0
  2  3  2  0  0  0  0
  2  7  1  0  0  0  0
  3  4  1  0  0  0  0
  4  5  2  0  0  0  0
  5  6  1  0  0  0  0
  6  7  2  0  0  0  0
  9 16  1  0  0  0  0
 10 21  1  0  0  0  0
 11 13  1  1  0  0  0
 11 17  1  0  0  0  0
 11 20  2  0  0  0  0
 11 31  1  0  0  0  0
 12 16  2  0  0  0  0
 12 28  1  0  0  0  0
 15 26  1  0  0  0  0
 15 18  1  0  0  0  0
 16 19  1  0  0  0  0
 18 30  1  0  0  0  0
 19 22  2  0  0  0  0
 21 18  1  1  0  0  0
 21 24  1  0  0  0  0
 22 23  1  0  0  0  0
 22 25  1  0  0  0  0
 24 14  1  6  0  0  0
 24 27  1  0  0  0  0
 25 28  2  0  0  0  0
 25 30  1  0  0  0  0
 27 29  1  0  0  0  0
 29 31  1  0  0  0  0
M  CHG  1  17  -1
M  END
>  <CHROM.1>
81.05426821,134.33274013,-113.28200575,-128.58937480,97.29133653,-117.08246430
-40.85697038,-109.42206001,-156.49112440,92.22598309,67.66498438,-62.20009684
4.57738457,20.10614513,52.88100968,-0.12924332,0.77235455,0.70219327

>  <Name>
ligand

>  <RI>
0

>  <Rbt.Current_Directory>
/home/itssahil/PROJECTS/Mol_Feturizer/New_Systems/rnas/2HOO

>  <Rbt.Executable>
rbdock ($Id: //depot/dev/client3/rdock/2013.1/src/exe/rbdock.cxx#4 $)

>  <Rbt.Library>
libRbt.so (2013.1, Build901 2013/11/27)

>  <Rbt.Parameter_File>
/export/apps/rDock/src/rDock_2013.1_src/data/scripts/dock_solv.prm

>  <Rbt.Receptor>
prm/pocket_docking_6.prm

>  <SCORE>
-23.9786

>  <SCORE.INTER>
-11.7653

>  <SCORE.INTER.CONST>
1

>  <SCORE.INTER.POLAR>
0

>  <SCORE.INTER.ROT>
12

>  <SCORE.INTER.SOLV>
11.9667

>  <SCORE.INTER.VDW>
-23.4325

>  <SCORE.INTER.norm>
-0.379526

>  <SCORE.INTRA>
-12.2133

>  <SCORE.INTRA.DIHEDRAL>
3.35559

>  <SCORE.INTRA.DIHEDRAL.0>
14.6094

>  <SCORE.INTRA.POLAR>
0

>  <SCORE.INTRA.POLAR.0>
0

>  <SCORE.INTRA.REPUL>
0

>  <SCORE.INTRA.REPUL.0>
0

>  <SCORE.INTRA.SOLV>
1.3556

>  <SCORE.INTRA.SOLV.lig_0>
-65.6478

>  <SCORE.INTRA.VDW>
-14.5688

>  <SCORE.INTRA.VDW.0>
9.35535

>  <SCORE.INTRA.norm>
-0.393976

>  <SCORE.RESTR>
0

>  <SCORE.RESTR.CAVITY>
0

>  <SCORE.RESTR.norm>
0

>  <SCORE.SYSTEM>
0

>  <SCORE.SYSTEM.CONST>
0

>  <SCORE.SYSTEM.DIHEDRAL>
0

>  <SCORE.SYSTEM.SOLV>
0

>  <SCORE.SYSTEM.norm>
0

>  <SCORE.heavy>
31

>  <SCORE.norm>
-0.773502

>  <RMSD>
8.130

$$$$
ligand
 OpenBabel11021811443D
libRbt.so/2013.1/901 2013/11/27
 31 32  0  0  0  0  0  0  0  0999 V2000
    7.9121   20.6755   54.0022 C   0  0  0  0  0  0  0  0  0  0  0  0
    9.3595   21.1574   53.9734 C   0  0  0  0  0  0  0  0  0  0  0  0
    9.6497   22.5603   53.9692 C   0  0  0  0  0  0  0  0  0  0  0  0
   10.9944   23.0012   53.9390 C   0  0  0  0  0  0  0  0  0  0  0  0
   12.0577   22.0657   53.9202 C   0  0  0  0  0  0  0  0  0  0  0  0
   11.7909   20.6815   53.9302 C   0  0  0  0  0  0  0  0  0  0  0  0
   10.4615   20.2234   53.9582 C   0  0  0  0  0  0  0  0  0  0  0  0
    7.5983   19.7148   54.7045 O   0  0  0  0  0  0  0  0  0  0  0  0
   -2.2194   25.2933   52.8533 C   0  0  0  0  0  0  0  0  0  0  0  0
    3.7709   21.1498   54.9359 C   0  0  0  0  0  0  0  0  0  0  0  0
    3.5147   17.2756   50.8433 P   0  0  1  0  0  0  0  0  0  0  0  0
   -0.3013   24.1102   53.6631 N   0  0  0  0  0  0  0  0  0  0  0  0
    3.6693   18.3996   49.9002 O   0  0  0  0  0  0  0  0  0  0  0  0
    6.9427   21.3078   53.2431 S   0  0  0  0  0  0  0  0  0  0  0  0
    4.5213   24.0268   53.5675 C   0  0  0  0  0  0  0  0  0  0  0  0
   -0.9178   24.6967   52.5809 C   0  0  0  0  0  0  0  0  0  0  0  0
    2.2808   17.3291   51.6732 O   0  5  0  0  0  0  0  0  0  0  0  0
    3.8527   22.9132   53.1779 N   0  0  0  0  0  0  0  0  0  0  0  0
   -0.4094   24.7361   51.3893 N   0  0  0  0  0  0  0  0  0  0  0  0
    3.6944   15.9860   50.1370 O   0  0  0  0  0  0  0  0  0  0  0  0
    4.4129   21.6457   53.6685 C   0  0  2  0  0  0  0  0  0  0  0  0
    0.8220   24.1626   51.1365 C   0  0  0  0  0  0  0  0  0  0  0  0
    1.3131   24.2182   49.8961 N   0  0  0  0  0  0  0  0  0  0  0  0
    5.4708   20.8530   53.0493 C   0  0  1  0  0  0  0  0  0  0  0  0
    1.5338   23.5151   52.2274 C   0  0  0  0  0  0  0  0  0  0  0  0
    3.7795   24.9002   53.9606 O   0  0  0  0  0  0  0  0  0  0  0  0
    5.2319   19.6358   52.2281 C   0  0  0  0  0  0  0  0  0  0  0  0
    0.9099   23.5358   53.4583 C   0  0  0  0  0  0  0  0  0  0  0  0
    4.8693   18.3737   52.8848 C   0  0  0  0  0  0  0  0  0  0  0  0
    2.8616   22.8336   52.0031 C   0  0  0  0  0  0  0  0  0  0  0  0
    4.6587   17.3325   51.9152 O   0  0  0  0  0  0  0  0  0  0  0  0
  1  2  1  0  0  0  0
  1  8  2  0  0  0  0
  1 14  1  0  0  0  0
  2  3  2  0  0  0  0
  2  7  1  0  0  0  0
  3  4  1  0  0  0  0
  4  5  2  0  0  0  0
  5  6  1  0  0  0  0
  6  7  2  0  0  0  0
  9 16  1  0  0  0  0
 10 21  1  0  0  0  0
 11 13  1  6  0  0  0
 11 17  1  0  0  0  0
 11 20  2  0  0  0  0
 11 31  1  0  0  0  0
 12 16  2  0  0  0  0
 12 28  1  0  0  0  0
 15 26  1  0  0  0  0
 15 18  1  0  0  0  0
 16 19  1  0  0  0  0
 18 30  1  0  0  0  0
 19 22  2  0  0  0  0
 21 18  1  6  0  0  0
 21 24  1  0  0  0  0
 22 23  1  0  0  0  0
 22 25  1  0  0  0  0
 24 14  1  6  0  0  0
 24 27  1  0  0  0  0
 25 28  2  0  0  0  0
 25 30  1  0  0  0  0
 27 29  1  0  0  0  0
 29 31  1  0  0  0  0
M  CHG  1  17  -1
M  END
>  <CHROM.1>
-139.18981262,173.17118879,109.79488269,-134.28503397,94.71789252,-71.89665383
-102.34825685,105.15904966,146.21568540,178.90162472,-65.96359417,63.94017987
4.56619652,21.29134113,52.70038614,-0.27202268,-0.25400337,0.31115250

>  <Name>
ligand

>  <RI>
0

>  <Rbt.Current_Directory>
/home/itssahil/PROJECTS/Mol_Feturizer/New_Systems/rnas/2HOO

>  <Rbt.Executable>
rbdock ($Id: //depot/dev/client3/rdock/2013.1/src/exe/rbdock.cxx#4 $)

>  <Rbt.Library>
libRbt.so (2013.1, Build901 2013/11/27)

>  <Rbt.Parameter_File>
/export/apps/rDock/src/rDock_2013.1_src/data/scripts/dock_solv.prm

>  <Rbt.Receptor>
prm/pocket_docking_6.prm

>  <SCORE>
-32.2754

>  <SCORE.INTER>
-17.2915

>  <SCORE.INTER.CONST>
1

>  <SCORE.INTER.POLAR>
0

>  <SCORE.INTER.ROT>
12

>  <SCORE.INTER.SOLV>
13.2422

>  <SCORE.INTER.VDW>
-27.5417

>  <SCORE.INTER.norm>
-0.557789

>  <SCORE.INTRA>
-14.9879

>  <SCORE.INTRA.DIHEDRAL>
-2.12453

>  <SCORE.INTRA.DIHEDRAL.0>
14.6094

>  <SCORE.INTRA.POLAR>
0

>  <SCORE.INTRA.POLAR.0>
0

>  <SCORE.INTRA.REPUL>
0

>  <SCORE.INTRA.REPUL.0>
0

>  <SCORE.INTRA.SOLV>
-0.209444

>  <SCORE.INTRA.SOLV.lig_0>
-65.6478

>  <SCORE.INTRA.VDW>
-13.8209

>  <SCORE.INTRA.VDW.0>
9.35535

>  <SCORE.INTRA.norm>
-0.483481

>  <SCORE.RESTR>
0.00393386

>  <SCORE.RESTR.CAVITY>
0.00393386

>  <SCORE.RESTR.norm>
0.000126899

>  <SCORE.SYSTEM>
0

>  <SCORE.SYSTEM.CONST>
0

>  <SCORE.SYSTEM.DIHEDRAL>
0

>  <SCORE.SYSTEM.SOLV>
0

>  <SCORE.SYSTEM.norm>
0

>  <SCORE.heavy>
31

>  <SCORE.norm>
-1.04114

>  <RMSD>
8.140

$$$$
ligand
 OpenBabel11021811443D
libRbt.so/2013.1/901 2013/11/27
 31 32  0  0  0  0  0  0  0  0999 V2000
    7.0578   21.4164   52.4461 C   0  0  0  0  0  0  0  0  0  0  0  0
    7.2171   22.9068   52.7314 C   0  0  0  0  0  0  0  0  0  0  0  0
    7.2405   23.3811   54.0830 C   0  0  0  0  0  0  0  0  0  0  0  0
    7.3851   24.7654   54.3412 C   0  0  0  0  0  0  0  0  0  0  0  0
    7.5144   25.6865   53.2730 C   0  0  0  0  0  0  0  0  0  0  0  0
    7.4996   25.2369   51.9370 C   0  0  0  0  0  0  0  0  0  0  0  0
    7.3550   23.8657   51.6597 C   0  0  0  0  0  0  0  0  0  0  0  0
    7.9371   20.6275   52.7909 O   0  0  0  0  0  0  0  0  0  0  0  0
   -0.0833   17.7973   59.0699 C   0  0  0  0  0  0  0  0  0  0  0  0
    5.9374   18.0611   53.9782 C   0  0  0  0  0  0  0  0  0  0  0  0
    4.8665   15.4069   48.9418 P   0  0  1  0  0  0  0  0  0  0  0  0
    0.9577   19.3832   57.6085 N   0  0  0  0  0  0  0  0  0  0  0  0
    5.9127   14.7459   49.7450 O   0  0  0  0  0  0  0  0  0  0  0  0
    5.9312   20.9384   51.7996 S   0  0  0  0  0  0  0  0  0  0  0  0
    4.3857   20.7037   55.1030 C   0  0  0  0  0  0  0  0  0  0  0  0
    0.5792   18.0738   57.8015 C   0  0  0  0  0  0  0  0  0  0  0  0
    5.2543   15.6913   47.5337 O   0  5  0  0  0  0  0  0  0  0  0  0
    4.0292   19.6103   54.3844 N   0  0  0  0  0  0  0  0  0  0  0  0
    0.7800   17.1257   56.9408 N   0  0  0  0  0  0  0  0  0  0  0  0
    3.5863   14.6716   49.0635 O   0  0  0  0  0  0  0  0  0  0  0  0
    5.0396   19.1359   53.4278 C   0  0  2  0  0  0  0  0  0  0  0  0
    1.4148   17.3934   55.7430 C   0  0  0  0  0  0  0  0  0  0  0  0
    1.6088   16.3915   54.8818 N   0  0  0  0  0  0  0  0  0  0  0  0
    5.2229   19.5792   52.0492 C   0  0  1  0  0  0  0  0  0  0  0  0
    1.8533   18.7527   55.4676 C   0  0  0  0  0  0  0  0  0  0  0  0
    3.6620   21.6526   54.8947 O   0  0  0  0  0  0  0  0  0  0  0  0
    4.7626   18.8172   50.8574 C   0  0  0  0  0  0  0  0  0  0  0  0
    1.5838   19.6890   56.4451 C   0  0  0  0  0  0  0  0  0  0  0  0
    5.2945   17.4726   50.6026 C   0  0  0  0  0  0  0  0  0  0  0  0
    2.5903   19.0973   54.1964 C   0  0  0  0  0  0  0  0  0  0  0  0
    4.5881   16.8373   49.5227 O   0  0  0  0  0  0  0  0  0  0  0  0
  1  2  1  0  0  0  0
  1  8  2  0  0  0  0
  1 14  1  0  0  0  0
  2  3  2  0  0  0  0
  2  7  1  0  0  0  0
  3  4  1  0  0  0  0
  4  5  2  0  0  0  0
  5  6  1  0  0  0  0
  6  7  2  0  0  0  0
  9 16  1  0  0  0  0
 10 21  1  0  0  0  0
 11 13  1  1  0  0  0
 11 17  1  0  0  0  0
 11 20  2  0  0  0  0
 11 31  1  0  0  0  0
 12 16  2  0  0  0  0
 12 28  1  0  0  0  0
 15 26  1  0  0  0  0
 15 18  1  0  0  0  0
 16 19  1  0  0  0  0
 18 30  1  0  0  0  0
 19 22  2  0  0  0  0
 21 18  1  6  0  0  0
 21 24  1  0  0  0  0
 22 23  1  0  0  0  0
 22 25  1  0  0  0  0
 24 14  1  1  0  0  0
 24 27  1  0  0  0  0
 25 28  2  0  0  0  0
 25 30  1  0  0  0  0
 27 29  1  0  0  0  0
 29 31  1  0  0  0  0
M  CHG  1  17  -1
M  END
>  <CHROM.1>
-65.22490633,-145.41893889,42.67786546,117.70258899,93.76317490,-58.66256662
-103.57249618,119.52665701,-116.71119198,171.74666047,179.35719876,4.39666635
4.52945422,19.24019613,53.01559632,-1.08260931,0.82577328,0.72307724

>  <Name>
ligand

>  <RI>
0

>  <Rbt.Current_Directory>
/home/itssahil/PROJECTS/Mol_Feturizer/New_Systems/rnas/2HOO

>  <Rbt.Executable>
rbdock ($Id: //depot/dev/client3/rdock/2013.1/src/exe/rbdock.cxx#4 $)

>  <Rbt.Library>
libRbt.so (2013.1, Build901 2013/11/27)

>  <Rbt.Parameter_File>
/export/apps/rDock/src/rDock_2013.1_src/data/scripts/dock_solv.prm

>  <Rbt.Receptor>
prm/pocket_docking_6.prm

>  <SCORE>
-26.3732

>  <SCORE.INTER>
-13.0357

>  <SCORE.INTER.CONST>
1

>  <SCORE.INTER.POLAR>
0

>  <SCORE.INTER.ROT>
12

>  <SCORE.INTER.SOLV>
10.5269

>  <SCORE.INTER.VDW>
-23.7995

>  <SCORE.INTER.norm>
-0.420508

>  <SCORE.INTRA>
-13.3383

>  <SCORE.INTRA.DIHEDRAL>
1.82774

>  <SCORE.INTRA.DIHEDRAL.0>
14.6094

>  <SCORE.INTRA.POLAR>
0

>  <SCORE.INTRA.POLAR.0>
0

>  <SCORE.INTRA.REPUL>
0

>  <SCORE.INTRA.REPUL.0>
0

>  <SCORE.INTRA.SOLV>
-0.317782

>  <SCORE.INTRA.SOLV.lig_0>
-65.6478

>  <SCORE.INTRA.VDW>
-14.0933

>  <SCORE.INTRA.VDW.0>
9.35535

>  <SCORE.INTRA.norm>
-0.430269

>  <SCORE.RESTR>
0.0008946

>  <SCORE.RESTR.CAVITY>
0.0008946

>  <SCORE.RESTR.norm>
2.88581e-05

>  <SCORE.SYSTEM>
0

>  <SCORE.SYSTEM.CONST>
0

>  <SCORE.SYSTEM.DIHEDRAL>
0

>  <SCORE.SYSTEM.SOLV>
0

>  <SCORE.SYSTEM.norm>
0

>  <SCORE.heavy>
31

>  <SCORE.norm>
-0.850748

>  <RMSD>
8.140

$$$$
ligand
 OpenBabel11021811443D
libRbt.so/2013.1/901 2013/11/27
 31 32  0  0  0  0  0  0  0  0999 V2000
   10.0993   20.0478   53.7537 C   0  0  0  0  0  0  0  0  0  0  0  0
   11.4930   19.6325   54.2154 C   0  0  0  0  0  0  0  0  0  0  0  0
   11.9110   18.2672   54.1000 C   0  0  0  0  0  0  0  0  0  0  0  0
   13.2040   17.8875   54.5331 C   0  0  0  0  0  0  0  0  0  0  0  0
   14.0924   18.8489   55.0741 C   0  0  0  0  0  0  0  0  0  0  0  0
   13.7001   20.1980   55.1895 C   0  0  0  0  0  0  0  0  0  0  0  0
   12.4189   20.5949   54.7665 C   0  0  0  0  0  0  0  0  0  0  0  0
    9.9064   21.1872   53.3307 O   0  0  0  0  0  0  0  0  0  0  0  0
   -0.5075   21.1421   54.5758 C   0  0  0  0  0  0  0  0  0  0  0  0
    5.7014   17.8246   53.0969 C   0  0  0  0  0  0  0  0  0  0  0  0
    7.9658   17.6779   48.2658 P   0  0  1  0  0  0  0  0  0  0  0  0
    1.7194   21.9923   54.3461 N   0  0  0  0  0  0  0  0  0  0  0  0
    8.5254   17.4921   46.9133 O   0  0  0  0  0  0  0  0  0  0  0  0
    9.0433   19.1545   53.8064 S   0  0  0  0  0  0  0  0  0  0  0  0
    5.6017   21.0708   52.2291 C   0  0  0  0  0  0  0  0  0  0  0  0
    0.9285   20.8940   54.5980 C   0  0  0  0  0  0  0  0  0  0  0  0
    6.5492   18.1325   48.2926 O   0  5  0  0  0  0  0  0  0  0  0  0
    5.8601   20.3011   53.3154 N   0  0  0  0  0  0  0  0  0  0  0  0
    1.3901   19.7076   54.8418 N   0  0  0  0  0  0  0  0  0  0  0  0
    8.2141   16.4741   49.0925 O   0  0  0  0  0  0  0  0  0  0  0  0
    6.5756   19.0478   53.0359 C   0  0  2  0  0  0  0  0  0  0  0  0
    2.7529   19.4807   54.8680 C   0  0  0  0  0  0  0  0  0  0  0  0
    3.1929   18.2469   55.1268 N   0  0  0  0  0  0  0  0  0  0  0  0
    7.9875   18.8972   52.6973 C   0  0  1  0  0  0  0  0  0  0  0  0
    3.6563   20.5934   54.6196 C   0  0  0  0  0  0  0  0  0  0  0  0
    4.6951   20.6335   51.5551 O   0  0  0  0  0  0  0  0  0  0  0  0
    8.4885   18.5228   51.3476 C   0  0  0  0  0  0  0  0  0  0  0  0
    3.0635   21.8128   54.3619 C   0  0  0  0  0  0  0  0  0  0  0  0
    8.3491   19.4663   50.2313 C   0  0  0  0  0  0  0  0  0  0  0  0
    5.1540   20.4165   54.6780 C   0  0  0  0  0  0  0  0  0  0  0  0
    8.7215   18.8482   48.9871 O   0  0  0  0  0  0  0  0  0  0  0  0
  1  2  1  0  0  0  0
  1  8  2  0  0  0  0
  1 14  1  0  0  0  0
  2  3  2  0  0  0  0
  2  7  1  0  0  0  0
  3  4  1  0  0  0  0
  4  5  2  0  0  0  0
  5  6  1  0  0  0  0
  6  7  2  0  0  0  0
  9 16  1  0  0  0  0
 10 21  1  0  0  0  0
 11 13  1  6  0  0  0
 11 17  1  0  0  0  0
 11 20  2  0  0  0  0
 11 31  1  0  0  0  0
 12 16  2  0  0  0  0
 12 28  1  0  0  0  0
 15 26  1  0  0  0  0
 15 18  1  0  0  0  0
 16 19  1  0  0  0  0
 18 30  1  0  0  0  0
 19 22  2  0  0  0  0
 21 18  1  6  0  0  0
 21 24  1  0  0  0  0
 22 23  1  0  0  0  0
 22 25  1  0  0  0  0
 24 14  1  6  0  0  0
 24 27  1  0  0  0  0
 25 28  2  0  0  0  0
 25 30  1  0  0  0  0
 27 29  1  0  0  0  0
 29 31  1  0  0  0  0
M  CHG  1  17  -1
M  END
>  <CHROM.1>
-150.14118442,-134.96443832,-124.16551943,75.31312244,-104.83772210,43.31367672
-110.51535641,-110.70814720,101.61252902,-171.98666034,66.81509102,170.17012599
7.13205316,19.38650262,52.60458966,-0.24905990,-0.11214055,1.23354040

>  <Name>
ligand

>  <RI>
0

>  <Rbt.Current_Directory>
/home/itssahil/PROJECTS/Mol_Feturizer/New_Systems/rnas/2HOO

>  <Rbt.Executable>
rbdock ($Id: //depot/dev/client3/rdock/2013.1/src/exe/rbdock.cxx#4 $)

>  <Rbt.Library>
libRbt.so (2013.1, Build901 2013/11/27)

>  <Rbt.Parameter_File>
/export/apps/rDock/src/rDock_2013.1_src/data/scripts/dock_solv.prm

>  <Rbt.Receptor>
prm/pocket_docking_3.prm

>  <SCORE>
-27.7119

>  <SCORE.INTER>
-16.6263

>  <SCORE.INTER.CONST>
1

>  <SCORE.INTER.POLAR>
0

>  <SCORE.INTER.ROT>
12

>  <SCORE.INTER.SOLV>
15.84

>  <SCORE.INTER.VDW>
-27.9642

>  <SCORE.INTER.norm>
-0.536332

>  <SCORE.INTRA>
-11.0951

>  <SCORE.INTRA.DIHEDRAL>
0.131022

>  <SCORE.INTRA.DIHEDRAL.0>
14.6094

>  <SCORE.INTRA.POLAR>
0

>  <SCORE.INTRA.POLAR.0>
0

>  <SCORE.INTRA.REPUL>
0

>  <SCORE.INTRA.REPUL.0>
0

>  <SCORE.INTRA.SOLV>
4.16481

>  <SCORE.INTRA.SOLV.lig_0>
-65.6478

>  <SCORE.INTRA.VDW>
-13.243

>  <SCORE.INTRA.VDW.0>
9.35535

>  <SCORE.INTRA.norm>
-0.357905

>  <SCORE.RESTR>
0.00948401

>  <SCORE.RESTR.CAVITY>
0.00948401

>  <SCORE.RESTR.norm>
0.000305936

>  <SCORE.SYSTEM>
0

>  <SCORE.SYSTEM.CONST>
0

>  <SCORE.SYSTEM.DIHEDRAL>
0

>  <SCORE.SYSTEM.SOLV>
0

>  <SCORE.SYSTEM.norm>
0

>  <SCORE.heavy>
31

>  <SCORE.norm>
-0.893931

>  <RMSD>
8.157

$$$$
ligand
 OpenBabel11021811443D
libRbt.so/2013.1/901 2013/11/27
 31 32  0  0  0  0  0  0  0  0999 V2000
    8.5778   23.4771   52.9344 C   0  0  0  0  0  0  0  0  0  0  0  0
    9.6890   22.5578   53.4326 C   0  0  0  0  0  0  0  0  0  0  0  0
    9.7022   21.1762   53.0544 C   0  0  0  0  0  0  0  0  0  0  0  0
   10.7339   20.3276   53.5225 C   0  0  0  0  0  0  0  0  0  0  0  0
   11.7593   20.8353   54.3574 C   0  0  0  0  0  0  0  0  0  0  0  0
   11.7656   22.1936   54.7347 C   0  0  0  0  0  0  0  0  0  0  0  0
   10.7483   23.0524   54.2814 C   0  0  0  0  0  0  0  0  0  0  0  0
    8.7186   24.0952   51.8796 O   0  0  0  0  0  0  0  0  0  0  0  0
   -1.1637   21.7289   59.0118 C   0  0  0  0  0  0  0  0  0  0  0  0
    6.2352   23.9207   56.6066 C   0  0  0  0  0  0  0  0  0  0  0  0
    6.7524   17.8744   54.1068 P   0  0  1  0  0  0  0  0  0  0  0  0
    0.3297   21.0680   57.2604 N   0  0  0  0  0  0  0  0  0  0  0  0
    7.3224   16.6828   53.4495 O   0  0  0  0  0  0  0  0  0  0  0  0
    7.4078   23.6263   53.6587 S   0  0  0  0  0  0  0  0  0  0  0  0
    3.5336   22.9157   54.6899 C   0  0  0  0  0  0  0  0  0  0  0  0
    0.1959   21.6729   58.4898 C   0  0  0  0  0  0  0  0  0  0  0  0
    5.3521   17.7088   54.5823 O   0  5  0  0  0  0  0  0  0  0  0  0
    4.3599   22.5527   55.7020 N   0  0  0  0  0  0  0  0  0  0  0  0
    1.1840   22.1693   59.1660 N   0  0  0  0  0  0  0  0  0  0  0  0
    7.6750   18.3726   55.1532 O   0  0  0  0  0  0  0  0  0  0  0  0
    5.7611   22.9680   55.5428 C   0  0  2  0  0  0  0  0  0  0  0  0
    2.4697   22.1189   58.6622 C   0  0  0  0  0  0  0  0  0  0  0  0
    3.4626   22.6441   59.3841 N   0  0  0  0  0  0  0  0  0  0  0  0
    6.6939   22.5380   54.5055 C   0  0  1  0  0  0  0  0  0  0  0  0
    2.6927   21.5025   57.3636 C   0  0  0  0  0  0  0  0  0  0  0  0
    3.3326   22.0128   53.9078 O   0  0  0  0  0  0  0  0  0  0  0  0
    7.0004   21.1162   54.1936 C   0  0  0  0  0  0  0  0  0  0  0  0
    1.5757   20.9971   56.7299 C   0  0  0  0  0  0  0  0  0  0  0  0
    6.1084   20.3558   53.3093 C   0  0  0  0  0  0  0  0  0  0  0  0
    4.0674   21.4567   56.7423 C   0  0  0  0  0  0  0  0  0  0  0  0
    6.6309   19.0387   53.0626 O   0  0  0  0  0  0  0  0  0  0  0  0
  1  2  1  0  0  0  0
  1  8  2  0  0  0  0
  1 14  1  0  0  0  0
  2  3  2  0  0  0  0
  2  7  1  0  0  0  0
  3  4  1  0  0  0  0
  4  5  2  0  0  0  0
  5  6  1  0  0  0  0
  6  7  2  0  0  0  0
  9 16  1  0  0  0  0
 10 21  1  0  0  0  0
 11 13  1  6  0  0  0
 11 17  1  0  0  0  0
 11 20  2  0  0  0  0
 11 31  1  0  0  0  0
 12 16  2  0  0  0  0
 12 28  1  0  0  0  0
 15 26  1  0  0  0  0
 15 18  1  0  0  0  0
 16 19  1  0  0  0  0
 18 30  1  0  0  0  0
 19 22  2  0  0  0  0
 21 18  1  1  0  0  0
 21 24  1  0  0  0  0
 22 23  1  0  0  0  0
 22 25  1  0  0  0  0
 24 14  1  6  0  0  0
 24 27  1  0  0  0  0
 25 28  2  0  0  0  0
 25 30  1  0  0  0  0
 27 29  1  0  0  0  0
 29 31  1  0  0  0  0
M  CHG  1  17  -1
M  END
>  <CHROM.1>
-90.51222635,-34.13375096,159.30247274,99.36181358,117.23445453,-46.69853658
-55.55604497,-96.34491172,-97.99485159,175.94859116,68.49815479,179.25861764
5.85682399,21.33410821,55.13952153,-0.13392341,0.48596584,0.16859175

>  <Name>
ligand

>  <RI>
0

>  <Rbt.Current_Directory>
/home/itssahil/PROJECTS/Mol_Feturizer/New_Systems/rnas/2HOO

>  <Rbt.Executable>
rbdock ($Id: //depot/dev/client3/rdock/2013.1/src/exe/rbdock.cxx#4 $)

>  <Rbt.Library>
libRbt.so (2013.1, Build901 2013/11/27)

>  <Rbt.Parameter_File>
/export/apps/rDock/src/rDock_2013.1_src/data/scripts/dock_solv.prm

>  <Rbt.Receptor>
prm/pocket_docking_7.prm

>  <SCORE>
-24.5225

>  <SCORE.INTER>
-11.9566

>  <SCORE.INTER.CONST>
1

>  <SCORE.INTER.POLAR>
0

>  <SCORE.INTER.ROT>
12

>  <SCORE.INTER.SOLV>
17.3578

>  <SCORE.INTER.VDW>
-25.357

>  <SCORE.INTER.norm>
-0.385696

>  <SCORE.INTRA>
-12.5659

>  <SCORE.INTRA.DIHEDRAL>
-0.375515

>  <SCORE.INTRA.DIHEDRAL.0>
14.6094

>  <SCORE.INTRA.POLAR>
0

>  <SCORE.INTRA.POLAR.0>
0

>  <SCORE.INTRA.REPUL>
0

>  <SCORE.INTRA.REPUL.0>
0

>  <SCORE.INTRA.SOLV>
2.70673

>  <SCORE.INTRA.SOLV.lig_0>
-65.6478

>  <SCORE.INTRA.VDW>
-13.7315

>  <SCORE.INTRA.VDW.0>
9.35535

>  <SCORE.INTRA.norm>
-0.405352

>  <SCORE.RESTR>
0

>  <SCORE.RESTR.CAVITY>
0

>  <SCORE.RESTR.norm>
0

>  <SCORE.SYSTEM>
0

>  <SCORE.SYSTEM.CONST>
0

>  <SCORE.SYSTEM.DIHEDRAL>
0

>  <SCORE.SYSTEM.SOLV>
0

>  <SCORE.SYSTEM.norm>
0

>  <SCORE.heavy>
31

>  <SCORE.norm>
-0.791048

>  <RMSD>
8.161

$$$$
ligand
 OpenBabel11021811443D
libRbt.so/2013.1/901 2013/11/27
 31 32  0  0  0  0  0  0  0  0999 V2000
    6.7261   17.3184   53.4928 C   0  0  0  0  0  0  0  0  0  0  0  0
    7.5613   17.3851   52.2176 C   0  0  0  0  0  0  0  0  0  0  0  0
    7.5461   16.2929   51.2908 C   0  0  0  0  0  0  0  0  0  0  0  0
    8.3257   16.3593   50.1111 C   0  0  0  0  0  0  0  0  0  0  0  0
    9.1167   17.5015   49.8352 C   0  0  0  0  0  0  0  0  0  0  0  0
    9.1390   18.5881   50.7331 C   0  0  0  0  0  0  0  0  0  0  0  0
    8.3728   18.5405   51.9115 C   0  0  0  0  0  0  0  0  0  0  0  0
    7.1068   16.6330   54.4414 O   0  0  0  0  0  0  0  0  0  0  0  0
   -3.3691   15.5703   57.1361 C   0  0  0  0  0  0  0  0  0  0  0  0
    2.7482   19.6772   53.6236 C   0  0  0  0  0  0  0  0  0  0  0  0
    2.4039   15.3356   49.8092 P   0  0  1  0  0  0  0  0  0  0  0  0
   -1.6611   15.3227   55.4761 N   0  0  0  0  0  0  0  0  0  0  0  0
    2.8621   14.6231   51.0172 O   0  0  0  0  0  0  0  0  0  0  0  0
    5.5385   18.0218   53.5959 S   0  0  0  0  0  0  0  0  0  0  0  0
    1.0970   16.9145   52.6409 C   0  0  0  0  0  0  0  0  0  0  0  0
   -2.0250   15.8936   56.6748 C   0  0  0  0  0  0  0  0  0  0  0  0
    3.2870   15.1736   48.6226 O   0  5  0  0  0  0  0  0  0  0  0  0
    1.8340   17.3607   53.6881 N   0  0  0  0  0  0  0  0  0  0  0  0
   -1.2555   16.6686   57.3729 N   0  0  0  0  0  0  0  0  0  0  0  0
    0.9836   15.0170   49.5345 O   0  0  0  0  0  0  0  0  0  0  0  0
    2.9724   18.2187   53.3292 C   0  0  2  0  0  0  0  0  0  0  0  0
    0.0153   16.9765   56.9263 C   0  0  0  0  0  0  0  0  0  0  0  0
    0.7788   17.7816   57.6692 N   0  0  0  0  0  0  0  0  0  0  0  0
    4.2488   17.7953   52.7614 C   0  0  1  0  0  0  0  0  0  0  0  0
    0.4714   16.4185   55.6628 C   0  0  0  0  0  0  0  0  0  0  0  0
    0.1758   17.6541   52.3727 O   0  0  0  0  0  0  0  0  0  0  0  0
    4.4008   17.1677   51.4213 C   0  0  0  0  0  0  0  0  0  0  0  0
   -0.4210   15.5990   55.0019 C   0  0  0  0  0  0  0  0  0  0  0  0
    3.6243   17.6792   50.2850 C   0  0  0  0  0  0  0  0  0  0  0  0
    1.8321   16.7535   55.1024 C   0  0  0  0  0  0  0  0  0  0  0  0
    2.4469   16.8823   50.0675 O   0  0  0  0  0  0  0  0  0  0  0  0
  1  2  1  0  0  0  0
  1  8  2  0  0  0  0
  1 14  1  0  0  0  0
  2  3  2  0  0  0  0
  2  7  1  0  0  0  0
  3  4  1  0  0  0  0
  4  5  2  0  0  0  0
  5  6  1  0  0  0  0
  6  7  2  0  0  0  0
  9 16  1  0  0  0  0
 10 21  1  0  0  0  0
 11 13  1  1  0  0  0
 11 17  1  0  0  0  0
 11 20  2  0  0  0  0
 11 31  1  0  0  0  0
 12 16  2  0  0  0  0
 12 28  1  0  0  0  0
 15 26  1  0  0  0  0
 15 18  1  0  0  0  0
 16 19  1  0  0  0  0
 18 30  1  0  0  0  0
 19 22  2  0  0  0  0
 21 18  1  1  0  0  0
 21 24  1  0  0  0  0
 22 23  1  0  0  0  0
 22 25  1  0  0  0  0
 24 14  1  6  0  0  0
 24 27  1  0  0  0  0
 25 28  2  0  0  0  0
 25 30  1  0  0  0  0
 27 29  1  0  0  0  0
 29 31  1  0  0  0  0
M  CHG  1  17  -1
M  END
>  <CHROM.1>
76.65955128,64.82703432,155.66439943,-91.07987103,105.26001312,-44.46806446
62.54183314,-138.34793464,-123.33044919,-97.74307034,-56.63504976,66.05597242
3.07889341,16.83342670,52.88553145,-0.48970628,0.27399738,1.27703600

>  <Name>
ligand

>  <RI>
0

>  <Rbt.Current_Directory>
/home/itssahil/PROJECTS/Mol_Feturizer/New_Systems/rnas/2HOO

>  <Rbt.Executable>
rbdock ($Id: //depot/dev/client3/rdock/2013.1/src/exe/rbdock.cxx#4 $)

>  <Rbt.Library>
libRbt.so (2013.1, Build901 2013/11/27)

>  <Rbt.Parameter_File>
/export/apps/rDock/src/rDock_2013.1_src/data/scripts/dock_solv.prm

>  <Rbt.Receptor>
prm/pocket_docking_7.prm

>  <SCORE>
-31.3648

>  <SCORE.INTER>
-20.8199

>  <SCORE.INTER.CONST>
1

>  <SCORE.INTER.POLAR>
0

>  <SCORE.INTER.ROT>
12

>  <SCORE.INTER.SOLV>
20.3908

>  <SCORE.INTER.VDW>
-32.2769

>  <SCORE.INTER.norm>
-0.67161

>  <SCORE.INTRA>
-10.5449

>  <SCORE.INTRA.DIHEDRAL>
5.57463

>  <SCORE.INTRA.DIHEDRAL.0>
14.6094

>  <SCORE.INTRA.POLAR>
0

>  <SCORE.INTRA.POLAR.0>
0

>  <SCORE.INTRA.REPUL>
0

>  <SCORE.INTRA.REPUL.0>
0

>  <SCORE.INTRA.SOLV>
1.69597

>  <SCORE.INTRA.SOLV.lig_0>
-65.6478

>  <SCORE.INTRA.VDW>
-14.1802

>  <SCORE.INTRA.VDW.0>
9.35535

>  <SCORE.INTRA.norm>
-0.340159

>  <SCORE.RESTR>
0

>  <SCORE.RESTR.CAVITY>
0

>  <SCORE.RESTR.norm>
0

>  <SCORE.SYSTEM>
0

>  <SCORE.SYSTEM.CONST>
0

>  <SCORE.SYSTEM.DIHEDRAL>
0

>  <SCORE.SYSTEM.SOLV>
0

>  <SCORE.SYSTEM.norm>
0

>  <SCORE.heavy>
31

>  <SCORE.norm>
-1.01177

>  <RMSD>
8.169

$$$$
ligand
 OpenBabel11021811443D
libRbt.so/2013.1/901 2013/11/27
 31 32  0  0  0  0  0  0  0  0999 V2000
    7.9746   20.4812   52.8437 C   0  0  0  0  0  0  0  0  0  0  0  0
    9.3235   20.9024   53.4191 C   0  0  0  0  0  0  0  0  0  0  0  0
   10.3177   19.9149   53.7168 C   0  0  0  0  0  0  0  0  0  0  0  0
   11.5660   20.3116   54.2536 C   0  0  0  0  0  0  0  0  0  0  0  0
   11.8437   21.6798   54.4928 C   0  0  0  0  0  0  0  0  0  0  0  0
   10.8795   22.6657   54.2002 C   0  0  0  0  0  0  0  0  0  0  0  0
    9.6326   22.2915   53.6680 C   0  0  0  0  0  0  0  0  0  0  0  0
    7.5603   20.9989   51.8071 O   0  0  0  0  0  0  0  0  0  0  0  0
   -1.3190   22.0078   55.1334 C   0  0  0  0  0  0  0  0  0  0  0  0
    4.2639   18.4657   54.4965 C   0  0  0  0  0  0  0  0  0  0  0  0
    7.1756   17.1254   48.7240 P   0  0  1  0  0  0  0  0  0  0  0  0
    0.7489   20.8238   54.8967 N   0  0  0  0  0  0  0  0  0  0  0  0
    5.7673   16.8504   49.0675 O   0  0  0  0  0  0  0  0  0  0  0  0
    7.2066   19.5198   53.4774 S   0  0  0  0  0  0  0  0  0  0  0  0
    2.9382   18.1606   51.6882 C   0  0  0  0  0  0  0  0  0  0  0  0
   -0.1368   21.7144   54.3332 C   0  0  0  0  0  0  0  0  0  0  0  0
    7.7788   16.1602   47.7656 O   0  5  0  0  0  0  0  0  0  0  0  0
    3.7140   19.1635   52.1691 N   0  0  0  0  0  0  0  0  0  0  0  0
    0.0331   22.2734   53.1762 N   0  0  0  0  0  0  0  0  0  0  0  0
    7.3361   18.5401   48.3151 O   0  0  0  0  0  0  0  0  0  0  0  0
    4.7664   18.7438   53.1057 C   0  0  2  0  0  0  0  0  0  0  0  0
    1.1531   21.9856   52.4197 C   0  0  0  0  0  0  0  0  0  0  0  0
    1.2932   22.5766   51.2306 N   0  0  0  0  0  0  0  0  0  0  0  0
    6.1842   18.5595   52.8113 C   0  0  1  0  0  0  0  0  0  0  0  0
    2.1330   21.0465   52.9427 C   0  0  0  0  0  0  0  0  0  0  0  0
    2.7884   18.2240   50.4878 O   0  0  0  0  0  0  0  0  0  0  0  0
    6.7198   17.5135   51.8992 C   0  0  0  0  0  0  0  0  0  0  0  0
    1.8623   20.5141   54.1869 C   0  0  0  0  0  0  0  0  0  0  0  0
    7.9956   17.7344   51.2069 C   0  0  0  0  0  0  0  0  0  0  0  0
    3.3537   20.6596   52.1439 C   0  0  0  0  0  0  0  0  0  0  0  0
    8.0682   16.9520   50.0023 O   0  0  0  0  0  0  0  0  0  0  0  0
  1  2  1  0  0  0  0
  1  8  2  0  0  0  0
  1 14  1  0  0  0  0
  2  3  2  0  0  0  0
  2  7  1  0  0  0  0
  3  4  1  0  0  0  0
  4  5  2  0  0  0  0
  5  6  1  0  0  0  0
  6  7  2  0  0  0  0
  9 16  1  0  0  0  0
 10 21  1  0  0  0  0
 11 13  1  1  0  0  0
 11 17  1  0  0  0  0
 11 20  2  0  0  0  0
 11 31  1  0  0  0  0
 12 16  2  0  0  0  0
 12 28  1  0  0  0  0
 15 26  1  0  0  0  0
 15 18  1  0  0  0  0
 16 19  1  0  0  0  0
 18 30  1  0  0  0  0
 19 22  2  0  0  0  0
 21 18  1  6  0  0  0
 21 24  1  0  0  0  0
 22 23  1  0  0  0  0
 22 25  1  0  0  0  0
 24 14  1  6  0  0  0
 24 27  1  0  0  0  0
 25 28  2  0  0  0  0
 25 30  1  0  0  0  0
 27 29  1  0  0  0  0
 29 31  1  0  0  0  0
M  CHG  1  17  -1
M  END
>  <CHROM.1>
-126.73622486,-152.17564523,-111.58918354,-133.17150746,-78.10893019,62.98089627
-67.51495563,-26.18075286,-137.40141408,-155.34935279,66.02807736,-63.43834710
5.58146231,19.60377884,52.17042428,-0.33124968,-0.04388876,0.86188528

>  <Name>
ligand

>  <RI>
0

>  <Rbt.Current_Directory>
/home/itssahil/PROJECTS/Mol_Feturizer/New_Systems/rnas/2HOO

>  <Rbt.Executable>
rbdock ($Id: //depot/dev/client3/rdock/2013.1/src/exe/rbdock.cxx#4 $)

>  <Rbt.Library>
libRbt.so (2013.1, Build901 2013/11/27)

>  <Rbt.Parameter_File>
/export/apps/rDock/src/rDock_2013.1_src/data/scripts/dock_solv.prm

>  <Rbt.Receptor>
prm/pocket_docking_3.prm

>  <SCORE>
-21.9631

>  <SCORE.INTER>
-10.3175

>  <SCORE.INTER.CONST>
1

>  <SCORE.INTER.POLAR>
0

>  <SCORE.INTER.ROT>
12

>  <SCORE.INTER.SOLV>
11.8881

>  <SCORE.INTER.VDW>
-22.441

>  <SCORE.INTER.norm>
-0.332821

>  <SCORE.INTRA>
-11.6578

>  <SCORE.INTRA.DIHEDRAL>
1.39181

>  <SCORE.INTRA.DIHEDRAL.0>
14.6094

>  <SCORE.INTRA.POLAR>
0

>  <SCORE.INTRA.POLAR.0>
0

>  <SCORE.INTRA.REPUL>
0.00247939

>  <SCORE.INTRA.REPUL.0>
0

>  <SCORE.INTRA.SOLV>
-0.0397483

>  <SCORE.INTRA.SOLV.lig_0>
-65.6478

>  <SCORE.INTRA.VDW>
-12.3463

>  <SCORE.INTRA.VDW.0>
9.35535

>  <SCORE.INTRA.norm>
-0.376059

>  <SCORE.RESTR>
0.0121367

>  <SCORE.RESTR.CAVITY>
0.0121367

>  <SCORE.RESTR.norm>
0.000391507

>  <SCORE.SYSTEM>
0

>  <SCORE.SYSTEM.CONST>
0

>  <SCORE.SYSTEM.DIHEDRAL>
0

>  <SCORE.SYSTEM.SOLV>
0

>  <SCORE.SYSTEM.norm>
0

>  <SCORE.heavy>
31

>  <SCORE.norm>
-0.708489

>  <RMSD>
8.178

$$$$
ligand
 OpenBabel11021811443D
libRbt.so/2013.1/901 2013/11/27
 31 32  0  0  0  0  0  0  0  0999 V2000
    5.6387   18.9576   50.7286 C   0  0  0  0  0  0  0  0  0  0  0  0
    6.2057   18.4957   52.0677 C   0  0  0  0  0  0  0  0  0  0  0  0
    6.2810   19.4084   53.1693 C   0  0  0  0  0  0  0  0  0  0  0  0
    6.8111   18.9749   54.4082 C   0  0  0  0  0  0  0  0  0  0  0  0
    7.2620   17.6420   54.5705 C   0  0  0  0  0  0  0  0  0  0  0  0
    7.1899   16.7286   53.4991 C   0  0  0  0  0  0  0  0  0  0  0  0
    6.6681   17.1405   52.2598 C   0  0  0  0  0  0  0  0  0  0  0  0
    6.2607   19.7707   50.0457 O   0  0  0  0  0  0  0  0  0  0  0  0
   -1.8359   22.8621   55.3337 C   0  0  0  0  0  0  0  0  0  0  0  0
    1.1607   16.6755   50.9325 C   0  0  0  0  0  0  0  0  0  0  0  0
    5.5117   13.1621   49.2992 P   0  0  1  0  0  0  0  0  0  0  0  0
   -1.0982   20.8004   54.3645 N   0  0  0  0  0  0  0  0  0  0  0  0
    6.0375   11.8636   49.7620 O   0  0  0  0  0  0  0  0  0  0  0  0
    4.4263   18.4718   50.2706 S   0  0  0  0  0  0  0  0  0  0  0  0
    2.2809   17.9854   53.7548 C   0  0  0  0  0  0  0  0  0  0  0  0
   -0.8685   22.1501   54.5082 C   0  0  0  0  0  0  0  0  0  0  0  0
    6.4403   14.3091   49.4890 O   0  5  0  0  0  0  0  0  0  0  0  0
    2.0136   18.4165   52.4971 N   0  0  0  0  0  0  0  0  0  0  0  0
    0.1256   22.7793   53.9644 N   0  0  0  0  0  0  0  0  0  0  0  0
    4.9979   13.0426   47.9150 O   0  0  0  0  0  0  0  0  0  0  0  0
    2.3433   17.4633   51.4277 C   0  0  2  0  0  0  0  0  0  0  0  0
    1.0354   22.0993   53.1773 C   0  0  0  0  0  0  0  0  0  0  0  0
    2.0447   22.7804   52.6293 N   0  0  0  0  0  0  0  0  0  0  0  0
    3.6510   17.2427   50.8178 C   0  0  1  0  0  0  0  0  0  0  0  0
    0.8567   20.6707   52.9699 C   0  0  0  0  0  0  0  0  0  0  0  0
    3.4571   18.0661   54.0333 O   0  0  0  0  0  0  0  0  0  0  0  0
    4.2916   15.9080   50.6726 C   0  0  0  0  0  0  0  0  0  0  0  0
   -0.2280   20.0952   53.5999 C   0  0  0  0  0  0  0  0  0  0  0  0
    3.5323   14.7953   50.0887 C   0  0  0  0  0  0  0  0  0  0  0  0
    1.7923   19.8830   52.0856 C   0  0  0  0  0  0  0  0  0  0  0  0
    4.2745   13.5663   50.1749 O   0  0  0  0  0  0  0  0  0  0  0  0
  1  2  1  0  0  0  0
  1  8  2  0  0  0  0
  1 14  1  0  0  0  0
  2  3  2  0  0  0  0
  2  7  1  0  0  0  0
  3  4  1  0  0  0  0
  4  5  2  0  0  0  0
  5  6  1  0  0  0  0
  6  7  2  0  0  0  0
  9 16  1  0  0  0  0
 10 21  1  0  0  0  0
 11 13  1  1  0  0  0
 11 17  1  0  0  0  0
 11 20  2  0  0  0  0
 11 31  1  0  0  0  0
 12 16  2  0  0  0  0
 12 28  1  0  0  0  0
 15 26  1  0  0  0  0
 15 18  1  0  0  0  0
 16 19  1  0  0  0  0
 18 30  1  0  0  0  0
 19 22  2  0  0  0  0
 21 18  1  6  0  0  0
 21 24  1  0  0  0  0
 22 23  1  0  0  0  0
 22 25  1  0  0  0  0
 24 14  1  6  0  0  0
 24 27  1  0  0  0  0
 25 28  2  0  0  0  0
 25 30  1  0  0  0  0
 27 29  1  0  0  0  0
 29 31  1  0  0  0  0
M  CHG  1  17  -1
M  END
>  <CHROM.1>
68.79146125,-14.10969034,116.01941455,78.26875525,98.52280366,-46.76481200
126.70566919,-129.42285344,148.34251817,-173.56205259,-74.37247529,176.21924596
3.60654857,17.84087601,51.81562121,-1.01052023,-0.06499430,0.53941224

>  <Name>
ligand

>  <RI>
0

>  <Rbt.Current_Directory>
/home/itssahil/PROJECTS/Mol_Feturizer/New_Systems/rnas/2HOO

>  <Rbt.Executable>
rbdock ($Id: //depot/dev/client3/rdock/2013.1/src/exe/rbdock.cxx#4 $)

>  <Rbt.Library>
libRbt.so (2013.1, Build901 2013/11/27)

>  <Rbt.Parameter_File>
/export/apps/rDock/src/rDock_2013.1_src/data/scripts/dock_solv.prm

>  <Rbt.Receptor>
prm/pocket_docking_4.prm

>  <SCORE>
-29.4174

>  <SCORE.INTER>
-14.9738

>  <SCORE.INTER.CONST>
1

>  <SCORE.INTER.POLAR>
0

>  <SCORE.INTER.ROT>
12

>  <SCORE.INTER.SOLV>
14.09

>  <SCORE.INTER.VDW>
-26.2792

>  <SCORE.INTER.norm>
-0.483025

>  <SCORE.INTRA>
-14.4436

>  <SCORE.INTRA.DIHEDRAL>
-2.21147

>  <SCORE.INTRA.DIHEDRAL.0>
14.6094

>  <SCORE.INTRA.POLAR>
0

>  <SCORE.INTRA.POLAR.0>
0

>  <SCORE.INTRA.REPUL>
0

>  <SCORE.INTRA.REPUL.0>
0

>  <SCORE.INTRA.SOLV>
1.02492

>  <SCORE.INTRA.SOLV.lig_0>
-65.6478

>  <SCORE.INTRA.VDW>
-13.8504

>  <SCORE.INTRA.VDW.0>
9.35535

>  <SCORE.INTRA.norm>
-0.465923

>  <SCORE.RESTR>
0

>  <SCORE.RESTR.CAVITY>
0

>  <SCORE.RESTR.norm>
0

>  <SCORE.SYSTEM>
0

>  <SCORE.SYSTEM.CONST>
0

>  <SCORE.SYSTEM.DIHEDRAL>
0

>  <SCORE.SYSTEM.SOLV>
0

>  <SCORE.SYSTEM.norm>
0

>  <SCORE.heavy>
31

>  <SCORE.norm>
-0.948949

>  <RMSD>
8.184

$$$$
ligand
 OpenBabel11021811443D
libRbt.so/2013.1/901 2013/11/27
 31 32  0  0  0  0  0  0  0  0999 V2000
    7.3938   21.1073   52.5153 C   0  0  0  0  0  0  0  0  0  0  0  0
    7.7582   22.5883   52.4703 C   0  0  0  0  0  0  0  0  0  0  0  0
    6.8769   23.5262   51.8412 C   0  0  0  0  0  0  0  0  0  0  0  0
    7.2221   24.8984   51.7996 C   0  0  0  0  0  0  0  0  0  0  0  0
    8.4302   25.3540   52.3820 C   0  0  0  0  0  0  0  0  0  0  0  0
    9.3064   24.4460   53.0106 C   0  0  0  0  0  0  0  0  0  0  0  0
    8.9822   23.0784   53.0607 C   0  0  0  0  0  0  0  0  0  0  0  0
    8.0659   20.2899   51.8872 O   0  0  0  0  0  0  0  0  0  0  0  0
   -2.7312   22.4838   55.9369 C   0  0  0  0  0  0  0  0  0  0  0  0
    3.3336   20.3092   51.4209 C   0  0  0  0  0  0  0  0  0  0  0  0
    3.9747   16.2546   50.6530 P   0  0  1  0  0  0  0  0  0  0  0  0
   -1.1128   21.4919   54.4770 N   0  0  0  0  0  0  0  0  0  0  0  0
    3.7103   14.8039   50.6056 O   0  0  0  0  0  0  0  0  0  0  0  0
    6.3100   20.6697   53.2567 S   0  0  0  0  0  0  0  0  0  0  0  0
    2.5536   18.7079   54.3333 C   0  0  0  0  0  0  0  0  0  0  0  0
   -1.3346   22.1870   55.6444 C   0  0  0  0  0  0  0  0  0  0  0  0
    3.7773   16.9624   49.3591 O   0  5  0  0  0  0  0  0  0  0  0  0
    2.9003   19.9241   53.8438 N   0  0  0  0  0  0  0  0  0  0  0  0
   -0.3952   22.5680   56.4521 N   0  0  0  0  0  0  0  0  0  0  0  0
    3.2396   16.8725   51.7809 O   0  0  0  0  0  0  0  0  0  0  0  0
    3.8906   19.9002   52.7576 C   0  0  2  0  0  0  0  0  0  0  0  0
    0.9274   22.2892   56.1652 C   0  0  0  0  0  0  0  0  0  0  0  0
    1.8692   22.7008   57.0176 N   0  0  0  0  0  0  0  0  0  0  0  0
    5.3046   19.5536   52.8634 C   0  0  1  0  0  0  0  0  0  0  0  0
    1.2450   21.5648   54.9445 C   0  0  0  0  0  0  0  0  0  0  0  0
    3.3464   18.2926   55.1496 O   0  0  0  0  0  0  0  0  0  0  0  0
    5.8543   18.1955   52.6060 C   0  0  0  0  0  0  0  0  0  0  0  0
    0.1720   21.1973   54.1582 C   0  0  0  0  0  0  0  0  0  0  0  0
    6.1182   17.7659   51.2270 C   0  0  0  0  0  0  0  0  0  0  0  0
    2.6732   21.2695   54.5560 C   0  0  0  0  0  0  0  0  0  0  0  0
    5.4944   16.4986   50.9559 O   0  0  0  0  0  0  0  0  0  0  0  0
  1  2  1  0  0  0  0
  1  8  2  0  0  0  0
  1 14  1  0  0  0  0
  2  3  2  0  0  0  0
  2  7  1  0  0  0  0
  3  4  1  0  0  0  0
  4  5  2  0  0  0  0
  5  6  1  0  0  0  0
  6  7  2  0  0  0  0
  9 16  1  0  0  0  0
 10 21  1  0  0  0  0
 11 13  1  6  0  0  0
 11 17  1  0  0  0  0
 11 20  2  0  0  0  0
 11 31  1  0  0  0  0
 12 16  2  0  0  0  0
 12 28  1  0  0  0  0
 15 26  1  0  0  0  0
 15 18  1  0  0  0  0
 16 19  1  0  0  0  0
 18 30  1  0  0  0  0
 19 22  2  0  0  0  0
 21 18  1  1  0  0  0
 21 24  1  0  0  0  0
 22 23  1  0  0  0  0
 22 25  1  0  0  0  0
 24 14  1  6  0  0  0
 24 27  1  0  0  0  0
 25 28  2  0  0  0  0
 25 30  1  0  0  0  0
 27 29  1  0  0  0  0
 29 31  1  0  0  0  0
M  CHG  1  17  -1
M  END
>  <CHROM.1>
113.28897974,141.54430775,-120.74132137,82.35851227,111.14057546,-56.30614778
92.81973477,-97.69825131,145.08270579,-128.03270307,77.77341933,-172.63874281
4.06540252,20.22579995,53.05671385,-0.42642272,0.36864404,0.44790167

>  <Name>
ligand

>  <RI>
0

>  <Rbt.Current_Directory>
/home/itssahil/PROJECTS/Mol_Feturizer/New_Systems/rnas/2HOO

>  <Rbt.Executable>
rbdock ($Id: //depot/dev/client3/rdock/2013.1/src/exe/rbdock.cxx#4 $)

>  <Rbt.Library>
libRbt.so (2013.1, Build901 2013/11/27)

>  <Rbt.Parameter_File>
/export/apps/rDock/src/rDock_2013.1_src/data/scripts/dock_solv.prm

>  <Rbt.Receptor>
prm/pocket_docking_7.prm

>  <SCORE>
-18.754

>  <SCORE.INTER>
-8.95941

>  <SCORE.INTER.CONST>
1

>  <SCORE.INTER.POLAR>
0

>  <SCORE.INTER.ROT>
12

>  <SCORE.INTER.SOLV>
11.3146

>  <SCORE.INTER.VDW>
-21.3445

>  <SCORE.INTER.norm>
-0.289013

>  <SCORE.INTRA>
-9.79459

>  <SCORE.INTRA.DIHEDRAL>
5.49415

>  <SCORE.INTRA.DIHEDRAL.0>
14.6094

>  <SCORE.INTRA.POLAR>
0

>  <SCORE.INTRA.POLAR.0>
0

>  <SCORE.INTRA.REPUL>
0

>  <SCORE.INTRA.REPUL.0>
0

>  <SCORE.INTRA.SOLV>
5.15239

>  <SCORE.INTRA.SOLV.lig_0>
-65.6478

>  <SCORE.INTRA.VDW>
-15.1179

>  <SCORE.INTRA.VDW.0>
9.35535

>  <SCORE.INTRA.norm>
-0.315955

>  <SCORE.RESTR>
0

>  <SCORE.RESTR.CAVITY>
0

>  <SCORE.RESTR.norm>
0

>  <SCORE.SYSTEM>
0

>  <SCORE.SYSTEM.CONST>
0

>  <SCORE.SYSTEM.DIHEDRAL>
0

>  <SCORE.SYSTEM.SOLV>
0

>  <SCORE.SYSTEM.norm>
0

>  <SCORE.heavy>
31

>  <SCORE.norm>
-0.604968

>  <RMSD>
8.185

$$$$
ligand
 OpenBabel11021811443D
libRbt.so/2013.1/901 2013/11/27
 31 32  0  0  0  0  0  0  0  0999 V2000
    1.6379   16.1032   55.3691 C   0  0  0  0  0  0  0  0  0  0  0  0
    0.5201   16.2809   56.3922 C   0  0  0  0  0  0  0  0  0  0  0  0
    0.6860   17.1894   57.4873 C   0  0  0  0  0  0  0  0  0  0  0  0
   -0.3534   17.3474   58.4352 C   0  0  0  0  0  0  0  0  0  0  0  0
   -1.5612   16.6189   58.3060 C   0  0  0  0  0  0  0  0  0  0  0  0
   -1.7442   15.7250   57.2314 C   0  0  0  0  0  0  0  0  0  0  0  0
   -0.7227   15.5527   56.2802 C   0  0  0  0  0  0  0  0  0  0  0  0
    1.6600   15.1044   54.6505 O   0  0  0  0  0  0  0  0  0  0  0  0
    2.2416   13.9981   46.8671 C   0  0  0  0  0  0  0  0  0  0  0  0
    0.9337   17.6794   52.4801 C   0  0  0  0  0  0  0  0  0  0  0  0
    3.2694   22.8313   54.9858 P   0  0  1  0  0  0  0  0  0  0  0  0
    1.8549   15.0406   48.9879 N   0  0  0  0  0  0  0  0  0  0  0  0
    1.8907   22.5032   55.3961 O   0  0  0  0  0  0  0  0  0  0  0  0
    2.6335   17.0560   55.2394 S   0  0  0  0  0  0  0  0  0  0  0  0
    3.5563   19.4869   51.3986 C   0  0  0  0  0  0  0  0  0  0  0  0
    2.7610   14.7733   47.9866 C   0  0  0  0  0  0  0  0  0  0  0  0
    3.4423   23.0633   53.5262 O   0  5  0  0  0  0  0  0  0  0  0  0
    3.2577   18.2143   51.7595 N   0  0  0  0  0  0  0  0  0  0  0  0
    3.9963   15.1657   48.0016 N   0  0  0  0  0  0  0  0  0  0  0  0
    3.8059   23.9281   55.8245 O   0  0  0  0  0  0  0  0  0  0  0  0
    2.3232   18.0888   52.8874 C   0  0  2  0  0  0  0  0  0  0  0  0
    4.4841   15.8947   49.0693 C   0  0  0  0  0  0  0  0  0  0  0  0
    5.7629   16.2785   49.0532 N   0  0  0  0  0  0  0  0  0  0  0  0
    2.6188   18.2939   54.3021 C   0  0  1  0  0  0  0  0  0  0  0  0
    3.5901   16.2109   50.1723 C   0  0  0  0  0  0  0  0  0  0  0  0
    3.9281   19.5684   50.2485 O   0  0  0  0  0  0  0  0  0  0  0  0
    2.8972   19.6207   54.9144 C   0  0  0  0  0  0  0  0  0  0  0  0
    2.2930   15.7543   50.0546 C   0  0  0  0  0  0  0  0  0  0  0  0
    4.1452   20.3240   54.5928 C   0  0  0  0  0  0  0  0  0  0  0  0
    4.0765   16.9661   51.3852 C   0  0  0  0  0  0  0  0  0  0  0  0
    4.2016   21.5989   55.2561 O   0  0  0  0  0  0  0  0  0  0  0  0
  1  2  1  0  0  0  0
  1  8  2  0  0  0  0
  1 14  1  0  0  0  0
  2  3  2  0  0  0  0
  2  7  1  0  0  0  0
  3  4  1  0  0  0  0
  4  5  2  0  0  0  0
  5  6  1  0  0  0  0
  6  7  2  0  0  0  0
  9 16  1  0  0  0  0
 10 21  1  0  0  0  0
 11 13  1  1  0  0  0
 11 17  1  0  0  0  0
 11 20  2  0  0  0  0
 11 31  1  0  0  0  0
 12 16  2  0  0  0  0
 12 28  1  0  0  0  0
 15 26  1  0  0  0  0
 15 18  1  0  0  0  0
 16 19  1  0  0  0  0
 18 30  1  0  0  0  0
 19 22  2  0  0  0  0
 21 18  1  1  0  0  0
 21 24  1  0  0  0  0
 22 23  1  0  0  0  0
 22 25  1  0  0  0  0
 24 14  1  1  0  0  0
 24 27  1  0  0  0  0
 25 28  2  0  0  0  0
 25 30  1  0  0  0  0
 27 29  1  0  0  0  0
 29 31  1  0  0  0  0
M  CHG  1  17  -1
M  END
>  <CHROM.1>
160.96756209,-89.99624943,-51.82016161,-156.42278564,105.08769964,-96.05589129
68.92619627,111.10154452,127.01049861,178.38718573,-66.22715780,66.46377441
2.51200009,18.12240992,53.28292457,1.85096939,0.99560761,0.74457641

>  <Name>
ligand

>  <RI>
0

>  <Rbt.Current_Directory>
/home/itssahil/PROJECTS/Mol_Feturizer/New_Systems/rnas/2HOO

>  <Rbt.Executable>
rbdock ($Id: //depot/dev/client3/rdock/2013.1/src/exe/rbdock.cxx#4 $)

>  <Rbt.Library>
libRbt.so (2013.1, Build901 2013/11/27)

>  <Rbt.Parameter_File>
/export/apps/rDock/src/rDock_2013.1_src/data/scripts/dock_solv.prm

>  <Rbt.Receptor>
prm/pocket_docking_8.prm

>  <SCORE>
-25.8746

>  <SCORE.INTER>
-13.8231

>  <SCORE.INTER.CONST>
1

>  <SCORE.INTER.POLAR>
0

>  <SCORE.INTER.ROT>
12

>  <SCORE.INTER.SOLV>
8.25802

>  <SCORE.INTER.VDW>
-23.5681

>  <SCORE.INTER.norm>
-0.445908

>  <SCORE.INTRA>
-12.0514

>  <SCORE.INTRA.DIHEDRAL>
2.47026

>  <SCORE.INTRA.DIHEDRAL.0>
14.6094

>  <SCORE.INTRA.POLAR>
0

>  <SCORE.INTRA.POLAR.0>
0

>  <SCORE.INTRA.REPUL>
0

>  <SCORE.INTRA.REPUL.0>
0

>  <SCORE.INTRA.SOLV>
0.754315

>  <SCORE.INTRA.SOLV.lig_0>
-65.6478

>  <SCORE.INTRA.VDW>
-13.6637

>  <SCORE.INTRA.VDW.0>
9.35535

>  <SCORE.INTRA.norm>
-0.388756

>  <SCORE.RESTR>
0

>  <SCORE.RESTR.CAVITY>
0

>  <SCORE.RESTR.norm>
0

>  <SCORE.SYSTEM>
0

>  <SCORE.SYSTEM.CONST>
0

>  <SCORE.SYSTEM.DIHEDRAL>
0

>  <SCORE.SYSTEM.SOLV>
0

>  <SCORE.SYSTEM.norm>
0

>  <SCORE.heavy>
31

>  <SCORE.norm>
-0.834664

>  <RMSD>
8.194

$$$$
ligand
 OpenBabel11021811443D
libRbt.so/2013.1/901 2013/11/27
 31 32  0  0  0  0  0  0  0  0999 V2000
    5.7705   19.1898   50.4911 C   0  0  0  0  0  0  0  0  0  0  0  0
    7.1491   19.0544   49.8514 C   0  0  0  0  0  0  0  0  0  0  0  0
    7.8852   17.8324   49.9825 C   0  0  0  0  0  0  0  0  0  0  0  0
    9.1651   17.7141   49.3896 C   0  0  0  0  0  0  0  0  0  0  0  0
    9.7224   18.7930   48.6604 C   0  0  0  0  0  0  0  0  0  0  0  0
    9.0097   20.0007   48.5160 C   0  0  0  0  0  0  0  0  0  0  0  0
    7.7373   20.1386   49.0992 C   0  0  0  0  0  0  0  0  0  0  0  0
    4.7619   18.9198   49.8398 O   0  0  0  0  0  0  0  0  0  0  0  0
   -2.2821   25.1839   52.6338 C   0  0  0  0  0  0  0  0  0  0  0  0
    4.2155   22.3607   53.9834 C   0  0  0  0  0  0  0  0  0  0  0  0
    9.2264   23.9456   53.3047 P   0  0  1  0  0  0  0  0  0  0  0  0
   -0.1098   24.3647   53.2206 N   0  0  0  0  0  0  0  0  0  0  0  0
   10.5571   24.5294   53.0492 O   0  0  0  0  0  0  0  0  0  0  0  0
    5.6396   19.6160   51.8014 S   0  0  0  0  0  0  0  0  0  0  0  0
    2.3418   20.7797   51.8686 C   0  0  0  0  0  0  0  0  0  0  0  0
   -0.9757   24.7009   52.2046 C   0  0  0  0  0  0  0  0  0  0  0  0
    9.2395   22.7212   54.1503 O   0  5  0  0  0  0  0  0  0  0  0  0
    3.2053   21.8207   51.7711 N   0  0  0  0  0  0  0  0  0  0  0  0
   -0.6870   24.6086   50.9444 N   0  0  0  0  0  0  0  0  0  0  0  0
    8.2946   24.9887   53.7925 O   0  0  0  0  0  0  0  0  0  0  0  0
    4.3945   21.7274   52.6302 C   0  0  2  0  0  0  0  0  0  0  0  0
    0.5512   24.1434   50.5443 C   0  0  0  0  0  0  0  0  0  0  0  0
    0.8126   24.0573   49.2377 N   0  0  0  0  0  0  0  0  0  0  0  0
    5.6644   21.0836   52.3081 C   0  0  1  0  0  0  0  0  0  0  0  0
    1.5199   23.7593   51.5591 C   0  0  0  0  0  0  0  0  0  0  0  0
    1.5272   20.9331   52.7520 O   0  0  0  0  0  0  0  0  0  0  0  0
    6.9927   21.7391   52.4451 C   0  0  0  0  0  0  0  0  0  0  0  0
    1.1168   23.9039   52.8711 C   0  0  0  0  0  0  0  0  0  0  0  0
    7.2587   23.0002   51.7418 C   0  0  0  0  0  0  0  0  0  0  0  0
    2.8718   23.2035   51.1832 C   0  0  0  0  0  0  0  0  0  0  0  0
    8.6143   23.4310   51.9551 O   0  0  0  0  0  0  0  0  0  0  0  0
  1  2  1  0  0  0  0
  1  8  2  0  0  0  0
  1 14  1  0  0  0  0
  2  3  2  0  0  0  0
  2  7  1  0  0  0  0
  3  4  1  0  0  0  0
  4  5  2  0  0  0  0
  5  6  1  0  0  0  0
  6  7  2  0  0  0  0
  9 16  1  0  0  0  0
 10 21  1  0  0  0  0
 11 13  1  6  0  0  0
 11 17  1  0  0  0  0
 11 20  2  0  0  0  0
 11 31  1  0  0  0  0
 12 16  2  0  0  0  0
 12 28  1  0  0  0  0
 15 26  1  0  0  0  0
 15 18  1  0  0  0  0
 16 19  1  0  0  0  0
 18 30  1  0  0  0  0
 19 22  2  0  0  0  0
 21 18  1  1  0  0  0
 21 24  1  0  0  0  0
 22 23  1  0  0  0  0
 22 25  1  0  0  0  0
 24 14  1  1  0  0  0
 24 27  1  0  0  0  0
 25 28  2  0  0  0  0
 25 30  1  0  0  0  0
 27 29  1  0  0  0  0
 29 31  1  0  0  0  0
M  CHG  1  17  -1
M  END
>  <CHROM.1>
-92.45233362,81.75480937,101.68258341,87.46915279,-90.81614966,41.11356577
126.57332438,123.89304727,-123.39639757,-177.28157559,-68.82358257,-169.15974389
5.08737799,22.06691343,51.70784964,0.30341879,0.10877254,-2.58400365

>  <Name>
ligand

>  <RI>
0

>  <Rbt.Current_Directory>
/home/itssahil/PROJECTS/Mol_Feturizer/New_Systems/rnas/2HOO

>  <Rbt.Executable>
rbdock ($Id: //depot/dev/client3/rdock/2013.1/src/exe/rbdock.cxx#4 $)

>  <Rbt.Library>
libRbt.so (2013.1, Build901 2013/11/27)

>  <Rbt.Parameter_File>
/export/apps/rDock/src/rDock_2013.1_src/data/scripts/dock_solv.prm

>  <Rbt.Receptor>
prm/pocket_docking_8.prm

>  <SCORE>
-27.4423

>  <SCORE.INTER>
-15.4479

>  <SCORE.INTER.CONST>
1

>  <SCORE.INTER.POLAR>
0

>  <SCORE.INTER.ROT>
12

>  <SCORE.INTER.SOLV>
21.2822

>  <SCORE.INTER.VDW>
-28.9927

>  <SCORE.INTER.norm>
-0.49832

>  <SCORE.INTRA>
-11.9944

>  <SCORE.INTRA.DIHEDRAL>
2.12754

>  <SCORE.INTRA.DIHEDRAL.0>
14.6094

>  <SCORE.INTRA.POLAR>
0

>  <SCORE.INTRA.POLAR.0>
0

>  <SCORE.INTRA.REPUL>
0

>  <SCORE.INTRA.REPUL.0>
0

>  <SCORE.INTRA.SOLV>
1.87839

>  <SCORE.INTRA.SOLV.lig_0>
-65.6478

>  <SCORE.INTRA.VDW>
-13.9973

>  <SCORE.INTRA.VDW.0>
9.35535

>  <SCORE.INTRA.norm>
-0.386915

>  <SCORE.RESTR>
0

>  <SCORE.RESTR.CAVITY>
0

>  <SCORE.RESTR.norm>
0

>  <SCORE.SYSTEM>
0

>  <SCORE.SYSTEM.CONST>
0

>  <SCORE.SYSTEM.DIHEDRAL>
0

>  <SCORE.SYSTEM.SOLV>
0

>  <SCORE.SYSTEM.norm>
0

>  <SCORE.heavy>
31

>  <SCORE.norm>
-0.885234

>  <RMSD>
8.215

$$$$
ligand
 OpenBabel11021811443D
libRbt.so/2013.1/901 2013/11/27
 31 32  0  0  0  0  0  0  0  0999 V2000
    5.0191   19.5430   53.5612 C   0  0  0  0  0  0  0  0  0  0  0  0
    4.6478   20.2554   54.8584 C   0  0  0  0  0  0  0  0  0  0  0  0
    3.3542   20.0586   55.4414 C   0  0  0  0  0  0  0  0  0  0  0  0
    3.0145   20.7250   56.6432 C   0  0  0  0  0  0  0  0  0  0  0  0
    3.9469   21.5807   57.2793 C   0  0  0  0  0  0  0  0  0  0  0  0
    5.2266   21.7813   56.7230 C   0  0  0  0  0  0  0  0  0  0  0  0
    5.5825   21.1297   55.5286 C   0  0  0  0  0  0  0  0  0  0  0  0
    5.0386   18.3132   53.5197 O   0  0  0  0  0  0  0  0  0  0  0  0
    4.3999   13.7181   45.4904 C   0  0  0  0  0  0  0  0  0  0  0  0
    6.3371   18.8020   48.9239 C   0  0  0  0  0  0  0  0  0  0  0  0
    9.7126   20.8591   53.6140 P   0  0  1  0  0  0  0  0  0  0  0  0
    3.8438   15.4392   47.0599 N   0  0  0  0  0  0  0  0  0  0  0  0
   10.8666   21.5166   54.2564 O   0  0  0  0  0  0  0  0  0  0  0  0
    5.3372   20.2666   52.4250 S   0  0  0  0  0  0  0  0  0  0  0  0
    3.4558   18.2777   50.4426 C   0  0  0  0  0  0  0  0  0  0  0  0
    4.6485   14.3590   46.7755 C   0  0  0  0  0  0  0  0  0  0  0  0
   10.0327   19.5779   52.9284 O   0  5  0  0  0  0  0  0  0  0  0  0
    4.7282   17.8221   50.5541 N   0  0  0  0  0  0  0  0  0  0  0  0
    5.5724   13.9135   47.5681 N   0  0  0  0  0  0  0  0  0  0  0  0
    8.5872   20.7502   54.5711 O   0  0  0  0  0  0  0  0  0  0  0  0
    5.7739   18.8282   50.3190 C   0  0  2  0  0  0  0  0  0  0  0  0
    5.7983   14.5218   48.7881 C   0  0  0  0  0  0  0  0  0  0  0  0
    6.7553   14.0333   49.5809 N   0  0  0  0  0  0  0  0  0  0  0  0
    6.2720   19.8182   51.2691 C   0  0  1  0  0  0  0  0  0  0  0  0
    4.9827   15.6654   49.1658 C   0  0  0  0  0  0  0  0  0  0  0  0
    2.7334   17.8573   51.3194 O   0  0  0  0  0  0  0  0  0  0  0  0
    7.6210   20.4411   51.1976 C   0  0  0  0  0  0  0  0  0  0  0  0
    4.0331   16.0656   48.2477 C   0  0  0  0  0  0  0  0  0  0  0  0
    7.8670   21.7247   51.8667 C   0  0  0  0  0  0  0  0  0  0  0  0
    5.1534   16.3438   50.5031 C   0  0  0  0  0  0  0  0  0  0  0  0
    9.1845   21.7591   52.4427 O   0  0  0  0  0  0  0  0  0  0  0  0
  1  2  1  0  0  0  0
  1  8  2  0  0  0  0
  1 14  1  0  0  0  0
  2  3  2  0  0  0  0
  2  7  1  0  0  0  0
  3  4  1  0  0  0  0
  4  5  2  0  0  0  0
  5  6  1  0  0  0  0
  6  7  2  0  0  0  0
  9 16  1  0  0  0  0
 10 21  1  0  0  0  0
 11 13  1  1  0  0  0
 11 17  1  0  0  0  0
 11 20  2  0  0  0  0
 11 31  1  0  0  0  0
 12 16  2  0  0  0  0
 12 28  1  0  0  0  0
 15 26  1  0  0  0  0
 15 18  1  0  0  0  0
 16 19  1  0  0  0  0
 18 30  1  0  0  0  0
 19 22  2  0  0  0  0
 21 18  1  6  0  0  0
 21 24  1  0  0  0  0
 22 23  1  0  0  0  0
 22 25  1  0  0  0  0
 24 14  1  6  0  0  0
 24 27  1  0  0  0  0
 25 28  2  0  0  0  0
 25 30  1  0  0  0  0
 27 29  1  0  0  0  0
 29 31  1  0  0  0  0
M  CHG  1  17  -1
M  END
>  <CHROM.1>
-61.33259888,152.09974622,74.96009214,-137.31726545,-97.62445855,67.89912733
153.73669163,-20.99838784,154.34472983,142.60706815,-65.07751822,-158.07625448
6.02449981,18.74020273,51.76401256,1.30724594,0.26113775,0.91326362

>  <Name>
ligand

>  <RI>
0

>  <Rbt.Current_Directory>
/home/itssahil/PROJECTS/Mol_Feturizer/New_Systems/rnas/2HOO

>  <Rbt.Executable>
rbdock ($Id: //depot/dev/client3/rdock/2013.1/src/exe/rbdock.cxx#4 $)

>  <Rbt.Library>
libRbt.so (2013.1, Build901 2013/11/27)

>  <Rbt.Parameter_File>
/export/apps/rDock/src/rDock_2013.1_src/data/scripts/dock_solv.prm

>  <Rbt.Receptor>
prm/pocket_docking_4.prm

>  <SCORE>
-14.3857

>  <SCORE.INTER>
-5.73958

>  <SCORE.INTER.CONST>
1

>  <SCORE.INTER.POLAR>
0

>  <SCORE.INTER.ROT>
12

>  <SCORE.INTER.SOLV>
18.5562

>  <SCORE.INTER.VDW>
-21.6118

>  <SCORE.INTER.norm>
-0.185148

>  <SCORE.INTRA>
-8.65096

>  <SCORE.INTRA.DIHEDRAL>
3.70728

>  <SCORE.INTRA.DIHEDRAL.0>
14.6094

>  <SCORE.INTRA.POLAR>
0

>  <SCORE.INTRA.POLAR.0>
0

>  <SCORE.INTRA.REPUL>
0

>  <SCORE.INTRA.REPUL.0>
0

>  <SCORE.INTRA.SOLV>
3.82803

>  <SCORE.INTRA.SOLV.lig_0>
-65.6478

>  <SCORE.INTRA.VDW>
-12.4186

>  <SCORE.INTRA.VDW.0>
9.35535

>  <SCORE.INTRA.norm>
-0.279063

>  <SCORE.RESTR>
0.0048562

>  <SCORE.RESTR.CAVITY>
0.0048562

>  <SCORE.RESTR.norm>
0.000156652

>  <SCORE.SYSTEM>
0

>  <SCORE.SYSTEM.CONST>
0

>  <SCORE.SYSTEM.DIHEDRAL>
0

>  <SCORE.SYSTEM.SOLV>
0

>  <SCORE.SYSTEM.norm>
0

>  <SCORE.heavy>
31

>  <SCORE.norm>
-0.464054

>  <RMSD>
8.286

$$$$
ligand
 OpenBabel11021811443D
libRbt.so/2013.1/901 2013/11/27
 31 32  0  0  0  0  0  0  0  0999 V2000
    9.1622   19.5381   53.0980 C   0  0  0  0  0  0  0  0  0  0  0  0
   10.5978   19.7918   53.5483 C   0  0  0  0  0  0  0  0  0  0  0  0
   10.9598   21.0562   54.1162 C   0  0  0  0  0  0  0  0  0  0  0  0
   12.2941   21.2868   54.5290 C   0  0  0  0  0  0  0  0  0  0  0  0
   13.2745   20.2737   54.3918 C   0  0  0  0  0  0  0  0  0  0  0  0
   12.9347   19.0214   53.8409 C   0  0  0  0  0  0  0  0  0  0  0  0
   11.6148   18.7735   53.4231 C   0  0  0  0  0  0  0  0  0  0  0  0
    8.4011   18.8849   53.8110 O   0  0  0  0  0  0  0  0  0  0  0  0
    1.1269   14.9647   49.9075 C   0  0  0  0  0  0  0  0  0  0  0  0
    6.4895   17.4301   52.1365 C   0  0  0  0  0  0  0  0  0  0  0  0
    9.5165   17.5921   49.0129 P   0  0  1  0  0  0  0  0  0  0  0  0
    3.0133   16.4249   49.6986 N   0  0  0  0  0  0  0  0  0  0  0  0
    9.9860   17.4504   50.4044 O   0  0  0  0  0  0  0  0  0  0  0  0
    8.7034   20.0350   51.8904 S   0  0  0  0  0  0  0  0  0  0  0  0
    5.2681   20.1640   53.5537 C   0  0  0  0  0  0  0  0  0  0  0  0
    1.8188   16.1741   50.3352 C   0  0  0  0  0  0  0  0  0  0  0  0
    9.8787   18.8820   48.3656 O   0  5  0  0  0  0  0  0  0  0  0  0
    5.1401   19.5109   52.3722 N   0  0  0  0  0  0  0  0  0  0  0  0
    1.3122   16.9348   51.2543 N   0  0  0  0  0  0  0  0  0  0  0  0
    9.9051   16.4042   48.2178 O   0  0  0  0  0  0  0  0  0  0  0  0
    6.3763   18.9044   51.8575 C   0  0  2  0  0  0  0  0  0  0  0  0
    1.9701   18.0836   51.6503 C   0  0  0  0  0  0  0  0  0  0  0  0
    1.4168   18.8459   52.5967 N   0  0  0  0  0  0  0  0  0  0  0  0
    7.4407   19.5718   51.1143 C   0  0  1  0  0  0  0  0  0  0  0  0
    3.2356   18.4229   51.0184 C   0  0  0  0  0  0  0  0  0  0  0  0
    5.8050   21.2431   53.4321 O   0  0  0  0  0  0  0  0  0  0  0  0
    7.3926   19.8518   49.6541 C   0  0  0  0  0  0  0  0  0  0  0  0
    3.6918   17.5427   50.0582 C   0  0  0  0  0  0  0  0  0  0  0  0
    7.1177   18.7599   48.7118 C   0  0  0  0  0  0  0  0  0  0  0  0
    3.9785   19.6865   51.3778 C   0  0  0  0  0  0  0  0  0  0  0  0
    7.9481   17.6193   48.9914 O   0  0  0  0  0  0  0  0  0  0  0  0
  1  2  1  0  0  0  0
  1  8  2  0  0  0  0
  1 14  1  0  0  0  0
  2  3  2  0  0  0  0
  2  7  1  0  0  0  0
  3  4  1  0  0  0  0
  4  5  2  0  0  0  0
  5  6  1  0  0  0  0
  6  7  2  0  0  0  0
  9 16  1  0  0  0  0
 10 21  1  0  0  0  0
 11 13  1  1  0  0  0
 11 17  1  0  0  0  0
 11 20  2  0  0  0  0
 11 31  1  0  0  0  0
 12 16  2  0  0  0  0
 12 28  1  0  0  0  0
 15 26  1  0  0  0  0
 15 18  1  0  0  0  0
 16 19  1  0  0  0  0
 18 30  1  0  0  0  0
 19 22  2  0  0  0  0
 21 18  1  6  0  0  0
 21 24  1  0  0  0  0
 22 23  1  0  0  0  0
 22 25  1  0  0  0  0
 24 14  1  1  0  0  0
 24 27  1  0  0  0  0
 25 28  2  0  0  0  0
 25 30  1  0  0  0  0
 27 29  1  0  0  0  0
 29 31  1  0  0  0  0
M  CHG  1  17  -1
M  END
>  <CHROM.1>
-101.13875928,162.44095036,22.60439330,75.94976004,99.19137598,-123.69051874
-83.04067276,127.22954648,99.38353122,-48.65102005,-58.31177944,108.89091926
7.14911932,18.65469964,51.39454765,0.29280803,0.10678154,1.01677522

>  <Name>
ligand

>  <RI>
0

>  <Rbt.Current_Directory>
/home/itssahil/PROJECTS/Mol_Feturizer/New_Systems/rnas/2HOO

>  <Rbt.Executable>
rbdock ($Id: //depot/dev/client3/rdock/2013.1/src/exe/rbdock.cxx#4 $)

>  <Rbt.Library>
libRbt.so (2013.1, Build901 2013/11/27)

>  <Rbt.Parameter_File>
/export/apps/rDock/src/rDock_2013.1_src/data/scripts/dock_solv.prm

>  <Rbt.Receptor>
prm/blind_docking_60.prm

>  <SCORE>
-37.2439

>  <SCORE.INTER>
-24.53

>  <SCORE.INTER.CONST>
1

>  <SCORE.INTER.POLAR>
0

>  <SCORE.INTER.ROT>
12

>  <SCORE.INTER.SOLV>
18.2083

>  <SCORE.INTER.VDW>
-34.0228

>  <SCORE.INTER.norm>
-0.791291

>  <SCORE.INTRA>
-12.7138

>  <SCORE.INTRA.DIHEDRAL>
0.387151

>  <SCORE.INTRA.DIHEDRAL.0>
14.6094

>  <SCORE.INTRA.POLAR>
0

>  <SCORE.INTRA.POLAR.0>
0

>  <SCORE.INTRA.REPUL>
0

>  <SCORE.INTRA.REPUL.0>
0

>  <SCORE.INTRA.SOLV>
4.46418

>  <SCORE.INTRA.SOLV.lig_0>
-65.6478

>  <SCORE.INTRA.VDW>
-15.1395

>  <SCORE.INTRA.VDW.0>
9.35535

>  <SCORE.INTRA.norm>
-0.410124

>  <SCORE.RESTR>
0

>  <SCORE.RESTR.CAVITY>
0

>  <SCORE.RESTR.norm>
0

>  <SCORE.SYSTEM>
0

>  <SCORE.SYSTEM.CONST>
0

>  <SCORE.SYSTEM.DIHEDRAL>
0

>  <SCORE.SYSTEM.SOLV>
0

>  <SCORE.SYSTEM.norm>
0

>  <SCORE.heavy>
31

>  <SCORE.norm>
-1.20142

>  <RMSD>
8.295

$$$$
ligand
 OpenBabel11021811443D
libRbt.so/2013.1/901 2013/11/27
 31 32  0  0  0  0  0  0  0  0999 V2000
    2.7657   15.7365   51.1873 C   0  0  0  0  0  0  0  0  0  0  0  0
    3.3034   15.0570   49.9314 C   0  0  0  0  0  0  0  0  0  0  0  0
    2.7812   15.4089   48.6446 C   0  0  0  0  0  0  0  0  0  0  0  0
    3.2817   14.7726   47.4834 C   0  0  0  0  0  0  0  0  0  0  0  0
    4.3013   13.7943   47.5823 C   0  0  0  0  0  0  0  0  0  0  0  0
    4.8311   13.4401   48.8397 C   0  0  0  0  0  0  0  0  0  0  0  0
    4.3458   14.0595   50.0054 C   0  0  0  0  0  0  0  0  0  0  0  0
    1.9870   15.1345   51.9260 O   0  0  0  0  0  0  0  0  0  0  0  0
   -0.1895   17.6796   59.4264 C   0  0  0  0  0  0  0  0  0  0  0  0
    1.1191   19.6284   53.4340 C   0  0  0  0  0  0  0  0  0  0  0  0
    7.7750   18.3549   54.2733 P   0  0  1  0  0  0  0  0  0  0  0  0
    0.8951   17.7304   57.2921 N   0  0  0  0  0  0  0  0  0  0  0  0
    8.3576   17.2474   55.0547 O   0  0  0  0  0  0  0  0  0  0  0  0
    3.1439   17.0290   51.5070 S   0  0  0  0  0  0  0  0  0  0  0  0
   -0.4519   17.4717   51.7299 C   0  0  0  0  0  0  0  0  0  0  0  0
   -0.1858   17.2900   58.0220 C   0  0  0  0  0  0  0  0  0  0  0  0
    8.0886   19.7127   54.7950 O   0  5  0  0  0  0  0  0  0  0  0  0
    0.2127   17.3684   52.9074 N   0  0  0  0  0  0  0  0  0  0  0  0
   -1.1514   16.5778   57.5316 N   0  0  0  0  0  0  0  0  0  0  0  0
    8.0905   18.1887   52.8356 O   0  0  0  0  0  0  0  0  0  0  0  0
    1.4119   18.2108   53.0230 C   0  0  2  0  0  0  0  0  0  0  0  0
   -1.1382   16.2062   56.2008 C   0  0  0  0  0  0  0  0  0  0  0  0
   -2.1472   15.4687   55.7307 N   0  0  0  0  0  0  0  0  0  0  0  0
    2.7971   17.8041   52.8070 C   0  0  1  0  0  0  0  0  0  0  0  0
   -0.0247   16.6256   55.3642 C   0  0  0  0  0  0  0  0  0  0  0  0
    0.0965   16.8700   50.8328 O   0  0  0  0  0  0  0  0  0  0  0  0
    3.9061   18.0732   53.7613 C   0  0  0  0  0  0  0  0  0  0  0  0
    0.9467   17.3879   55.9809 C   0  0  0  0  0  0  0  0  0  0  0  0
    5.2972   18.0225   53.2943 C   0  0  0  0  0  0  0  0  0  0  0  0
    0.0669   16.2141   53.9150 C   0  0  0  0  0  0  0  0  0  0  0  0
    6.2104   18.2963   54.3712 O   0  0  0  0  0  0  0  0  0  0  0  0
  1  2  1  0  0  0  0
  1  8  2  0  0  0  0
  1 14  1  0  0  0  0
  2  3  2  0  0  0  0
  2  7  1  0  0  0  0
  3  4  1  0  0  0  0
  4  5  2  0  0  0  0
  5  6  1  0  0  0  0
  6  7  2  0  0  0  0
  9 16  1  0  0  0  0
 10 21  1  0  0  0  0
 11 13  1  1  0  0  0
 11 17  1  0  0  0  0
 11 20  2  0  0  0  0
 11 31  1  0  0  0  0
 12 16  2  0  0  0  0
 12 28  1  0  0  0  0
 15 26  1  0  0  0  0
 15 18  1  0  0  0  0
 16 19  1  0  0  0  0
 18 30  1  0  0  0  0
 19 22  2  0  0  0  0
 21 18  1  1  0  0  0
 21 24  1  0  0  0  0
 22 23  1  0  0  0  0
 22 25  1  0  0  0  0
 24 14  1  1  0  0  0
 24 27  1  0  0  0  0
 25 28  2  0  0  0  0
 25 30  1  0  0  0  0
 27 29  1  0  0  0  0
 29 31  1  0  0  0  0
M  CHG  1  17  -1
M  END
>  <CHROM.1>
103.75981575,-173.69266496,-69.30003565,76.92721919,83.01708814,-136.54918049
-131.67488482,20.08134556,124.94725018,-179.35009831,-179.07897476,-113.84750096
2.89827220,16.95695947,53.27573952,0.63315969,-0.21336755,-1.95324382

>  <Name>
ligand

>  <RI>
0

>  <Rbt.Current_Directory>
/home/itssahil/PROJECTS/Mol_Feturizer/New_Systems/rnas/2HOO

>  <Rbt.Executable>
rbdock ($Id: //depot/dev/client3/rdock/2013.1/src/exe/rbdock.cxx#4 $)

>  <Rbt.Library>
libRbt.so (2013.1, Build901 2013/11/27)

>  <Rbt.Parameter_File>
/export/apps/rDock/src/rDock_2013.1_src/data/scripts/dock_solv.prm

>  <Rbt.Receptor>
prm/pocket_docking_8.prm

>  <SCORE>
-26.893

>  <SCORE.INTER>
-15.0645

>  <SCORE.INTER.CONST>
1

>  <SCORE.INTER.POLAR>
0

>  <SCORE.INTER.ROT>
12

>  <SCORE.INTER.SOLV>
24.9915

>  <SCORE.INTER.VDW>
-29.9735

>  <SCORE.INTER.norm>
-0.485952

>  <SCORE.INTRA>
-11.8284

>  <SCORE.INTRA.DIHEDRAL>
0.419148

>  <SCORE.INTRA.DIHEDRAL.0>
14.6094

>  <SCORE.INTRA.POLAR>
0

>  <SCORE.INTRA.POLAR.0>
0

>  <SCORE.INTRA.REPUL>
0

>  <SCORE.INTRA.REPUL.0>
0

>  <SCORE.INTRA.SOLV>
1.49658

>  <SCORE.INTRA.SOLV.lig_0>
-65.6478

>  <SCORE.INTRA.VDW>
-12.7863

>  <SCORE.INTRA.VDW.0>
9.35535

>  <SCORE.INTRA.norm>
-0.381563

>  <SCORE.RESTR>
0

>  <SCORE.RESTR.CAVITY>
0

>  <SCORE.RESTR.norm>
0

>  <SCORE.SYSTEM>
0

>  <SCORE.SYSTEM.CONST>
0

>  <SCORE.SYSTEM.DIHEDRAL>
0

>  <SCORE.SYSTEM.SOLV>
0

>  <SCORE.SYSTEM.norm>
0

>  <SCORE.heavy>
31

>  <SCORE.norm>
-0.867515

>  <RMSD>
8.301

$$$$
ligand
 OpenBabel11021811443D
libRbt.so/2013.1/901 2013/11/27
 31 32  0  0  0  0  0  0  0  0999 V2000
    6.3819   14.0376   49.0347 C   0  0  0  0  0  0  0  0  0  0  0  0
    6.5290   12.5956   49.5113 C   0  0  0  0  0  0  0  0  0  0  0  0
    7.4426   12.2779   50.5680 C   0  0  0  0  0  0  0  0  0  0  0  0
    7.5771   10.9377   51.0035 C   0  0  0  0  0  0  0  0  0  0  0  0
    6.8095    9.9074   50.4073 C   0  0  0  0  0  0  0  0  0  0  0  0
    5.9011   10.2027   49.3705 C   0  0  0  0  0  0  0  0  0  0  0  0
    5.7544   11.5277   48.9224 C   0  0  0  0  0  0  0  0  0  0  0  0
    5.4816   14.3367   48.2507 O   0  0  0  0  0  0  0  0  0  0  0  0
   -0.3777   19.8806   53.1761 C   0  0  0  0  0  0  0  0  0  0  0  0
    7.2756   18.2402   51.0931 C   0  0  0  0  0  0  0  0  0  0  0  0
    8.3655   17.2048   44.7300 P   0  0  1  0  0  0  0  0  0  0  0  0
    0.9055   18.5648   51.6411 N   0  0  0  0  0  0  0  0  0  0  0  0
    9.2462   17.9576   43.8164 O   0  0  0  0  0  0  0  0  0  0  0  0
    7.2539   15.0184   49.4743 S   0  0  0  0  0  0  0  0  0  0  0  0
    4.4307   16.4490   50.9619 C   0  0  0  0  0  0  0  0  0  0  0  0
    0.8725   19.6736   52.4563 C   0  0  0  0  0  0  0  0  0  0  0  0
    7.1293   16.6703   44.0975 O   0  5  0  0  0  0  0  0  0  0  0  0
    5.0156   17.5056   50.3452 N   0  0  0  0  0  0  0  0  0  0  0  0
    1.8619   20.4985   52.6002 N   0  0  0  0  0  0  0  0  0  0  0  0
    9.1439   16.1789   45.4620 O   0  0  0  0  0  0  0  0  0  0  0  0
    6.4681   17.3889   50.1511 C   0  0  2  0  0  0  0  0  0  0  0  0
    3.0422   20.3001   51.9096 C   0  0  0  0  0  0  0  0  0  0  0  0
    4.0389   21.1724   52.0788 N   0  0  0  0  0  0  0  0  0  0  0  0
    7.1616   16.5413   49.1859 C   0  0  1  0  0  0  0  0  0  0  0  0
    3.1529   19.1542   51.0205 C   0  0  0  0  0  0  0  0  0  0  0  0
    4.0009   15.6326   50.1770 O   0  0  0  0  0  0  0  0  0  0  0  0
    7.8018   17.0432   47.9405 C   0  0  0  0  0  0  0  0  0  0  0  0
    2.0462   18.3330   50.9452 C   0  0  0  0  0  0  0  0  0  0  0  0
    7.0062   17.8016   46.9670 C   0  0  0  0  0  0  0  0  0  0  0  0
    4.4004   18.9097   50.2069 C   0  0  0  0  0  0  0  0  0  0  0  0
    7.8044   18.1728   45.8296 O   0  0  0  0  0  0  0  0  0  0  0  0
  1  2  1  0  0  0  0
  1  8  2  0  0  0  0
  1 14  1  0  0  0  0
  2  3  2  0  0  0  0
  2  7  1  0  0  0  0
  3  4  1  0  0  0  0
  4  5  2  0  0  0  0
  5  6  1  0  0  0  0
  6  7  2  0  0  0  0
  9 16  1  0  0  0  0
 10 21  1  0  0  0  0
 11 13  1  6  0  0  0
 11 17  1  0  0  0  0
 11 20  2  0  0  0  0
 11 31  1  0  0  0  0
 12 16  2  0  0  0  0
 12 28  1  0  0  0  0
 15 26  1  0  0  0  0
 15 18  1  0  0  0  0
 16 19  1  0  0  0  0
 18 30  1  0  0  0  0
 19 22  2  0  0  0  0
 21 18  1  1  0  0  0
 21 24  1  0  0  0  0
 22 23  1  0  0  0  0
 22 25  1  0  0  0  0
 24 14  1  1  0  0  0
 24 27  1  0  0  0  0
 25 28  2  0  0  0  0
 25 30  1  0  0  0  0
 27 29  1  0  0  0  0
 29 31  1  0  0  0  0
M  CHG  1  17  -1
M  END
>  <CHROM.1>
-170.78242114,-174.10946057,93.08153737,-93.34414539,-105.15381782,10.22320009
103.17691531,124.22351511,127.60781980,-179.02259532,69.79005522,-174.25698212
5.70665310,16.53300394,49.16798396,0.25801912,-0.84699662,2.76107860

>  <Name>
ligand

>  <RI>
0

>  <Rbt.Current_Directory>
/home/itssahil/PROJECTS/Mol_Feturizer/New_Systems/rnas/2HOO

>  <Rbt.Executable>
rbdock ($Id: //depot/dev/client3/rdock/2013.1/src/exe/rbdock.cxx#4 $)

>  <Rbt.Library>
libRbt.so (2013.1, Build901 2013/11/27)

>  <Rbt.Parameter_File>
/export/apps/rDock/src/rDock_2013.1_src/data/scripts/dock_solv.prm

>  <Rbt.Receptor>
prm/pocket_docking_6.prm

>  <SCORE>
-25.5828

>  <SCORE.INTER>
-14.2697

>  <SCORE.INTER.CONST>
1

>  <SCORE.INTER.POLAR>
0

>  <SCORE.INTER.ROT>
12

>  <SCORE.INTER.SOLV>
13.2354

>  <SCORE.INTER.VDW>
-25.5249

>  <SCORE.INTER.norm>
-0.460313

>  <SCORE.INTRA>
-11.3131

>  <SCORE.INTRA.DIHEDRAL>
-0.556549

>  <SCORE.INTRA.DIHEDRAL.0>
14.6094

>  <SCORE.INTRA.POLAR>
0

>  <SCORE.INTRA.POLAR.0>
0

>  <SCORE.INTRA.REPUL>
0

>  <SCORE.INTRA.REPUL.0>
0

>  <SCORE.INTRA.SOLV>
2.83934

>  <SCORE.INTRA.SOLV.lig_0>
-65.6478

>  <SCORE.INTRA.VDW>
-12.4545

>  <SCORE.INTRA.VDW.0>
9.35535

>  <SCORE.INTRA.norm>
-0.364939

>  <SCORE.RESTR>
0

>  <SCORE.RESTR.CAVITY>
0

>  <SCORE.RESTR.norm>
0

>  <SCORE.SYSTEM>
0

>  <SCORE.SYSTEM.CONST>
0

>  <SCORE.SYSTEM.DIHEDRAL>
0

>  <SCORE.SYSTEM.SOLV>
0

>  <SCORE.SYSTEM.norm>
0

>  <SCORE.heavy>
31

>  <SCORE.norm>
-0.825253

>  <RMSD>
8.345

$$$$
ligand
 OpenBabel11021811443D
libRbt.so/2013.1/901 2013/11/27
 31 32  0  0  0  0  0  0  0  0999 V2000
    0.9520   16.1337   52.1284 C   0  0  0  0  0  0  0  0  0  0  0  0
    0.6033   16.0434   53.6111 C   0  0  0  0  0  0  0  0  0  0  0  0
    1.6346   15.8169   54.5792 C   0  0  0  0  0  0  0  0  0  0  0  0
    1.3044   15.7308   55.9530 C   0  0  0  0  0  0  0  0  0  0  0  0
   -0.0384   15.8741   56.3802 C   0  0  0  0  0  0  0  0  0  0  0  0
   -1.0653   16.1036   55.4421 C   0  0  0  0  0  0  0  0  0  0  0  0
   -0.7579   16.1905   54.0724 C   0  0  0  0  0  0  0  0  0  0  0  0
    0.4496   17.0150   51.4318 O   0  0  0  0  0  0  0  0  0  0  0  0
    1.7914   23.5730   50.7619 C   0  0  0  0  0  0  0  0  0  0  0  0
    4.0360   17.6883   49.7951 C   0  0  0  0  0  0  0  0  0  0  0  0
    6.4865   13.0022   48.9633 P   0  0  1  0  0  0  0  0  0  0  0  0
    3.0422   21.5314   50.8005 N   0  0  0  0  0  0  0  0  0  0  0  0
    7.0242   14.0920   49.8000 O   0  0  0  0  0  0  0  0  0  0  0  0
    1.8299   15.2310   51.5540 S   0  0  0  0  0  0  0  0  0  0  0  0
    5.3404   17.8678   52.5260 C   0  0  0  0  0  0  0  0  0  0  0  0
    2.0064   22.2553   51.3464 C   0  0  0  0  0  0  0  0  0  0  0  0
    7.2560   12.7415   47.7167 O   0  5  0  0  0  0  0  0  0  0  0  0
    4.0242   17.6465   52.2860 N   0  0  0  0  0  0  0  0  0  0  0  0
    1.2533   21.8302   52.3120 N   0  0  0  0  0  0  0  0  0  0  0  0
    6.2644   11.7888   49.7835 O   0  0  0  0  0  0  0  0  0  0  0  0
    3.7309   16.9115   51.0472 C   0  0  2  0  0  0  0  0  0  0  0  0
    1.4669   20.5826   52.8662 C   0  0  0  0  0  0  0  0  0  0  0  0
    0.6746   20.1790   53.8623 N   0  0  0  0  0  0  0  0  0  0  0  0
    3.2166   15.5501   50.9325 C   0  0  1  0  0  0  0  0  0  0  0  0
    2.5489   19.7591   52.3494 C   0  0  0  0  0  0  0  0  0  0  0  0
    5.7491   17.2464   53.4823 O   0  0  0  0  0  0  0  0  0  0  0  0
    3.9421   14.4355   50.2660 C   0  0  0  0  0  0  0  0  0  0  0  0
    3.2855   20.3006   51.3155 C   0  0  0  0  0  0  0  0  0  0  0  0
    4.2889   14.5400   48.8431 C   0  0  0  0  0  0  0  0  0  0  0  0
    2.8582   18.4065   52.9432 C   0  0  0  0  0  0  0  0  0  0  0  0
    5.0719   13.4096   48.4213 O   0  0  0  0  0  0  0  0  0  0  0  0
  1  2  1  0  0  0  0
  1  8  2  0  0  0  0
  1 14  1  0  0  0  0
  2  3  2  0  0  0  0
  2  7  1  0  0  0  0
  3  4  1  0  0  0  0
  4  5  2  0  0  0  0
  5  6  1  0  0  0  0
  6  7  2  0  0  0  0
  9 16  1  0  0  0  0
 10 21  1  0  0  0  0
 11 13  1  1  0  0  0
 11 17  1  0  0  0  0
 11 20  2  0  0  0  0
 11 31  1  0  0  0  0
 12 16  2  0  0  0  0
 12 28  1  0  0  0  0
 15 26  1  0  0  0  0
 15 18  1  0  0  0  0
 16 19  1  0  0  0  0
 18 30  1  0  0  0  0
 19 22  2  0  0  0  0
 21 18  1  1  0  0  0
 21 24  1  0  0  0  0
 22 23  1  0  0  0  0
 22 25  1  0  0  0  0
 24 14  1  1  0  0  0
 24 27  1  0  0  0  0
 25 28  2  0  0  0  0
 25 30  1  0  0  0  0
 27 29  1  0  0  0  0
 29 31  1  0  0  0  0
M  CHG  1  17  -1
M  END
>  <CHROM.1>
-136.01529845,-115.80961479,5.62430230,-112.00154285,-68.44152063,80.09623285
-120.38613582,119.96245613,179.58352499,175.59444344,-62.06765793,-10.57561908
3.14877239,16.77580578,51.60411768,2.41593468,0.77903812,-0.13977635

>  <Name>
ligand

>  <RI>
0

>  <Rbt.Current_Directory>
/home/itssahil/PROJECTS/Mol_Feturizer/New_Systems/rnas/2HOO

>  <Rbt.Executable>
rbdock ($Id: //depot/dev/client3/rdock/2013.1/src/exe/rbdock.cxx#4 $)

>  <Rbt.Library>
libRbt.so (2013.1, Build901 2013/11/27)

>  <Rbt.Parameter_File>
/export/apps/rDock/src/rDock_2013.1_src/data/scripts/dock_solv.prm

>  <Rbt.Receptor>
prm/pocket_docking_6.prm

>  <SCORE>
-29.4669

>  <SCORE.INTER>
-17.9939

>  <SCORE.INTER.CONST>
1

>  <SCORE.INTER.POLAR>
0

>  <SCORE.INTER.ROT>
12

>  <SCORE.INTER.SOLV>
14.9126

>  <SCORE.INTER.VDW>
-28.5668

>  <SCORE.INTER.norm>
-0.580448

>  <SCORE.INTRA>
-11.473

>  <SCORE.INTRA.DIHEDRAL>
3.03828

>  <SCORE.INTRA.DIHEDRAL.0>
14.6094

>  <SCORE.INTRA.POLAR>
0

>  <SCORE.INTRA.POLAR.0>
0

>  <SCORE.INTRA.REPUL>
0

>  <SCORE.INTRA.REPUL.0>
0

>  <SCORE.INTRA.SOLV>
0.628286

>  <SCORE.INTRA.SOLV.lig_0>
-65.6478

>  <SCORE.INTRA.VDW>
-13.3063

>  <SCORE.INTRA.VDW.0>
9.35535

>  <SCORE.INTRA.norm>
-0.370096

>  <SCORE.RESTR>
0

>  <SCORE.RESTR.CAVITY>
0

>  <SCORE.RESTR.norm>
0

>  <SCORE.SYSTEM>
0

>  <SCORE.SYSTEM.CONST>
0

>  <SCORE.SYSTEM.DIHEDRAL>
0

>  <SCORE.SYSTEM.SOLV>
0

>  <SCORE.SYSTEM.norm>
0

>  <SCORE.heavy>
31

>  <SCORE.norm>
-0.950544

>  <RMSD>
8.362

$$$$
ligand
 OpenBabel11021811443D
libRbt.so/2013.1/901 2013/11/27
 31 32  0  0  0  0  0  0  0  0999 V2000
    7.3615   21.3856   52.4257 C   0  0  0  0  0  0  0  0  0  0  0  0
    7.7289   22.8664   52.4468 C   0  0  0  0  0  0  0  0  0  0  0  0
    8.9015   23.3059   53.1426 C   0  0  0  0  0  0  0  0  0  0  0  0
    9.2352   24.6814   53.1614 C   0  0  0  0  0  0  0  0  0  0  0  0
    8.4222   25.6279   52.4910 C   0  0  0  0  0  0  0  0  0  0  0  0
    7.2681   25.2126   51.7962 C   0  0  0  0  0  0  0  0  0  0  0  0
    6.9185   23.8506   51.7673 C   0  0  0  0  0  0  0  0  0  0  0  0
    8.2455   20.5347   52.3318 O   0  0  0  0  0  0  0  0  0  0  0  0
    3.8023   14.9976   47.2823 C   0  0  0  0  0  0  0  0  0  0  0  0
    4.3971   18.6923   54.3092 C   0  0  0  0  0  0  0  0  0  0  0  0
    7.7971   18.7847   47.5892 P   0  0  1  0  0  0  0  0  0  0  0  0
    4.0011   16.8127   48.8315 N   0  0  0  0  0  0  0  0  0  0  0  0
    6.9124   19.5707   46.7081 O   0  0  0  0  0  0  0  0  0  0  0  0
    6.0392   20.9856   52.5099 S   0  0  0  0  0  0  0  0  0  0  0  0
    2.4399   20.1246   51.7235 C   0  0  0  0  0  0  0  0  0  0  0  0
    3.4067   15.6040   48.5471 C   0  0  0  0  0  0  0  0  0  0  0  0
    8.1694   17.4457   47.0576 O   0  5  0  0  0  0  0  0  0  0  0  0
    2.9149   19.0097   52.3322 N   0  0  0  0  0  0  0  0  0  0  0  0
    2.5517   15.0152   49.3231 N   0  0  0  0  0  0  0  0  0  0  0  0
    8.9629   19.5995   48.0029 O   0  0  0  0  0  0  0  0  0  0  0  0
    4.2766   19.1266   52.8735 C   0  0  2  0  0  0  0  0  0  0  0  0
    2.1759   15.5990   50.5178 C   0  0  0  0  0  0  0  0  0  0  0  0
    1.2894   14.9661   51.2902 N   0  0  0  0  0  0  0  0  0  0  0  0
    5.4688   19.5829   52.1656 C   0  0  1  0  0  0  0  0  0  0  0  0
    2.7537   16.8820   50.8864 C   0  0  0  0  0  0  0  0  0  0  0  0
    1.3654   20.4714   52.1624 O   0  0  0  0  0  0  0  0  0  0  0  0
    6.1734   18.7943   51.1195 C   0  0  0  0  0  0  0  0  0  0  0  0
    3.6601   17.4198   49.9953 C   0  0  0  0  0  0  0  0  0  0  0  0
    6.3495   19.3599   49.7760 C   0  0  0  0  0  0  0  0  0  0  0  0
    2.3495   17.5889   52.1570 C   0  0  0  0  0  0  0  0  0  0  0  0
    7.0357   18.4342   48.9152 O   0  0  0  0  0  0  0  0  0  0  0  0
  1  2  1  0  0  0  0
  1  8  2  0  0  0  0
  1 14  1  0  0  0  0
  2  3  2  0  0  0  0
  2  7  1  0  0  0  0
  3  4  1  0  0  0  0
  4  5  2  0  0  0  0
  5  6  1  0  0  0  0
  6  7  2  0  0  0  0
  9 16  1  0  0  0  0
 10 21  1  0  0  0  0
 11 13  1  6  0  0  0
 11 17  1  0  0  0  0
 11 20  2  0  0  0  0
 11 31  1  0  0  0  0
 12 16  2  0  0  0  0
 12 28  1  0  0  0  0
 15 26  1  0  0  0  0
 15 18  1  0  0  0  0
 16 19  1  0  0  0  0
 18 30  1  0  0  0  0
 19 22  2  0  0  0  0
 21 18  1  6  0  0  0
 21 24  1  0  0  0  0
 22 23  1  0  0  0  0
 22 25  1  0  0  0  0
 24 14  1  6  0  0  0
 24 27  1  0  0  0  0
 25 28  2  0  0  0  0
 25 30  1  0  0  0  0
 27 29  1  0  0  0  0
 29 31  1  0  0  0  0
M  CHG  1  17  -1
M  END
>  <CHROM.1>
-38.19364760,164.16411807,150.88415131,-126.95478354,129.09316177,78.40791481
-74.00351919,-57.16849043,-172.98779054,-179.20577334,-159.87375263,-51.82435567
5.53894607,19.37249611,50.68868525,0.85662491,0.59757019,0.80111018

>  <Name>
ligand

>  <RI>
0

>  <Rbt.Current_Directory>
/home/itssahil/PROJECTS/Mol_Feturizer/New_Systems/rnas/2HOO

>  <Rbt.Executable>
rbdock ($Id: //depot/dev/client3/rdock/2013.1/src/exe/rbdock.cxx#4 $)

>  <Rbt.Library>
libRbt.so (2013.1, Build901 2013/11/27)

>  <Rbt.Parameter_File>
/export/apps/rDock/src/rDock_2013.1_src/data/scripts/dock_solv.prm

>  <Rbt.Receptor>
prm/pocket_docking_7.prm

>  <SCORE>
-26.9701

>  <SCORE.INTER>
-14.0951

>  <SCORE.INTER.CONST>
1

>  <SCORE.INTER.POLAR>
0

>  <SCORE.INTER.ROT>
12

>  <SCORE.INTER.SOLV>
14.5284

>  <SCORE.INTER.VDW>
-25.8395

>  <SCORE.INTER.norm>
-0.45468

>  <SCORE.INTRA>
-12.875

>  <SCORE.INTRA.DIHEDRAL>
2.14037

>  <SCORE.INTRA.DIHEDRAL.0>
14.6094

>  <SCORE.INTRA.POLAR>
0

>  <SCORE.INTRA.POLAR.0>
0

>  <SCORE.INTRA.REPUL>
0

>  <SCORE.INTRA.REPUL.0>
0

>  <SCORE.INTRA.SOLV>
-0.98257

>  <SCORE.INTRA.SOLV.lig_0>
-65.6478

>  <SCORE.INTRA.VDW>
-13.4539

>  <SCORE.INTRA.VDW.0>
9.35535

>  <SCORE.INTRA.norm>
-0.415324

>  <SCORE.RESTR>
0

>  <SCORE.RESTR.CAVITY>
0

>  <SCORE.RESTR.norm>
0

>  <SCORE.SYSTEM>
0

>  <SCORE.SYSTEM.CONST>
0

>  <SCORE.SYSTEM.DIHEDRAL>
0

>  <SCORE.SYSTEM.SOLV>
0

>  <SCORE.SYSTEM.norm>
0

>  <SCORE.heavy>
31

>  <SCORE.norm>
-0.870004

>  <RMSD>
8.364

$$$$
ligand
 OpenBabel11021811443D
libRbt.so/2013.1/901 2013/11/27
 31 32  0  0  0  0  0  0  0  0999 V2000
    6.9429   21.3302   54.5453 C   0  0  0  0  0  0  0  0  0  0  0  0
    7.2021   22.5440   53.6579 C   0  0  0  0  0  0  0  0  0  0  0  0
    8.3954   23.3178   53.8295 C   0  0  0  0  0  0  0  0  0  0  0  0
    8.6286   24.4448   53.0054 C   0  0  0  0  0  0  0  0  0  0  0  0
    7.6939   24.8106   52.0060 C   0  0  0  0  0  0  0  0  0  0  0  0
    6.5172   24.0571   51.8190 C   0  0  0  0  0  0  0  0  0  0  0  0
    6.2665   22.9350   52.6289 C   0  0  0  0  0  0  0  0  0  0  0  0
    6.2824   21.4528   55.5764 O   0  0  0  0  0  0  0  0  0  0  0  0
    6.1513   18.5122   44.7145 C   0  0  0  0  0  0  0  0  0  0  0  0
    7.8135   20.7762   50.6998 C   0  0  0  0  0  0  0  0  0  0  0  0
   12.8708   19.4018   54.2963 P   0  0  1  0  0  0  0  0  0  0  0  0
    6.9192   19.2916   46.8445 N   0  0  0  0  0  0  0  0  0  0  0  0
   13.5185   20.0072   55.4756 O   0  0  0  0  0  0  0  0  0  0  0  0
    7.4454   20.0865   54.2039 S   0  0  0  0  0  0  0  0  0  0  0  0
    5.5913   18.5778   51.3632 C   0  0  0  0  0  0  0  0  0  0  0  0
    6.5320   18.2085   46.0881 C   0  0  0  0  0  0  0  0  0  0  0  0
   13.8111   18.9709   53.2266 O   0  5  0  0  0  0  0  0  0  0  0  0
    6.9297   18.4934   51.1625 N   0  0  0  0  0  0  0  0  0  0  0  0
    6.4952   16.9905   46.5298 N   0  0  0  0  0  0  0  0  0  0  0  0
   11.9306   18.3378   54.7182 O   0  0  0  0  0  0  0  0  0  0  0  0
    7.7097   19.6312   51.6706 C   0  0  2  0  0  0  0  0  0  0  0  0
    6.8510   16.7104   47.8353 C   0  0  0  0  0  0  0  0  0  0  0  0
    6.7970   15.4448   48.2575 N   0  0  0  0  0  0  0  0  0  0  0  0
    8.3414   19.7499   52.9812 C   0  0  1  0  0  0  0  0  0  0  0  0
    7.2643   17.8033   48.7017 C   0  0  0  0  0  0  0  0  0  0  0  0
    4.9992   18.9779   50.3850 O   0  0  0  0  0  0  0  0  0  0  0  0
    9.7990   19.5810   53.2253 C   0  0  0  0  0  0  0  0  0  0  0  0
    7.2771   19.0603   48.1320 C   0  0  0  0  0  0  0  0  0  0  0  0
   10.5819   20.7002   53.7639 C   0  0  0  0  0  0  0  0  0  0  0  0
    7.6224   17.5656   50.1485 C   0  0  0  0  0  0  0  0  0  0  0  0
   11.9904   20.4802   53.5732 O   0  0  0  0  0  0  0  0  0  0  0  0
  1  2  1  0  0  0  0
  1  8  2  0  0  0  0
  1 14  1  0  0  0  0
  2  3  2  0  0  0  0
  2  7  1  0  0  0  0
  3  4  1  0  0  0  0
  4  5  2  0  0  0  0
  5  6  1  0  0  0  0
  6  7  2  0  0  0  0
  9 16  1  0  0  0  0
 10 21  1  0  0  0  0
 11 13  1  1  0  0  0
 11 17  1  0  0  0  0
 11 20  2  0  0  0  0
 11 31  1  0  0  0  0
 12 16  2  0  0  0  0
 12 28  1  0  0  0  0
 15 26  1  0  0  0  0
 15 18  1  0  0  0  0
 16 19  1  0  0  0  0
 18 30  1  0  0  0  0
 19 22  2  0  0  0  0
 21 18  1  1  0  0  0
 21 24  1  0  0  0  0
 22 23  1  0  0  0  0
 22 25  1  0  0  0  0
 24 14  1  6  0  0  0
 24 27  1  0  0  0  0
 25 28  2  0  0  0  0
 25 30  1  0  0  0  0
 27 29  1  0  0  0  0
 29 31  1  0  0  0  0
M  CHG  1  17  -1
M  END
>  <CHROM.1>
93.25809661,2.53732801,-77.98119433,98.25161151,-86.22194903,61.51260484
101.35940146,-60.87350303,-129.83157555,-163.61573098,-69.14839921,-94.80792262
8.41084750,19.85375347,51.72438982,0.92881159,-0.51650090,0.84897099

>  <Name>
ligand

>  <RI>
0

>  <Rbt.Current_Directory>
/home/itssahil/PROJECTS/Mol_Feturizer/New_Systems/rnas/2HOO

>  <Rbt.Executable>
rbdock ($Id: //depot/dev/client3/rdock/2013.1/src/exe/rbdock.cxx#4 $)

>  <Rbt.Library>
libRbt.so (2013.1, Build901 2013/11/27)

>  <Rbt.Parameter_File>
/export/apps/rDock/src/rDock_2013.1_src/data/scripts/dock_solv.prm

>  <Rbt.Receptor>
prm/pocket_docking_4.prm

>  <SCORE>
-29.0476

>  <SCORE.INTER>
-16.9728

>  <SCORE.INTER.CONST>
1

>  <SCORE.INTER.POLAR>
0

>  <SCORE.INTER.ROT>
12

>  <SCORE.INTER.SOLV>
23.7004

>  <SCORE.INTER.VDW>
-30.8154

>  <SCORE.INTER.norm>
-0.54751

>  <SCORE.INTRA>
-12.2854

>  <SCORE.INTRA.DIHEDRAL>
3.14346

>  <SCORE.INTRA.DIHEDRAL.0>
14.6094

>  <SCORE.INTRA.POLAR>
0

>  <SCORE.INTRA.POLAR.0>
0

>  <SCORE.INTRA.REPUL>
0

>  <SCORE.INTRA.REPUL.0>
0

>  <SCORE.INTRA.SOLV>
0.830525

>  <SCORE.INTRA.SOLV.lig_0>
-65.6478

>  <SCORE.INTRA.VDW>
-14.2724

>  <SCORE.INTRA.VDW.0>
9.35535

>  <SCORE.INTRA.norm>
-0.396303

>  <SCORE.RESTR>
0.210614

>  <SCORE.RESTR.CAVITY>
0.210614

>  <SCORE.RESTR.norm>
0.006794

>  <SCORE.SYSTEM>
0

>  <SCORE.SYSTEM.CONST>
0

>  <SCORE.SYSTEM.DIHEDRAL>
0

>  <SCORE.SYSTEM.SOLV>
0

>  <SCORE.SYSTEM.norm>
0

>  <SCORE.heavy>
31

>  <SCORE.norm>
-0.937019

>  <RMSD>
8.365

$$$$
ligand
 OpenBabel11021811443D
libRbt.so/2013.1/901 2013/11/27
 31 32  0  0  0  0  0  0  0  0999 V2000
    4.2352   24.6066   54.1748 C   0  0  0  0  0  0  0  0  0  0  0  0
    5.0657   24.8777   55.4258 C   0  0  0  0  0  0  0  0  0  0  0  0
    5.3194   26.2249   55.8417 C   0  0  0  0  0  0  0  0  0  0  0  0
    6.0934   26.4700   57.0013 C   0  0  0  0  0  0  0  0  0  0  0  0
    6.6142   25.3928   57.7593 C   0  0  0  0  0  0  0  0  0  0  0  0
    6.3693   24.0607   57.3682 C   0  0  0  0  0  0  0  0  0  0  0  0
    5.6042   23.7964   56.2182 C   0  0  0  0  0  0  0  0  0  0  0  0
    4.7942   24.4292   53.0929 O   0  0  0  0  0  0  0  0  0  0  0  0
    3.8006   16.1173   49.1026 C   0  0  0  0  0  0  0  0  0  0  0  0
    2.6269   23.2385   50.8560 C   0  0  0  0  0  0  0  0  0  0  0  0
   -1.1002   23.4821   56.7204 P   0  0  1  0  0  0  0  0  0  0  0  0
    3.9524   18.3573   49.9357 N   0  0  0  0  0  0  0  0  0  0  0  0
   -1.0894   22.0078   56.7765 O   0  0  0  0  0  0  0  0  0  0  0  0
    2.8536   24.5589   54.2419 S   0  0  0  0  0  0  0  0  0  0  0  0
    3.8686   21.3988   53.5046 C   0  0  0  0  0  0  0  0  0  0  0  0
    3.2584   17.1685   49.9542 C   0  0  0  0  0  0  0  0  0  0  0  0
   -2.4366   24.0819   56.4590 O   0  5  0  0  0  0  0  0  0  0  0  0
    2.8298   21.5116   52.6402 N   0  0  0  0  0  0  0  0  0  0  0  0
    2.1946   16.9599   50.6647 N   0  0  0  0  0  0  0  0  0  0  0  0
   -0.4248   24.0448   57.9127 O   0  0  0  0  0  0  0  0  0  0  0  0
    2.4415   22.8900   52.3080 C   0  0  2  0  0  0  0  0  0  0  0  0
    1.6819   17.9631   51.4648 C   0  0  0  0  0  0  0  0  0  0  0  0
    0.5820   17.7143   52.1798 N   0  0  0  0  0  0  0  0  0  0  0  0
    1.8957   23.8937   53.2167 C   0  0  1  0  0  0  0  0  0  0  0  0
    2.3541   19.2527   51.4936 C   0  0  0  0  0  0  0  0  0  0  0  0
    3.5061   21.3074   54.6569 O   0  0  0  0  0  0  0  0  0  0  0  0
    0.4699   24.3173   53.2357 C   0  0  0  0  0  0  0  0  0  0  0  0
    3.4828   19.3685   50.7078 C   0  0  0  0  0  0  0  0  0  0  0  0
   -0.4841   23.6249   54.1112 C   0  0  0  0  0  0  0  0  0  0  0  0
    1.8167   20.3999   52.3140 C   0  0  0  0  0  0  0  0  0  0  0  0
   -0.2547   23.9639   55.4900 O   0  0  0  0  0  0  0  0  0  0  0  0
  1  2  1  0  0  0  0
  1  8  2  0  0  0  0
  1 14  1  0  0  0  0
  2  3  2  0  0  0  0
  2  7  1  0  0  0  0
  3  4  1  0  0  0  0
  4  5  2  0  0  0  0
  5  6  1  0  0  0  0
  6  7  2  0  0  0  0
  9 16  1  0  0  0  0
 10 21  1  0  0  0  0
 11 13  1  1  0  0  0
 11 17  1  0  0  0  0
 11 20  2  0  0  0  0
 11 31  1  0  0  0  0
 12 16  2  0  0  0  0
 12 28  1  0  0  0  0
 15 26  1  0  0  0  0
 15 18  1  0  0  0  0
 16 19  1  0  0  0  0
 18 30  1  0  0  0  0
 19 22  2  0  0  0  0
 21 18  1  6  0  0  0
 21 24  1  0  0  0  0
 22 23  1  0  0  0  0
 22 25  1  0  0  0  0
 24 14  1  1  0  0  0
 24 27  1  0  0  0  0
 25 28  2  0  0  0  0
 25 30  1  0  0  0  0
 27 29  1  0  0  0  0
 29 31  1  0  0  0  0
M  CHG  1  17  -1
M  END
>  <CHROM.1>
94.59292780,-160.11507066,19.64987412,93.01117546,116.45208855,-71.09917835
-107.45255220,-88.54771893,160.13360627,72.01030884,177.12311961,58.59549353
2.37475522,22.30890767,53.90880679,-1.61053392,-0.22460582,-2.44043975

>  <Name>
ligand

>  <RI>
0

>  <Rbt.Current_Directory>
/home/itssahil/PROJECTS/Mol_Feturizer/New_Systems/rnas/2HOO

>  <Rbt.Executable>
rbdock ($Id: //depot/dev/client3/rdock/2013.1/src/exe/rbdock.cxx#4 $)

>  <Rbt.Library>
libRbt.so (2013.1, Build901 2013/11/27)

>  <Rbt.Parameter_File>
/export/apps/rDock/src/rDock_2013.1_src/data/scripts/dock_solv.prm

>  <Rbt.Receptor>
prm/pocket_docking_7.prm

>  <SCORE>
-22.4643

>  <SCORE.INTER>
-7.6194

>  <SCORE.INTER.CONST>
1

>  <SCORE.INTER.POLAR>
0

>  <SCORE.INTER.ROT>
12

>  <SCORE.INTER.SOLV>
8.71512

>  <SCORE.INTER.VDW>
-19.5846

>  <SCORE.INTER.norm>
-0.245787

>  <SCORE.INTRA>
-14.8449

>  <SCORE.INTRA.DIHEDRAL>
-0.450623

>  <SCORE.INTRA.DIHEDRAL.0>
14.6094

>  <SCORE.INTRA.POLAR>
0

>  <SCORE.INTRA.POLAR.0>
0

>  <SCORE.INTRA.REPUL>
0

>  <SCORE.INTRA.REPUL.0>
0

>  <SCORE.INTRA.SOLV>
0.34731

>  <SCORE.INTRA.SOLV.lig_0>
-65.6478

>  <SCORE.INTRA.VDW>
-14.7933

>  <SCORE.INTRA.VDW.0>
9.35535

>  <SCORE.INTRA.norm>
-0.478869

>  <SCORE.RESTR>
0

>  <SCORE.RESTR.CAVITY>
0

>  <SCORE.RESTR.norm>
0

>  <SCORE.SYSTEM>
0

>  <SCORE.SYSTEM.CONST>
0

>  <SCORE.SYSTEM.DIHEDRAL>
0

>  <SCORE.SYSTEM.SOLV>
0

>  <SCORE.SYSTEM.norm>
0

>  <SCORE.heavy>
31

>  <SCORE.norm>
-0.724656

>  <RMSD>
8.365

$$$$
ligand
 OpenBabel11021811443D
libRbt.so/2013.1/901 2013/11/27
 31 32  0  0  0  0  0  0  0  0999 V2000
    6.1365   19.1149   50.5432 C   0  0  0  0  0  0  0  0  0  0  0  0
    6.2665   18.3397   51.8510 C   0  0  0  0  0  0  0  0  0  0  0  0
    5.3667   18.6023   52.9343 C   0  0  0  0  0  0  0  0  0  0  0  0
    5.4945   17.8822   54.1463 C   0  0  0  0  0  0  0  0  0  0  0  0
    6.5016   16.8974   54.2950 C   0  0  0  0  0  0  0  0  0  0  0  0
    7.3919   16.6216   53.2373 C   0  0  0  0  0  0  0  0  0  0  0  0
    7.2825   17.3276   52.0259 C   0  0  0  0  0  0  0  0  0  0  0  0
    6.7937   20.1407   50.3692 O   0  0  0  0  0  0  0  0  0  0  0  0
    3.8202   14.8713   41.1035 C   0  0  0  0  0  0  0  0  0  0  0  0
    5.6034   15.2175   49.5635 C   0  0  0  0  0  0  0  0  0  0  0  0
    0.9250   16.0733   53.2992 P   0  0  1  0  0  0  0  0  0  0  0  0
    3.4774   16.2048   43.0627 N   0  0  0  0  0  0  0  0  0  0  0  0
   -0.5159   16.3783   53.3870 O   0  0  0  0  0  0  0  0  0  0  0  0
    5.2831   18.6770   49.5454 S   0  0  0  0  0  0  0  0  0  0  0  0
    3.1500   15.3925   47.3083 C   0  0  0  0  0  0  0  0  0  0  0  0
    4.2541   15.2530   42.4415 C   0  0  0  0  0  0  0  0  0  0  0  0
    1.7309   16.5532   54.4543 O   0  5  0  0  0  0  0  0  0  0  0  0
    4.3989   15.8892   47.4888 N   0  0  0  0  0  0  0  0  0  0  0  0
    5.3036   14.7111   42.9752 N   0  0  0  0  0  0  0  0  0  0  0  0
    1.1269   14.6375   52.9958 O   0  0  0  0  0  0  0  0  0  0  0  0
    4.7370   16.2380   48.8762 C   0  0  2  0  0  0  0  0  0  0  0  0
    5.7055   15.0727   44.2469 C   0  0  0  0  0  0  0  0  0  0  0  0
    6.7889   14.4907   44.7670 N   0  0  0  0  0  0  0  0  0  0  0  0
    4.3436   17.4420   49.6018 C   0  0  1  0  0  0  0  0  0  0  0  0
    4.9315   16.0672   44.9732 C   0  0  0  0  0  0  0  0  0  0  0  0
    3.0668   14.2230   47.6129 O   0  0  0  0  0  0  0  0  0  0  0  0
    3.0995   17.5633   50.4084 C   0  0  0  0  0  0  0  0  0  0  0  0
    3.8376   16.5886   44.3125 C   0  0  0  0  0  0  0  0  0  0  0  0
    2.8177   16.5830   51.4645 C   0  0  0  0  0  0  0  0  0  0  0  0
    5.2957   16.4704   46.3812 C   0  0  0  0  0  0  0  0  0  0  0  0
    1.5506   16.8520   52.0897 O   0  0  0  0  0  0  0  0  0  0  0  0
  1  2  1  0  0  0  0
  1  8  2  0  0  0  0
  1 14  1  0  0  0  0
  2  3  2  0  0  0  0
  2  7  1  0  0  0  0
  3  4  1  0  0  0  0
  4  5  2  0  0  0  0
  5  6  1  0  0  0  0
  6  7  2  0  0  0  0
  9 16  1  0  0  0  0
 10 21  1  0  0  0  0
 11 13  1  1  0  0  0
 11 17  1  0  0  0  0
 11 20  2  0  0  0  0
 11 31  1  0  0  0  0
 12 16  2  0  0  0  0
 12 28  1  0  0  0  0
 15 26  1  0  0  0  0
 15 18  1  0  0  0  0
 16 19  1  0  0  0  0
 18 30  1  0  0  0  0
 19 22  2  0  0  0  0
 21 18  1  6  0  0  0
 21 24  1  0  0  0  0
 22 23  1  0  0  0  0
 22 25  1  0  0  0  0
 24 14  1  1  0  0  0
 24 27  1  0  0  0  0
 25 28  2  0  0  0  0
 25 30  1  0  0  0  0
 27 29  1  0  0  0  0
 29 31  1  0  0  0  0
M  CHG  1  17  -1
M  END
>  <CHROM.1>
92.99790054,2.20152640,-103.85589805,-79.30411874,101.95804018,-19.63407932
88.21958634,-125.24317307,-104.08574322,-178.01909103,-177.05696268,-163.42419292
4.17473940,16.56034984,49.29421492,-1.73394098,-0.42652281,-1.80506500

>  <Name>
ligand

>  <RI>
0

>  <Rbt.Current_Directory>
/home/itssahil/PROJECTS/Mol_Feturizer/New_Systems/rnas/2HOO

>  <Rbt.Executable>
rbdock ($Id: //depot/dev/client3/rdock/2013.1/src/exe/rbdock.cxx#4 $)

>  <Rbt.Library>
libRbt.so (2013.1, Build901 2013/11/27)

>  <Rbt.Parameter_File>
/export/apps/rDock/src/rDock_2013.1_src/data/scripts/dock_solv.prm

>  <Rbt.Receptor>
prm/pocket_docking_8.prm

>  <SCORE>
-25.3412

>  <SCORE.INTER>
-9.16098

>  <SCORE.INTER.CONST>
1

>  <SCORE.INTER.POLAR>
0

>  <SCORE.INTER.ROT>
12

>  <SCORE.INTER.SOLV>
12.3937

>  <SCORE.INTER.VDW>
-21.8386

>  <SCORE.INTER.norm>
-0.295515

>  <SCORE.INTRA>
-16.1802

>  <SCORE.INTRA.DIHEDRAL>
-2.12961

>  <SCORE.INTRA.DIHEDRAL.0>
14.6094

>  <SCORE.INTRA.POLAR>
0

>  <SCORE.INTRA.POLAR.0>
0

>  <SCORE.INTRA.REPUL>
0

>  <SCORE.INTRA.REPUL.0>
0

>  <SCORE.INTRA.SOLV>
0.00842177

>  <SCORE.INTRA.SOLV.lig_0>
-65.6478

>  <SCORE.INTRA.VDW>
-15.1196

>  <SCORE.INTRA.VDW.0>
9.35535

>  <SCORE.INTRA.norm>
-0.521942

>  <SCORE.RESTR>
0

>  <SCORE.RESTR.CAVITY>
0

>  <SCORE.RESTR.norm>
0

>  <SCORE.SYSTEM>
0

>  <SCORE.SYSTEM.CONST>
0

>  <SCORE.SYSTEM.DIHEDRAL>
0

>  <SCORE.SYSTEM.SOLV>
0

>  <SCORE.SYSTEM.norm>
0

>  <SCORE.heavy>
31

>  <SCORE.norm>
-0.817458

>  <RMSD>
8.372

$$$$
ligand
 OpenBabel11021811443D
libRbt.so/2013.1/901 2013/11/27
 31 32  0  0  0  0  0  0  0  0999 V2000
    7.8710   21.7970   52.9758 C   0  0  0  0  0  0  0  0  0  0  0  0
    7.9545   23.2845   52.6466 C   0  0  0  0  0  0  0  0  0  0  0  0
    9.0046   24.0854   53.2018 C   0  0  0  0  0  0  0  0  0  0  0  0
    9.0748   25.4656   52.8954 C   0  0  0  0  0  0  0  0  0  0  0  0
    8.1182   26.0613   52.0373 C   0  0  0  0  0  0  0  0  0  0  0  0
    7.0817   25.2872   51.4772 C   0  0  0  0  0  0  0  0  0  0  0  0
    6.9937   23.9146   51.7709 C   0  0  0  0  0  0  0  0  0  0  0  0
    7.6737   21.4345   54.1351 O   0  0  0  0  0  0  0  0  0  0  0  0
    7.8483   18.9425   44.0649 C   0  0  0  0  0  0  0  0  0  0  0  0
    7.1649   17.2277   52.7499 C   0  0  0  0  0  0  0  0  0  0  0  0
   12.5698   19.8318   54.2389 P   0  0  1  0  0  0  0  0  0  0  0  0
    6.8336   19.0316   46.2321 N   0  0  0  0  0  0  0  0  0  0  0  0
   13.4327   19.9071   55.4332 O   0  0  0  0  0  0  0  0  0  0  0  0
    8.0165   20.8452   51.9815 S   0  0  0  0  0  0  0  0  0  0  0  0
    5.9867   19.1718   50.1422 C   0  0  0  0  0  0  0  0  0  0  0  0
    7.8062   18.4633   45.4406 C   0  0  0  0  0  0  0  0  0  0  0  0
   11.8942   21.1086   53.8818 O   0  5  0  0  0  0  0  0  0  0  0  0
    6.8427   18.1713   50.4669 N   0  0  0  0  0  0  0  0  0  0  0  0
    8.6433   17.5636   45.8526 N   0  0  0  0  0  0  0  0  0  0  0  0
   13.3095   19.2208   53.1103 O   0  0  0  0  0  0  0  0  0  0  0  0
    7.5071   18.3172   51.7700 C   0  0  2  0  0  0  0  0  0  0  0  0
    8.5934   17.1088   47.1565 C   0  0  0  0  0  0  0  0  0  0  0  0
    9.4685   16.1781   47.5451 N   0  0  0  0  0  0  0  0  0  0  0  0
    8.4434   19.3640   52.1681 C   0  0  1  0  0  0  0  0  0  0  0  0
    7.5873   17.6547   48.0540 C   0  0  0  0  0  0  0  0  0  0  0  0
    4.8729   18.9916   50.5834 O   0  0  0  0  0  0  0  0  0  0  0  0
    9.7949   19.1062   52.7338 C   0  0  0  0  0  0  0  0  0  0  0  0
    6.7506   18.6133   47.5194 C   0  0  0  0  0  0  0  0  0  0  0  0
    9.9866   19.1018   54.1894 C   0  0  0  0  0  0  0  0  0  0  0  0
    7.4558   17.1660   49.4758 C   0  0  0  0  0  0  0  0  0  0  0  0
   11.3655   18.8681   54.5249 O   0  0  0  0  0  0  0  0  0  0  0  0
  1  2  1  0  0  0  0
  1  8  2  0  0  0  0
  1 14  1  0  0  0  0
  2  3  2  0  0  0  0
  2  7  1  0  0  0  0
  3  4  1  0  0  0  0
  4  5  2  0  0  0  0
  5  6  1  0  0  0  0
  6  7  2  0  0  0  0
  9 16  1  0  0  0  0
 10 21  1  0  0  0  0
 11 13  1  1  0  0  0
 11 17  1  0  0  0  0
 11 20  2  0  0  0  0
 11 31  1  0  0  0  0
 12 16  2  0  0  0  0
 12 28  1  0  0  0  0
 15 26  1  0  0  0  0
 15 18  1  0  0  0  0
 16 19  1  0  0  0  0
 18 30  1  0  0  0  0
 19 22  2  0  0  0  0
 21 18  1  6  0  0  0
 21 24  1  0  0  0  0
 22 23  1  0  0  0  0
 22 25  1  0  0  0  0
 24 14  1  6  0  0  0
 24 27  1  0  0  0  0
 25 28  2  0  0  0  0
 25 30  1  0  0  0  0
 27 29  1  0  0  0  0
 29 31  1  0  0  0  0
M  CHG  1  17  -1
M  END
>  <CHROM.1>
63.60040077,157.29013208,118.58891156,-86.21699053,116.94952015,26.56326328
-128.17500024,84.73854893,154.22502552,-178.53985107,66.95251894,135.77091407
8.78274098,19.96588785,51.21921114,0.99128443,-0.78673555,0.68308266

>  <Name>
ligand

>  <RI>
0

>  <Rbt.Current_Directory>
/home/itssahil/PROJECTS/Mol_Feturizer/New_Systems/rnas/2HOO

>  <Rbt.Executable>
rbdock ($Id: //depot/dev/client3/rdock/2013.1/src/exe/rbdock.cxx#4 $)

>  <Rbt.Library>
libRbt.so (2013.1, Build901 2013/11/27)

>  <Rbt.Parameter_File>
/export/apps/rDock/src/rDock_2013.1_src/data/scripts/dock_solv.prm

>  <Rbt.Receptor>
prm/blind_docking_100.prm

>  <SCORE>
-26.8813

>  <SCORE.INTER>
-17.6108

>  <SCORE.INTER.CONST>
1

>  <SCORE.INTER.POLAR>
0

>  <SCORE.INTER.ROT>
12

>  <SCORE.INTER.SOLV>
27.6809

>  <SCORE.INTER.VDW>
-32.5675

>  <SCORE.INTER.norm>
-0.568089

>  <SCORE.INTRA>
-9.28106

>  <SCORE.INTRA.DIHEDRAL>
2.82746

>  <SCORE.INTRA.DIHEDRAL.0>
14.6094

>  <SCORE.INTRA.POLAR>
0

>  <SCORE.INTRA.POLAR.0>
0

>  <SCORE.INTRA.REPUL>
0

>  <SCORE.INTRA.REPUL.0>
0

>  <SCORE.INTRA.SOLV>
1.69474

>  <SCORE.INTRA.SOLV.lig_0>
-65.6478

>  <SCORE.INTRA.VDW>
-11.5422

>  <SCORE.INTRA.VDW.0>
9.35535

>  <SCORE.INTRA.norm>
-0.299389

>  <SCORE.RESTR>
0.0105043

>  <SCORE.RESTR.CAVITY>
0.0105043

>  <SCORE.RESTR.norm>
0.000338848

>  <SCORE.SYSTEM>
0

>  <SCORE.SYSTEM.CONST>
0

>  <SCORE.SYSTEM.DIHEDRAL>
0

>  <SCORE.SYSTEM.SOLV>
0

>  <SCORE.SYSTEM.norm>
0

>  <SCORE.heavy>
31

>  <SCORE.norm>
-0.867139

>  <RMSD>
8.432

$$$$
ligand
 OpenBabel11021811443D
libRbt.so/2013.1/901 2013/11/27
 31 32  0  0  0  0  0  0  0  0999 V2000
    8.0283   24.9674   52.6871 C   0  0  0  0  0  0  0  0  0  0  0  0
    8.9729   23.8480   53.1144 C   0  0  0  0  0  0  0  0  0  0  0  0
   10.3696   24.1141   53.2898 C   0  0  0  0  0  0  0  0  0  0  0  0
   11.2415   23.0706   53.6831 C   0  0  0  0  0  0  0  0  0  0  0  0
   10.7429   21.7648   53.9120 C   0  0  0  0  0  0  0  0  0  0  0  0
    9.3705   21.4862   53.7501 C   0  0  0  0  0  0  0  0  0  0  0  0
    8.4883   22.5090   53.3581 C   0  0  0  0  0  0  0  0  0  0  0  0
    8.3283   25.6975   51.7429 O   0  0  0  0  0  0  0  0  0  0  0  0
   -1.0777   22.2464   58.6731 C   0  0  0  0  0  0  0  0  0  0  0  0
    5.4812   23.1742   55.8816 C   0  0  0  0  0  0  0  0  0  0  0  0
    2.8231   21.1313   52.5327 P   0  0  1  0  0  0  0  0  0  0  0  0
    1.1190   22.7860   57.8874 N   0  0  0  0  0  0  0  0  0  0  0  0
    2.3883   22.4024   51.9227 O   0  0  0  0  0  0  0  0  0  0  0  0
    6.8326   25.1740   53.3529 S   0  0  0  0  0  0  0  0  0  0  0  0
    4.0253   26.1185   55.6574 C   0  0  0  0  0  0  0  0  0  0  0  0
   -0.2328   22.8114   57.6286 C   0  0  0  0  0  0  0  0  0  0  0  0
    2.0044   20.6900   53.6942 O   0  5  0  0  0  0  0  0  0  0  0  0
    3.7852   24.8658   55.1972 N   0  0  0  0  0  0  0  0  0  0  0  0
   -0.7556   23.2947   56.5455 N   0  0  0  0  0  0  0  0  0  0  0  0
    2.9774   20.0897   51.4908 O   0  0  0  0  0  0  0  0  0  0  0  0
    4.9810   24.1038   54.8093 C   0  0  2  0  0  0  0  0  0  0  0  0
    0.0517   23.8227   55.5562 C   0  0  0  0  0  0  0  0  0  0  0  0
   -0.5209   24.3079   54.4518 N   0  0  0  0  0  0  0  0  0  0  0  0
    5.6771   24.1514   53.5271 C   0  0  1  0  0  0  0  0  0  0  0  0
    1.4932   23.8249   55.7511 C   0  0  0  0  0  0  0  0  0  0  0  0
    3.2010   26.4818   56.4674 O   0  0  0  0  0  0  0  0  0  0  0  0
    5.3443   23.2882   52.3622 C   0  0  0  0  0  0  0  0  0  0  0  0
    1.9472   23.2952   56.9419 C   0  0  0  0  0  0  0  0  0  0  0  0
    5.4158   21.8276   52.4940 C   0  0  0  0  0  0  0  0  0  0  0  0
    2.4281   24.3480   54.6880 C   0  0  0  0  0  0  0  0  0  0  0  0
    4.2491   21.3145   53.1604 O   0  0  0  0  0  0  0  0  0  0  0  0
  1  2  1  0  0  0  0
  1  8  2  0  0  0  0
  1 14  1  0  0  0  0
  2  3  2  0  0  0  0
  2  7  1  0  0  0  0
  3  4  1  0  0  0  0
  4  5  2  0  0  0  0
  5  6  1  0  0  0  0
  6  7  2  0  0  0  0
  9 16  1  0  0  0  0
 10 21  1  0  0  0  0
 11 13  1  6  0  0  0
 11 17  1  0  0  0  0
 11 20  2  0  0  0  0
 11 31  1  0  0  0  0
 12 16  2  0  0  0  0
 12 28  1  0  0  0  0
 15 26  1  0  0  0  0
 15 18  1  0  0  0  0
 16 19  1  0  0  0  0
 18 30  1  0  0  0  0
 19 22  2  0  0  0  0
 21 18  1  6  0  0  0
 21 24  1  0  0  0  0
 22 23  1  0  0  0  0
 22 25  1  0  0  0  0
 24 14  1  6  0  0  0
 24 27  1  0  0  0  0
 25 28  2  0  0  0  0
 25 30  1  0  0  0  0
 27 29  1  0  0  0  0
 29 31  1  0  0  0  0
M  CHG  1  17  -1
M  END
>  <CHROM.1>
47.72951996,-58.60684357,140.67607874,-149.78454353,96.87003784,-85.47363584
-90.59223652,121.30080435,154.31808536,79.24595754,76.46725892,-52.94047557
4.39825471,23.29889211,54.25799286,-0.18344215,0.30169016,0.72543516

>  <Name>
ligand

>  <RI>
0

>  <Rbt.Current_Directory>
/home/itssahil/PROJECTS/Mol_Feturizer/New_Systems/rnas/2HOO

>  <Rbt.Executable>
rbdock ($Id: //depot/dev/client3/rdock/2013.1/src/exe/rbdock.cxx#4 $)

>  <Rbt.Library>
libRbt.so (2013.1, Build901 2013/11/27)

>  <Rbt.Parameter_File>
/export/apps/rDock/src/rDock_2013.1_src/data/scripts/dock_solv.prm

>  <Rbt.Receptor>
prm/pocket_docking_8.prm

>  <SCORE>
-23.3499

>  <SCORE.INTER>
-8.99715

>  <SCORE.INTER.CONST>
1

>  <SCORE.INTER.POLAR>
0

>  <SCORE.INTER.ROT>
12

>  <SCORE.INTER.SOLV>
11.7063

>  <SCORE.INTER.VDW>
-21.5002

>  <SCORE.INTER.norm>
-0.290231

>  <SCORE.INTRA>
-14.3549

>  <SCORE.INTRA.DIHEDRAL>
2.95119

>  <SCORE.INTRA.DIHEDRAL.0>
14.6094

>  <SCORE.INTRA.POLAR>
0

>  <SCORE.INTRA.POLAR.0>
0

>  <SCORE.INTRA.REPUL>
0

>  <SCORE.INTRA.REPUL.0>
0

>  <SCORE.INTRA.SOLV>
0.435996

>  <SCORE.INTRA.SOLV.lig_0>
-65.6478

>  <SCORE.INTRA.VDW>
-16.0485

>  <SCORE.INTRA.VDW.0>
9.35535

>  <SCORE.INTRA.norm>
-0.463062

>  <SCORE.RESTR>
0.00212714

>  <SCORE.RESTR.CAVITY>
0.00212714

>  <SCORE.RESTR.norm>
6.86173e-05

>  <SCORE.SYSTEM>
0

>  <SCORE.SYSTEM.CONST>
0

>  <SCORE.SYSTEM.DIHEDRAL>
0

>  <SCORE.SYSTEM.SOLV>
0

>  <SCORE.SYSTEM.norm>
0

>  <SCORE.heavy>
31

>  <SCORE.norm>
-0.753224

>  <RMSD>
8.434

$$$$
ligand
 OpenBabel11021811443D
libRbt.so/2013.1/901 2013/11/27
 31 32  0  0  0  0  0  0  0  0999 V2000
    8.1969   21.3223   51.9948 C   0  0  0  0  0  0  0  0  0  0  0  0
    8.1800   22.8400   52.1506 C   0  0  0  0  0  0  0  0  0  0  0  0
    7.0990   23.6063   51.6061 C   0  0  0  0  0  0  0  0  0  0  0  0
    7.0908   25.0143   51.7510 C   0  0  0  0  0  0  0  0  0  0  0  0
    8.1404   25.6728   52.4372 C   0  0  0  0  0  0  0  0  0  0  0  0
    9.2090   24.9342   52.9847 C   0  0  0  0  0  0  0  0  0  0  0  0
    9.2364   23.5346   52.8498 C   0  0  0  0  0  0  0  0  0  0  0  0
    9.0344   20.6521   52.5979 O   0  0  0  0  0  0  0  0  0  0  0  0
   -1.1086   21.9433   54.9180 C   0  0  0  0  0  0  0  0  0  0  0  0
    4.8109   18.3435   49.9043 C   0  0  0  0  0  0  0  0  0  0  0  0
    7.1767   15.4032   49.0364 P   0  0  1  0  0  0  0  0  0  0  0  0
    0.7884   22.4785   53.5582 N   0  0  0  0  0  0  0  0  0  0  0  0
    8.3915   15.6637   48.2406 O   0  0  0  0  0  0  0  0  0  0  0  0
    7.2778   20.6867   51.1781 S   0  0  0  0  0  0  0  0  0  0  0  0
    4.3896   19.3725   53.3433 C   0  0  0  0  0  0  0  0  0  0  0  0
   -0.0668   21.4955   54.0025 C   0  0  0  0  0  0  0  0  0  0  0  0
    5.9000   15.5781   48.2923 O   0  5  0  0  0  0  0  0  0  0  0  0
    4.1658   19.5039   52.0123 N   0  0  0  0  0  0  0  0  0  0  0  0
    0.0160   20.2496   53.6546 N   0  0  0  0  0  0  0  0  0  0  0  0
    7.2846   14.0946   49.7221 O   0  0  0  0  0  0  0  0  0  0  0  0
    5.2676   19.0579   51.1474 C   0  0  2  0  0  0  0  0  0  0  0  0
    1.0104   19.8306   52.7915 C   0  0  0  0  0  0  0  0  0  0  0  0
    1.0682   18.5389   52.4581 N   0  0  0  0  0  0  0  0  0  0  0  0
    6.6964   19.2595   51.3680 C   0  0  1  0  0  0  0  0  0  0  0  0
    1.9597   20.8089   52.2839 C   0  0  0  0  0  0  0  0  0  0  0  0
    3.9923   18.3142   53.7788 O   0  0  0  0  0  0  0  0  0  0  0  0
    7.6436   18.1792   51.7536 C   0  0  0  0  0  0  0  0  0  0  0  0
    1.7790   22.1096   52.7086 C   0  0  0  0  0  0  0  0  0  0  0  0
    8.1399   17.2471   50.7335 C   0  0  0  0  0  0  0  0  0  0  0  0
    3.0930   20.4038   51.3733 C   0  0  0  0  0  0  0  0  0  0  0  0
    7.0631   16.4707   50.1802 O   0  0  0  0  0  0  0  0  0  0  0  0
  1  2  1  0  0  0  0
  1  8  2  0  0  0  0
  1 14  1  0  0  0  0
  2  3  2  0  0  0  0
  2  7  1  0  0  0  0
  3  4  1  0  0  0  0
  4  5  2  0  0  0  0
  5  6  1  0  0  0  0
  6  7  2  0  0  0  0
  9 16  1  0  0  0  0
 10 21  1  0  0  0  0
 11 13  1  6  0  0  0
 11 17  1  0  0  0  0
 11 20  2  0  0  0  0
 11 31  1  0  0  0  0
 12 16  2  0  0  0  0
 12 28  1  0  0  0  0
 15 26  1  0  0  0  0
 15 18  1  0  0  0  0
 16 19  1  0  0  0  0
 18 30  1  0  0  0  0
 19 22  2  0  0  0  0
 21 18  1  6  0  0  0
 21 24  1  0  0  0  0
 22 23  1  0  0  0  0
 22 25  1  0  0  0  0
 24 14  1  6  0  0  0
 24 27  1  0  0  0  0
 25 28  2  0  0  0  0
 25 30  1  0  0  0  0
 27 29  1  0  0  0  0
 29 31  1  0  0  0  0
M  CHG  1  17  -1
M  END
>  <CHROM.1>
-171.19738569,-149.29704465,137.32572217,-92.02606187,140.99094993,-20.09695840
106.44167724,-100.72294323,-66.56400554,-63.52912171,177.89184573,-22.35708904
5.41430778,19.72201681,51.64103044,-0.83776727,0.25553349,0.37845363

>  <Name>
ligand

>  <RI>
0

>  <Rbt.Current_Directory>
/home/itssahil/PROJECTS/Mol_Feturizer/New_Systems/rnas/2HOO

>  <Rbt.Executable>
rbdock ($Id: //depot/dev/client3/rdock/2013.1/src/exe/rbdock.cxx#4 $)

>  <Rbt.Library>
libRbt.so (2013.1, Build901 2013/11/27)

>  <Rbt.Parameter_File>
/export/apps/rDock/src/rDock_2013.1_src/data/scripts/dock_solv.prm

>  <Rbt.Receptor>
prm/pocket_docking_7.prm

>  <SCORE>
-22.6497

>  <SCORE.INTER>
-12.9962

>  <SCORE.INTER.CONST>
1

>  <SCORE.INTER.POLAR>
0

>  <SCORE.INTER.ROT>
12

>  <SCORE.INTER.SOLV>
15.7134

>  <SCORE.INTER.VDW>
-25.5019

>  <SCORE.INTER.norm>
-0.419231

>  <SCORE.INTRA>
-9.65348

>  <SCORE.INTRA.DIHEDRAL>
1.24303

>  <SCORE.INTRA.DIHEDRAL.0>
14.6094

>  <SCORE.INTRA.POLAR>
0

>  <SCORE.INTRA.POLAR.0>
0

>  <SCORE.INTRA.REPUL>
0

>  <SCORE.INTRA.REPUL.0>
0

>  <SCORE.INTRA.SOLV>
4.04748

>  <SCORE.INTRA.SOLV.lig_0>
-65.6478

>  <SCORE.INTRA.VDW>
-12.2987

>  <SCORE.INTRA.VDW.0>
9.35535

>  <SCORE.INTRA.norm>
-0.311403

>  <SCORE.RESTR>
0

>  <SCORE.RESTR.CAVITY>
0

>  <SCORE.RESTR.norm>
0

>  <SCORE.SYSTEM>
0

>  <SCORE.SYSTEM.CONST>
0

>  <SCORE.SYSTEM.DIHEDRAL>
0

>  <SCORE.SYSTEM.SOLV>
0

>  <SCORE.SYSTEM.norm>
0

>  <SCORE.heavy>
31

>  <SCORE.norm>
-0.730634

>  <RMSD>
8.444

$$$$
ligand
 OpenBabel11021811443D
libRbt.so/2013.1/901 2013/11/27
 31 32  0  0  0  0  0  0  0  0999 V2000
    4.1148   17.8283   50.8362 C   0  0  0  0  0  0  0  0  0  0  0  0
    5.1726   16.7990   50.4494 C   0  0  0  0  0  0  0  0  0  0  0  0
    4.8191   15.6788   49.6293 C   0  0  0  0  0  0  0  0  0  0  0  0
    5.8043   14.7254   49.2767 C   0  0  0  0  0  0  0  0  0  0  0  0
    7.1405   14.8735   49.7225 C   0  0  0  0  0  0  0  0  0  0  0  0
    7.5075   15.9728   50.5250 C   0  0  0  0  0  0  0  0  0  0  0  0
    6.5430   16.9299   50.8877 C   0  0  0  0  0  0  0  0  0  0  0  0
    4.2364   18.9989   50.4767 O   0  0  0  0  0  0  0  0  0  0  0  0
   -1.3803   16.0487   60.9696 C   0  0  0  0  0  0  0  0  0  0  0  0
    0.3121   17.6324   52.8549 C   0  0  0  0  0  0  0  0  0  0  0  0
    7.7785   19.1681   53.7541 P   0  0  1  0  0  0  0  0  0  0  0  0
    0.0470   17.4944   59.7019 N   0  0  0  0  0  0  0  0  0  0  0  0
    8.8007   18.6082   54.6587 O   0  0  0  0  0  0  0  0  0  0  0  0
    3.0150   17.4600   51.5915 S   0  0  0  0  0  0  0  0  0  0  0  0
    1.8655   15.9028   55.5343 C   0  0  0  0  0  0  0  0  0  0  0  0
   -0.9425   16.5379   59.6684 C   0  0  0  0  0  0  0  0  0  0  0  0
    7.5150   20.6206   53.9411 O   0  5  0  0  0  0  0  0  0  0  0  0
    1.2170   17.0080   55.0905 N   0  0  0  0  0  0  0  0  0  0  0  0
   -1.4723   16.0794   58.5779 N   0  0  0  0  0  0  0  0  0  0  0  0
    8.0790   18.7995   52.3512 O   0  0  0  0  0  0  0  0  0  0  0  0
    1.5293   17.4020   53.7091 C   0  0  2  0  0  0  0  0  0  0  0  0
   -1.0477   16.5427   57.3473 C   0  0  0  0  0  0  0  0  0  0  0  0
   -1.6126   16.0448   56.2446 N   0  0  0  0  0  0  0  0  0  0  0  0
    2.8539   17.6025   53.1293 C   0  0  1  0  0  0  0  0  0  0  0  0
    0.0015   17.5489   57.2982 C   0  0  0  0  0  0  0  0  0  0  0  0
    1.1162   15.0963   56.0398 O   0  0  0  0  0  0  0  0  0  0  0  0
    4.0725   17.9248   53.9193 C   0  0  0  0  0  0  0  0  0  0  0  0
    0.4923   17.9765   58.5152 C   0  0  0  0  0  0  0  0  0  0  0  0
    5.1931   18.6233   53.2774 C   0  0  0  0  0  0  0  0  0  0  0  0
    0.5368   18.0612   55.9833 C   0  0  0  0  0  0  0  0  0  0  0  0
    6.3870   18.5173   54.0723 O   0  0  0  0  0  0  0  0  0  0  0  0
  1  2  1  0  0  0  0
  1  8  2  0  0  0  0
  1 14  1  0  0  0  0
  2  3  2  0  0  0  0
  2  7  1  0  0  0  0
  3  4  1  0  0  0  0
  4  5  2  0  0  0  0
  5  6  1  0  0  0  0
  6  7  2  0  0  0  0
  9 16  1  0  0  0  0
 10 21  1  0  0  0  0
 11 13  1  1  0  0  0
 11 17  1  0  0  0  0
 11 20  2  0  0  0  0
 11 31  1  0  0  0  0
 12 16  2  0  0  0  0
 12 28  1  0  0  0  0
 15 26  1  0  0  0  0
 15 18  1  0  0  0  0
 16 19  1  0  0  0  0
 18 30  1  0  0  0  0
 19 22  2  0  0  0  0
 21 18  1  1  0  0  0
 21 24  1  0  0  0  0
 22 23  1  0  0  0  0
 22 25  1  0  0  0  0
 24 14  1  1  0  0  0
 24 27  1  0  0  0  0
 25 28  2  0  0  0  0
 25 30  1  0  0  0  0
 27 29  1  0  0  0  0
 29 31  1  0  0  0  0
M  CHG  1  17  -1
M  END
>  <CHROM.1>
-117.88703639,96.65553600,168.18447616,-130.15558728,129.43448788,-29.42878232
-25.11892280,25.22142480,-62.29297505,-164.21925975,-177.76072085,-168.81353513
3.41882501,17.38602744,54.12798121,0.64530090,-0.38555114,-1.87771661

>  <Name>
ligand

>  <RI>
0

>  <Rbt.Current_Directory>
/home/itssahil/PROJECTS/Mol_Feturizer/New_Systems/rnas/2HOO

>  <Rbt.Executable>
rbdock ($Id: //depot/dev/client3/rdock/2013.1/src/exe/rbdock.cxx#4 $)

>  <Rbt.Library>
libRbt.so (2013.1, Build901 2013/11/27)

>  <Rbt.Parameter_File>
/export/apps/rDock/src/rDock_2013.1_src/data/scripts/dock_solv.prm

>  <Rbt.Receptor>
prm/blind_docking_100.prm

>  <SCORE>
-19.8005

>  <SCORE.INTER>
-14.6012

>  <SCORE.INTER.CONST>
1

>  <SCORE.INTER.POLAR>
0

>  <SCORE.INTER.ROT>
12

>  <SCORE.INTER.SOLV>
17.8185

>  <SCORE.INTER.VDW>
-27.2736

>  <SCORE.INTER.norm>
-0.471007

>  <SCORE.INTRA>
-5.1993

>  <SCORE.INTRA.DIHEDRAL>
3.67253

>  <SCORE.INTRA.DIHEDRAL.0>
14.6094

>  <SCORE.INTRA.POLAR>
0

>  <SCORE.INTRA.POLAR.0>
0

>  <SCORE.INTRA.REPUL>
0

>  <SCORE.INTRA.REPUL.0>
0

>  <SCORE.INTRA.SOLV>
5.47889

>  <SCORE.INTRA.SOLV.lig_0>
-65.6478

>  <SCORE.INTRA.VDW>
-9.77501

>  <SCORE.INTRA.VDW.0>
9.35535

>  <SCORE.INTRA.norm>
-0.167719

>  <SCORE.RESTR>
0

>  <SCORE.RESTR.CAVITY>
0

>  <SCORE.RESTR.norm>
0

>  <SCORE.SYSTEM>
0

>  <SCORE.SYSTEM.CONST>
0

>  <SCORE.SYSTEM.DIHEDRAL>
0

>  <SCORE.SYSTEM.SOLV>
0

>  <SCORE.SYSTEM.norm>
0

>  <SCORE.heavy>
31

>  <SCORE.norm>
-0.638726

>  <RMSD>
8.546

$$$$
ligand
 OpenBabel11021811443D
libRbt.so/2013.1/901 2013/11/27
 31 32  0  0  0  0  0  0  0  0999 V2000
   10.1046   20.0255   53.2350 C   0  0  0  0  0  0  0  0  0  0  0  0
   11.4265   19.6697   53.9090 C   0  0  0  0  0  0  0  0  0  0  0  0
   11.8916   18.3148   53.9081 C   0  0  0  0  0  0  0  0  0  0  0  0
   13.1171   17.9904   54.5380 C   0  0  0  0  0  0  0  0  0  0  0  0
   13.8924   18.9970   55.1640 C   0  0  0  0  0  0  0  0  0  0  0  0
   13.4531   20.3365   55.1691 C   0  0  0  0  0  0  0  0  0  0  0  0
   12.2374   20.6787   54.5504 C   0  0  0  0  0  0  0  0  0  0  0  0
    9.9349   21.1531   52.7723 O   0  0  0  0  0  0  0  0  0  0  0  0
    0.7875   14.6594   49.8281 C   0  0  0  0  0  0  0  0  0  0  0  0
    6.6741   20.7818   51.7600 C   0  0  0  0  0  0  0  0  0  0  0  0
    8.3042   17.2417   47.5507 P   0  0  1  0  0  0  0  0  0  0  0  0
    1.4101   16.8345   50.6125 N   0  0  0  0  0  0  0  0  0  0  0  0
    9.5885   16.9973   46.8668 O   0  0  0  0  0  0  0  0  0  0  0  0
    9.0881   19.0911   53.1383 S   0  0  0  0  0  0  0  0  0  0  0  0
    5.2957   17.9368   52.9570 C   0  0  0  0  0  0  0  0  0  0  0  0
    1.8165   15.6798   49.9828 C   0  0  0  0  0  0  0  0  0  0  0  0
    7.1953   17.6643   46.6529 O   0  5  0  0  0  0  0  0  0  0  0  0
    5.6324   18.5189   51.7794 N   0  0  0  0  0  0  0  0  0  0  0  0
    3.0193   15.4767   49.5445 N   0  0  0  0  0  0  0  0  0  0  0  0
    7.9566   16.0896   48.4144 O   0  0  0  0  0  0  0  0  0  0  0  0
    6.8825   19.2922   51.8006 C   0  0  2  0  0  0  0  0  0  0  0  0
    3.9919   16.4457   49.7005 C   0  0  0  0  0  0  0  0  0  0  0  0
    5.2213   16.2006   49.2408 N   0  0  0  0  0  0  0  0  0  0  0  0
    8.2417   18.7656   51.8779 C   0  0  1  0  0  0  0  0  0  0  0  0
    3.6431   17.6922   50.3642 C   0  0  0  0  0  0  0  0  0  0  0  0
    4.4820   18.5836   53.5789 O   0  0  0  0  0  0  0  0  0  0  0  0
    8.8809   17.9417   50.8170 C   0  0  0  0  0  0  0  0  0  0  0  0
    2.3342   17.8119   50.7854 C   0  0  0  0  0  0  0  0  0  0  0  0
    9.3934   18.5881   49.6024 C   0  0  0  0  0  0  0  0  0  0  0  0
    4.6728   18.7695   50.6024 C   0  0  0  0  0  0  0  0  0  0  0  0
    8.4538   18.4658   48.5203 O   0  0  0  0  0  0  0  0  0  0  0  0
  1  2  1  0  0  0  0
  1  8  2  0  0  0  0
  1 14  1  0  0  0  0
  2  3  2  0  0  0  0
  2  7  1  0  0  0  0
  3  4  1  0  0  0  0
  4  5  2  0  0  0  0
  5  6  1  0  0  0  0
  6  7  2  0  0  0  0
  9 16  1  0  0  0  0
 10 21  1  0  0  0  0
 11 13  1  6  0  0  0
 11 17  1  0  0  0  0
 11 20  2  0  0  0  0
 11 31  1  0  0  0  0
 12 16  2  0  0  0  0
 12 28  1  0  0  0  0
 15 26  1  0  0  0  0
 15 18  1  0  0  0  0
 16 19  1  0  0  0  0
 18 30  1  0  0  0  0
 19 22  2  0  0  0  0
 21 18  1  1  0  0  0
 21 24  1  0  0  0  0
 22 23  1  0  0  0  0
 22 25  1  0  0  0  0
 24 14  1  6  0  0  0
 24 27  1  0  0  0  0
 25 28  2  0  0  0  0
 25 30  1  0  0  0  0
 27 29  1  0  0  0  0
 29 31  1  0  0  0  0
M  CHG  1  17  -1
M  END
>  <CHROM.1>
-151.83038967,-133.77501296,-103.09986015,98.26714301,-107.05734348,-37.01493723
63.59451914,-102.01242306,-77.74837945,-98.92521411,-84.09290738,-57.88779617
7.41327847,18.13199648,51.07472651,0.51776721,0.17736844,1.23380494

>  <Name>
ligand

>  <RI>
0

>  <Rbt.Current_Directory>
/home/itssahil/PROJECTS/Mol_Feturizer/New_Systems/rnas/2HOO

>  <Rbt.Executable>
rbdock ($Id: //depot/dev/client3/rdock/2013.1/src/exe/rbdock.cxx#4 $)

>  <Rbt.Library>
libRbt.so (2013.1, Build901 2013/11/27)

>  <Rbt.Parameter_File>
/export/apps/rDock/src/rDock_2013.1_src/data/scripts/dock_solv.prm

>  <Rbt.Receptor>
prm/blind_docking_100.prm

>  <SCORE>
-32.8443

>  <SCORE.INTER>
-25.6947

>  <SCORE.INTER.CONST>
1

>  <SCORE.INTER.POLAR>
0

>  <SCORE.INTER.ROT>
12

>  <SCORE.INTER.SOLV>
10.7012

>  <SCORE.INTER.VDW>
-32.2968

>  <SCORE.INTER.norm>
-0.828861

>  <SCORE.INTRA>
-7.15277

>  <SCORE.INTRA.DIHEDRAL>
5.8168

>  <SCORE.INTRA.DIHEDRAL.0>
14.6094

>  <SCORE.INTRA.POLAR>
0

>  <SCORE.INTRA.POLAR.0>
0

>  <SCORE.INTRA.REPUL>
0

>  <SCORE.INTRA.REPUL.0>
0

>  <SCORE.INTRA.SOLV>
7.11735

>  <SCORE.INTRA.SOLV.lig_0>
-65.6478

>  <SCORE.INTRA.VDW>
-13.6198

>  <SCORE.INTRA.VDW.0>
9.35535

>  <SCORE.INTRA.norm>
-0.230735

>  <SCORE.RESTR>
0.00316943

>  <SCORE.RESTR.CAVITY>
0.00316943

>  <SCORE.RESTR.norm>
0.00010224

>  <SCORE.SYSTEM>
0

>  <SCORE.SYSTEM.CONST>
0

>  <SCORE.SYSTEM.DIHEDRAL>
0

>  <SCORE.SYSTEM.SOLV>
0

>  <SCORE.SYSTEM.norm>
0

>  <SCORE.heavy>
31

>  <SCORE.norm>
-1.05949

>  <RMSD>
8.584

$$$$
ligand
 OpenBabel11021811443D
libRbt.so/2013.1/901 2013/11/27
 31 32  0  0  0  0  0  0  0  0999 V2000
    7.2432   17.6406   53.9416 C   0  0  0  0  0  0  0  0  0  0  0  0
    8.0241   18.9513   53.9286 C   0  0  0  0  0  0  0  0  0  0  0  0
    7.3292   20.2023   53.9956 C   0  0  0  0  0  0  0  0  0  0  0  0
    8.0591   21.4151   53.9798 C   0  0  0  0  0  0  0  0  0  0  0  0
    9.4735   21.4022   53.9054 C   0  0  0  0  0  0  0  0  0  0  0  0
   10.1741   20.1804   53.8450 C   0  0  0  0  0  0  0  0  0  0  0  0
    9.4670   18.9648   53.8577 C   0  0  0  0  0  0  0  0  0  0  0  0
    7.5936   16.7241   54.6843 O   0  0  0  0  0  0  0  0  0  0  0  0
    0.4735   15.7319   55.9669 C   0  0  0  0  0  0  0  0  0  0  0  0
    4.3517   19.3729   50.7679 C   0  0  0  0  0  0  0  0  0  0  0  0
    9.6811   17.2345   48.7434 P   0  0  1  0  0  0  0  0  0  0  0  0
    1.5484   17.2943   54.5048 N   0  0  0  0  0  0  0  0  0  0  0  0
   10.5932   17.6736   49.8167 O   0  0  0  0  0  0  0  0  0  0  0  0
    6.1405   17.4682   53.1229 S   0  0  0  0  0  0  0  0  0  0  0  0
    4.2933   15.7258   50.2518 C   0  0  0  0  0  0  0  0  0  0  0  0
    0.9054   16.0825   54.6198 C   0  0  0  0  0  0  0  0  0  0  0  0
    8.8299   18.3141   48.1741 O   0  5  0  0  0  0  0  0  0  0  0  0
    3.7947   16.9569   50.5250 N   0  0  0  0  0  0  0  0  0  0  0  0
    0.6813   15.2823   53.6250 N   0  0  0  0  0  0  0  0  0  0  0  0
   10.4278   16.4702   47.7175 O   0  0  0  0  0  0  0  0  0  0  0  0
    4.7861   17.9466   50.9708 C   0  0  2  0  0  0  0  0  0  0  0  0
    1.0996   15.6178   52.3515 C   0  0  0  0  0  0  0  0  0  0  0  0
    0.8556   14.7675   51.3513 N   0  0  0  0  0  0  0  0  0  0  0  0
    6.0826   17.6781   51.5855 C   0  0  1  0  0  0  0  0  0  0  0  0
    1.7945   16.8794   52.1488 C   0  0  0  0  0  0  0  0  0  0  0  0
    4.3125   15.4853   49.0647 O   0  0  0  0  0  0  0  0  0  0  0  0
    7.3646   17.6033   50.8346 C   0  0  0  0  0  0  0  0  0  0  0  0
    1.9750   17.6621   53.2711 C   0  0  0  0  0  0  0  0  0  0  0  0
    8.0148   16.3027   50.6311 C   0  0  0  0  0  0  0  0  0  0  0  0
    2.3134   17.2802   50.7894 C   0  0  0  0  0  0  0  0  0  0  0  0
    8.6269   16.2326   49.3315 O   0  0  0  0  0  0  0  0  0  0  0  0
  1  2  1  0  0  0  0
  1  8  2  0  0  0  0
  1 14  1  0  0  0  0
  2  3  2  0  0  0  0
  2  7  1  0  0  0  0
  3  4  1  0  0  0  0
  4  5  2  0  0  0  0
  5  6  1  0  0  0  0
  6  7  2  0  0  0  0
  9 16  1  0  0  0  0
 10 21  1  0  0  0  0
 11 13  1  1  0  0  0
 11 17  1  0  0  0  0
 11 20  2  0  0  0  0
 11 31  1  0  0  0  0
 12 16  2  0  0  0  0
 12 28  1  0  0  0  0
 15 26  1  0  0  0  0
 15 18  1  0  0  0  0
 16 19  1  0  0  0  0
 18 30  1  0  0  0  0
 19 22  2  0  0  0  0
 21 18  1  1  0  0  0
 21 24  1  0  0  0  0
 22 23  1  0  0  0  0
 22 25  1  0  0  0  0
 24 14  1  1  0  0  0
 24 27  1  0  0  0  0
 25 28  2  0  0  0  0
 25 30  1  0  0  0  0
 27 29  1  0  0  0  0
 29 31  1  0  0  0  0
M  CHG  1  17  -1
M  END
>  <CHROM.1>
-132.85677587,53.44641209,-157.10530419,-107.93112417,158.03062996,75.67286537
93.04985127,72.81965332,-95.80998495,143.05859599,55.28839505,36.97469691
5.89670617,17.41693112,51.80726341,-0.19084174,0.34389451,1.12077612

>  <Name>
ligand

>  <RI>
0

>  <Rbt.Current_Directory>
/home/itssahil/PROJECTS/Mol_Feturizer/New_Systems/rnas/2HOO

>  <Rbt.Executable>
rbdock ($Id: //depot/dev/client3/rdock/2013.1/src/exe/rbdock.cxx#4 $)

>  <Rbt.Library>
libRbt.so (2013.1, Build901 2013/11/27)

>  <Rbt.Parameter_File>
/export/apps/rDock/src/rDock_2013.1_src/data/scripts/dock_solv.prm

>  <Rbt.Receptor>
prm/blind_docking_100.prm

>  <SCORE>
-25.6242

>  <SCORE.INTER>
-18.152

>  <SCORE.INTER.CONST>
1

>  <SCORE.INTER.POLAR>
0

>  <SCORE.INTER.ROT>
12

>  <SCORE.INTER.SOLV>
25.3005

>  <SCORE.INTER.VDW>
-32.1348

>  <SCORE.INTER.norm>
-0.585549

>  <SCORE.INTRA>
-7.47221

>  <SCORE.INTRA.DIHEDRAL>
7.61273

>  <SCORE.INTRA.DIHEDRAL.0>
14.6094

>  <SCORE.INTRA.POLAR>
0

>  <SCORE.INTRA.POLAR.0>
0

>  <SCORE.INTRA.REPUL>
0

>  <SCORE.INTRA.REPUL.0>
0

>  <SCORE.INTRA.SOLV>
1.70633

>  <SCORE.INTRA.SOLV.lig_0>
-65.6478

>  <SCORE.INTRA.VDW>
-12.1317

>  <SCORE.INTRA.VDW.0>
9.35535

>  <SCORE.INTRA.norm>
-0.241039

>  <SCORE.RESTR>
0

>  <SCORE.RESTR.CAVITY>
0

>  <SCORE.RESTR.norm>
0

>  <SCORE.SYSTEM>
0

>  <SCORE.SYSTEM.CONST>
0

>  <SCORE.SYSTEM.DIHEDRAL>
0

>  <SCORE.SYSTEM.SOLV>
0

>  <SCORE.SYSTEM.norm>
0

>  <SCORE.heavy>
31

>  <SCORE.norm>
-0.826588

>  <RMSD>
8.585

$$$$
ligand
 OpenBabel11021811443D
libRbt.so/2013.1/901 2013/11/27
 31 32  0  0  0  0  0  0  0  0999 V2000
    4.0637   16.4671   49.3835 C   0  0  0  0  0  0  0  0  0  0  0  0
    3.5346   17.6792   50.1444 C   0  0  0  0  0  0  0  0  0  0  0  0
    2.3251   17.5780   50.9052 C   0  0  0  0  0  0  0  0  0  0  0  0
    1.8374   18.7070   51.6062 C   0  0  0  0  0  0  0  0  0  0  0  0
    2.5402   19.9361   51.5676 C   0  0  0  0  0  0  0  0  0  0  0  0
    3.7353   20.0522   50.8291 C   0  0  0  0  0  0  0  0  0  0  0  0
    4.2352   18.9425   50.1243 C   0  0  0  0  0  0  0  0  0  0  0  0
    5.2760   16.3161   49.2352 O   0  0  0  0  0  0  0  0  0  0  0  0
   11.2100   15.5368   43.2711 C   0  0  0  0  0  0  0  0  0  0  0  0
    5.4606   13.1795   49.0538 C   0  0  0  0  0  0  0  0  0  0  0  0
    1.3124   16.4948   44.3496 P   0  0  1  0  0  0  0  0  0  0  0  0
    9.8830   14.5302   44.9917 N   0  0  0  0  0  0  0  0  0  0  0  0
    0.7153   17.7772   44.7690 O   0  0  0  0  0  0  0  0  0  0  0  0
    3.1924   15.5310   48.8540 S   0  0  0  0  0  0  0  0  0  0  0  0
    5.8586   13.0206   45.8299 C   0  0  0  0  0  0  0  0  0  0  0  0
    9.9874   15.5424   44.0645 C   0  0  0  0  0  0  0  0  0  0  0  0
    0.3752   15.5752   43.6496 O   0  5  0  0  0  0  0  0  0  0  0  0
    5.8898   14.0185   46.7476 N   0  0  0  0  0  0  0  0  0  0  0  0
    9.0846   16.4541   43.8802 N   0  0  0  0  0  0  0  0  0  0  0  0
    2.5695   16.7349   43.6038 O   0  0  0  0  0  0  0  0  0  0  0  0
    4.9179   13.8893   47.8430 C   0  0  2  0  0  0  0  0  0  0  0  0
    7.9308   16.4575   44.6405 C   0  0  0  0  0  0  0  0  0  0  0  0
    7.0244   17.4144   44.4264 N   0  0  0  0  0  0  0  0  0  0  0  0
    3.5459   14.3871   47.8653 C   0  0  1  0  0  0  0  0  0  0  0  0
    7.7494   15.4246   45.6484 C   0  0  0  0  0  0  0  0  0  0  0  0
    5.0979   13.2534   44.9164 O   0  0  0  0  0  0  0  0  0  0  0  0
    2.4511   13.8604   47.0068 C   0  0  0  0  0  0  0  0  0  0  0  0
    8.7652   14.4968   45.7588 C   0  0  0  0  0  0  0  0  0  0  0  0
    2.3020   14.3538   45.6320 C   0  0  0  0  0  0  0  0  0  0  0  0
    6.5309   15.4021   46.5387 C   0  0  0  0  0  0  0  0  0  0  0  0
    1.7258   15.6715   45.6193 O   0  0  0  0  0  0  0  0  0  0  0  0
  1  2  1  0  0  0  0
  1  8  2  0  0  0  0
  1 14  1  0  0  0  0
  2  3  2  0  0  0  0
  2  7  1  0  0  0  0
  3  4  1  0  0  0  0
  4  5  2  0  0  0  0
  5  6  1  0  0  0  0
  6  7  2  0  0  0  0
  9 16  1  0  0  0  0
 10 21  1  0  0  0  0
 11 13  1  1  0  0  0
 11 17  1  0  0  0  0
 11 20  2  0  0  0  0
 11 31  1  0  0  0  0
 12 16  2  0  0  0  0
 12 28  1  0  0  0  0
 15 26  1  0  0  0  0
 15 18  1  0  0  0  0
 16 19  1  0  0  0  0
 18 30  1  0  0  0  0
 19 22  2  0  0  0  0
 21 18  1  1  0  0  0
 21 24  1  0  0  0  0
 22 23  1  0  0  0  0
 22 25  1  0  0  0  0
 24 14  1  1  0  0  0
 24 27  1  0  0  0  0
 25 28  2  0  0  0  0
 25 30  1  0  0  0  0
 27 29  1  0  0  0  0
 29 31  1  0  0  0  0
M  CHG  1  17  -1
M  END
>  <CHROM.1>
-148.14619305,169.02706617,24.89876898,90.06549802,92.41058832,-32.81917935
65.85680822,97.22499392,136.65301184,-75.61173331,-175.22424248,177.93730158
4.62363191,15.89075144,46.71695066,-2.50187886,0.10766412,-1.91195569

>  <Name>
ligand

>  <RI>
0

>  <Rbt.Current_Directory>
/home/itssahil/PROJECTS/Mol_Feturizer/New_Systems/rnas/2HOO

>  <Rbt.Executable>
rbdock ($Id: //depot/dev/client3/rdock/2013.1/src/exe/rbdock.cxx#4 $)

>  <Rbt.Library>
libRbt.so (2013.1, Build901 2013/11/27)

>  <Rbt.Parameter_File>
/export/apps/rDock/src/rDock_2013.1_src/data/scripts/dock_solv.prm

>  <Rbt.Receptor>
prm/pocket_docking_8.prm

>  <SCORE>
-24.6585

>  <SCORE.INTER>
-10.9256

>  <SCORE.INTER.CONST>
1

>  <SCORE.INTER.POLAR>
0

>  <SCORE.INTER.ROT>
12

>  <SCORE.INTER.SOLV>
12.2957

>  <SCORE.INTER.VDW>
-22.9823

>  <SCORE.INTER.norm>
-0.352438

>  <SCORE.INTRA>
-13.733

>  <SCORE.INTRA.DIHEDRAL>
-1.51905

>  <SCORE.INTRA.DIHEDRAL.0>
14.6094

>  <SCORE.INTRA.POLAR>
0

>  <SCORE.INTRA.POLAR.0>
0

>  <SCORE.INTRA.REPUL>
0

>  <SCORE.INTRA.REPUL.0>
0

>  <SCORE.INTRA.SOLV>
0.905102

>  <SCORE.INTRA.SOLV.lig_0>
-65.6478

>  <SCORE.INTRA.VDW>
-13.426

>  <SCORE.INTRA.VDW.0>
9.35535

>  <SCORE.INTRA.norm>
-0.442999

>  <SCORE.RESTR>
0

>  <SCORE.RESTR.CAVITY>
0

>  <SCORE.RESTR.norm>
0

>  <SCORE.SYSTEM>
0

>  <SCORE.SYSTEM.CONST>
0

>  <SCORE.SYSTEM.DIHEDRAL>
0

>  <SCORE.SYSTEM.SOLV>
0

>  <SCORE.SYSTEM.norm>
0

>  <SCORE.heavy>
31

>  <SCORE.norm>
-0.795437

>  <RMSD>
8.741

$$$$
ligand
 OpenBabel11021811443D
libRbt.so/2013.1/901 2013/11/27
 31 32  0  0  0  0  0  0  0  0999 V2000
    8.4223   22.8138   52.7429 C   0  0  0  0  0  0  0  0  0  0  0  0
    7.5015   23.7685   53.4971 C   0  0  0  0  0  0  0  0  0  0  0  0
    8.0057   24.5328   54.5988 C   0  0  0  0  0  0  0  0  0  0  0  0
    7.1456   25.4143   55.2967 C   0  0  0  0  0  0  0  0  0  0  0  0
    5.7901   25.5528   54.9098 C   0  0  0  0  0  0  0  0  0  0  0  0
    5.2785   24.8132   53.8243 C   0  0  0  0  0  0  0  0  0  0  0  0
    6.1165   23.9307   53.1193 C   0  0  0  0  0  0  0  0  0  0  0  0
    9.5558   23.1745   52.4274 O   0  0  0  0  0  0  0  0  0  0  0  0
    3.0155   14.9998   48.8432 C   0  0  0  0  0  0  0  0  0  0  0  0
    5.8958   20.6164   54.7817 C   0  0  0  0  0  0  0  0  0  0  0  0
   12.5557   18.9752   53.8696 P   0  0  1  0  0  0  0  0  0  0  0  0
    4.6711   16.3074   49.9761 N   0  0  0  0  0  0  0  0  0  0  0  0
   13.5848   19.9551   53.4727 O   0  0  0  0  0  0  0  0  0  0  0  0
    7.9958   21.5409   52.4062 S   0  0  0  0  0  0  0  0  0  0  0  0
    6.6856   17.4113   53.8340 C   0  0  0  0  0  0  0  0  0  0  0  0
    3.3557   15.9037   49.9347 C   0  0  0  0  0  0  0  0  0  0  0  0
   11.7902   18.3881   52.7366 O   0  5  0  0  0  0  0  0  0  0  0  0
    6.0358   18.5300   53.4276 N   0  0  0  0  0  0  0  0  0  0  0  0
    2.4541   16.2785   50.7873 N   0  0  0  0  0  0  0  0  0  0  0  0
   13.1387   17.9590   54.7761 O   0  0  0  0  0  0  0  0  0  0  0  0
    6.6841   19.7968   53.7964 C   0  0  2  0  0  0  0  0  0  0  0  0
    2.7820   17.1410   51.8158 C   0  0  0  0  0  0  0  0  0  0  0  0
    1.8268   17.5095   52.6730 N   0  0  0  0  0  0  0  0  0  0  0  0
    7.9753   20.2929   53.3299 C   0  0  1  0  0  0  0  0  0  0  0  0
    4.1513   17.6200   51.9229 C   0  0  0  0  0  0  0  0  0  0  0  0
    7.4753   17.0073   53.0090 O   0  0  0  0  0  0  0  0  0  0  0  0
    9.2830   19.6718   53.6720 C   0  0  0  0  0  0  0  0  0  0  0  0
    5.0352   17.1543   50.9707 C   0  0  0  0  0  0  0  0  0  0  0  0
   10.3747   20.5086   54.1856 C   0  0  0  0  0  0  0  0  0  0  0  0
    4.5592   18.5971   52.9984 C   0  0  0  0  0  0  0  0  0  0  0  0
   11.4422   19.6973   54.7060 O   0  0  0  0  0  0  0  0  0  0  0  0
  1  2  1  0  0  0  0
  1  8  2  0  0  0  0
  1 14  1  0  0  0  0
  2  3  2  0  0  0  0
  2  7  1  0  0  0  0
  3  4  1  0  0  0  0
  4  5  2  0  0  0  0
  5  6  1  0  0  0  0
  6  7  2  0  0  0  0
  9 16  1  0  0  0  0
 10 21  1  0  0  0  0
 11 13  1  6  0  0  0
 11 17  1  0  0  0  0
 11 20  2  0  0  0  0
 11 31  1  0  0  0  0
 12 16  2  0  0  0  0
 12 28  1  0  0  0  0
 15 26  1  0  0  0  0
 15 18  1  0  0  0  0
 16 19  1  0  0  0  0
 18 30  1  0  0  0  0
 19 22  2  0  0  0  0
 21 18  1  1  0  0  0
 21 24  1  0  0  0  0
 22 23  1  0  0  0  0
 22 25  1  0  0  0  0
 24 14  1  6  0  0  0
 24 27  1  0  0  0  0
 25 28  2  0  0  0  0
 25 30  1  0  0  0  0
 27 29  1  0  0  0  0
 29 31  1  0  0  0  0
M  CHG  1  17  -1
M  END
>  <CHROM.1>
-44.59831421,-81.30642955,108.45543271,-90.54427836,-113.71304386,-53.29200600
-69.19811532,50.67028547,152.77368822,168.27364461,79.80986057,78.46051403
7.50760002,19.78881060,52.99625592,0.60251684,-0.20130961,0.28334578

>  <Name>
ligand

>  <RI>
0

>  <Rbt.Current_Directory>
/home/itssahil/PROJECTS/Mol_Feturizer/New_Systems/rnas/2HOO

>  <Rbt.Executable>
rbdock ($Id: //depot/dev/client3/rdock/2013.1/src/exe/rbdock.cxx#4 $)

>  <Rbt.Library>
libRbt.so (2013.1, Build901 2013/11/27)

>  <Rbt.Parameter_File>
/export/apps/rDock/src/rDock_2013.1_src/data/scripts/dock_solv.prm

>  <Rbt.Receptor>
prm/blind_docking_100.prm

>  <SCORE>
-20.978

>  <SCORE.INTER>
-13.1119

>  <SCORE.INTER.CONST>
1

>  <SCORE.INTER.POLAR>
0

>  <SCORE.INTER.ROT>
12

>  <SCORE.INTER.SOLV>
24.3871

>  <SCORE.INTER.VDW>
-28.4703

>  <SCORE.INTER.norm>
-0.422965

>  <SCORE.INTRA>
-8.86462

>  <SCORE.INTRA.DIHEDRAL>
6.55365

>  <SCORE.INTRA.DIHEDRAL.0>
14.6094

>  <SCORE.INTRA.POLAR>
0

>  <SCORE.INTRA.POLAR.0>
0

>  <SCORE.INTRA.REPUL>
0

>  <SCORE.INTRA.REPUL.0>
0

>  <SCORE.INTRA.SOLV>
0.456891

>  <SCORE.INTRA.SOLV.lig_0>
-65.6478

>  <SCORE.INTRA.VDW>
-12.3699

>  <SCORE.INTRA.VDW.0>
9.35535

>  <SCORE.INTRA.norm>
-0.285956

>  <SCORE.RESTR>
0.998544

>  <SCORE.RESTR.CAVITY>
0.998544

>  <SCORE.RESTR.norm>
0.0322111

>  <SCORE.SYSTEM>
0

>  <SCORE.SYSTEM.CONST>
0

>  <SCORE.SYSTEM.DIHEDRAL>
0

>  <SCORE.SYSTEM.SOLV>
0

>  <SCORE.SYSTEM.norm>
0

>  <SCORE.heavy>
31

>  <SCORE.norm>
-0.676709

>  <RMSD>
8.763

$$$$
ligand
 OpenBabel11021811443D
libRbt.so/2013.1/901 2013/11/27
 31 32  0  0  0  0  0  0  0  0999 V2000
    6.7788   21.9043   53.4663 C   0  0  0  0  0  0  0  0  0  0  0  0
    7.3322   23.2577   53.0300 C   0  0  0  0  0  0  0  0  0  0  0  0
    8.6028   23.7052   53.5171 C   0  0  0  0  0  0  0  0  0  0  0  0
    9.1094   24.9632   53.1113 C   0  0  0  0  0  0  0  0  0  0  0  0
    8.3726   25.7817   52.2205 C   0  0  0  0  0  0  0  0  0  0  0  0
    7.1233   25.3546   51.7264 C   0  0  0  0  0  0  0  0  0  0  0  0
    6.6021   24.1088   52.1191 C   0  0  0  0  0  0  0  0  0  0  0  0
    6.4859   21.7118   54.6460 O   0  0  0  0  0  0  0  0  0  0  0  0
    0.8176   14.5953   49.7739 C   0  0  0  0  0  0  0  0  0  0  0  0
    8.1019   19.0104   49.5483 C   0  0  0  0  0  0  0  0  0  0  0  0
   12.3089   19.1935   54.1039 P   0  0  1  0  0  0  0  0  0  0  0  0
    2.7827   15.7077   48.9768 N   0  0  0  0  0  0  0  0  0  0  0  0
   12.2869   20.2974   55.0826 O   0  0  0  0  0  0  0  0  0  0  0  0
    6.6026   20.8847   52.5471 S   0  0  0  0  0  0  0  0  0  0  0  0
    6.3694   17.1188   51.7916 C   0  0  0  0  0  0  0  0  0  0  0  0
    1.8350   15.6201   49.9714 C   0  0  0  0  0  0  0  0  0  0  0  0
   13.5585   19.1027   53.3012 O   0  5  0  0  0  0  0  0  0  0  0  0
    6.2069   18.1343   50.9077 N   0  0  0  0  0  0  0  0  0  0  0  0
    1.8150   16.3766   51.0237 N   0  0  0  0  0  0  0  0  0  0  0  0
   11.9367   17.9191   54.7610 O   0  0  0  0  0  0  0  0  0  0  0  0
    7.3266   19.0841   50.8358 C   0  0  2  0  0  0  0  0  0  0  0  0
    2.7787   17.3507   51.2015 C   0  0  0  0  0  0  0  0  0  0  0  0
    2.7246   18.1147   52.2953 N   0  0  0  0  0  0  0  0  0  0  0  0
    7.7177   20.0616   51.8470 C   0  0  1  0  0  0  0  0  0  0  0  0
    3.8110   17.5120   50.1894 C   0  0  0  0  0  0  0  0  0  0  0  0
    7.4070   16.5171   51.6220 O   0  0  0  0  0  0  0  0  0  0  0  0
    9.1243   20.3338   52.2470 C   0  0  0  0  0  0  0  0  0  0  0  0
    3.7476   16.6510   49.1127 C   0  0  0  0  0  0  0  0  0  0  0  0
    9.7872   19.4578   53.2211 C   0  0  0  0  0  0  0  0  0  0  0  0
    4.8641   18.5868   50.3067 C   0  0  0  0  0  0  0  0  0  0  0  0
   11.2101   19.4418   53.0122 O   0  0  0  0  0  0  0  0  0  0  0  0
  1  2  1  0  0  0  0
  1  8  2  0  0  0  0
  1 14  1  0  0  0  0
  2  3  2  0  0  0  0
  2  7  1  0  0  0  0
  3  4  1  0  0  0  0
  4  5  2  0  0  0  0
  5  6  1  0  0  0  0
  6  7  2  0  0  0  0
  9 16  1  0  0  0  0
 10 21  1  0  0  0  0
 11 13  1  1  0  0  0
 11 17  1  0  0  0  0
 11 20  2  0  0  0  0
 11 31  1  0  0  0  0
 12 16  2  0  0  0  0
 12 28  1  0  0  0  0
 15 26  1  0  0  0  0
 15 18  1  0  0  0  0
 16 19  1  0  0  0  0
 18 30  1  0  0  0  0
 19 22  2  0  0  0  0
 21 18  1  6  0  0  0
 21 24  1  0  0  0  0
 22 23  1  0  0  0  0
 22 25  1  0  0  0  0
 24 14  1  6  0  0  0
 24 27  1  0  0  0  0
 25 28  2  0  0  0  0
 25 30  1  0  0  0  0
 27 29  1  0  0  0  0
 29 31  1  0  0  0  0
M  CHG  1  17  -1
M  END
>  <CHROM.1>
65.04078363,71.00931759,-175.92339140,-53.19260227,110.36262573,-28.33457045
135.73609186,98.41189010,96.80106257,152.18523485,151.48273429,-65.31292117
7.26005038,19.52998185,52.13218363,0.55082275,-0.32989909,0.13519222

>  <Name>
ligand

>  <RI>
0

>  <Rbt.Current_Directory>
/home/itssahil/PROJECTS/Mol_Feturizer/New_Systems/rnas/2HOO

>  <Rbt.Executable>
rbdock ($Id: //depot/dev/client3/rdock/2013.1/src/exe/rbdock.cxx#4 $)

>  <Rbt.Library>
libRbt.so (2013.1, Build901 2013/11/27)

>  <Rbt.Parameter_File>
/export/apps/rDock/src/rDock_2013.1_src/data/scripts/dock_solv.prm

>  <Rbt.Receptor>
prm/blind_docking_100.prm

>  <SCORE>
-27.2575

>  <SCORE.INTER>
-18.0129

>  <SCORE.INTER.CONST>
1

>  <SCORE.INTER.POLAR>
0

>  <SCORE.INTER.ROT>
12

>  <SCORE.INTER.SOLV>
23.8763

>  <SCORE.INTER.VDW>
-31.5674

>  <SCORE.INTER.norm>
-0.58106

>  <SCORE.INTRA>
-9.24465

>  <SCORE.INTRA.DIHEDRAL>
7.50444

>  <SCORE.INTRA.DIHEDRAL.0>
14.6094

>  <SCORE.INTRA.POLAR>
0

>  <SCORE.INTRA.POLAR.0>
0

>  <SCORE.INTRA.REPUL>
0

>  <SCORE.INTRA.REPUL.0>
0

>  <SCORE.INTRA.SOLV>
0.556037

>  <SCORE.INTRA.SOLV.lig_0>
-65.6478

>  <SCORE.INTRA.VDW>
-13.2749

>  <SCORE.INTRA.VDW.0>
9.35535

>  <SCORE.INTRA.norm>
-0.298215

>  <SCORE.RESTR>
0

>  <SCORE.RESTR.CAVITY>
0

>  <SCORE.RESTR.norm>
0

>  <SCORE.SYSTEM>
0

>  <SCORE.SYSTEM.CONST>
0

>  <SCORE.SYSTEM.DIHEDRAL>
0

>  <SCORE.SYSTEM.SOLV>
0

>  <SCORE.SYSTEM.norm>
0

>  <SCORE.heavy>
31

>  <SCORE.norm>
-0.879275

>  <RMSD>
8.793

$$$$
ligand
 OpenBabel11021811443D
libRbt.so/2013.1/901 2013/11/27
 31 32  0  0  0  0  0  0  0  0999 V2000
    5.5007   16.6390   50.9124 C   0  0  0  0  0  0  0  0  0  0  0  0
    5.9908   17.1115   52.2779 C   0  0  0  0  0  0  0  0  0  0  0  0
    5.1838   17.9962   53.0642 C   0  0  0  0  0  0  0  0  0  0  0  0
    5.6454   18.4337   54.3288 C   0  0  0  0  0  0  0  0  0  0  0  0
    6.8974   17.9979   54.8276 C   0  0  0  0  0  0  0  0  0  0  0  0
    7.7019   17.1224   54.0702 C   0  0  0  0  0  0  0  0  0  0  0  0
    7.2618   16.6779   52.8106 C   0  0  0  0  0  0  0  0  0  0  0  0
    4.3009   16.4388   50.7258 O   0  0  0  0  0  0  0  0  0  0  0  0
   10.0993    9.6389   50.7919 C   0  0  0  0  0  0  0  0  0  0  0  0
    3.7446   15.0629   47.9756 C   0  0  0  0  0  0  0  0  0  0  0  0
    6.5300   18.8749   44.7073 P   0  0  1  0  0  0  0  0  0  0  0  0
    8.5254   11.4103   51.1371 N   0  0  0  0  0  0  0  0  0  0  0  0
    6.4738   19.8069   45.8497 O   0  0  0  0  0  0  0  0  0  0  0  0
    6.3939   16.4302   49.8758 S   0  0  0  0  0  0  0  0  0  0  0  0
    6.5890   13.3080   46.9992 C   0  0  0  0  0  0  0  0  0  0  0  0
    8.9043   10.3464   50.3499 C   0  0  0  0  0  0  0  0  0  0  0  0
    5.2062   18.3634   44.2599 O   0  5  0  0  0  0  0  0  0  0  0  0
    5.7060   13.5272   48.0048 N   0  0  0  0  0  0  0  0  0  0  0  0
    8.2697    9.9695   49.2843 N   0  0  0  0  0  0  0  0  0  0  0  0
    7.3380   19.4571   43.6108 O   0  0  0  0  0  0  0  0  0  0  0  0
    5.2340   14.9138   48.1294 C   0  0  2  0  0  0  0  0  0  0  0  0
    7.1412   10.6489   48.8671 C   0  0  0  0  0  0  0  0  0  0  0  0
    6.5153   10.2356   47.7624 N   0  0  0  0  0  0  0  0  0  0  0  0
    6.0436   16.0979   48.4000 C   0  0  1  0  0  0  0  0  0  0  0  0
    6.6811   11.7911   49.6415 C   0  0  0  0  0  0  0  0  0  0  0  0
    7.7247   13.5953   47.3074 O   0  0  0  0  0  0  0  0  0  0  0  0
    6.5499   17.0226   47.3504 C   0  0  0  0  0  0  0  0  0  0  0  0
    7.4220   12.1043   50.7629 C   0  0  0  0  0  0  0  0  0  0  0  0
    6.7680   16.5262   45.9860 C   0  0  0  0  0  0  0  0  0  0  0  0
    5.4808   12.5987   49.2115 C   0  0  0  0  0  0  0  0  0  0  0  0
    7.2822   17.5671   45.1371 O   0  0  0  0  0  0  0  0  0  0  0  0
  1  2  1  0  0  0  0
  1  8  2  0  0  0  0
  1 14  1  0  0  0  0
  2  3  2  0  0  0  0
  2  7  1  0  0  0  0
  3  4  1  0  0  0  0
  4  5  2  0  0  0  0
  5  6  1  0  0  0  0
  6  7  2  0  0  0  0
  9 16  1  0  0  0  0
 10 21  1  0  0  0  0
 11 13  1  1  0  0  0
 11 17  1  0  0  0  0
 11 20  2  0  0  0  0
 11 31  1  0  0  0  0
 12 16  2  0  0  0  0
 12 28  1  0  0  0  0
 15 26  1  0  0  0  0
 15 18  1  0  0  0  0
 16 19  1  0  0  0  0
 18 30  1  0  0  0  0
 19 22  2  0  0  0  0
 21 18  1  1  0  0  0
 21 24  1  0  0  0  0
 22 23  1  0  0  0  0
 22 25  1  0  0  0  0
 24 14  1  1  0  0  0
 24 27  1  0  0  0  0
 25 28  2  0  0  0  0
 25 30  1  0  0  0  0
 27 29  1  0  0  0  0
 29 31  1  0  0  0  0
M  CHG  1  17  -1
M  END
>  <CHROM.1>
-34.75289511,-173.10310150,-57.29496505,82.65277834,119.95537851,29.28317756
95.05253821,154.15329203,-73.92416901,-178.84545497,-65.61715893,73.85964779
6.59722285,15.32597273,48.82849355,0.73481649,-1.35240003,1.65807096

>  <Name>
ligand

>  <RI>
0

>  <Rbt.Current_Directory>
/home/itssahil/PROJECTS/Mol_Feturizer/New_Systems/rnas/2HOO

>  <Rbt.Executable>
rbdock ($Id: //depot/dev/client3/rdock/2013.1/src/exe/rbdock.cxx#4 $)

>  <Rbt.Library>
libRbt.so (2013.1, Build901 2013/11/27)

>  <Rbt.Parameter_File>
/export/apps/rDock/src/rDock_2013.1_src/data/scripts/dock_solv.prm

>  <Rbt.Receptor>
prm/pocket_docking_8.prm

>  <SCORE>
-25.3776

>  <SCORE.INTER>
-13.8892

>  <SCORE.INTER.CONST>
1

>  <SCORE.INTER.POLAR>
0

>  <SCORE.INTER.ROT>
12

>  <SCORE.INTER.SOLV>
15.4274

>  <SCORE.INTER.VDW>
-26.0019

>  <SCORE.INTER.norm>
-0.44804

>  <SCORE.INTRA>
-11.4884

>  <SCORE.INTRA.DIHEDRAL>
0.115627

>  <SCORE.INTRA.DIHEDRAL.0>
14.6094

>  <SCORE.INTRA.POLAR>
0

>  <SCORE.INTRA.POLAR.0>
0

>  <SCORE.INTRA.REPUL>
0

>  <SCORE.INTRA.REPUL.0>
0

>  <SCORE.INTRA.SOLV>
4.01085

>  <SCORE.INTRA.SOLV.lig_0>
-65.6478

>  <SCORE.INTRA.VDW>
-13.5516

>  <SCORE.INTRA.VDW.0>
9.35535

>  <SCORE.INTRA.norm>
-0.370592

>  <SCORE.RESTR>
0

>  <SCORE.RESTR.CAVITY>
0

>  <SCORE.RESTR.norm>
0

>  <SCORE.SYSTEM>
0

>  <SCORE.SYSTEM.CONST>
0

>  <SCORE.SYSTEM.DIHEDRAL>
0

>  <SCORE.SYSTEM.SOLV>
0

>  <SCORE.SYSTEM.norm>
0

>  <SCORE.heavy>
31

>  <SCORE.norm>
-0.818632

>  <RMSD>
8.859

$$$$
ligand
 OpenBabel11021811443D
libRbt.so/2013.1/901 2013/11/27
 31 32  0  0  0  0  0  0  0  0999 V2000
    6.7165   18.4484   50.9364 C   0  0  0  0  0  0  0  0  0  0  0  0
    6.8139   19.9359   51.2622 C   0  0  0  0  0  0  0  0  0  0  0  0
    5.7004   20.6164   51.8530 C   0  0  0  0  0  0  0  0  0  0  0  0
    5.7957   21.9972   52.1499 C   0  0  0  0  0  0  0  0  0  0  0  0
    6.9873   22.7115   51.8739 C   0  0  0  0  0  0  0  0  0  0  0  0
    8.0951   22.0566   51.2984 C   0  0  0  0  0  0  0  0  0  0  0  0
    8.0195   20.6855   50.9944 C   0  0  0  0  0  0  0  0  0  0  0  0
    7.3242   17.6280   51.6235 O   0  0  0  0  0  0  0  0  0  0  0  0
   -0.9833   15.8874   55.9923 C   0  0  0  0  0  0  0  0  0  0  0  0
    3.1536   15.6084   48.8947 C   0  0  0  0  0  0  0  0  0  0  0  0
    9.7815   17.3670   48.8663 P   0  0  1  0  0  0  0  0  0  0  0  0
   -0.4067   17.2708   54.1247 N   0  0  0  0  0  0  0  0  0  0  0  0
   10.5558   17.7495   50.0625 O   0  0  0  0  0  0  0  0  0  0  0  0
    5.9501   18.0083   49.8712 S   0  0  0  0  0  0  0  0  0  0  0  0
    3.9315   17.4281   52.0409 C   0  0  0  0  0  0  0  0  0  0  0  0
   -0.2961   16.0322   54.7152 C   0  0  0  0  0  0  0  0  0  0  0  0
    9.2258   18.5125   48.0962 O   0  5  0  0  0  0  0  0  0  0  0  0
    3.2216   16.7384   51.1139 N   0  0  0  0  0  0  0  0  0  0  0  0
    0.3630   15.0403   54.2036 N   0  0  0  0  0  0  0  0  0  0  0  0
   10.5590   16.4195   48.0344 O   0  0  0  0  0  0  0  0  0  0  0  0
    3.9812   16.3303   49.9233 C   0  0  2  0  0  0  0  0  0  0  0  0
    1.0179   15.1865   52.9956 C   0  0  0  0  0  0  0  0  0  0  0  0
    1.6908   14.1448   52.5006 N   0  0  0  0  0  0  0  0  0  0  0  0
    5.3953   16.5742   49.6554 C   0  0  1  0  0  0  0  0  0  0  0  0
    0.9556   16.4691   52.3124 C   0  0  0  0  0  0  0  0  0  0  0  0
    3.7084   18.6183   52.0057 O   0  0  0  0  0  0  0  0  0  0  0  0
    6.3463   15.5365   49.1739 C   0  0  0  0  0  0  0  0  0  0  0  0
    0.2211   17.4565   52.9370 C   0  0  0  0  0  0  0  0  0  0  0  0
    7.5498   15.9381   48.4351 C   0  0  0  0  0  0  0  0  0  0  0  0
    1.6863   16.7022   51.0125 C   0  0  0  0  0  0  0  0  0  0  0  0
    8.4947   16.5848   49.3055 O   0  0  0  0  0  0  0  0  0  0  0  0
  1  2  1  0  0  0  0
  1  8  2  0  0  0  0
  1 14  1  0  0  0  0
  2  3  2  0  0  0  0
  2  7  1  0  0  0  0
  3  4  1  0  0  0  0
  4  5  2  0  0  0  0
  5  6  1  0  0  0  0
  6  7  2  0  0  0  0
  9 16  1  0  0  0  0
 10 21  1  0  0  0  0
 11 13  1  1  0  0  0
 11 17  1  0  0  0  0
 11 20  2  0  0  0  0
 11 31  1  0  0  0  0
 12 16  2  0  0  0  0
 12 28  1  0  0  0  0
 15 26  1  0  0  0  0
 15 18  1  0  0  0  0
 16 19  1  0  0  0  0
 18 30  1  0  0  0  0
 19 22  2  0  0  0  0
 21 18  1  6  0  0  0
 21 24  1  0  0  0  0
 22 23  1  0  0  0  0
 22 25  1  0  0  0  0
 24 14  1  6  0  0  0
 24 27  1  0  0  0  0
 25 28  2  0  0  0  0
 25 30  1  0  0  0  0
 27 29  1  0  0  0  0
 29 31  1  0  0  0  0
M  CHG  1  17  -1
M  END
>  <CHROM.1>
-107.06309283,-160.02900597,103.45229801,102.54565735,-178.04123028,-46.59985493
130.90319890,-23.95866078,-68.99739395,70.80695106,-168.98117624,-173.83202829
5.20051833,17.52785631,51.02648144,0.01042484,0.49590176,0.44295275

>  <Name>
ligand

>  <RI>
0

>  <Rbt.Current_Directory>
/home/itssahil/PROJECTS/Mol_Feturizer/New_Systems/rnas/2HOO

>  <Rbt.Executable>
rbdock ($Id: //depot/dev/client3/rdock/2013.1/src/exe/rbdock.cxx#4 $)

>  <Rbt.Library>
libRbt.so (2013.1, Build901 2013/11/27)

>  <Rbt.Parameter_File>
/export/apps/rDock/src/rDock_2013.1_src/data/scripts/dock_solv.prm

>  <Rbt.Receptor>
prm/blind_docking_100.prm

>  <SCORE>
-18.0221

>  <SCORE.INTER>
-11.9788

>  <SCORE.INTER.CONST>
1

>  <SCORE.INTER.POLAR>
0

>  <SCORE.INTER.ROT>
12

>  <SCORE.INTER.SOLV>
26.4109

>  <SCORE.INTER.VDW>
-28.3895

>  <SCORE.INTER.norm>
-0.386412

>  <SCORE.INTRA>
-6.06162

>  <SCORE.INTRA.DIHEDRAL>
-0.658807

>  <SCORE.INTRA.DIHEDRAL.0>
14.6094

>  <SCORE.INTRA.POLAR>
0

>  <SCORE.INTRA.POLAR.0>
0

>  <SCORE.INTRA.REPUL>
0

>  <SCORE.INTRA.REPUL.0>
0

>  <SCORE.INTRA.SOLV>
6.48133

>  <SCORE.INTRA.SOLV.lig_0>
-65.6478

>  <SCORE.INTRA.VDW>
-8.97288

>  <SCORE.INTRA.VDW.0>
9.35535

>  <SCORE.INTRA.norm>
-0.195536

>  <SCORE.RESTR>
0.0182851

>  <SCORE.RESTR.CAVITY>
0.0182851

>  <SCORE.RESTR.norm>
0.000589842

>  <SCORE.SYSTEM>
0

>  <SCORE.SYSTEM.CONST>
0

>  <SCORE.SYSTEM.DIHEDRAL>
0

>  <SCORE.SYSTEM.SOLV>
0

>  <SCORE.SYSTEM.norm>
0

>  <SCORE.heavy>
31

>  <SCORE.norm>
-0.581358

>  <RMSD>
8.865

$$$$
ligand
 OpenBabel11021811443D
libRbt.so/2013.1/901 2013/11/27
 31 32  0  0  0  0  0  0  0  0999 V2000
    0.4238   17.9641   52.6941 C   0  0  0  0  0  0  0  0  0  0  0  0
    0.8050   16.6148   52.0925 C   0  0  0  0  0  0  0  0  0  0  0  0
    1.1000   15.5042   52.9480 C   0  0  0  0  0  0  0  0  0  0  0  0
    1.4564   14.2558   52.3839 C   0  0  0  0  0  0  0  0  0  0  0  0
    1.5170   14.0929   50.9782 C   0  0  0  0  0  0  0  0  0  0  0  0
    1.2239   15.1731   50.1211 C   0  0  0  0  0  0  0  0  0  0  0  0
    0.8696   16.4220   50.6622 C   0  0  0  0  0  0  0  0  0  0  0  0
   -0.5965   18.5391   52.3161 O   0  0  0  0  0  0  0  0  0  0  0  0
   -4.9859   15.3316   57.5763 C   0  0  0  0  0  0  0  0  0  0  0  0
    1.3127   20.1994   57.1863 C   0  0  0  0  0  0  0  0  0  0  0  0
    0.2932   23.9944   52.1478 P   0  0  1  0  0  0  0  0  0  0  0  0
   -2.7475   15.6238   56.7774 N   0  0  0  0  0  0  0  0  0  0  0  0
    1.6459   24.5112   52.4304 O   0  0  0  0  0  0  0  0  0  0  0  0
    1.2163   18.5533   53.6640 S   0  0  0  0  0  0  0  0  0  0  0  0
    1.9040   16.9289   56.2073 C   0  0  0  0  0  0  0  0  0  0  0  0
   -3.6634   15.9147   57.7631 C   0  0  0  0  0  0  0  0  0  0  0  0
   -0.8045   24.9706   52.3849 O   0  5  0  0  0  0  0  0  0  0  0  0
    0.9814   17.7722   56.7331 N   0  0  0  0  0  0  0  0  0  0  0  0
   -3.4062   16.6506   58.7987 N   0  0  0  0  0  0  0  0  0  0  0  0
    0.2518   23.3767   50.8020 O   0  0  0  0  0  0  0  0  0  0  0  0
    0.9900   19.1324   56.1756 C   0  0  2  0  0  0  0  0  0  0  0  0
   -2.1520   17.2059   58.9662 C   0  0  0  0  0  0  0  0  0  0  0  0
   -1.9239   17.9623   60.0427 N   0  0  0  0  0  0  0  0  0  0  0  0
    0.7475   19.5163   54.7883 C   0  0  1  0  0  0  0  0  0  0  0  0
   -1.1304   16.9519   57.9624 C   0  0  0  0  0  0  0  0  0  0  0  0
    1.4437   15.8380   55.9514 O   0  0  0  0  0  0  0  0  0  0  0  0
    0.0875   20.7836   54.3744 C   0  0  0  0  0  0  0  0  0  0  0  0
   -1.5036   16.1490   56.9037 C   0  0  0  0  0  0  0  0  0  0  0  0
    0.7316   21.6488   53.3783 C   0  0  0  0  0  0  0  0  0  0  0  0
    0.2440   17.5664   58.0684 C   0  0  0  0  0  0  0  0  0  0  0  0
   -0.0447   22.8385   53.1530 O   0  0  0  0  0  0  0  0  0  0  0  0
  1  2  1  0  0  0  0
  1  8  2  0  0  0  0
  1 14  1  0  0  0  0
  2  3  2  0  0  0  0
  2  7  1  0  0  0  0
  3  4  1  0  0  0  0
  4  5  2  0  0  0  0
  5  6  1  0  0  0  0
  6  7  2  0  0  0  0
  9 16  1  0  0  0  0
 10 21  1  0  0  0  0
 11 13  1  1  0  0  0
 11 17  1  0  0  0  0
 11 20  2  0  0  0  0
 11 31  1  0  0  0  0
 12 16  2  0  0  0  0
 12 28  1  0  0  0  0
 15 26  1  0  0  0  0
 15 18  1  0  0  0  0
 16 19  1  0  0  0  0
 18 30  1  0  0  0  0
 19 22  2  0  0  0  0
 21 18  1  6  0  0  0
 21 24  1  0  0  0  0
 22 23  1  0  0  0  0
 22 25  1  0  0  0  0
 24 14  1  6  0  0  0
 24 27  1  0  0  0  0
 25 28  2  0  0  0  0
 25 30  1  0  0  0  0
 27 29  1  0  0  0  0
 29 31  1  0  0  0  0
M  CHG  1  17  -1
M  END
>  <CHROM.1>
-128.43481811,-151.25942644,121.16559354,-135.12244475,-117.64852874,-97.04071795
145.05443163,-50.82605184,-153.18364817,-178.09058915,-178.85800784,-55.23839931
-0.05361534,18.73136256,54.58341902,-0.97536906,-1.12976285,3.06165943

>  <Name>
ligand

>  <RI>
0

>  <Rbt.Current_Directory>
/home/itssahil/PROJECTS/Mol_Feturizer/New_Systems/rnas/2HOO

>  <Rbt.Executable>
rbdock ($Id: //depot/dev/client3/rdock/2013.1/src/exe/rbdock.cxx#4 $)

>  <Rbt.Library>
libRbt.so (2013.1, Build901 2013/11/27)

>  <Rbt.Parameter_File>
/export/apps/rDock/src/rDock_2013.1_src/data/scripts/dock_solv.prm

>  <Rbt.Receptor>
prm/pocket_docking_8.prm

>  <SCORE>
-27.1911

>  <SCORE.INTER>
-16.2456

>  <SCORE.INTER.CONST>
1

>  <SCORE.INTER.POLAR>
0

>  <SCORE.INTER.ROT>
12

>  <SCORE.INTER.SOLV>
19.2541

>  <SCORE.INTER.VDW>
-28.8484

>  <SCORE.INTER.norm>
-0.524052

>  <SCORE.INTRA>
-10.9455

>  <SCORE.INTRA.DIHEDRAL>
1.25851

>  <SCORE.INTRA.DIHEDRAL.0>
14.6094

>  <SCORE.INTRA.POLAR>
0

>  <SCORE.INTRA.POLAR.0>
0

>  <SCORE.INTRA.REPUL>
0

>  <SCORE.INTRA.REPUL.0>
0

>  <SCORE.INTRA.SOLV>
-0.509303

>  <SCORE.INTRA.SOLV.lig_0>
-65.6478

>  <SCORE.INTRA.VDW>
-11.3201

>  <SCORE.INTRA.VDW.0>
9.35535

>  <SCORE.INTRA.norm>
-0.35308

>  <SCORE.RESTR>
0

>  <SCORE.RESTR.CAVITY>
0

>  <SCORE.RESTR.norm>
0

>  <SCORE.SYSTEM>
0

>  <SCORE.SYSTEM.CONST>
0

>  <SCORE.SYSTEM.DIHEDRAL>
0

>  <SCORE.SYSTEM.SOLV>
0

>  <SCORE.SYSTEM.norm>
0

>  <SCORE.heavy>
31

>  <SCORE.norm>
-0.877132

>  <RMSD>
9.394

$$$$
ligand
 OpenBabel11021811443D
libRbt.so/2013.1/901 2013/11/27
 31 32  0  0  0  0  0  0  0  0999 V2000
   -5.3202   16.7661   61.8973 C   0  0  0  0  0  0  0  0  0  0  0  0
   -4.2456   15.7738   62.3317 C   0  0  0  0  0  0  0  0  0  0  0  0
   -3.9208   14.6555   61.4973 C   0  0  0  0  0  0  0  0  0  0  0  0
   -2.9252   13.7366   61.9073 C   0  0  0  0  0  0  0  0  0  0  0  0
   -2.2411   13.9174   63.1342 C   0  0  0  0  0  0  0  0  0  0  0  0
   -2.5434   15.0155   63.9650 C   0  0  0  0  0  0  0  0  0  0  0  0
   -3.5307   15.9386   63.5762 C   0  0  0  0  0  0  0  0  0  0  0  0
   -6.4112   16.7784   62.4667 O   0  0  0  0  0  0  0  0  0  0  0  0
    0.6969   15.3491   52.7939 C   0  0  0  0  0  0  0  0  0  0  0  0
   -2.2318   18.4185   60.0845 C   0  0  0  0  0  0  0  0  0  0  0  0
   -6.2422   13.7522   58.5796 P   0  0  1  0  0  0  0  0  0  0  0  0
   -0.9790   15.8903   54.4164 N   0  0  0  0  0  0  0  0  0  0  0  0
   -5.5757   12.8320   59.5208 O   0  0  0  0  0  0  0  0  0  0  0  0
   -5.0825   17.6562   60.8645 S   0  0  0  0  0  0  0  0  0  0  0  0
   -2.8169   15.4148   57.9841 C   0  0  0  0  0  0  0  0  0  0  0  0
    0.3665   15.8050   54.1382 C   0  0  0  0  0  0  0  0  0  0  0  0
   -5.3979   14.1832   57.4326 O   0  5  0  0  0  0  0  0  0  0  0  0
   -2.1747   16.4849   58.5148 N   0  0  0  0  0  0  0  0  0  0  0  0
    1.3029   16.1001   54.9844 N   0  0  0  0  0  0  0  0  0  0  0  0
   -7.5560   13.2035   58.1708 O   0  0  0  0  0  0  0  0  0  0  0  0
   -3.0108   17.3671   59.3416 C   0  0  2  0  0  0  0  0  0  0  0  0
    0.9827   16.5252   56.2596 C   0  0  0  0  0  0  0  0  0  0  0  0
    1.9732   16.8164   57.1063 N   0  0  0  0  0  0  0  0  0  0  0  0
   -4.4636   17.3281   59.4787 C   0  0  1  0  0  0  0  0  0  0  0  0
   -0.4187   16.6335   56.6339 C   0  0  0  0  0  0  0  0  0  0  0  0
   -2.0539   14.5393   57.6392 O   0  0  0  0  0  0  0  0  0  0  0  0
   -5.3987   16.9805   58.3753 C   0  0  0  0  0  0  0  0  0  0  0  0
   -1.3367   16.3042   55.6574 C   0  0  0  0  0  0  0  0  0  0  0  0
   -6.7080   16.3941   58.6876 C   0  0  0  0  0  0  0  0  0  0  0  0
   -0.8296   17.0502   58.0250 C   0  0  0  0  0  0  0  0  0  0  0  0
   -6.5583   15.1051   59.3079 O   0  0  0  0  0  0  0  0  0  0  0  0
  1  2  1  0  0  0  0
  1  8  2  0  0  0  0
  1 14  1  0  0  0  0
  2  3  2  0  0  0  0
  2  7  1  0  0  0  0
  3  4  1  0  0  0  0
  4  5  2  0  0  0  0
  5  6  1  0  0  0  0
  6  7  2  0  0  0  0
  9 16  1  0  0  0  0
 10 21  1  0  0  0  0
 11 13  1  1  0  0  0
 11 17  1  0  0  0  0
 11 20  2  0  0  0  0
 11 31  1  0  0  0  0
 12 16  2  0  0  0  0
 12 28  1  0  0  0  0
 15 26  1  0  0  0  0
 15 18  1  0  0  0  0
 16 19  1  0  0  0  0
 18 30  1  0  0  0  0
 19 22  2  0  0  0  0
 21 18  1  6  0  0  0
 21 24  1  0  0  0  0
 22 23  1  0  0  0  0
 22 25  1  0  0  0  0
 24 14  1  1  0  0  0
 24 27  1  0  0  0  0
 25 28  2  0  0  0  0
 25 30  1  0  0  0  0
 27 29  1  0  0  0  0
 29 31  1  0  0  0  0
M  CHG  1  17  -1
M  END
>  <CHROM.1>
107.70184672,47.09836835,-87.88723712,-160.71175388,171.08491055,18.35773151
-37.02675872,-26.52129237,-150.77221634,-64.19883060,-78.81383247,154.25695150
-3.34058126,15.73901284,58.86570096,-2.39927907,-0.35557804,-1.81862415

>  <Name>
ligand

>  <RI>
0

>  <Rbt.Current_Directory>
/home/itssahil/PROJECTS/Mol_Feturizer/New_Systems/rnas/2HOO

>  <Rbt.Executable>
rbdock ($Id: //depot/dev/client3/rdock/2013.1/src/exe/rbdock.cxx#4 $)

>  <Rbt.Library>
libRbt.so (2013.1, Build901 2013/11/27)

>  <Rbt.Parameter_File>
/export/apps/rDock/src/rDock_2013.1_src/data/scripts/dock_solv.prm

>  <Rbt.Receptor>
prm/blind_docking_80.prm

>  <SCORE>
-15.1376

>  <SCORE.INTER>
-10.8024

>  <SCORE.INTER.CONST>
1

>  <SCORE.INTER.POLAR>
0

>  <SCORE.INTER.ROT>
12

>  <SCORE.INTER.SOLV>
36.1269

>  <SCORE.INTER.VDW>
-30.8439

>  <SCORE.INTER.norm>
-0.348464

>  <SCORE.INTRA>
-4.33796

>  <SCORE.INTRA.DIHEDRAL>
3.99921

>  <SCORE.INTRA.DIHEDRAL.0>
14.6094

>  <SCORE.INTRA.POLAR>
0

>  <SCORE.INTRA.POLAR.0>
0

>  <SCORE.INTRA.REPUL>
0

>  <SCORE.INTRA.REPUL.0>
0

>  <SCORE.INTRA.SOLV>
3.33942

>  <SCORE.INTRA.SOLV.lig_0>
-65.6478

>  <SCORE.INTRA.VDW>
-8.00727

>  <SCORE.INTRA.VDW.0>
9.35535

>  <SCORE.INTRA.norm>
-0.139934

>  <SCORE.RESTR>
0.00274454

>  <SCORE.RESTR.CAVITY>
0.00274454

>  <SCORE.RESTR.norm>
8.85336e-05

>  <SCORE.SYSTEM>
0

>  <SCORE.SYSTEM.CONST>
0

>  <SCORE.SYSTEM.DIHEDRAL>
0

>  <SCORE.SYSTEM.SOLV>
0

>  <SCORE.SYSTEM.norm>
0

>  <SCORE.heavy>
31

>  <SCORE.norm>
-0.488309

>  <RMSD>
13.103

$$$$
ligand
 OpenBabel11021811443D
libRbt.so/2013.1/901 2013/11/27
 31 32  0  0  0  0  0  0  0  0999 V2000
   -1.4667   14.8080   62.5972 C   0  0  0  0  0  0  0  0  0  0  0  0
   -1.2223   14.9200   64.0991 C   0  0  0  0  0  0  0  0  0  0  0  0
   -0.1845   14.1500   64.7175 C   0  0  0  0  0  0  0  0  0  0  0  0
    0.0351   14.2557   66.1119 C   0  0  0  0  0  0  0  0  0  0  0  0
   -0.7589   15.1232   66.9013 C   0  0  0  0  0  0  0  0  0  0  0  0
   -1.7804   15.8929   66.3086 C   0  0  0  0  0  0  0  0  0  0  0  0
   -2.0156   15.8006   64.9251 C   0  0  0  0  0  0  0  0  0  0  0  0
   -0.6931   15.3479   61.8069 O   0  0  0  0  0  0  0  0  0  0  0  0
    1.3567   15.9434   55.0154 C   0  0  0  0  0  0  0  0  0  0  0  0
   -4.6253   13.6125   59.3551 C   0  0  0  0  0  0  0  0  0  0  0  0
   -6.7485   18.0757   60.7059 P   0  0  1  0  0  0  0  0  0  0  0  0
   -0.6474   15.3331   56.1753 N   0  0  0  0  0  0  0  0  0  0  0  0
   -7.3477   17.8669   59.3740 O   0  0  0  0  0  0  0  0  0  0  0  0
   -2.5543   14.1042   62.1100 S   0  0  0  0  0  0  0  0  0  0  0  0
   -4.6551   16.5031   58.5666 C   0  0  0  0  0  0  0  0  0  0  0  0
    0.4693   16.1379   56.1550 C   0  0  0  0  0  0  0  0  0  0  0  0
   -5.5418   18.9465   60.7123 O   0  5  0  0  0  0  0  0  0  0  0  0
   -3.6326   15.8932   59.2158 N   0  0  0  0  0  0  0  0  0  0  0  0
    0.7466   17.0177   57.0656 N   0  0  0  0  0  0  0  0  0  0  0  0
   -7.7865   18.5002   61.6736 O   0  0  0  0  0  0  0  0  0  0  0  0
   -4.0254   14.7796   60.0914 C   0  0  2  0  0  0  0  0  0  0  0  0
   -0.0956   17.1923   58.1470 C   0  0  0  0  0  0  0  0  0  0  0  0
    0.2238   18.1046   59.0681 N   0  0  0  0  0  0  0  0  0  0  0  0
   -3.8693   14.7025   61.5407 C   0  0  1  0  0  0  0  0  0  0  0  0
   -1.2935   16.3730   58.2452 C   0  0  0  0  0  0  0  0  0  0  0  0
   -4.7785   16.1148   57.4258 O   0  0  0  0  0  0  0  0  0  0  0  0
   -4.8977   15.1506   62.5176 C   0  0  0  0  0  0  0  0  0  0  0  0
   -1.5011   15.4729   57.2197 C   0  0  0  0  0  0  0  0  0  0  0  0
   -5.4222   16.5202   62.4465 C   0  0  0  0  0  0  0  0  0  0  0  0
   -2.2283   16.4876   59.4245 C   0  0  0  0  0  0  0  0  0  0  0  0
   -6.1972   16.7116   61.2501 O   0  0  0  0  0  0  0  0  0  0  0  0
  1  2  1  0  0  0  0
  1  8  2  0  0  0  0
  1 14  1  0  0  0  0
  2  3  2  0  0  0  0
  2  7  1  0  0  0  0
  3  4  1  0  0  0  0
  4  5  2  0  0  0  0
  5  6  1  0  0  0  0
  6  7  2  0  0  0  0
  9 16  1  0  0  0  0
 10 21  1  0  0  0  0
 11 13  1  6  0  0  0
 11 17  1  0  0  0  0
 11 20  2  0  0  0  0
 11 31  1  0  0  0  0
 12 16  2  0  0  0  0
 12 28  1  0  0  0  0
 15 26  1  0  0  0  0
 15 18  1  0  0  0  0
 16 19  1  0  0  0  0
 18 30  1  0  0  0  0
 19 22  2  0  0  0  0
 21 18  1  6  0  0  0
 21 24  1  0  0  0  0
 22 23  1  0  0  0  0
 22 25  1  0  0  0  0
 24 14  1  6  0  0  0
 24 27  1  0  0  0  0
 25 28  2  0  0  0  0
 25 30  1  0  0  0  0
 27 29  1  0  0  0  0
 29 31  1  0  0  0  0
M  CHG  1  17  -1
M  END
>  <CHROM.1>
-75.10208979,103.69494676,100.00097668,-98.81821086,64.49464891,-80.47445034
89.00215426,125.82837734,162.67266276,67.47657314,-170.57448077,173.12705014
-2.97325254,16.05534016,60.63159234,-1.85553064,0.29317606,-1.38203877

>  <Name>
ligand

>  <RI>
0

>  <Rbt.Current_Directory>
/home/itssahil/PROJECTS/Mol_Feturizer/New_Systems/rnas/2HOO

>  <Rbt.Executable>
rbdock ($Id: //depot/dev/client3/rdock/2013.1/src/exe/rbdock.cxx#4 $)

>  <Rbt.Library>
libRbt.so (2013.1, Build901 2013/11/27)

>  <Rbt.Parameter_File>
/export/apps/rDock/src/rDock_2013.1_src/data/scripts/dock_solv.prm

>  <Rbt.Receptor>
prm/blind_docking_100.prm

>  <SCORE>
-37.5363

>  <SCORE.INTER>
-25.553

>  <SCORE.INTER.CONST>
1

>  <SCORE.INTER.POLAR>
0

>  <SCORE.INTER.ROT>
12

>  <SCORE.INTER.SOLV>
28.3518

>  <SCORE.INTER.VDW>
-38.086

>  <SCORE.INTER.norm>
-0.824291

>  <SCORE.INTRA>
-11.9833

>  <SCORE.INTRA.DIHEDRAL>
3.11832

>  <SCORE.INTRA.DIHEDRAL.0>
14.6094

>  <SCORE.INTRA.POLAR>
0

>  <SCORE.INTRA.POLAR.0>
0

>  <SCORE.INTRA.REPUL>
0

>  <SCORE.INTRA.REPUL.0>
0

>  <SCORE.INTRA.SOLV>
2.8073

>  <SCORE.INTRA.SOLV.lig_0>
-65.6478

>  <SCORE.INTRA.VDW>
-14.9461

>  <SCORE.INTRA.VDW.0>
9.35535

>  <SCORE.INTRA.norm>
-0.386557

>  <SCORE.RESTR>
0

>  <SCORE.RESTR.CAVITY>
0

>  <SCORE.RESTR.norm>
0

>  <SCORE.SYSTEM>
0

>  <SCORE.SYSTEM.CONST>
0

>  <SCORE.SYSTEM.DIHEDRAL>
0

>  <SCORE.SYSTEM.SOLV>
0

>  <SCORE.SYSTEM.norm>
0

>  <SCORE.heavy>
31

>  <SCORE.norm>
-1.21085

>  <RMSD>
13.992

$$$$
ligand
 OpenBabel11021811443D
libRbt.so/2013.1/901 2013/11/27
 31 32  0  0  0  0  0  0  0  0999 V2000
   -0.5359   17.0489   58.5333 C   0  0  0  0  0  0  0  0  0  0  0  0
    0.0353   16.6484   57.1764 C   0  0  0  0  0  0  0  0  0  0  0  0
    1.4258   16.8475   56.8951 C   0  0  0  0  0  0  0  0  0  0  0  0
    1.9491   16.4770   55.6331 C   0  0  0  0  0  0  0  0  0  0  0  0
    1.1098   15.9034   54.6468 C   0  0  0  0  0  0  0  0  0  0  0  0
   -0.2596   15.6945   54.9085 C   0  0  0  0  0  0  0  0  0  0  0  0
   -0.7990   16.0577   56.1555 C   0  0  0  0  0  0  0  0  0  0  0  0
    0.1375   17.7292   59.3068 O   0  0  0  0  0  0  0  0  0  0  0  0
   -6.8365    9.6673   60.5901 C   0  0  0  0  0  0  0  0  0  0  0  0
   -1.0507   15.2333   61.6623 C   0  0  0  0  0  0  0  0  0  0  0  0
   -5.6110   20.3633   60.2404 P   0  0  1  0  0  0  0  0  0  0  0  0
   -6.1928   11.5373   61.9403 N   0  0  0  0  0  0  0  0  0  0  0  0
   -6.8116   19.6369   59.7845 O   0  0  0  0  0  0  0  0  0  0  0  0
   -1.8083   16.6533   58.9077 S   0  0  0  0  0  0  0  0  0  0  0  0
   -3.4006   14.9371   63.2656 C   0  0  0  0  0  0  0  0  0  0  0  0
   -6.3398   11.0353   60.6669 C   0  0  0  0  0  0  0  0  0  0  0  0
   -4.5386   20.4906   59.2168 O   0  5  0  0  0  0  0  0  0  0  0  0
   -3.5240   15.0901   61.9238 N   0  0  0  0  0  0  0  0  0  0  0  0
   -6.0669   11.7004   59.5884 N   0  0  0  0  0  0  0  0  0  0  0  0
   -5.9964   21.6553   60.8540 O   0  0  0  0  0  0  0  0  0  0  0  0
   -2.3991   15.7720   61.2676 C   0  0  2  0  0  0  0  0  0  0  0  0
   -5.5899   12.9948   59.6686 C   0  0  0  0  0  0  0  0  0  0  0  0
   -5.3151   13.6485   58.5372 N   0  0  0  0  0  0  0  0  0  0  0  0
   -2.4747   16.8581   60.2952 C   0  0  1  0  0  0  0  0  0  0  0  0
   -5.3989   13.5942   60.9801 C   0  0  0  0  0  0  0  0  0  0  0  0
   -2.9158   13.8691   63.5686 O   0  0  0  0  0  0  0  0  0  0  0  0
   -3.1416   18.1632   60.5494 C   0  0  0  0  0  0  0  0  0  0  0  0
   -5.7274   12.8051   62.0637 C   0  0  0  0  0  0  0  0  0  0  0  0
   -4.4110   18.2013   61.2863 C   0  0  0  0  0  0  0  0  0  0  0  0
   -4.8401   14.9879   61.1323 C   0  0  0  0  0  0  0  0  0  0  0  0
   -4.9091   19.5472   61.3815 O   0  0  0  0  0  0  0  0  0  0  0  0
  1  2  1  0  0  0  0
  1  8  2  0  0  0  0
  1 14  1  0  0  0  0
  2  3  2  0  0  0  0
  2  7  1  0  0  0  0
  3  4  1  0  0  0  0
  4  5  2  0  0  0  0
  5  6  1  0  0  0  0
  6  7  2  0  0  0  0
  9 16  1  0  0  0  0
 10 21  1  0  0  0  0
 11 13  1  6  0  0  0
 11 17  1  0  0  0  0
 11 20  2  0  0  0  0
 11 31  1  0  0  0  0
 12 16  2  0  0  0  0
 12 28  1  0  0  0  0
 15 26  1  0  0  0  0
 15 18  1  0  0  0  0
 16 19  1  0  0  0  0
 18 30  1  0  0  0  0
 19 22  2  0  0  0  0
 21 18  1  6  0  0  0
 21 24  1  0  0  0  0
 22 23  1  0  0  0  0
 22 25  1  0  0  0  0
 24 14  1  1  0  0  0
 24 27  1  0  0  0  0
 25 28  2  0  0  0  0
 25 30  1  0  0  0  0
 27 29  1  0  0  0  0
 29 31  1  0  0  0  0
M  CHG  1  17  -1
M  END
>  <CHROM.1>
11.37712349,173.56705382,-94.96450904,-93.53820816,48.20832599,-72.63428837
56.06930529,140.46200742,-119.50266951,-177.93443450,76.41148496,58.46828890
-3.42448124,16.13336951,59.85944255,-0.78148258,-0.63377379,3.11775378

>  <Name>
ligand

>  <RI>
0

>  <Rbt.Current_Directory>
/home/itssahil/PROJECTS/Mol_Feturizer/New_Systems/rnas/2HOO

>  <Rbt.Executable>
rbdock ($Id: //depot/dev/client3/rdock/2013.1/src/exe/rbdock.cxx#4 $)

>  <Rbt.Library>
libRbt.so (2013.1, Build901 2013/11/27)

>  <Rbt.Parameter_File>
/export/apps/rDock/src/rDock_2013.1_src/data/scripts/dock_solv.prm

>  <Rbt.Receptor>
prm/blind_docking_100.prm

>  <SCORE>
-30.171

>  <SCORE.INTER>
-21.2766

>  <SCORE.INTER.CONST>
1

>  <SCORE.INTER.POLAR>
0

>  <SCORE.INTER.ROT>
12

>  <SCORE.INTER.SOLV>
22.2976

>  <SCORE.INTER.VDW>
-33.2169

>  <SCORE.INTER.norm>
-0.686341

>  <SCORE.INTRA>
-8.94976

>  <SCORE.INTRA.DIHEDRAL>
0.545215

>  <SCORE.INTRA.DIHEDRAL.0>
14.6094

>  <SCORE.INTRA.POLAR>
0

>  <SCORE.INTRA.POLAR.0>
0

>  <SCORE.INTRA.REPUL>
0

>  <SCORE.INTRA.REPUL.0>
0

>  <SCORE.INTRA.SOLV>
0.794359

>  <SCORE.INTRA.SOLV.lig_0>
-65.6478

>  <SCORE.INTRA.VDW>
-9.61954

>  <SCORE.INTRA.VDW.0>
9.35535

>  <SCORE.INTRA.norm>
-0.288702

>  <SCORE.RESTR>
0.0553034

>  <SCORE.RESTR.CAVITY>
0.0553034

>  <SCORE.RESTR.norm>
0.00178398

>  <SCORE.SYSTEM>
0

>  <SCORE.SYSTEM.CONST>
0

>  <SCORE.SYSTEM.DIHEDRAL>
0

>  <SCORE.SYSTEM.SOLV>
0

>  <SCORE.SYSTEM.norm>
0

>  <SCORE.heavy>
31

>  <SCORE.norm>
-0.973259

>  <RMSD>
14.224

$$$$
ligand
 OpenBabel11021811443D
libRbt.so/2013.1/901 2013/11/27
 31 32  0  0  0  0  0  0  0  0999 V2000
   -0.7493   17.1328   58.3880 C   0  0  0  0  0  0  0  0  0  0  0  0
   -0.0179   16.7541   57.1037 C   0  0  0  0  0  0  0  0  0  0  0  0
   -0.7325   16.1416   56.0237 C   0  0  0  0  0  0  0  0  0  0  0  0
   -0.0476   15.7894   54.8360 C   0  0  0  0  0  0  0  0  0  0  0  0
    1.3393   16.0445   54.7030 C   0  0  0  0  0  0  0  0  0  0  0  0
    2.0572   16.6521   55.7531 C   0  0  0  0  0  0  0  0  0  0  0  0
    1.3952   17.0077   56.9419 C   0  0  0  0  0  0  0  0  0  0  0  0
   -0.4851   18.1921   58.9560 O   0  0  0  0  0  0  0  0  0  0  0  0
   -6.6987    9.1184   61.0430 C   0  0  0  0  0  0  0  0  0  0  0  0
   -2.3509   14.9942   61.6836 C   0  0  0  0  0  0  0  0  0  0  0  0
   -5.5330   20.2803   60.8239 P   0  0  1  0  0  0  0  0  0  0  0  0
   -6.3722   10.9418   59.5254 N   0  0  0  0  0  0  0  0  0  0  0  0
   -4.2774   20.3015   61.5984 O   0  0  0  0  0  0  0  0  0  0  0  0
   -1.7105   16.2946   58.9258 S   0  0  0  0  0  0  0  0  0  0  0  0
   -5.3291   16.0051   62.1559 C   0  0  0  0  0  0  0  0  0  0  0  0
   -6.3695   10.5232   60.8368 C   0  0  0  0  0  0  0  0  0  0  0  0
   -6.6134   19.4478   61.4189 O   0  5  0  0  0  0  0  0  0  0  0  0
   -4.7495   15.3560   61.1159 N   0  0  0  0  0  0  0  0  0  0  0  0
   -6.0988   11.2929   61.8440 N   0  0  0  0  0  0  0  0  0  0  0  0
   -5.9616   21.6620   60.5053 O   0  0  0  0  0  0  0  0  0  0  0  0
   -3.3555   15.7347   60.8430 C   0  0  2  0  0  0  0  0  0  0  0  0
   -5.7941   12.6254   61.6420 C   0  0  0  0  0  0  0  0  0  0  0  0
   -5.5248   13.3899   62.7031 N   0  0  0  0  0  0  0  0  0  0  0  0
   -2.8834   16.7030   59.8579 C   0  0  1  0  0  0  0  0  0  0  0  0
   -5.7844   13.1468   60.2841 C   0  0  0  0  0  0  0  0  0  0  0  0
   -4.7421   15.8261   63.2004 O   0  0  0  0  0  0  0  0  0  0  0  0
   -3.4460   18.0702   59.6930 C   0  0  0  0  0  0  0  0  0  0  0  0
   -6.0777   12.2432   59.2830 C   0  0  0  0  0  0  0  0  0  0  0  0
   -4.8292   18.2378   59.2299 C   0  0  0  0  0  0  0  0  0  0  0  0
   -5.5018   14.6028   60.0044 C   0  0  0  0  0  0  0  0  0  0  0  0
   -5.2808   19.5871   59.4395 O   0  0  0  0  0  0  0  0  0  0  0  0
  1  2  1  0  0  0  0
  1  8  2  0  0  0  0
  1 14  1  0  0  0  0
  2  3  2  0  0  0  0
  2  7  1  0  0  0  0
  3  4  1  0  0  0  0
  4  5  2  0  0  0  0
  5  6  1  0  0  0  0
  6  7  2  0  0  0  0
  9 16  1  0  0  0  0
 10 21  1  0  0  0  0
 11 13  1  1  0  0  0
 11 17  1  0  0  0  0
 11 20  2  0  0  0  0
 11 31  1  0  0  0  0
 12 16  2  0  0  0  0
 12 28  1  0  0  0  0
 15 26  1  0  0  0  0
 15 18  1  0  0  0  0
 16 19  1  0  0  0  0
 18 30  1  0  0  0  0
 19 22  2  0  0  0  0
 21 18  1  6  0  0  0
 21 24  1  0  0  0  0
 22 23  1  0  0  0  0
 22 25  1  0  0  0  0
 24 14  1  1  0  0  0
 24 27  1  0  0  0  0
 25 28  2  0  0  0  0
 25 30  1  0  0  0  0
 27 29  1  0  0  0  0
 29 31  1  0  0  0  0
M  CHG  1  17  -1
M  END
>  <CHROM.1>
-139.81914961,-155.58468859,-148.99526847,-59.53004792,84.57357241,-89.27308309
46.39776614,114.83702384,21.21266436,166.23481929,-67.45117682,60.40443693
-3.73851053,16.10566072,59.82639122,-0.70156986,-0.66361442,-3.07224049

>  <Name>
ligand

>  <RI>
0

>  <Rbt.Current_Directory>
/home/itssahil/PROJECTS/Mol_Feturizer/New_Systems/rnas/2HOO

>  <Rbt.Executable>
rbdock ($Id: //depot/dev/client3/rdock/2013.1/src/exe/rbdock.cxx#4 $)

>  <Rbt.Library>
libRbt.so (2013.1, Build901 2013/11/27)

>  <Rbt.Parameter_File>
/export/apps/rDock/src/rDock_2013.1_src/data/scripts/dock_solv.prm

>  <Rbt.Receptor>
prm/blind_docking_100.prm

>  <SCORE>
-26.4298

>  <SCORE.INTER>
-19.4108

>  <SCORE.INTER.CONST>
1

>  <SCORE.INTER.POLAR>
0

>  <SCORE.INTER.ROT>
12

>  <SCORE.INTER.SOLV>
20.4495

>  <SCORE.INTER.VDW>
-31.357

>  <SCORE.INTER.norm>
-0.626155

>  <SCORE.INTRA>
-7.08104

>  <SCORE.INTRA.DIHEDRAL>
-0.414615

>  <SCORE.INTRA.DIHEDRAL.0>
14.6094

>  <SCORE.INTRA.POLAR>
0

>  <SCORE.INTRA.POLAR.0>
0

>  <SCORE.INTRA.REPUL>
0

>  <SCORE.INTRA.REPUL.0>
0

>  <SCORE.INTRA.SOLV>
7.66116

>  <SCORE.INTRA.SOLV.lig_0>
-65.6478

>  <SCORE.INTRA.VDW>
-10.7043

>  <SCORE.INTRA.VDW.0>
9.35535

>  <SCORE.INTRA.norm>
-0.228421

>  <SCORE.RESTR>
0.062023

>  <SCORE.RESTR.CAVITY>
0.062023

>  <SCORE.RESTR.norm>
0.00200074

>  <SCORE.SYSTEM>
0

>  <SCORE.SYSTEM.CONST>
0

>  <SCORE.SYSTEM.DIHEDRAL>
0

>  <SCORE.SYSTEM.SOLV>
0

>  <SCORE.SYSTEM.norm>
0

>  <SCORE.heavy>
31

>  <SCORE.norm>
-0.852574

>  <RMSD>
14.477

$$$$
ligand
 OpenBabel11021811443D
libRbt.so/2013.1/901 2013/11/27
 31 32  0  0  0  0  0  0  0  0999 V2000
   -2.1950   15.3789   63.6337 C   0  0  0  0  0  0  0  0  0  0  0  0
   -1.6471   15.2765   65.0540 C   0  0  0  0  0  0  0  0  0  0  0  0
   -0.5569   14.3927   65.3415 C   0  0  0  0  0  0  0  0  0  0  0  0
   -0.0551   14.2996   66.6618 C   0  0  0  0  0  0  0  0  0  0  0  0
   -0.6179   15.0795   67.7017 C   0  0  0  0  0  0  0  0  0  0  0  0
   -1.6870   15.9590   67.4357 C   0  0  0  0  0  0  0  0  0  0  0  0
   -2.2009   16.0644   66.1308 C   0  0  0  0  0  0  0  0  0  0  0  0
   -1.4528   15.1780   62.6729 O   0  0  0  0  0  0  0  0  0  0  0  0
    1.0002   16.0370   54.7679 C   0  0  0  0  0  0  0  0  0  0  0  0
   -4.4702   17.8910   61.0301 C   0  0  0  0  0  0  0  0  0  0  0  0
   -6.3810   11.1922   60.1947 P   0  0  1  0  0  0  0  0  0  0  0  0
   -0.6652   15.3464   56.3439 N   0  0  0  0  0  0  0  0  0  0  0  0
   -7.7632   11.1337   59.6818 O   0  0  0  0  0  0  0  0  0  0  0  0
   -3.5234   15.6981   63.4113 S   0  0  0  0  0  0  0  0  0  0  0  0
   -3.9149   15.8106   58.6918 C   0  0  0  0  0  0  0  0  0  0  0  0
    0.3292   16.2499   56.0441 C   0  0  0  0  0  0  0  0  0  0  0  0
   -6.0068   10.0684   61.0954 O   0  5  0  0  0  0  0  0  0  0  0  0
   -3.1836   16.1639   59.7778 N   0  0  0  0  0  0  0  0  0  0  0  0
    0.6735   17.2330   56.8154 N   0  0  0  0  0  0  0  0  0  0  0  0
   -5.4287   11.3948   59.0784 O   0  0  0  0  0  0  0  0  0  0  0  0
   -3.9661   16.4740   60.9830 C   0  0  2  0  0  0  0  0  0  0  0  0
    0.0377   17.4251   58.0272 C   0  0  0  0  0  0  0  0  0  0  0  0
    0.4213   18.4456   58.7982 N   0  0  0  0  0  0  0  0  0  0  0  0
   -4.3003   15.5631   62.0737 C   0  0  1  0  0  0  0  0  0  0  0  0
   -1.0194   16.5066   58.4204 C   0  0  0  0  0  0  0  0  0  0  0  0
   -4.2397   16.7649   58.0200 O   0  0  0  0  0  0  0  0  0  0  0  0
   -5.3345   14.4975   61.9861 C   0  0  0  0  0  0  0  0  0  0  0  0
   -1.3151   15.4994   57.5244 C   0  0  0  0  0  0  0  0  0  0  0  0
   -5.0345   13.2478   61.2762 C   0  0  0  0  0  0  0  0  0  0  0  0
   -1.7200   16.6394   59.7506 C   0  0  0  0  0  0  0  0  0  0  0  0
   -6.2203   12.4490   61.1197 O   0  0  0  0  0  0  0  0  0  0  0  0
  1  2  1  0  0  0  0
  1  8  2  0  0  0  0
  1 14  1  0  0  0  0
  2  3  2  0  0  0  0
  2  7  1  0  0  0  0
  3  4  1  0  0  0  0
  4  5  2  0  0  0  0
  5  6  1  0  0  0  0
  6  7  2  0  0  0  0
  9 16  1  0  0  0  0
 10 21  1  0  0  0  0
 11 13  1  6  0  0  0
 11 17  1  0  0  0  0
 11 20  2  0  0  0  0
 11 31  1  0  0  0  0
 12 16  2  0  0  0  0
 12 28  1  0  0  0  0
 15 26  1  0  0  0  0
 15 18  1  0  0  0  0
 16 19  1  0  0  0  0
 18 30  1  0  0  0  0
 19 22  2  0  0  0  0
 21 18  1  6  0  0  0
 21 24  1  0  0  0  0
 22 23  1  0  0  0  0
 22 25  1  0  0  0  0
 24 14  1  6  0  0  0
 24 27  1  0  0  0  0
 25 28  2  0  0  0  0
 25 30  1  0  0  0  0
 27 29  1  0  0  0  0
 29 31  1  0  0  0  0
M  CHG  1  17  -1
M  END
>  <CHROM.1>
-29.35537549,-166.68032761,-70.09856166,88.84227690,-84.38558890,-8.85100940
-77.00787283,-101.95743574,149.92695831,-170.68773819,167.59357410,-146.75401298
-2.96581191,14.93672325,60.89445272,-2.04121001,-0.69578120,-1.54389796

>  <Name>
ligand

>  <RI>
0

>  <Rbt.Current_Directory>
/home/itssahil/PROJECTS/Mol_Feturizer/New_Systems/rnas/2HOO

>  <Rbt.Executable>
rbdock ($Id: //depot/dev/client3/rdock/2013.1/src/exe/rbdock.cxx#4 $)

>  <Rbt.Library>
libRbt.so (2013.1, Build901 2013/11/27)

>  <Rbt.Parameter_File>
/export/apps/rDock/src/rDock_2013.1_src/data/scripts/dock_solv.prm

>  <Rbt.Receptor>
prm/blind_docking_100.prm

>  <SCORE>
-32.8022

>  <SCORE.INTER>
-21.4481

>  <SCORE.INTER.CONST>
1

>  <SCORE.INTER.POLAR>
0

>  <SCORE.INTER.ROT>
12

>  <SCORE.INTER.SOLV>
27.5168

>  <SCORE.INTER.VDW>
-35.071

>  <SCORE.INTER.norm>
-0.691875

>  <SCORE.INTRA>
-11.3541

>  <SCORE.INTRA.DIHEDRAL>
0.946983

>  <SCORE.INTRA.DIHEDRAL.0>
14.6094

>  <SCORE.INTRA.POLAR>
0

>  <SCORE.INTRA.POLAR.0>
0

>  <SCORE.INTRA.REPUL>
0

>  <SCORE.INTRA.REPUL.0>
0

>  <SCORE.INTRA.SOLV>
0.313414

>  <SCORE.INTRA.SOLV.lig_0>
-65.6478

>  <SCORE.INTRA.VDW>
-11.9843

>  <SCORE.INTRA.VDW.0>
9.35535

>  <SCORE.INTRA.norm>
-0.36626

>  <SCORE.RESTR>
0

>  <SCORE.RESTR.CAVITY>
0

>  <SCORE.RESTR.norm>
0

>  <SCORE.SYSTEM>
0

>  <SCORE.SYSTEM.CONST>
0

>  <SCORE.SYSTEM.DIHEDRAL>
0

>  <SCORE.SYSTEM.SOLV>
0

>  <SCORE.SYSTEM.norm>
0

>  <SCORE.heavy>
31

>  <SCORE.norm>
-1.05814

>  <RMSD>
14.542

$$$$
ligand
 OpenBabel11021811443D
libRbt.so/2013.1/901 2013/11/27
 31 32  0  0  0  0  0  0  0  0999 V2000
   -5.4527   12.6079   60.2980 C   0  0  0  0  0  0  0  0  0  0  0  0
   -6.3773   11.5262   60.8488 C   0  0  0  0  0  0  0  0  0  0  0  0
   -6.4879   10.2655   60.1776 C   0  0  0  0  0  0  0  0  0  0  0  0
   -7.3499    9.2672   60.6916 C   0  0  0  0  0  0  0  0  0  0  0  0
   -8.1000    9.5019   61.8699 C   0  0  0  0  0  0  0  0  0  0  0  0
   -7.9989   10.7343   62.5468 C   0  0  0  0  0  0  0  0  0  0  0  0
   -7.1494   11.7396   62.0510 C   0  0  0  0  0  0  0  0  0  0  0  0
   -5.6363   13.0550   59.1663 O   0  0  0  0  0  0  0  0  0  0  0  0
   -0.2397   15.6560   55.3933 C   0  0  0  0  0  0  0  0  0  0  0  0
   -6.0801   16.3178   62.0324 C   0  0  0  0  0  0  0  0  0  0  0  0
   -1.3969   15.5835   65.3730 P   0  0  1  0  0  0  0  0  0  0  0  0
   -2.4621   15.7818   56.2761 N   0  0  0  0  0  0  0  0  0  0  0  0
   -1.1393   14.1471   65.5901 O   0  0  0  0  0  0  0  0  0  0  0  0
   -4.4038   13.0939   61.0590 S   0  0  0  0  0  0  0  0  0  0  0  0
   -6.0815   15.8561   59.0325 C   0  0  0  0  0  0  0  0  0  0  0  0
   -1.1308   16.0748   56.4679 C   0  0  0  0  0  0  0  0  0  0  0  0
   -2.6437   16.0916   66.0067 O   0  5  0  0  0  0  0  0  0  0  0  0
   -4.9914   16.0961   59.8026 N   0  0  0  0  0  0  0  0  0  0  0  0
   -0.6640   16.6787   57.5155 N   0  0  0  0  0  0  0  0  0  0  0  0
   -0.1948   16.3772   65.7183 O   0  0  0  0  0  0  0  0  0  0  0  0
   -5.0767   15.5893   61.1799 C   0  0  2  0  0  0  0  0  0  0  0  0
   -1.5135   17.0671   58.5337 C   0  0  0  0  0  0  0  0  0  0  0  0
   -0.9973   17.6830   59.6000 N   0  0  0  0  0  0  0  0  0  0  0  0
   -4.3255   14.4787   61.7570 C   0  0  1  0  0  0  0  0  0  0  0  0
   -2.9352   16.7855   58.4097 C   0  0  0  0  0  0  0  0  0  0  0  0
   -5.8132   15.2331   58.0289 O   0  0  0  0  0  0  0  0  0  0  0  0
   -3.4929   14.5811   62.9854 C   0  0  0  0  0  0  0  0  0  0  0  0
   -3.3304   16.1465   57.2519 C   0  0  0  0  0  0  0  0  0  0  0  0
   -2.0577   14.8691   62.8708 C   0  0  0  0  0  0  0  0  0  0  0  0
   -3.9055   17.1463   59.5078 C   0  0  0  0  0  0  0  0  0  0  0  0
   -1.6501   15.8437   63.8469 O   0  0  0  0  0  0  0  0  0  0  0  0
  1  2  1  0  0  0  0
  1  8  2  0  0  0  0
  1 14  1  0  0  0  0
  2  3  2  0  0  0  0
  2  7  1  0  0  0  0
  3  4  1  0  0  0  0
  4  5  2  0  0  0  0
  5  6  1  0  0  0  0
  6  7  2  0  0  0  0
  9 16  1  0  0  0  0
 10 21  1  0  0  0  0
 11 13  1  1  0  0  0
 11 17  1  0  0  0  0
 11 20  2  0  0  0  0
 11 31  1  0  0  0  0
 12 16  2  0  0  0  0
 12 28  1  0  0  0  0
 15 26  1  0  0  0  0
 15 18  1  0  0  0  0
 16 19  1  0  0  0  0
 18 30  1  0  0  0  0
 19 22  2  0  0  0  0
 21 18  1  6  0  0  0
 21 24  1  0  0  0  0
 22 23  1  0  0  0  0
 22 25  1  0  0  0  0
 24 14  1  1  0  0  0
 24 27  1  0  0  0  0
 25 28  2  0  0  0  0
 25 30  1  0  0  0  0
 27 29  1  0  0  0  0
 29 31  1  0  0  0  0
M  CHG  1  17  -1
M  END
>  <CHROM.1>
60.16838807,-106.47409422,-27.65368054,-122.48351223,-68.81955544,-75.23492585
123.25228705,87.06202069,-138.97189227,136.53231283,77.51106069,21.12152873
-3.73375164,14.65526794,60.97891985,2.65098012,0.72883242,1.75169393

>  <Name>
ligand

>  <RI>
0

>  <Rbt.Current_Directory>
/home/itssahil/PROJECTS/Mol_Feturizer/New_Systems/rnas/2HOO

>  <Rbt.Executable>
rbdock ($Id: //depot/dev/client3/rdock/2013.1/src/exe/rbdock.cxx#4 $)

>  <Rbt.Library>
libRbt.so (2013.1, Build901 2013/11/27)

>  <Rbt.Parameter_File>
/export/apps/rDock/src/rDock_2013.1_src/data/scripts/dock_solv.prm

>  <Rbt.Receptor>
prm/blind_docking_100.prm

>  <SCORE>
-28.6324

>  <SCORE.INTER>
-22.2832

>  <SCORE.INTER.CONST>
1

>  <SCORE.INTER.POLAR>
0

>  <SCORE.INTER.ROT>
12

>  <SCORE.INTER.SOLV>
28.8089

>  <SCORE.INTER.VDW>
-36.0585

>  <SCORE.INTER.norm>
-0.718814

>  <SCORE.INTRA>
-6.3492

>  <SCORE.INTRA.DIHEDRAL>
11.3227

>  <SCORE.INTRA.DIHEDRAL.0>
14.6094

>  <SCORE.INTRA.POLAR>
0

>  <SCORE.INTRA.POLAR.0>
0

>  <SCORE.INTRA.REPUL>
0

>  <SCORE.INTRA.REPUL.0>
0

>  <SCORE.INTRA.SOLV>
1.25631

>  <SCORE.INTRA.SOLV.lig_0>
-65.6478

>  <SCORE.INTRA.VDW>
-12.6387

>  <SCORE.INTRA.VDW.0>
9.35535

>  <SCORE.INTRA.norm>
-0.204813

>  <SCORE.RESTR>
0

>  <SCORE.RESTR.CAVITY>
0

>  <SCORE.RESTR.norm>
0

>  <SCORE.SYSTEM>
0

>  <SCORE.SYSTEM.CONST>
0

>  <SCORE.SYSTEM.DIHEDRAL>
0

>  <SCORE.SYSTEM.SOLV>
0

>  <SCORE.SYSTEM.norm>
0

>  <SCORE.heavy>
31

>  <SCORE.norm>
-0.923627

>  <RMSD>
15.236

$$$$
ligand
 OpenBabel11021811443D
libRbt.so/2013.1/901 2013/11/27
 31 32  0  0  0  0  0  0  0  0999 V2000
   -3.1963   17.0037   59.0129 C   0  0  0  0  0  0  0  0  0  0  0  0
   -4.3024   17.9964   59.3580 C   0  0  0  0  0  0  0  0  0  0  0  0
   -3.9795   19.3644   59.6346 C   0  0  0  0  0  0  0  0  0  0  0  0
   -5.0098   20.2798   59.9574 C   0  0  0  0  0  0  0  0  0  0  0  0
   -6.3605   19.8558   60.0025 C   0  0  0  0  0  0  0  0  0  0  0  0
   -6.6972   18.5149   59.7271 C   0  0  0  0  0  0  0  0  0  0  0  0
   -5.6878   17.5896   59.4061 C   0  0  0  0  0  0  0  0  0  0  0  0
   -2.4393   17.2309   58.0696 O   0  0  0  0  0  0  0  0  0  0  0  0
   -0.8089   14.9236   69.2511 C   0  0  0  0  0  0  0  0  0  0  0  0
   -4.8412   16.6770   62.6429 C   0  0  0  0  0  0  0  0  0  0  0  0
   -6.8614   11.6112   59.7782 P   0  0  1  0  0  0  0  0  0  0  0  0
   -2.1194   15.9100   67.5064 N   0  0  0  0  0  0  0  0  0  0  0  0
   -8.1930   11.9907   59.2688 O   0  0  0  0  0  0  0  0  0  0  0  0
   -3.0338   15.8440   59.7507 S   0  0  0  0  0  0  0  0  0  0  0  0
   -3.3501   13.5344   63.2479 C   0  0  0  0  0  0  0  0  0  0  0  0
   -1.0808   15.0648   67.8263 C   0  0  0  0  0  0  0  0  0  0  0  0
   -6.5646   12.0929   61.1544 O   0  5  0  0  0  0  0  0  0  0  0  0
   -3.1956   14.8785   63.1562 N   0  0  0  0  0  0  0  0  0  0  0  0
   -0.3719   14.4226   66.9516 N   0  0  0  0  0  0  0  0  0  0  0  0
   -6.6413   10.1568   59.6027 O   0  0  0  0  0  0  0  0  0  0  0  0
   -4.0143   15.5317   62.1247 C   0  0  2  0  0  0  0  0  0  0  0  0
   -0.6308   14.5663   65.6019 C   0  0  0  0  0  0  0  0  0  0  0  0
    0.1225   13.8929   64.7290 N   0  0  0  0  0  0  0  0  0  0  0  0
   -4.0733   15.1964   60.7052 C   0  0  1  0  0  0  0  0  0  0  0  0
   -1.7079   15.4491   65.1823 C   0  0  0  0  0  0  0  0  0  0  0  0
   -2.6530   13.0444   64.1089 O   0  0  0  0  0  0  0  0  0  0  0  0
   -5.0776   14.2784   60.1038 C   0  0  0  0  0  0  0  0  0  0  0  0
   -2.4071   16.0789   66.1920 C   0  0  0  0  0  0  0  0  0  0  0  0
   -4.6312   13.0612   59.4147 C   0  0  0  0  0  0  0  0  0  0  0  0
   -2.0095   15.6801   63.7216 C   0  0  0  0  0  0  0  0  0  0  0  0
   -5.7536   12.3123   58.9167 O   0  0  0  0  0  0  0  0  0  0  0  0
  1  2  1  0  0  0  0
  1  8  2  0  0  0  0
  1 14  1  0  0  0  0
  2  3  2  0  0  0  0
  2  7  1  0  0  0  0
  3  4  1  0  0  0  0
  4  5  2  0  0  0  0
  5  6  1  0  0  0  0
  6  7  2  0  0  0  0
  9 16  1  0  0  0  0
 10 21  1  0  0  0  0
 11 13  1  6  0  0  0
 11 17  1  0  0  0  0
 11 20  2  0  0  0  0
 11 31  1  0  0  0  0
 12 16  2  0  0  0  0
 12 28  1  0  0  0  0
 15 26  1  0  0  0  0
 15 18  1  0  0  0  0
 16 19  1  0  0  0  0
 18 30  1  0  0  0  0
 19 22  2  0  0  0  0
 21 18  1  6  0  0  0
 21 24  1  0  0  0  0
 22 23  1  0  0  0  0
 22 25  1  0  0  0  0
 24 14  1  6  0  0  0
 24 27  1  0  0  0  0
 25 28  2  0  0  0  0
 25 30  1  0  0  0  0
 27 29  1  0  0  0  0
 29 31  1  0  0  0  0
M  CHG  1  17  -1
M  END
>  <CHROM.1>
-56.17014399,17.28998411,-93.77396137,179.85334756,126.90490244,-52.97104345
92.28544214,60.88806547,100.23316156,179.59412229,-65.33050320,130.46126651
-3.91473337,15.01187972,61.92809615,-2.82025468,0.97248991,2.68795093

>  <Name>
ligand

>  <RI>
0

>  <Rbt.Current_Directory>
/home/itssahil/PROJECTS/Mol_Feturizer/New_Systems/rnas/2HOO

>  <Rbt.Executable>
rbdock ($Id: //depot/dev/client3/rdock/2013.1/src/exe/rbdock.cxx#4 $)

>  <Rbt.Library>
libRbt.so (2013.1, Build901 2013/11/27)

>  <Rbt.Parameter_File>
/export/apps/rDock/src/rDock_2013.1_src/data/scripts/dock_solv.prm

>  <Rbt.Receptor>
prm/blind_docking_100.prm

>  <SCORE>
-20.5938

>  <SCORE.INTER>
-11.0681

>  <SCORE.INTER.CONST>
1

>  <SCORE.INTER.POLAR>
0

>  <SCORE.INTER.ROT>
12

>  <SCORE.INTER.SOLV>
30.1712

>  <SCORE.INTER.VDW>
-29.0358

>  <SCORE.INTER.norm>
-0.357034

>  <SCORE.INTRA>
-9.52579

>  <SCORE.INTRA.DIHEDRAL>
2.46705

>  <SCORE.INTRA.DIHEDRAL.0>
14.6094

>  <SCORE.INTRA.POLAR>
0

>  <SCORE.INTRA.POLAR.0>
0

>  <SCORE.INTRA.REPUL>
0

>  <SCORE.INTRA.REPUL.0>
0

>  <SCORE.INTRA.SOLV>
3.83451

>  <SCORE.INTRA.SOLV.lig_0>
-65.6478

>  <SCORE.INTRA.VDW>
-12.6766

>  <SCORE.INTRA.VDW.0>
9.35535

>  <SCORE.INTRA.norm>
-0.307284

>  <SCORE.RESTR>
0

>  <SCORE.RESTR.CAVITY>
0

>  <SCORE.RESTR.norm>
0

>  <SCORE.SYSTEM>
0

>  <SCORE.SYSTEM.CONST>
0

>  <SCORE.SYSTEM.DIHEDRAL>
0

>  <SCORE.SYSTEM.SOLV>
0

>  <SCORE.SYSTEM.norm>
0

>  <SCORE.heavy>
31

>  <SCORE.norm>
-0.664318

>  <RMSD>
15.581

$$$$
ligand
 OpenBabel11021811443D
libRbt.so/2013.1/901 2013/11/27
 31 32  0  0  0  0  0  0  0  0999 V2000
   -6.2925   17.2471   59.1625 C   0  0  0  0  0  0  0  0  0  0  0  0
   -5.2109   18.2500   59.5526 C   0  0  0  0  0  0  0  0  0  0  0  0
   -3.8470   18.0166   59.1815 C   0  0  0  0  0  0  0  0  0  0  0  0
   -2.8475   18.9490   59.5493 C   0  0  0  0  0  0  0  0  0  0  0  0
   -3.1859   20.1166   60.2762 C   0  0  0  0  0  0  0  0  0  0  0  0
   -4.5237   20.3656   60.6445 C   0  0  0  0  0  0  0  0  0  0  0  0
   -5.5310   19.4504   60.2901 C   0  0  0  0  0  0  0  0  0  0  0  0
   -7.4801   17.5461   59.2838 O   0  0  0  0  0  0  0  0  0  0  0  0
   -0.5260   16.8269   66.8607 C   0  0  0  0  0  0  0  0  0  0  0  0
   -2.7671   15.3968   60.0481 C   0  0  0  0  0  0  0  0  0  0  0  0
   -7.0518   10.1089   60.3894 P   0  0  1  0  0  0  0  0  0  0  0  0
   -2.6841   16.1338   66.0883 N   0  0  0  0  0  0  0  0  0  0  0  0
   -7.6408    9.1352   59.4504 O   0  0  0  0  0  0  0  0  0  0  0  0
   -5.9528   15.9980   58.6725 S   0  0  0  0  0  0  0  0  0  0  0  0
   -5.4479   16.4342   62.1154 C   0  0  0  0  0  0  0  0  0  0  0  0
   -1.3370   16.2138   65.8164 C   0  0  0  0  0  0  0  0  0  0  0  0
   -8.0241   10.7270   61.3311 O   0  5  0  0  0  0  0  0  0  0  0  0
   -4.4660   15.5330   61.8652 N   0  0  0  0  0  0  0  0  0  0  0  0
   -0.7907   15.7857   64.7217 N   0  0  0  0  0  0  0  0  0  0  0  0
   -5.8711    9.5207   61.0634 O   0  0  0  0  0  0  0  0  0  0  0  0
   -4.2134   15.2647   60.4421 C   0  0  2  0  0  0  0  0  0  0  0  0
   -1.5664   15.2115   63.7328 C   0  0  0  0  0  0  0  0  0  0  0  0
   -0.9705   14.7857   62.6163 N   0  0  0  0  0  0  0  0  0  0  0  0
   -5.1934   14.8767   59.4323 C   0  0  1  0  0  0  0  0  0  0  0  0
   -3.0015   15.0983   63.9412 C   0  0  0  0  0  0  0  0  0  0  0  0
   -6.5003   15.9069   62.4016 O   0  0  0  0  0  0  0  0  0  0  0  0
   -5.5260   13.4685   59.0872 C   0  0  0  0  0  0  0  0  0  0  0  0
   -3.4815   15.5763   65.1436 C   0  0  0  0  0  0  0  0  0  0  0  0
   -5.9243   12.5334   60.1468 C   0  0  0  0  0  0  0  0  0  0  0  0
   -3.9056   14.5204   62.8798 C   0  0  0  0  0  0  0  0  0  0  0  0
   -6.5086   11.3436   59.5886 O   0  0  0  0  0  0  0  0  0  0  0  0
  1  2  1  0  0  0  0
  1  8  2  0  0  0  0
  1 14  1  0  0  0  0
  2  3  2  0  0  0  0
  2  7  1  0  0  0  0
  3  4  1  0  0  0  0
  4  5  2  0  0  0  0
  5  6  1  0  0  0  0
  6  7  2  0  0  0  0
  9 16  1  0  0  0  0
 10 21  1  0  0  0  0
 11 13  1  6  0  0  0
 11 17  1  0  0  0  0
 11 20  2  0  0  0  0
 11 31  1  0  0  0  0
 12 16  2  0  0  0  0
 12 28  1  0  0  0  0
 15 26  1  0  0  0  0
 15 18  1  0  0  0  0
 16 19  1  0  0  0  0
 18 30  1  0  0  0  0
 19 22  2  0  0  0  0
 21 18  1  1  0  0  0
 21 24  1  0  0  0  0
 22 23  1  0  0  0  0
 22 25  1  0  0  0  0
 24 14  1  1  0  0  0
 24 27  1  0  0  0  0
 25 28  2  0  0  0  0
 25 30  1  0  0  0  0
 27 29  1  0  0  0  0
 29 31  1  0  0  0  0
M  CHG  1  17  -1
M  END
>  <CHROM.1>
-168.08252423,63.99464692,-31.02303470,99.34929300,128.41984707,-74.28264669
-93.50589038,-125.88697068,-89.25498236,165.98137843,179.70909008,176.69045046
-4.70317096,15.01213674,61.31222143,0.60667525,-0.89049241,-0.38999575

>  <Name>
ligand

>  <RI>
0

>  <Rbt.Current_Directory>
/home/itssahil/PROJECTS/Mol_Feturizer/New_Systems/rnas/2HOO

>  <Rbt.Executable>
rbdock ($Id: //depot/dev/client3/rdock/2013.1/src/exe/rbdock.cxx#4 $)

>  <Rbt.Library>
libRbt.so (2013.1, Build901 2013/11/27)

>  <Rbt.Parameter_File>
/export/apps/rDock/src/rDock_2013.1_src/data/scripts/dock_solv.prm

>  <Rbt.Receptor>
prm/blind_docking_80.prm

>  <SCORE>
-7.98812

>  <SCORE.INTER>
2.4359

>  <SCORE.INTER.CONST>
1

>  <SCORE.INTER.POLAR>
0

>  <SCORE.INTER.ROT>
12

>  <SCORE.INTER.SOLV>
29.43

>  <SCORE.INTER.VDW>
-19.7861

>  <SCORE.INTER.norm>
0.0785774

>  <SCORE.INTRA>
-11.1522

>  <SCORE.INTRA.DIHEDRAL>
1.73235

>  <SCORE.INTRA.DIHEDRAL.0>
14.6094

>  <SCORE.INTRA.POLAR>
0

>  <SCORE.INTRA.POLAR.0>
0

>  <SCORE.INTRA.REPUL>
0

>  <SCORE.INTRA.REPUL.0>
0

>  <SCORE.INTRA.SOLV>
3.60279

>  <SCORE.INTRA.SOLV.lig_0>
-65.6478

>  <SCORE.INTRA.VDW>
-13.8198

>  <SCORE.INTRA.VDW.0>
9.35535

>  <SCORE.INTRA.norm>
-0.359749

>  <SCORE.RESTR>
0.728206

>  <SCORE.RESTR.CAVITY>
0.728206

>  <SCORE.RESTR.norm>
0.0234905

>  <SCORE.SYSTEM>
0

>  <SCORE.SYSTEM.CONST>
0

>  <SCORE.SYSTEM.DIHEDRAL>
0

>  <SCORE.SYSTEM.SOLV>
0

>  <SCORE.SYSTEM.norm>
0

>  <SCORE.heavy>
31

>  <SCORE.norm>
-0.257681

>  <RMSD>
15.634

$$$$
ligand
 OpenBabel11021811443D
libRbt.so/2013.1/901 2013/11/27
 31 32  0  0  0  0  0  0  0  0999 V2000
   16.7433   19.1983   45.4612 C   0  0  0  0  0  0  0  0  0  0  0  0
   17.4948   19.2080   44.1333 C   0  0  0  0  0  0  0  0  0  0  0  0
   17.5075   18.0383   43.3064 C   0  0  0  0  0  0  0  0  0  0  0  0
   18.2093   18.0523   42.0772 C   0  0  0  0  0  0  0  0  0  0  0  0
   18.8943   19.2174   41.6535 C   0  0  0  0  0  0  0  0  0  0  0  0
   18.8874   20.3795   42.4515 C   0  0  0  0  0  0  0  0  0  0  0  0
   18.1975   20.3849   43.6771 C   0  0  0  0  0  0  0  0  0  0  0  0
   15.5129   19.1785   45.4706 O   0  0  0  0  0  0  0  0  0  0  0  0
   25.7330   23.8738   48.4508 C   0  0  0  0  0  0  0  0  0  0  0  0
   20.0043   18.5956   49.1728 C   0  0  0  0  0  0  0  0  0  0  0  0
   21.7724   21.0692   45.0867 P   0  0  1  0  0  0  0  0  0  0  0  0
   23.7951   22.6780   47.7099 N   0  0  0  0  0  0  0  0  0  0  0  0
   21.1746   22.2899   45.6604 O   0  0  0  0  0  0  0  0  0  0  0  0
   17.4320   19.2130   46.6617 S   0  0  0  0  0  0  0  0  0  0  0  0
   19.1636   21.7962   47.5729 C   0  0  0  0  0  0  0  0  0  0  0  0
   24.4654   23.2328   48.7767 C   0  0  0  0  0  0  0  0  0  0  0  0
   22.3213   21.2351   43.7136 O   0  5  0  0  0  0  0  0  0  0  0  0
   19.9265   20.9142   48.2650 N   0  0  0  0  0  0  0  0  0  0  0  0
   24.0329   23.2075   49.9984 N   0  0  0  0  0  0  0  0  0  0  0  0
   22.7386   20.4755   46.0397 O   0  0  0  0  0  0  0  0  0  0  0  0
   19.6053   19.4980   48.0367 C   0  0  2  0  0  0  0  0  0  0  0  0
   22.8334   22.5921   50.3015 C   0  0  0  0  0  0  0  0  0  0  0  0
   22.4209   22.5814   51.5714 N   0  0  0  0  0  0  0  0  0  0  0  0
   18.9432   18.9228   46.8698 C   0  0  1  0  0  0  0  0  0  0  0  0
   22.0689   21.9743   49.2293 C   0  0  0  0  0  0  0  0  0  0  0  0
   19.0389   22.8546   48.1488 O   0  0  0  0  0  0  0  0  0  0  0  0
   19.6204   18.0604   45.8645 C   0  0  0  0  0  0  0  0  0  0  0  0
   22.6127   22.0643   47.9640 C   0  0  0  0  0  0  0  0  0  0  0  0
   20.7839   18.5733   45.1304 C   0  0  0  0  0  0  0  0  0  0  0  0
   20.7739   21.2499   49.5052 C   0  0  0  0  0  0  0  0  0  0  0  0
   20.6561   19.9852   44.8875 O   0  0  0  0  0  0  0  0  0  0  0  0
  1  2  1  0  0  0  0
  1  8  2  0  0  0  0
  1 14  1  0  0  0  0
  2  3  2  0  0  0  0
  2  7  1  0  0  0  0
  3  4  1  0  0  0  0
  4  5  2  0  0  0  0
  5  6  1  0  0  0  0
  6  7  2  0  0  0  0
  9 16  1  0  0  0  0
 10 21  1  0  0  0  0
 11 13  1  1  0  0  0
 11 17  1  0  0  0  0
 11 20  2  0  0  0  0
 11 31  1  0  0  0  0
 12 16  2  0  0  0  0
 12 28  1  0  0  0  0
 15 26  1  0  0  0  0
 15 18  1  0  0  0  0
 16 19  1  0  0  0  0
 18 30  1  0  0  0  0
 19 22  2  0  0  0  0
 21 18  1  1  0  0  0
 21 24  1  0  0  0  0
 22 23  1  0  0  0  0
 22 25  1  0  0  0  0
 24 14  1  1  0  0  0
 24 27  1  0  0  0  0
 25 28  2  0  0  0  0
 25 30  1  0  0  0  0
 27 29  1  0  0  0  0
 29 31  1  0  0  0  0
M  CHG  1  17  -1
M  END
>  <CHROM.1>
-70.50274749,-14.73738024,155.00570960,150.84984677,-155.41256486,-76.51293817
108.18144322,122.17434351,167.33847413,-33.98825605,134.82710404,-140.43167954
20.40330869,20.65263300,46.53374876,2.40395802,-0.46203238,-1.75627523

>  <Name>
ligand

>  <RI>
0

>  <Rbt.Current_Directory>
/home/itssahil/PROJECTS/Mol_Feturizer/New_Systems/rnas/2HOO

>  <Rbt.Executable>
rbdock ($Id: //depot/dev/client3/rdock/2013.1/src/exe/rbdock.cxx#4 $)

>  <Rbt.Library>
libRbt.so (2013.1, Build901 2013/11/27)

>  <Rbt.Parameter_File>
/export/apps/rDock/src/rDock_2013.1_src/data/scripts/dock_solv.prm

>  <Rbt.Receptor>
prm/blind_docking_80.prm

>  <SCORE>
1.0171

>  <SCORE.INTER>
4.22265

>  <SCORE.INTER.CONST>
1

>  <SCORE.INTER.POLAR>
0

>  <SCORE.INTER.ROT>
12

>  <SCORE.INTER.SOLV>
24.9556

>  <SCORE.INTER.VDW>
-17.1034

>  <SCORE.INTER.norm>
0.136215

>  <SCORE.INTRA>
-3.36179

>  <SCORE.INTRA.DIHEDRAL>
8.86976

>  <SCORE.INTRA.DIHEDRAL.0>
14.6094

>  <SCORE.INTRA.POLAR>
0

>  <SCORE.INTRA.POLAR.0>
0

>  <SCORE.INTRA.REPUL>
0

>  <SCORE.INTRA.REPUL.0>
0

>  <SCORE.INTRA.SOLV>
4.24463

>  <SCORE.INTRA.SOLV.lig_0>
-65.6478

>  <SCORE.INTRA.VDW>
-9.91898

>  <SCORE.INTRA.VDW.0>
9.35535

>  <SCORE.INTRA.norm>
-0.108445

>  <SCORE.RESTR>
0.156237

>  <SCORE.RESTR.CAVITY>
0.156237

>  <SCORE.RESTR.norm>
0.00503991

>  <SCORE.SYSTEM>
0

>  <SCORE.SYSTEM.CONST>
0

>  <SCORE.SYSTEM.DIHEDRAL>
0

>  <SCORE.SYSTEM.SOLV>
0

>  <SCORE.SYSTEM.norm>
0

>  <SCORE.heavy>
31

>  <SCORE.norm>
0.0328097

>  <RMSD>
15.834

$$$$
ligand
 OpenBabel11021811443D
libRbt.so/2013.1/901 2013/11/27
 31 32  0  0  0  0  0  0  0  0999 V2000
   19.9225   21.1689   47.4662 C   0  0  0  0  0  0  0  0  0  0  0  0
   20.6243   22.1974   48.3481 C   0  0  0  0  0  0  0  0  0  0  0  0
   21.3968   23.2467   47.7527 C   0  0  0  0  0  0  0  0  0  0  0  0
   22.0484   24.1958   48.5763 C   0  0  0  0  0  0  0  0  0  0  0  0
   21.9371   24.1212   49.9864 C   0  0  0  0  0  0  0  0  0  0  0  0
   21.1761   23.0991   50.5892 C   0  0  0  0  0  0  0  0  0  0  0  0
   20.5227   22.1454   49.7882 C   0  0  0  0  0  0  0  0  0  0  0  0
   18.6984   21.0520   47.5139 O   0  0  0  0  0  0  0  0  0  0  0  0
   24.5228   21.5940   51.8101 C   0  0  0  0  0  0  0  0  0  0  0  0
   20.5092   16.4671   46.0069 C   0  0  0  0  0  0  0  0  0  0  0  0
   16.8291   19.3544   42.8855 P   0  0  1  0  0  0  0  0  0  0  0  0
   23.1434   20.8753   49.9894 N   0  0  0  0  0  0  0  0  0  0  0  0
   15.9730   20.0123   41.8800 O   0  0  0  0  0  0  0  0  0  0  0  0
   20.6496   20.3607   46.6096 S   0  0  0  0  0  0  0  0  0  0  0  0
   19.7042   17.3805   48.9544 C   0  0  0  0  0  0  0  0  0  0  0  0
   23.9575   20.4980   51.0334 C   0  0  0  0  0  0  0  0  0  0  0  0
   16.3050   19.4108   44.2770 O   0  5  0  0  0  0  0  0  0  0  0  0
   20.7803   17.6591   48.1777 N   0  0  0  0  0  0  0  0  0  0  0  0
   24.2262   19.2666   51.3360 N   0  0  0  0  0  0  0  0  0  0  0  0
   17.1793   17.9849   42.4427 O   0  0  0  0  0  0  0  0  0  0  0  0
   20.4974   17.7810   46.7403 C   0  0  2  0  0  0  0  0  0  0  0  0
   23.6923   18.2324   50.5913 C   0  0  0  0  0  0  0  0  0  0  0  0
   23.9941   16.9763   50.9290 N   0  0  0  0  0  0  0  0  0  0  0  0
   20.1970   19.0047   46.0032 C   0  0  1  0  0  0  0  0  0  0  0  0
   22.8279   18.5496   49.4652 C   0  0  0  0  0  0  0  0  0  0  0  0
   19.0291   18.3604   49.1814 O   0  0  0  0  0  0  0  0  0  0  0  0
   19.4701   19.0425   44.7059 C   0  0  0  0  0  0  0  0  0  0  0  0
   22.5982   19.8906   49.2330 C   0  0  0  0  0  0  0  0  0  0  0  0
   18.9674   20.3217   44.1896 C   0  0  0  0  0  0  0  0  0  0  0  0
   22.2507   17.4649   48.5888 C   0  0  0  0  0  0  0  0  0  0  0  0
   18.1919   20.1238   42.9946 O   0  0  0  0  0  0  0  0  0  0  0  0
  1  2  1  0  0  0  0
  1  8  2  0  0  0  0
  1 14  1  0  0  0  0
  2  3  2  0  0  0  0
  2  7  1  0  0  0  0
  3  4  1  0  0  0  0
  4  5  2  0  0  0  0
  5  6  1  0  0  0  0
  6  7  2  0  0  0  0
  9 16  1  0  0  0  0
 10 21  1  0  0  0  0
 11 13  1  6  0  0  0
 11 17  1  0  0  0  0
 11 20  2  0  0  0  0
 11 31  1  0  0  0  0
 12 16  2  0  0  0  0
 12 28  1  0  0  0  0
 15 26  1  0  0  0  0
 15 18  1  0  0  0  0
 16 19  1  0  0  0  0
 18 30  1  0  0  0  0
 19 22  2  0  0  0  0
 21 18  1  1  0  0  0
 21 24  1  0  0  0  0
 22 23  1  0  0  0  0
 22 25  1  0  0  0  0
 24 14  1  1  0  0  0
 24 27  1  0  0  0  0
 25 28  2  0  0  0  0
 25 30  1  0  0  0  0
 27 29  1  0  0  0  0
 29 31  1  0  0  0  0
M  CHG  1  17  -1
M  END
>  <CHROM.1>
-119.73359439,158.96643216,-90.07214720,-79.40319129,-85.51239205,-79.79564429
-159.34813975,-12.48825912,138.59909837,-174.63906900,65.03070810,144.81578445
20.43015402,19.83812607,47.31386088,2.91800734,0.87911592,-3.00525810

>  <Name>
ligand

>  <RI>
0

>  <Rbt.Current_Directory>
/home/itssahil/PROJECTS/Mol_Feturizer/New_Systems/rnas/2HOO

>  <Rbt.Executable>
rbdock ($Id: //depot/dev/client3/rdock/2013.1/src/exe/rbdock.cxx#4 $)

>  <Rbt.Library>
libRbt.so (2013.1, Build901 2013/11/27)

>  <Rbt.Parameter_File>
/export/apps/rDock/src/rDock_2013.1_src/data/scripts/dock_solv.prm

>  <Rbt.Receptor>
prm/blind_docking_80.prm

>  <SCORE>
-25.2451

>  <SCORE.INTER>
-13.5077

>  <SCORE.INTER.CONST>
1

>  <SCORE.INTER.POLAR>
0

>  <SCORE.INTER.ROT>
12

>  <SCORE.INTER.SOLV>
17.8305

>  <SCORE.INTER.VDW>
-26.5486

>  <SCORE.INTER.norm>
-0.435731

>  <SCORE.INTRA>
-11.7374

>  <SCORE.INTRA.DIHEDRAL>
1.17184

>  <SCORE.INTRA.DIHEDRAL.0>
14.6094

>  <SCORE.INTRA.POLAR>
0

>  <SCORE.INTRA.POLAR.0>
0

>  <SCORE.INTRA.REPUL>
0.00035195

>  <SCORE.INTRA.REPUL.0>
0

>  <SCORE.INTRA.SOLV>
2.38602

>  <SCORE.INTRA.SOLV.lig_0>
-65.6478

>  <SCORE.INTRA.VDW>
-13.5181

>  <SCORE.INTRA.VDW.0>
9.35535

>  <SCORE.INTRA.norm>
-0.378627

>  <SCORE.RESTR>
0

>  <SCORE.RESTR.CAVITY>
0

>  <SCORE.RESTR.norm>
0

>  <SCORE.SYSTEM>
0

>  <SCORE.SYSTEM.CONST>
0

>  <SCORE.SYSTEM.DIHEDRAL>
0

>  <SCORE.SYSTEM.SOLV>
0

>  <SCORE.SYSTEM.norm>
0

>  <SCORE.heavy>
31

>  <SCORE.norm>
-0.814359

>  <RMSD>
16.052

$$$$
ligand
 OpenBabel11021811443D
libRbt.so/2013.1/901 2013/11/27
 31 32  0  0  0  0  0  0  0  0999 V2000
   -1.5338   15.2021   63.7407 C   0  0  0  0  0  0  0  0  0  0  0  0
   -1.3627   15.1511   65.2560 C   0  0  0  0  0  0  0  0  0  0  0  0
   -2.1982   15.9515   66.1007 C   0  0  0  0  0  0  0  0  0  0  0  0
   -2.0324   15.9024   67.5057 C   0  0  0  0  0  0  0  0  0  0  0  0
   -1.0506   15.0618   68.0850 C   0  0  0  0  0  0  0  0  0  0  0  0
   -0.2237   14.2627   67.2694 C   0  0  0  0  0  0  0  0  0  0  0  0
   -0.3716   14.2988   65.8713 C   0  0  0  0  0  0  0  0  0  0  0  0
   -0.6570   14.7454   63.0078 O   0  0  0  0  0  0  0  0  0  0  0  0
   -6.1850   10.4228   60.7899 C   0  0  0  0  0  0  0  0  0  0  0  0
   -2.9858   17.9520   60.6874 C   0  0  0  0  0  0  0  0  0  0  0  0
   -2.4685   15.8972   57.5264 P   0  0  1  0  0  0  0  0  0  0  0  0
   -6.0919   12.2439   59.2377 N   0  0  0  0  0  0  0  0  0  0  0  0
   -3.5650   16.1311   56.5673 O   0  0  0  0  0  0  0  0  0  0  0  0
   -2.6683   15.7598   63.1772 S   0  0  0  0  0  0  0  0  0  0  0  0
   -5.8220   18.0098   61.2638 C   0  0  0  0  0  0  0  0  0  0  0  0
   -6.0677   11.8569   60.5587 C   0  0  0  0  0  0  0  0  0  0  0  0
   -1.4182   14.9576   57.0488 O   0  5  0  0  0  0  0  0  0  0  0  0
   -5.2371   16.8887   60.7741 N   0  0  0  0  0  0  0  0  0  0  0  0
   -5.9504   12.6790   61.5539 N   0  0  0  0  0  0  0  0  0  0  0  0
   -1.9279   17.1884   58.0110 O   0  0  0  0  0  0  0  0  0  0  0  0
   -3.8047   16.7503   61.0743 C   0  0  2  0  0  0  0  0  0  0  0  0
   -5.8464   14.0383   61.3278 C   0  0  0  0  0  0  0  0  0  0  0  0
   -5.7313   14.8561   62.3770 N   0  0  0  0  0  0  0  0  0  0  0  0
   -3.1440   15.6125   61.7065 C   0  0  1  0  0  0  0  0  0  0  0  0
   -5.8725   14.5277   59.9583 C   0  0  0  0  0  0  0  0  0  0  0  0
   -7.0312   17.9673   61.2031 O   0  0  0  0  0  0  0  0  0  0  0  0
   -2.8823   14.3147   61.0281 C   0  0  0  0  0  0  0  0  0  0  0  0
   -5.9920   13.5699   58.9718 C   0  0  0  0  0  0  0  0  0  0  0  0
   -2.3023   14.3017   59.6794 C   0  0  0  0  0  0  0  0  0  0  0  0
   -5.8068   16.0038   59.6509 C   0  0  0  0  0  0  0  0  0  0  0  0
   -3.0329   15.1724   58.7980 O   0  0  0  0  0  0  0  0  0  0  0  0
  1  2  1  0  0  0  0
  1  8  2  0  0  0  0
  1 14  1  0  0  0  0
  2  3  2  0  0  0  0
  2  7  1  0  0  0  0
  3  4  1  0  0  0  0
  4  5  2  0  0  0  0
  5  6  1  0  0  0  0
  6  7  2  0  0  0  0
  9 16  1  0  0  0  0
 10 21  1  0  0  0  0
 11 13  1  6  0  0  0
 11 17  1  0  0  0  0
 11 20  2  0  0  0  0
 11 31  1  0  0  0  0
 12 16  2  0  0  0  0
 12 28  1  0  0  0  0
 15 26  1  0  0  0  0
 15 18  1  0  0  0  0
 16 19  1  0  0  0  0
 18 30  1  0  0  0  0
 19 22  2  0  0  0  0
 21 18  1  1  0  0  0
 21 24  1  0  0  0  0
 22 23  1  0  0  0  0
 22 25  1  0  0  0  0
 24 14  1  6  0  0  0
 24 27  1  0  0  0  0
 25 28  2  0  0  0  0
 25 30  1  0  0  0  0
 27 29  1  0  0  0  0
 29 31  1  0  0  0  0
M  CHG  1  17  -1
M  END
>  <CHROM.1>
164.87501043,-165.33177894,-144.95360952,-167.60279229,-52.59835378,-129.41279161
72.54249544,-132.56796216,20.19439056,-50.57626934,153.16854202,152.69492878
-3.52982119,15.18525622,61.33228690,-1.12720324,-0.62067587,-1.30360892

>  <Name>
ligand

>  <RI>
0

>  <Rbt.Current_Directory>
/home/itssahil/PROJECTS/Mol_Feturizer/New_Systems/rnas/2HOO

>  <Rbt.Executable>
rbdock ($Id: //depot/dev/client3/rdock/2013.1/src/exe/rbdock.cxx#4 $)

>  <Rbt.Library>
libRbt.so (2013.1, Build901 2013/11/27)

>  <Rbt.Parameter_File>
/export/apps/rDock/src/rDock_2013.1_src/data/scripts/dock_solv.prm

>  <Rbt.Receptor>
prm/blind_docking_100.prm

>  <SCORE>
8.28169

>  <SCORE.INTER>
12.8417

>  <SCORE.INTER.CONST>
1

>  <SCORE.INTER.POLAR>
0

>  <SCORE.INTER.ROT>
12

>  <SCORE.INTER.SOLV>
25.0067

>  <SCORE.INTER.VDW>
-11.3745

>  <SCORE.INTER.norm>
0.414248

>  <SCORE.INTRA>
-4.55999

>  <SCORE.INTRA.DIHEDRAL>
2.20369

>  <SCORE.INTRA.DIHEDRAL.0>
14.6094

>  <SCORE.INTRA.POLAR>
0

>  <SCORE.INTRA.POLAR.0>
0

>  <SCORE.INTRA.REPUL>
0

>  <SCORE.INTRA.REPUL.0>
0

>  <SCORE.INTRA.SOLV>
12.3164

>  <SCORE.INTRA.SOLV.lig_0>
-65.6478

>  <SCORE.INTRA.VDW>
-11.82

>  <SCORE.INTRA.VDW.0>
9.35535

>  <SCORE.INTRA.norm>
-0.147096

>  <SCORE.RESTR>
0

>  <SCORE.RESTR.CAVITY>
0

>  <SCORE.RESTR.norm>
0

>  <SCORE.SYSTEM>
0

>  <SCORE.SYSTEM.CONST>
0

>  <SCORE.SYSTEM.DIHEDRAL>
0

>  <SCORE.SYSTEM.SOLV>
0

>  <SCORE.SYSTEM.norm>
0

>  <SCORE.heavy>
31

>  <SCORE.norm>
0.267151

>  <RMSD>
16.206

$$$$
ligand
 OpenBabel11021811443D
libRbt.so/2013.1/901 2013/11/27
 31 32  0  0  0  0  0  0  0  0999 V2000
   18.7765   20.1760   46.8740 C   0  0  0  0  0  0  0  0  0  0  0  0
   18.0082   19.8939   45.5863 C   0  0  0  0  0  0  0  0  0  0  0  0
   16.7680   19.1783   45.6317 C   0  0  0  0  0  0  0  0  0  0  0  0
   16.0616   18.9167   44.4332 C   0  0  0  0  0  0  0  0  0  0  0  0
   16.5676   19.3635   43.1880 C   0  0  0  0  0  0  0  0  0  0  0  0
   17.7833   20.0744   43.1252 C   0  0  0  0  0  0  0  0  0  0  0  0
   18.5010   20.3427   44.3045 C   0  0  0  0  0  0  0  0  0  0  0  0
   18.4575   21.1297   47.5833 O   0  0  0  0  0  0  0  0  0  0  0  0
   24.5315   20.8944   53.4409 C   0  0  0  0  0  0  0  0  0  0  0  0
   22.1127   21.2127   45.5121 C   0  0  0  0  0  0  0  0  0  0  0  0
   23.1787   16.5728   50.1780 P   0  0  1  0  0  0  0  0  0  0  0  0
   23.9897   20.4803   51.1454 N   0  0  0  0  0  0  0  0  0  0  0  0
   23.4384   17.8358   50.8952 O   0  0  0  0  0  0  0  0  0  0  0  0
   19.8344   19.3691   47.2555 S   0  0  0  0  0  0  0  0  0  0  0  0
   20.7054   22.8767   48.1878 C   0  0  0  0  0  0  0  0  0  0  0  0
   24.2336   21.4250   52.1166 C   0  0  0  0  0  0  0  0  0  0  0  0
   24.1771   15.4994   50.4333 O   0  5  0  0  0  0  0  0  0  0  0  0
   21.8657   22.3658   47.7066 N   0  0  0  0  0  0  0  0  0  0  0  0
   24.2093   22.7040   51.9076 N   0  0  0  0  0  0  0  0  0  0  0  0
   21.7789   16.1394   50.3948 O   0  0  0  0  0  0  0  0  0  0  0  0
   21.7313   21.1044   46.9637 C   0  0  2  0  0  0  0  0  0  0  0  0
   23.9194   23.2005   50.6511 C   0  0  0  0  0  0  0  0  0  0  0  0
   23.8988   24.5237   50.4732 N   0  0  0  0  0  0  0  0  0  0  0  0
   21.3034   19.8130   47.4927 C   0  0  1  0  0  0  0  0  0  0  0  0
   23.6416   22.2654   49.5720 C   0  0  0  0  0  0  0  0  0  0  0  0
   20.3679   22.3611   49.2307 O   0  0  0  0  0  0  0  0  0  0  0  0
   22.1826   18.8908   48.2604 C   0  0  0  0  0  0  0  0  0  0  0  0
   23.7015   20.9255   49.8972 C   0  0  0  0  0  0  0  0  0  0  0  0
   22.3757   17.5119   47.7944 C   0  0  0  0  0  0  0  0  0  0  0  0
   23.2762   22.7482   48.1896 C   0  0  0  0  0  0  0  0  0  0  0  0
   23.3116   16.8128   48.6335 O   0  0  0  0  0  0  0  0  0  0  0  0
  1  2  1  0  0  0  0
  1  8  2  0  0  0  0
  1 14  1  0  0  0  0
  2  3  2  0  0  0  0
  2  7  1  0  0  0  0
  3  4  1  0  0  0  0
  4  5  2  0  0  0  0
  5  6  1  0  0  0  0
  6  7  2  0  0  0  0
  9 16  1  0  0  0  0
 10 21  1  0  0  0  0
 11 13  1  1  0  0  0
 11 17  1  0  0  0  0
 11 20  2  0  0  0  0
 11 31  1  0  0  0  0
 12 16  2  0  0  0  0
 12 28  1  0  0  0  0
 15 26  1  0  0  0  0
 15 18  1  0  0  0  0
 16 19  1  0  0  0  0
 18 30  1  0  0  0  0
 19 22  2  0  0  0  0
 21 18  1  1  0  0  0
 21 24  1  0  0  0  0
 22 23  1  0  0  0  0
 22 25  1  0  0  0  0
 24 14  1  1  0  0  0
 24 27  1  0  0  0  0
 25 28  2  0  0  0  0
 25 30  1  0  0  0  0
 27 29  1  0  0  0  0
 29 31  1  0  0  0  0
M  CHG  1  17  -1
M  END
>  <CHROM.1>
-81.87600063,120.81158425,-16.54439592,81.86661735,115.83076395,70.45619364
-81.12551252,56.87338893,-116.49170178,176.96432809,58.58647449,-73.50341879
21.54104619,19.98356031,48.43194331,3.12496484,0.79238839,3.12007877

>  <Name>
ligand

>  <RI>
0

>  <Rbt.Current_Directory>
/home/itssahil/PROJECTS/Mol_Feturizer/New_Systems/rnas/2HOO

>  <Rbt.Executable>
rbdock ($Id: //depot/dev/client3/rdock/2013.1/src/exe/rbdock.cxx#4 $)

>  <Rbt.Library>
libRbt.so (2013.1, Build901 2013/11/27)

>  <Rbt.Parameter_File>
/export/apps/rDock/src/rDock_2013.1_src/data/scripts/dock_solv.prm

>  <Rbt.Receptor>
prm/blind_docking_80.prm

>  <SCORE>
-28.4974

>  <SCORE.INTER>
-16.8301

>  <SCORE.INTER.CONST>
1

>  <SCORE.INTER.POLAR>
0

>  <SCORE.INTER.ROT>
12

>  <SCORE.INTER.SOLV>
16.7631

>  <SCORE.INTER.VDW>
-28.4078

>  <SCORE.INTER.norm>
-0.542908

>  <SCORE.INTRA>
-12.8903

>  <SCORE.INTRA.DIHEDRAL>
2.3522

>  <SCORE.INTRA.DIHEDRAL.0>
14.6094

>  <SCORE.INTRA.POLAR>
0

>  <SCORE.INTRA.POLAR.0>
0

>  <SCORE.INTRA.REPUL>
0

>  <SCORE.INTRA.REPUL.0>
0

>  <SCORE.INTRA.SOLV>
1.84107

>  <SCORE.INTRA.SOLV.lig_0>
-65.6478

>  <SCORE.INTRA.VDW>
-14.987

>  <SCORE.INTRA.VDW.0>
9.35535

>  <SCORE.INTRA.norm>
-0.415818

>  <SCORE.RESTR>
1.22305

>  <SCORE.RESTR.CAVITY>
1.22305

>  <SCORE.RESTR.norm>
0.0394533

>  <SCORE.SYSTEM>
0

>  <SCORE.SYSTEM.CONST>
0

>  <SCORE.SYSTEM.DIHEDRAL>
0

>  <SCORE.SYSTEM.SOLV>
0

>  <SCORE.SYSTEM.norm>
0

>  <SCORE.heavy>
31

>  <SCORE.norm>
-0.919272

>  <RMSD>
16.322

$$$$
ligand
 OpenBabel11021811443D
libRbt.so/2013.1/901 2013/11/27
 31 32  0  0  0  0  0  0  0  0999 V2000
   20.4817   18.8892   43.9866 C   0  0  0  0  0  0  0  0  0  0  0  0
   19.0957   19.3035   43.5018 C   0  0  0  0  0  0  0  0  0  0  0  0
   17.9317   18.9288   44.2480 C   0  0  0  0  0  0  0  0  0  0  0  0
   16.6482   19.3133   43.7912 C   0  0  0  0  0  0  0  0  0  0  0  0
   16.5051   20.0729   42.6044 C   0  0  0  0  0  0  0  0  0  0  0  0
   17.6398   20.4558   41.8607 C   0  0  0  0  0  0  0  0  0  0  0  0
   18.9235   20.0819   42.2969 C   0  0  0  0  0  0  0  0  0  0  0  0
   20.8542   17.7233   43.8587 O   0  0  0  0  0  0  0  0  0  0  0  0
   26.0854   19.9402   52.7591 C   0  0  0  0  0  0  0  0  0  0  0  0
   20.3122   22.1063   46.3138 C   0  0  0  0  0  0  0  0  0  0  0  0
   20.8560   16.2186   49.5147 P   0  0  1  0  0  0  0  0  0  0  0  0
   24.2687   19.4588   51.2752 N   0  0  0  0  0  0  0  0  0  0  0  0
   19.6340   16.9124   49.9643 O   0  0  0  0  0  0  0  0  0  0  0  0
   21.3294   19.8130   44.5729 S   0  0  0  0  0  0  0  0  0  0  0  0
   23.1655   22.8294   47.2927 C   0  0  0  0  0  0  0  0  0  0  0  0
   25.0559   20.4301   51.8513 C   0  0  0  0  0  0  0  0  0  0  0  0
   21.9789   16.2473   50.4907 O   0  5  0  0  0  0  0  0  0  0  0  0
   22.3354   21.8577   47.7461 N   0  0  0  0  0  0  0  0  0  0  0  0
   24.9224   21.6999   51.6276 N   0  0  0  0  0  0  0  0  0  0  0  0
   20.5250   14.8560   49.0372 O   0  0  0  0  0  0  0  0  0  0  0  0
   21.4756   21.2444   46.7234 C   0  0  2  0  0  0  0  0  0  0  0  0
   23.9399   22.1581   50.7709 C   0  0  0  0  0  0  0  0  0  0  0  0
   23.8284   23.4731   50.5674 N   0  0  0  0  0  0  0  0  0  0  0  0
   21.6579   19.9444   46.0849 C   0  0  1  0  0  0  0  0  0  0  0  0
   23.0607   21.1936   50.1286 C   0  0  0  0  0  0  0  0  0  0  0  0
   23.0867   23.8484   47.9429 O   0  0  0  0  0  0  0  0  0  0  0  0
   22.1291   18.7238   46.7926 C   0  0  0  0  0  0  0  0  0  0  0  0
   23.2920   19.8661   50.4270 C   0  0  0  0  0  0  0  0  0  0  0  0
   21.5819   18.3909   48.1138 C   0  0  0  0  0  0  0  0  0  0  0  0
   21.9419   21.6364   49.2175 C   0  0  0  0  0  0  0  0  0  0  0  0
   21.4541   16.9671   48.2726 O   0  0  0  0  0  0  0  0  0  0  0  0
  1  2  1  0  0  0  0
  1  8  2  0  0  0  0
  1 14  1  0  0  0  0
  2  3  2  0  0  0  0
  2  7  1  0  0  0  0
  3  4  1  0  0  0  0
  4  5  2  0  0  0  0
  5  6  1  0  0  0  0
  6  7  2  0  0  0  0
  9 16  1  0  0  0  0
 10 21  1  0  0  0  0
 11 13  1  1  0  0  0
 11 17  1  0  0  0  0
 11 20  2  0  0  0  0
 11 31  1  0  0  0  0
 12 16  2  0  0  0  0
 12 28  1  0  0  0  0
 15 26  1  0  0  0  0
 15 18  1  0  0  0  0
 16 19  1  0  0  0  0
 18 30  1  0  0  0  0
 19 22  2  0  0  0  0
 21 18  1  6  0  0  0
 21 24  1  0  0  0  0
 22 23  1  0  0  0  0
 22 25  1  0  0  0  0
 24 14  1  1  0  0  0
 24 27  1  0  0  0  0
 25 28  2  0  0  0  0
 25 30  1  0  0  0  0
 27 29  1  0  0  0  0
 29 31  1  0  0  0  0
M  CHG  1  17  -1
M  END
>  <CHROM.1>
74.67095390,104.58537789,-126.46628637,128.76249579,-76.10809941,-66.73970615
37.23990791,-135.49044921,86.18812825,144.41115623,-177.29939677,42.91755053
21.51575126,19.62862507,47.60170513,-2.79027711,0.92009755,2.57538507

>  <Name>
ligand

>  <RI>
0

>  <Rbt.Current_Directory>
/home/itssahil/PROJECTS/Mol_Feturizer/New_Systems/rnas/2HOO

>  <Rbt.Executable>
rbdock ($Id: //depot/dev/client3/rdock/2013.1/src/exe/rbdock.cxx#4 $)

>  <Rbt.Library>
libRbt.so (2013.1, Build901 2013/11/27)

>  <Rbt.Parameter_File>
/export/apps/rDock/src/rDock_2013.1_src/data/scripts/dock_solv.prm

>  <Rbt.Receptor>
prm/blind_docking_80.prm

>  <SCORE>
-21.486

>  <SCORE.INTER>
-13.4335

>  <SCORE.INTER.CONST>
1

>  <SCORE.INTER.POLAR>
0

>  <SCORE.INTER.ROT>
12

>  <SCORE.INTER.SOLV>
15.5715

>  <SCORE.INTER.VDW>
-25.7462

>  <SCORE.INTER.norm>
-0.433338

>  <SCORE.INTRA>
-8.09649

>  <SCORE.INTRA.DIHEDRAL>
6.35585

>  <SCORE.INTRA.DIHEDRAL.0>
14.6094

>  <SCORE.INTRA.POLAR>
0

>  <SCORE.INTRA.POLAR.0>
0

>  <SCORE.INTRA.REPUL>
0

>  <SCORE.INTRA.REPUL.0>
0

>  <SCORE.INTRA.SOLV>
2.75486

>  <SCORE.INTRA.SOLV.lig_0>
-65.6478

>  <SCORE.INTRA.VDW>
-12.6519

>  <SCORE.INTRA.VDW.0>
9.35535

>  <SCORE.INTRA.norm>
-0.261177

>  <SCORE.RESTR>
0.0439969

>  <SCORE.RESTR.CAVITY>
0.0439969

>  <SCORE.RESTR.norm>
0.00141926

>  <SCORE.SYSTEM>
0

>  <SCORE.SYSTEM.CONST>
0

>  <SCORE.SYSTEM.DIHEDRAL>
0

>  <SCORE.SYSTEM.SOLV>
0

>  <SCORE.SYSTEM.norm>
0

>  <SCORE.heavy>
31

>  <SCORE.norm>
-0.693096

>  <RMSD>
16.364

$$$$
ligand
 OpenBabel11021811443D
libRbt.so/2013.1/901 2013/11/27
 31 32  0  0  0  0  0  0  0  0999 V2000
   17.9105   18.9227   45.8599 C   0  0  0  0  0  0  0  0  0  0  0  0
   18.4023   18.1467   47.0781 C   0  0  0  0  0  0  0  0  0  0  0  0
   18.6355   16.7363   46.9855 C   0  0  0  0  0  0  0  0  0  0  0  0
   19.0885   16.0213   48.1201 C   0  0  0  0  0  0  0  0  0  0  0  0
   19.3204   16.6908   49.3466 C   0  0  0  0  0  0  0  0  0  0  0  0
   19.1020   18.0793   49.4542 C   0  0  0  0  0  0  0  0  0  0  0  0
   18.6503   18.8071   48.3388 C   0  0  0  0  0  0  0  0  0  0  0  0
   16.8702   19.5766   45.9270 O   0  0  0  0  0  0  0  0  0  0  0  0
   24.8314   19.8971   51.8903 C   0  0  0  0  0  0  0  0  0  0  0  0
   21.4641   18.0992   46.2559 C   0  0  0  0  0  0  0  0  0  0  0  0
   19.4461   20.5970   39.4544 P   0  0  1  0  0  0  0  0  0  0  0  0
   23.4091   19.0918   50.1401 N   0  0  0  0  0  0  0  0  0  0  0  0
   18.9104   21.9683   39.5516 O   0  0  0  0  0  0  0  0  0  0  0  0
   18.6231   18.8989   44.6736 S   0  0  0  0  0  0  0  0  0  0  0  0
   21.9370   21.5622   45.5373 C   0  0  0  0  0  0  0  0  0  0  0  0
   23.8579   20.1860   50.8448 C   0  0  0  0  0  0  0  0  0  0  0  0
   18.4108   19.5350   39.3336 O   0  5  0  0  0  0  0  0  0  0  0  0
   21.4376   20.5889   46.3388 N   0  0  0  0  0  0  0  0  0  0  0  0
   23.4666   21.4018   50.6243 N   0  0  0  0  0  0  0  0  0  0  0  0
   20.4872   20.5273   38.4029 O   0  0  0  0  0  0  0  0  0  0  0  0
   20.9744   19.3816   45.6396 C   0  0  2  0  0  0  0  0  0  0  0  0
   22.5382   21.6678   49.6360 C   0  0  0  0  0  0  0  0  0  0  0  0
   22.1548   22.9317   49.4394 N   0  0  0  0  0  0  0  0  0  0  0  0
   20.1032   19.3218   44.4698 C   0  0  1  0  0  0  0  0  0  0  0  0
   22.0090   20.5628   48.8520 C   0  0  0  0  0  0  0  0  0  0  0  0
   22.9077   21.1962   44.9119 O   0  0  0  0  0  0  0  0  0  0  0  0
   20.5437   19.6290   43.0826 C   0  0  0  0  0  0  0  0  0  0  0  0
   22.4970   19.3091   49.1603 C   0  0  0  0  0  0  0  0  0  0  0  0
   19.5546   20.0413   42.0788 C   0  0  0  0  0  0  0  0  0  0  0  0
   20.9611   20.7856   47.7890 C   0  0  0  0  0  0  0  0  0  0  0  0
   20.1734   20.2245   40.7934 O   0  0  0  0  0  0  0  0  0  0  0  0
  1  2  1  0  0  0  0
  1  8  2  0  0  0  0
  1 14  1  0  0  0  0
  2  3  2  0  0  0  0
  2  7  1  0  0  0  0
  3  4  1  0  0  0  0
  4  5  2  0  0  0  0
  5  6  1  0  0  0  0
  6  7  2  0  0  0  0
  9 16  1  0  0  0  0
 10 21  1  0  0  0  0
 11 13  1  1  0  0  0
 11 17  1  0  0  0  0
 11 20  2  0  0  0  0
 11 31  1  0  0  0  0
 12 16  2  0  0  0  0
 12 28  1  0  0  0  0
 15 26  1  0  0  0  0
 15 18  1  0  0  0  0
 16 19  1  0  0  0  0
 18 30  1  0  0  0  0
 19 22  2  0  0  0  0
 21 18  1  1  0  0  0
 21 24  1  0  0  0  0
 22 23  1  0  0  0  0
 22 25  1  0  0  0  0
 24 14  1  6  0  0  0
 24 27  1  0  0  0  0
 25 28  2  0  0  0  0
 25 30  1  0  0  0  0
 27 29  1  0  0  0  0
 29 31  1  0  0  0  0
M  CHG  1  17  -1
M  END
>  <CHROM.1>
123.52279976,-57.62922199,19.50526874,-61.12244759,132.78902519,-91.36687192
74.35890475,23.88578294,110.39367801,-177.10962101,176.98283648,67.18927395
20.48836864,19.76177170,45.60826477,1.94605713,-0.65505308,-1.28259383

>  <Name>
ligand

>  <RI>
0

>  <Rbt.Current_Directory>
/home/itssahil/PROJECTS/Mol_Feturizer/New_Systems/rnas/2HOO

>  <Rbt.Executable>
rbdock ($Id: //depot/dev/client3/rdock/2013.1/src/exe/rbdock.cxx#4 $)

>  <Rbt.Library>
libRbt.so (2013.1, Build901 2013/11/27)

>  <Rbt.Parameter_File>
/export/apps/rDock/src/rDock_2013.1_src/data/scripts/dock_solv.prm

>  <Rbt.Receptor>
prm/blind_docking_80.prm

>  <SCORE>
-29.8668

>  <SCORE.INTER>
-17.7654

>  <SCORE.INTER.CONST>
1

>  <SCORE.INTER.POLAR>
0

>  <SCORE.INTER.ROT>
12

>  <SCORE.INTER.SOLV>
12.3825

>  <SCORE.INTER.VDW>
-27.5711

>  <SCORE.INTER.norm>
-0.573077

>  <SCORE.INTRA>
-12.1014

>  <SCORE.INTRA.DIHEDRAL>
1.88685

>  <SCORE.INTRA.DIHEDRAL.0>
14.6094

>  <SCORE.INTRA.POLAR>
0

>  <SCORE.INTRA.POLAR.0>
0

>  <SCORE.INTRA.REPUL>
0

>  <SCORE.INTRA.REPUL.0>
0

>  <SCORE.INTRA.SOLV>
0.270744

>  <SCORE.INTRA.SOLV.lig_0>
-65.6478

>  <SCORE.INTRA.VDW>
-13.1802

>  <SCORE.INTRA.VDW.0>
9.35535

>  <SCORE.INTRA.norm>
-0.390369

>  <SCORE.RESTR>
0

>  <SCORE.RESTR.CAVITY>
0

>  <SCORE.RESTR.norm>
0

>  <SCORE.SYSTEM>
0

>  <SCORE.SYSTEM.CONST>
0

>  <SCORE.SYSTEM.DIHEDRAL>
0

>  <SCORE.SYSTEM.SOLV>
0

>  <SCORE.SYSTEM.norm>
0

>  <SCORE.heavy>
31

>  <SCORE.norm>
-0.963446

>  <RMSD>
16.397

$$$$
ligand
 OpenBabel11021811443D
libRbt.so/2013.1/901 2013/11/27
 31 32  0  0  0  0  0  0  0  0999 V2000
   19.3717   16.3262   48.3623 C   0  0  0  0  0  0  0  0  0  0  0  0
   20.8960   16.3927   48.3477 C   0  0  0  0  0  0  0  0  0  0  0  0
   21.6253   15.9120   47.2122 C   0  0  0  0  0  0  0  0  0  0  0  0
   23.0395   15.9734   47.2059 C   0  0  0  0  0  0  0  0  0  0  0  0
   23.7408   16.5135   48.3117 C   0  0  0  0  0  0  0  0  0  0  0  0
   23.0392   16.9967   49.4349 C   0  0  0  0  0  0  0  0  0  0  0  0
   21.6341   16.9429   49.4611 C   0  0  0  0  0  0  0  0  0  0  0  0
   18.8005   15.4758   49.0443 O   0  0  0  0  0  0  0  0  0  0  0  0
   18.6195   20.9898   38.2296 C   0  0  0  0  0  0  0  0  0  0  0  0
   19.3402   16.8636   44.3857 C   0  0  0  0  0  0  0  0  0  0  0  0
   21.1972   21.6212   48.9387 P   0  0  1  0  0  0  0  0  0  0  0  0
   19.6841   20.6607   40.3492 N   0  0  0  0  0  0  0  0  0  0  0  0
   21.6914   20.2662   49.2496 O   0  0  0  0  0  0  0  0  0  0  0  0
   18.6196   17.2142   47.6130 S   0  0  0  0  0  0  0  0  0  0  0  0
   16.5297   18.5042   44.4518 C   0  0  0  0  0  0  0  0  0  0  0  0
   18.4946   20.7748   39.6657 C   0  0  0  0  0  0  0  0  0  0  0  0
   20.1217   22.1104   49.8431 O   0  5  0  0  0  0  0  0  0  0  0  0
   17.8380   18.8509   44.3685 N   0  0  0  0  0  0  0  0  0  0  0  0
   17.3269   20.7017   40.2235 N   0  0  0  0  0  0  0  0  0  0  0  0
   22.3330   22.5634   48.8101 O   0  0  0  0  0  0  0  0  0  0  0  0
   18.7560   18.0161   45.1568 C   0  0  2  0  0  0  0  0  0  0  0  0
   17.2158   20.5043   41.5866 C   0  0  0  0  0  0  0  0  0  0  0  0
   15.9969   20.4385   42.1280 N   0  0  0  0  0  0  0  0  0  0  0  0
   19.1491   18.2132   46.5487 C   0  0  1  0  0  0  0  0  0  0  0  0
   18.4282   20.3823   42.3810 C   0  0  0  0  0  0  0  0  0  0  0  0
   15.9345   19.1363   45.2966 O   0  0  0  0  0  0  0  0  0  0  0  0
   20.0197   19.3223   47.0228 C   0  0  0  0  0  0  0  0  0  0  0  0
   19.6198   20.4657   41.6897 C   0  0  0  0  0  0  0  0  0  0  0  0
   19.4864   20.6885   47.0917 C   0  0  0  0  0  0  0  0  0  0  0  0
   18.3708   20.2095   43.8792 C   0  0  0  0  0  0  0  0  0  0  0  0
   20.4958   21.6119   47.5356 O   0  0  0  0  0  0  0  0  0  0  0  0
  1  2  1  0  0  0  0
  1  8  2  0  0  0  0
  1 14  1  0  0  0  0
  2  3  2  0  0  0  0
  2  7  1  0  0  0  0
  3  4  1  0  0  0  0
  4  5  2  0  0  0  0
  5  6  1  0  0  0  0
  6  7  2  0  0  0  0
  9 16  1  0  0  0  0
 10 21  1  0  0  0  0
 11 13  1  1  0  0  0
 11 17  1  0  0  0  0
 11 20  2  0  0  0  0
 11 31  1  0  0  0  0
 12 16  2  0  0  0  0
 12 28  1  0  0  0  0
 15 26  1  0  0  0  0
 15 18  1  0  0  0  0
 16 19  1  0  0  0  0
 18 30  1  0  0  0  0
 19 22  2  0  0  0  0
 21 18  1  6  0  0  0
 21 24  1  0  0  0  0
 22 23  1  0  0  0  0
 22 25  1  0  0  0  0
 24 14  1  1  0  0  0
 24 27  1  0  0  0  0
 25 28  2  0  0  0  0
 25 30  1  0  0  0  0
 27 29  1  0  0  0  0
 29 31  1  0  0  0  0
M  CHG  1  17  -1
M  END
>  <CHROM.1>
104.94632920,9.19914774,114.44149560,94.55430174,92.72019885,-80.45580512
-71.74580984,-106.12435284,69.94875725,-178.30965998,-64.23088061,50.07253970
19.57241567,19.16273401,45.85023270,0.56905048,1.09540304,2.76111531

>  <Name>
ligand

>  <RI>
0

>  <Rbt.Current_Directory>
/home/itssahil/PROJECTS/Mol_Feturizer/New_Systems/rnas/2HOO

>  <Rbt.Executable>
rbdock ($Id: //depot/dev/client3/rdock/2013.1/src/exe/rbdock.cxx#4 $)

>  <Rbt.Library>
libRbt.so (2013.1, Build901 2013/11/27)

>  <Rbt.Parameter_File>
/export/apps/rDock/src/rDock_2013.1_src/data/scripts/dock_solv.prm

>  <Rbt.Receptor>
prm/blind_docking_80.prm

>  <SCORE>
-24.8501

>  <SCORE.INTER>
-10.2545

>  <SCORE.INTER.CONST>
1

>  <SCORE.INTER.POLAR>
0

>  <SCORE.INTER.ROT>
12

>  <SCORE.INTER.SOLV>
19.0534

>  <SCORE.INTER.VDW>
-24.7875

>  <SCORE.INTER.norm>
-0.330789

>  <SCORE.INTRA>
-14.5956

>  <SCORE.INTRA.DIHEDRAL>
-2.02108

>  <SCORE.INTRA.DIHEDRAL.0>
14.6094

>  <SCORE.INTRA.POLAR>
0

>  <SCORE.INTRA.POLAR.0>
0

>  <SCORE.INTRA.REPUL>
0

>  <SCORE.INTRA.REPUL.0>
0

>  <SCORE.INTRA.SOLV>
3.0395

>  <SCORE.INTRA.SOLV.lig_0>
-65.6478

>  <SCORE.INTRA.VDW>
-15.1048

>  <SCORE.INTRA.VDW.0>
9.35535

>  <SCORE.INTRA.norm>
-0.470826

>  <SCORE.RESTR>
0

>  <SCORE.RESTR.CAVITY>
0

>  <SCORE.RESTR.norm>
0

>  <SCORE.SYSTEM>
0

>  <SCORE.SYSTEM.CONST>
0

>  <SCORE.SYSTEM.DIHEDRAL>
0

>  <SCORE.SYSTEM.SOLV>
0

>  <SCORE.SYSTEM.norm>
0

>  <SCORE.heavy>
31

>  <SCORE.norm>
-0.801615

>  <RMSD>
16.472

$$$$
ligand
 OpenBabel11021811443D
libRbt.so/2013.1/901 2013/11/27
 31 32  0  0  0  0  0  0  0  0999 V2000
   21.0701   20.1657   47.4230 C   0  0  0  0  0  0  0  0  0  0  0  0
   22.0715   20.7149   48.4348 C   0  0  0  0  0  0  0  0  0  0  0  0
   22.4509   22.0957   48.3933 C   0  0  0  0  0  0  0  0  0  0  0  0
   23.3829   22.5986   49.3326 C   0  0  0  0  0  0  0  0  0  0  0  0
   23.9392   21.7484   50.3195 C   0  0  0  0  0  0  0  0  0  0  0  0
   23.5726   20.3885   50.3791 C   0  0  0  0  0  0  0  0  0  0  0  0
   22.6496   19.8694   49.4536 C   0  0  0  0  0  0  0  0  0  0  0  0
   21.4190   19.9657   46.2599 O   0  0  0  0  0  0  0  0  0  0  0  0
   17.5106   20.7328   38.6374 C   0  0  0  0  0  0  0  0  0  0  0  0
   19.8621   17.1796   45.5083 C   0  0  0  0  0  0  0  0  0  0  0  0
   21.0369   16.2941   49.1210 P   0  0  1  0  0  0  0  0  0  0  0  0
   16.8899   20.7961   40.9493 N   0  0  0  0  0  0  0  0  0  0  0  0
   21.4743   17.4345   48.2934 O   0  0  0  0  0  0  0  0  0  0  0  0
   19.7670   19.8895   47.7987 S   0  0  0  0  0  0  0  0  0  0  0  0
   16.8964   18.4965   44.7296 C   0  0  0  0  0  0  0  0  0  0  0  0
   17.8978   20.5884   40.0350 C   0  0  0  0  0  0  0  0  0  0  0  0
   20.9650   14.9958   48.3976 O   0  5  0  0  0  0  0  0  0  0  0  0
   18.1890   18.8949   44.8266 N   0  0  0  0  0  0  0  0  0  0  0  0
   19.1167   20.2846   40.3547 N   0  0  0  0  0  0  0  0  0  0  0  0
   21.8343   16.2306   50.3678 O   0  0  0  0  0  0  0  0  0  0  0  0
   18.9455   18.2941   45.9347 C   0  0  2  0  0  0  0  0  0  0  0  0
   19.4755   20.1425   41.6816 C   0  0  0  0  0  0  0  0  0  0  0  0
   20.7389   19.8247   41.9739 N   0  0  0  0  0  0  0  0  0  0  0  0
   18.9038   18.6826   47.3412 C   0  0  1  0  0  0  0  0  0  0  0  0
   18.4641   20.3378   42.7086 C   0  0  0  0  0  0  0  0  0  0  0  0
   16.6444   17.9946   43.6562 O   0  0  0  0  0  0  0  0  0  0  0  0
   18.0934   17.9875   48.3771 C   0  0  0  0  0  0  0  0  0  0  0  0
   17.1999   20.6669   42.2632 C   0  0  0  0  0  0  0  0  0  0  0  0
   18.3982   16.5945   48.7269 C   0  0  0  0  0  0  0  0  0  0  0  0
   18.7854   20.1535   44.1717 C   0  0  0  0  0  0  0  0  0  0  0  0
   19.5540   16.5205   49.5798 O   0  0  0  0  0  0  0  0  0  0  0  0
  1  2  1  0  0  0  0
  1  8  2  0  0  0  0
  1 14  1  0  0  0  0
  2  3  2  0  0  0  0
  2  7  1  0  0  0  0
  3  4  1  0  0  0  0
  4  5  2  0  0  0  0
  5  6  1  0  0  0  0
  6  7  2  0  0  0  0
  9 16  1  0  0  0  0
 10 21  1  0  0  0  0
 11 13  1  6  0  0  0
 11 17  1  0  0  0  0
 11 20  2  0  0  0  0
 11 31  1  0  0  0  0
 12 16  2  0  0  0  0
 12 28  1  0  0  0  0
 15 26  1  0  0  0  0
 15 18  1  0  0  0  0
 16 19  1  0  0  0  0
 18 30  1  0  0  0  0
 19 22  2  0  0  0  0
 21 18  1  6  0  0  0
 21 24  1  0  0  0  0
 22 23  1  0  0  0  0
 22 25  1  0  0  0  0
 24 14  1  1  0  0  0
 24 27  1  0  0  0  0
 25 28  2  0  0  0  0
 25 30  1  0  0  0  0
 27 29  1  0  0  0  0
 29 31  1  0  0  0  0
M  CHG  1  17  -1
M  END
>  <CHROM.1>
74.82635535,-140.90907078,-42.52564182,-121.97930936,101.96955729,-48.74124329
96.65564890,-114.79877100,-107.86606587,77.33225017,-93.93854606,64.08165154
19.89744516,19.03212571,46.17490809,-0.92129788,-0.84159791,-0.84564116

>  <Name>
ligand

>  <RI>
0

>  <Rbt.Current_Directory>
/home/itssahil/PROJECTS/Mol_Feturizer/New_Systems/rnas/2HOO

>  <Rbt.Executable>
rbdock ($Id: //depot/dev/client3/rdock/2013.1/src/exe/rbdock.cxx#4 $)

>  <Rbt.Library>
libRbt.so (2013.1, Build901 2013/11/27)

>  <Rbt.Parameter_File>
/export/apps/rDock/src/rDock_2013.1_src/data/scripts/dock_solv.prm

>  <Rbt.Receptor>
prm/blind_docking_80.prm

>  <SCORE>
-26.9347

>  <SCORE.INTER>
-14.0734

>  <SCORE.INTER.CONST>
1

>  <SCORE.INTER.POLAR>
0

>  <SCORE.INTER.ROT>
12

>  <SCORE.INTER.SOLV>
12.6594

>  <SCORE.INTER.VDW>
-25.2021

>  <SCORE.INTER.norm>
-0.453982

>  <SCORE.INTRA>
-12.8951

>  <SCORE.INTRA.DIHEDRAL>
4.68977

>  <SCORE.INTRA.DIHEDRAL.0>
14.6094

>  <SCORE.INTRA.POLAR>
0

>  <SCORE.INTRA.POLAR.0>
0

>  <SCORE.INTRA.REPUL>
0

>  <SCORE.INTRA.REPUL.0>
0

>  <SCORE.INTRA.SOLV>
2.93072

>  <SCORE.INTRA.SOLV.lig_0>
-65.6478

>  <SCORE.INTRA.VDW>
-16.7054

>  <SCORE.INTRA.VDW.0>
9.35535

>  <SCORE.INTRA.norm>
-0.415972

>  <SCORE.RESTR>
0.0338599

>  <SCORE.RESTR.CAVITY>
0.0338599

>  <SCORE.RESTR.norm>
0.00109226

>  <SCORE.SYSTEM>
0

>  <SCORE.SYSTEM.CONST>
0

>  <SCORE.SYSTEM.DIHEDRAL>
0

>  <SCORE.SYSTEM.SOLV>
0

>  <SCORE.SYSTEM.norm>
0

>  <SCORE.heavy>
31

>  <SCORE.norm>
-0.868861

>  <RMSD>
16.758

$$$$
ligand
 OpenBabel11021811443D
libRbt.so/2013.1/901 2013/11/27
 31 32  0  0  0  0  0  0  0  0999 V2000
   20.2129   16.9234   45.1443 C   0  0  0  0  0  0  0  0  0  0  0  0
   20.0472   16.9402   46.6610 C   0  0  0  0  0  0  0  0  0  0  0  0
   21.0935   17.4562   47.4923 C   0  0  0  0  0  0  0  0  0  0  0  0
   20.9353   17.4661   48.8990 C   0  0  0  0  0  0  0  0  0  0  0  0
   19.7463   16.9758   49.4923 C   0  0  0  0  0  0  0  0  0  0  0  0
   18.7038   16.4700   48.6894 C   0  0  0  0  0  0  0  0  0  0  0  0
   18.8426   16.4499   47.2900 C   0  0  0  0  0  0  0  0  0  0  0  0
   20.8185   15.9991   44.6027 O   0  0  0  0  0  0  0  0  0  0  0  0
   16.8694   21.7692   36.0446 C   0  0  0  0  0  0  0  0  0  0  0  0
   16.7234   17.2912   42.6460 C   0  0  0  0  0  0  0  0  0  0  0  0
   20.3471   21.0395   47.4364 P   0  0  1  0  0  0  0  0  0  0  0  0
   17.3388   22.0324   38.3780 N   0  0  0  0  0  0  0  0  0  0  0  0
   19.5647   21.6862   48.5072 O   0  0  0  0  0  0  0  0  0  0  0  0
   19.6888   17.9409   44.3661 S   0  0  0  0  0  0  0  0  0  0  0  0
   16.6896   20.6611   42.5104 C   0  0  0  0  0  0  0  0  0  0  0  0
   17.3293   21.1810   37.2962 C   0  0  0  0  0  0  0  0  0  0  0  0
   20.7059   21.9358   46.3042 O   0  5  0  0  0  0  0  0  0  0  0  0
   17.4676   19.6141   42.1395 N   0  0  0  0  0  0  0  0  0  0  0  0
   17.6957   19.9387   37.3469 N   0  0  0  0  0  0  0  0  0  0  0  0
   21.5090   20.3235   48.0123 O   0  0  0  0  0  0  0  0  0  0  0  0
   17.5055   18.4963   43.0935 C   0  0  2  0  0  0  0  0  0  0  0  0
   18.1243   19.3855   38.5384 C   0  0  0  0  0  0  0  0  0  0  0  0
   18.4900   18.1014   38.5546 N   0  0  0  0  0  0  0  0  0  0  0  0
   18.2213   18.4483   44.3648 C   0  0  1  0  0  0  0  0  0  0  0  0
   18.1551   20.2189   39.7301 C   0  0  0  0  0  0  0  0  0  0  0  0
   15.5465   20.5497   42.1250 O   0  0  0  0  0  0  0  0  0  0  0  0
   17.6317   18.8440   45.6719 C   0  0  0  0  0  0  0  0  0  0  0  0
   17.7533   21.5292   39.5672 C   0  0  0  0  0  0  0  0  0  0  0  0
   18.0978   20.0647   46.3416 C   0  0  0  0  0  0  0  0  0  0  0  0
   18.5720   19.6596   41.0685 C   0  0  0  0  0  0  0  0  0  0  0  0
   19.4725   19.9363   46.7444 O   0  0  0  0  0  0  0  0  0  0  0  0
  1  2  1  0  0  0  0
  1  8  2  0  0  0  0
  1 14  1  0  0  0  0
  2  3  2  0  0  0  0
  2  7  1  0  0  0  0
  3  4  1  0  0  0  0
  4  5  2  0  0  0  0
  5  6  1  0  0  0  0
  6  7  2  0  0  0  0
  9 16  1  0  0  0  0
 10 21  1  0  0  0  0
 11 13  1  1  0  0  0
 11 17  1  0  0  0  0
 11 20  2  0  0  0  0
 11 31  1  0  0  0  0
 12 16  2  0  0  0  0
 12 28  1  0  0  0  0
 15 26  1  0  0  0  0
 15 18  1  0  0  0  0
 16 19  1  0  0  0  0
 18 30  1  0  0  0  0
 19 22  2  0  0  0  0
 21 18  1  6  0  0  0
 21 24  1  0  0  0  0
 22 23  1  0  0  0  0
 22 25  1  0  0  0  0
 24 14  1  1  0  0  0
 24 27  1  0  0  0  0
 25 28  2  0  0  0  0
 25 30  1  0  0  0  0
 27 29  1  0  0  0  0
 29 31  1  0  0  0  0
M  CHG  1  17  -1
M  END
>  <CHROM.1>
83.57763278,-53.44928868,-126.08961858,-89.87475683,106.15029769,-52.21001448
89.87218808,70.48909616,-114.06362893,-65.71723967,177.44433932,44.60924739
18.80139773,19.29410987,43.88148042,0.07810135,1.29094042,-3.02999385

>  <Name>
ligand

>  <RI>
0

>  <Rbt.Current_Directory>
/home/itssahil/PROJECTS/Mol_Feturizer/New_Systems/rnas/2HOO

>  <Rbt.Executable>
rbdock ($Id: //depot/dev/client3/rdock/2013.1/src/exe/rbdock.cxx#4 $)

>  <Rbt.Library>
libRbt.so (2013.1, Build901 2013/11/27)

>  <Rbt.Parameter_File>
/export/apps/rDock/src/rDock_2013.1_src/data/scripts/dock_solv.prm

>  <Rbt.Receptor>
prm/blind_docking_60.prm

>  <SCORE>
-23.7039

>  <SCORE.INTER>
-8.92627

>  <SCORE.INTER.CONST>
1

>  <SCORE.INTER.POLAR>
0

>  <SCORE.INTER.ROT>
12

>  <SCORE.INTER.SOLV>
9.26718

>  <SCORE.INTER.VDW>
-20.6399

>  <SCORE.INTER.norm>
-0.287944

>  <SCORE.INTRA>
-14.8624

>  <SCORE.INTRA.DIHEDRAL>
2.87458

>  <SCORE.INTRA.DIHEDRAL.0>
14.6094

>  <SCORE.INTRA.POLAR>
0

>  <SCORE.INTRA.POLAR.0>
0

>  <SCORE.INTRA.REPUL>
0

>  <SCORE.INTRA.REPUL.0>
0

>  <SCORE.INTRA.SOLV>
0.842198

>  <SCORE.INTRA.SOLV.lig_0>
-65.6478

>  <SCORE.INTRA.VDW>
-16.7208

>  <SCORE.INTRA.VDW.0>
9.35535

>  <SCORE.INTRA.norm>
-0.479433

>  <SCORE.RESTR>
0.0847571

>  <SCORE.RESTR.CAVITY>
0.0847571

>  <SCORE.RESTR.norm>
0.0027341

>  <SCORE.SYSTEM>
0

>  <SCORE.SYSTEM.CONST>
0

>  <SCORE.SYSTEM.DIHEDRAL>
0

>  <SCORE.SYSTEM.SOLV>
0

>  <SCORE.SYSTEM.norm>
0

>  <SCORE.heavy>
31

>  <SCORE.norm>
-0.764643

>  <RMSD>
16.780

$$$$
ligand
 OpenBabel11021811443D
libRbt.so/2013.1/901 2013/11/27
 31 32  0  0  0  0  0  0  0  0999 V2000
   21.3072   22.2359   46.8788 C   0  0  0  0  0  0  0  0  0  0  0  0
   22.1345   23.1222   47.8050 C   0  0  0  0  0  0  0  0  0  0  0  0
   23.5453   22.9085   47.9330 C   0  0  0  0  0  0  0  0  0  0  0  0
   24.3069   23.7319   48.7965 C   0  0  0  0  0  0  0  0  0  0  0  0
   23.6863   24.7719   49.5310 C   0  0  0  0  0  0  0  0  0  0  0  0
   22.3003   25.0006   49.4127 C   0  0  0  0  0  0  0  0  0  0  0  0
   21.5259   24.1921   48.5614 C   0  0  0  0  0  0  0  0  0  0  0  0
   20.4150   22.7306   46.1904 O   0  0  0  0  0  0  0  0  0  0  0  0
   24.4683   17.4860   51.0624 C   0  0  0  0  0  0  0  0  0  0  0  0
   18.4105   19.7834   46.2790 C   0  0  0  0  0  0  0  0  0  0  0  0
   18.3932   19.3059   42.1876 P   0  0  1  0  0  0  0  0  0  0  0  0
   22.8272   18.5668   49.6938 N   0  0  0  0  0  0  0  0  0  0  0  0
   17.5620   20.4795   42.5169 O   0  0  0  0  0  0  0  0  0  0  0  0
   21.5480   20.8750   46.8039 S   0  0  0  0  0  0  0  0  0  0  0  0
   20.1836   16.8143   45.7141 C   0  0  0  0  0  0  0  0  0  0  0  0
   23.2001   17.4142   50.3477 C   0  0  0  0  0  0  0  0  0  0  0  0
   17.7055   17.9960   42.3466 O   0  5  0  0  0  0  0  0  0  0  0  0
   19.7230   17.6962   46.6356 N   0  0  0  0  0  0  0  0  0  0  0  0
   22.5007   16.3229   50.3513 N   0  0  0  0  0  0  0  0  0  0  0  0
   19.0250   19.4823   40.8594 O   0  0  0  0  0  0  0  0  0  0  0  0
   19.7527   19.1058   46.2194 C   0  0  2  0  0  0  0  0  0  0  0  0
   21.3025   16.2596   49.6660 C   0  0  0  0  0  0  0  0  0  0  0  0
   20.6106   15.1178   49.6878 N   0  0  0  0  0  0  0  0  0  0  0  0
   20.9196   19.8741   45.7966 C   0  0  1  0  0  0  0  0  0  0  0  0
   20.8431   17.4347   48.9422 C   0  0  0  0  0  0  0  0  0  0  0  0
   21.3319   16.4867   45.9181 O   0  0  0  0  0  0  0  0  0  0  0  0
   21.5457   19.7716   44.4511 C   0  0  0  0  0  0  0  0  0  0  0  0
   21.6568   18.5474   49.0090 C   0  0  0  0  0  0  0  0  0  0  0  0
   20.7442   20.0462   43.2520 C   0  0  0  0  0  0  0  0  0  0  0  0
   19.5649   17.4124   48.1400 C   0  0  0  0  0  0  0  0  0  0  0  0
   19.5796   19.2033   43.2088 O   0  0  0  0  0  0  0  0  0  0  0  0
  1  2  1  0  0  0  0
  1  8  2  0  0  0  0
  1 14  1  0  0  0  0
  2  3  2  0  0  0  0
  2  7  1  0  0  0  0
  3  4  1  0  0  0  0
  4  5  2  0  0  0  0
  5  6  1  0  0  0  0
  6  7  2  0  0  0  0
  9 16  1  0  0  0  0
 10 21  1  0  0  0  0
 11 13  1  1  0  0  0
 11 17  1  0  0  0  0
 11 20  2  0  0  0  0
 11 31  1  0  0  0  0
 12 16  2  0  0  0  0
 12 28  1  0  0  0  0
 15 26  1  0  0  0  0
 15 18  1  0  0  0  0
 16 19  1  0  0  0  0
 18 30  1  0  0  0  0
 19 22  2  0  0  0  0
 21 18  1  1  0  0  0
 21 24  1  0  0  0  0
 22 23  1  0  0  0  0
 22 25  1  0  0  0  0
 24 14  1  6  0  0  0
 24 27  1  0  0  0  0
 25 28  2  0  0  0  0
 25 30  1  0  0  0  0
 27 29  1  0  0  0  0
 29 31  1  0  0  0  0
M  CHG  1  17  -1
M  END
>  <CHROM.1>
-139.90860679,-172.02784896,-96.39614587,98.60416754,123.04003361,76.97382782
75.94996689,-121.39958010,-119.46658079,-56.27567490,172.23596713,-73.60141012
20.87001659,19.62146098,46.56326510,-0.20238055,-1.02800648,-0.36207412

>  <Name>
ligand

>  <RI>
0

>  <Rbt.Current_Directory>
/home/itssahil/PROJECTS/Mol_Feturizer/New_Systems/rnas/2HOO

>  <Rbt.Executable>
rbdock ($Id: //depot/dev/client3/rdock/2013.1/src/exe/rbdock.cxx#4 $)

>  <Rbt.Library>
libRbt.so (2013.1, Build901 2013/11/27)

>  <Rbt.Parameter_File>
/export/apps/rDock/src/rDock_2013.1_src/data/scripts/dock_solv.prm

>  <Rbt.Receptor>
prm/blind_docking_80.prm

>  <SCORE>
-26.4622

>  <SCORE.INTER>
-10.7436

>  <SCORE.INTER.CONST>
1

>  <SCORE.INTER.POLAR>
0

>  <SCORE.INTER.ROT>
12

>  <SCORE.INTER.SOLV>
11.2757

>  <SCORE.INTER.VDW>
-22.521

>  <SCORE.INTER.norm>
-0.346567

>  <SCORE.INTRA>
-15.7431

>  <SCORE.INTRA.DIHEDRAL>
-2.41365

>  <SCORE.INTRA.DIHEDRAL.0>
14.6094

>  <SCORE.INTRA.POLAR>
0

>  <SCORE.INTRA.POLAR.0>
0

>  <SCORE.INTRA.REPUL>
0

>  <SCORE.INTRA.REPUL.0>
0

>  <SCORE.INTRA.SOLV>
1.68976

>  <SCORE.INTRA.SOLV.lig_0>
-65.6478

>  <SCORE.INTRA.VDW>
-15.3811

>  <SCORE.INTRA.VDW.0>
9.35535

>  <SCORE.INTRA.norm>
-0.507842

>  <SCORE.RESTR>
0.0244885

>  <SCORE.RESTR.CAVITY>
0.0244885

>  <SCORE.RESTR.norm>
0.000789952

>  <SCORE.SYSTEM>
0

>  <SCORE.SYSTEM.CONST>
0

>  <SCORE.SYSTEM.DIHEDRAL>
0

>  <SCORE.SYSTEM.SOLV>
0

>  <SCORE.SYSTEM.norm>
0

>  <SCORE.heavy>
31

>  <SCORE.norm>
-0.853619

>  <RMSD>
16.906

$$$$
ligand
 OpenBabel11021811443D
libRbt.so/2013.1/901 2013/11/27
 31 32  0  0  0  0  0  0  0  0999 V2000
   21.5370   20.8051   46.5079 C   0  0  0  0  0  0  0  0  0  0  0  0
   21.3386   22.0504   47.3669 C   0  0  0  0  0  0  0  0  0  0  0  0
   22.3475   23.0669   47.4024 C   0  0  0  0  0  0  0  0  0  0  0  0
   22.1592   24.2184   48.2038 C   0  0  0  0  0  0  0  0  0  0  0  0
   20.9765   24.3780   48.9667 C   0  0  0  0  0  0  0  0  0  0  0  0
   19.9705   23.3908   48.9390 C   0  0  0  0  0  0  0  0  0  0  0  0
   20.1396   22.2386   48.1505 C   0  0  0  0  0  0  0  0  0  0  0  0
   22.3218   19.9285   46.8688 O   0  0  0  0  0  0  0  0  0  0  0  0
   17.2928   21.4037   36.7309 C   0  0  0  0  0  0  0  0  0  0  0  0
   19.8057   17.3768   44.1428 C   0  0  0  0  0  0  0  0  0  0  0  0
   19.4022   17.2275   48.8161 P   0  0  1  0  0  0  0  0  0  0  0  0
   17.2985   21.5678   39.1199 N   0  0  0  0  0  0  0  0  0  0  0  0
   18.9304   17.9340   50.0223 O   0  0  0  0  0  0  0  0  0  0  0  0
   20.8426   20.6488   45.3209 S   0  0  0  0  0  0  0  0  0  0  0  0
   20.6184   19.3173   41.8172 C   0  0  0  0  0  0  0  0  0  0  0  0
   17.5194   20.7670   38.0221 C   0  0  0  0  0  0  0  0  0  0  0  0
   20.8819   17.1758   48.6679 O   0  5  0  0  0  0  0  0  0  0  0  0
   19.4585   19.2299   42.5143 N   0  0  0  0  0  0  0  0  0  0  0  0
   17.9021   19.5305   38.0908 N   0  0  0  0  0  0  0  0  0  0  0  0
   18.7530   15.9000   48.7133 O   0  0  0  0  0  0  0  0  0  0  0  0
   19.6069   18.8527   43.9274 C   0  0  2  0  0  0  0  0  0  0  0  0
   18.1087   18.9310   39.3185 C   0  0  0  0  0  0  0  0  0  0  0  0
   18.4985   17.6543   39.3515 N   0  0  0  0  0  0  0  0  0  0  0  0
   19.6020   19.7461   45.0818 C   0  0  1  0  0  0  0  0  0  0  0  0
   17.8881   19.7092   40.5275 C   0  0  0  0  0  0  0  0  0  0  0  0
   20.5908   20.1897   40.9771 O   0  0  0  0  0  0  0  0  0  0  0  0
   18.4854   19.8424   46.0599 C   0  0  0  0  0  0  0  0  0  0  0  0
   17.4903   21.0180   40.3447 C   0  0  0  0  0  0  0  0  0  0  0  0
   18.6998   19.4313   47.4530 C   0  0  0  0  0  0  0  0  0  0  0  0
   18.0551   19.0966   41.8966 C   0  0  0  0  0  0  0  0  0  0  0  0
   18.9510   18.0177   47.5383 O   0  0  0  0  0  0  0  0  0  0  0  0
  1  2  1  0  0  0  0
  1  8  2  0  0  0  0
  1 14  1  0  0  0  0
  2  3  2  0  0  0  0
  2  7  1  0  0  0  0
  3  4  1  0  0  0  0
  4  5  2  0  0  0  0
  5  6  1  0  0  0  0
  6  7  2  0  0  0  0
  9 16  1  0  0  0  0
 10 21  1  0  0  0  0
 11 13  1  1  0  0  0
 11 17  1  0  0  0  0
 11 20  2  0  0  0  0
 11 31  1  0  0  0  0
 12 16  2  0  0  0  0
 12 28  1  0  0  0  0
 15 26  1  0  0  0  0
 15 18  1  0  0  0  0
 16 19  1  0  0  0  0
 18 30  1  0  0  0  0
 19 22  2  0  0  0  0
 21 18  1  6  0  0  0
 21 24  1  0  0  0  0
 22 23  1  0  0  0  0
 22 25  1  0  0  0  0
 24 14  1  1  0  0  0
 24 27  1  0  0  0  0
 25 28  2  0  0  0  0
 25 30  1  0  0  0  0
 27 29  1  0  0  0  0
 29 31  1  0  0  0  0
M  CHG  1  17  -1
M  END
>  <CHROM.1>
74.41899394,-102.76552705,-130.88104243,-145.71145634,-79.77994236,-28.50600225
105.94830583,-64.75808618,91.34278120,-65.76937218,171.79715520,27.09965692
19.56726719,19.80646174,44.64298942,-0.92501999,-1.18449018,-0.93769902

>  <Name>
ligand

>  <RI>
0

>  <Rbt.Current_Directory>
/home/itssahil/PROJECTS/Mol_Feturizer/New_Systems/rnas/2HOO

>  <Rbt.Executable>
rbdock ($Id: //depot/dev/client3/rdock/2013.1/src/exe/rbdock.cxx#4 $)

>  <Rbt.Library>
libRbt.so (2013.1, Build901 2013/11/27)

>  <Rbt.Parameter_File>
/export/apps/rDock/src/rDock_2013.1_src/data/scripts/dock_solv.prm

>  <Rbt.Receptor>
prm/blind_docking_60.prm

>  <SCORE>
-20.6971

>  <SCORE.INTER>
-10.0754

>  <SCORE.INTER.CONST>
1

>  <SCORE.INTER.POLAR>
0

>  <SCORE.INTER.ROT>
12

>  <SCORE.INTER.SOLV>
12.1841

>  <SCORE.INTER.VDW>
-22.3783

>  <SCORE.INTER.norm>
-0.325013

>  <SCORE.INTRA>
-10.6257

>  <SCORE.INTRA.DIHEDRAL>
5.09719

>  <SCORE.INTRA.DIHEDRAL.0>
14.6094

>  <SCORE.INTRA.POLAR>
0

>  <SCORE.INTRA.POLAR.0>
0

>  <SCORE.INTRA.REPUL>
0

>  <SCORE.INTRA.REPUL.0>
0

>  <SCORE.INTRA.SOLV>
2.41946

>  <SCORE.INTRA.SOLV.lig_0>
-65.6478

>  <SCORE.INTRA.VDW>
-14.384

>  <SCORE.INTRA.VDW.0>
9.35535

>  <SCORE.INTRA.norm>
-0.342764

>  <SCORE.RESTR>
0.00400276

>  <SCORE.RESTR.CAVITY>
0.00400276

>  <SCORE.RESTR.norm>
0.000129121

>  <SCORE.SYSTEM>
0

>  <SCORE.SYSTEM.CONST>
0

>  <SCORE.SYSTEM.DIHEDRAL>
0

>  <SCORE.SYSTEM.SOLV>
0

>  <SCORE.SYSTEM.norm>
0

>  <SCORE.heavy>
31

>  <SCORE.norm>
-0.667648

>  <RMSD>
17.241

$$$$
ligand
 OpenBabel11021811443D
libRbt.so/2013.1/901 2013/11/27
 31 32  0  0  0  0  0  0  0  0999 V2000
   20.3864   20.6606   45.5951 C   0  0  0  0  0  0  0  0  0  0  0  0
   20.5840   21.6339   46.7535 C   0  0  0  0  0  0  0  0  0  0  0  0
   21.7755   22.4254   46.8316 C   0  0  0  0  0  0  0  0  0  0  0  0
   21.9545   23.3241   47.9105 C   0  0  0  0  0  0  0  0  0  0  0  0
   20.9608   23.4530   48.9115 C   0  0  0  0  0  0  0  0  0  0  0  0
   19.7793   22.6866   48.8474 C   0  0  0  0  0  0  0  0  0  0  0  0
   19.5835   21.7867   47.7844 C   0  0  0  0  0  0  0  0  0  0  0  0
   21.3003   19.9058   45.2643 O   0  0  0  0  0  0  0  0  0  0  0  0
   19.5639   21.3722   35.5878 C   0  0  0  0  0  0  0  0  0  0  0  0
   16.8598   19.6731   42.3360 C   0  0  0  0  0  0  0  0  0  0  0  0
   18.9227   16.8322   48.7030 P   0  0  1  0  0  0  0  0  0  0  0  0
   18.7914   21.7134   37.8287 N   0  0  0  0  0  0  0  0  0  0  0  0
   20.2728   16.2422   48.6259 O   0  0  0  0  0  0  0  0  0  0  0  0
   19.1861   20.6170   44.9073 S   0  0  0  0  0  0  0  0  0  0  0  0
   19.0967   18.0665   41.0241 C   0  0  0  0  0  0  0  0  0  0  0  0
   19.7310   21.1229   37.0140 C   0  0  0  0  0  0  0  0  0  0  0  0
   17.8730   15.9111   49.2169 O   0  5  0  0  0  0  0  0  0  0  0  0
   19.2295   19.2301   41.7078 N   0  0  0  0  0  0  0  0  0  0  0  0
   20.7093   20.3906   37.4464 N   0  0  0  0  0  0  0  0  0  0  0  0
   18.9704   18.1287   49.4179 O   0  0  0  0  0  0  0  0  0  0  0  0
   18.2683   19.4234   42.8031 C   0  0  2  0  0  0  0  0  0  0  0  0
   20.8580   20.1527   38.7994 C   0  0  0  0  0  0  0  0  0  0  0  0
   21.8748   19.3901   39.2086 N   0  0  0  0  0  0  0  0  0  0  0  0
   18.5446   19.3727   44.2355 C   0  0  1  0  0  0  0  0  0  0  0  0
   19.8997   20.7353   39.7256 C   0  0  0  0  0  0  0  0  0  0  0  0
   18.4476   18.1954   40.0095 O   0  0  0  0  0  0  0  0  0  0  0  0
   18.2624   18.1958   45.1005 C   0  0  0  0  0  0  0  0  0  0  0  0
   18.9013   21.5053   39.1642 C   0  0  0  0  0  0  0  0  0  0  0  0
   19.1249   17.9172   46.2556 C   0  0  0  0  0  0  0  0  0  0  0  0
   19.9848   20.4753   41.2099 C   0  0  0  0  0  0  0  0  0  0  0  0
   18.4157   17.1665   47.2566 O   0  0  0  0  0  0  0  0  0  0  0  0
  1  2  1  0  0  0  0
  1  8  2  0  0  0  0
  1 14  1  0  0  0  0
  2  3  2  0  0  0  0
  2  7  1  0  0  0  0
  3  4  1  0  0  0  0
  4  5  2  0  0  0  0
  5  6  1  0  0  0  0
  6  7  2  0  0  0  0
  9 16  1  0  0  0  0
 10 21  1  0  0  0  0
 11 13  1  6  0  0  0
 11 17  1  0  0  0  0
 11 20  2  0  0  0  0
 11 31  1  0  0  0  0
 12 16  2  0  0  0  0
 12 28  1  0  0  0  0
 15 26  1  0  0  0  0
 15 18  1  0  0  0  0
 16 19  1  0  0  0  0
 18 30  1  0  0  0  0
 19 22  2  0  0  0  0
 21 18  1  6  0  0  0
 21 24  1  0  0  0  0
 22 23  1  0  0  0  0
 22 25  1  0  0  0  0
 24 14  1  6  0  0  0
 24 27  1  0  0  0  0
 25 28  2  0  0  0  0
 25 30  1  0  0  0  0
 27 29  1  0  0  0  0
 29 31  1  0  0  0  0
M  CHG  1  17  -1
M  END
>  <CHROM.1>
46.66479872,-148.55585448,-121.32035409,96.66034794,-70.50486771,35.06969877
-101.74943280,-31.13512413,-88.64280987,154.84034521,-171.64940539,-51.11241685
19.52483373,19.69463194,43.98307728,-1.62459605,-1.17474049,-1.45307467

>  <Name>
ligand

>  <RI>
0

>  <Rbt.Current_Directory>
/home/itssahil/PROJECTS/Mol_Feturizer/New_Systems/rnas/2HOO

>  <Rbt.Executable>
rbdock ($Id: //depot/dev/client3/rdock/2013.1/src/exe/rbdock.cxx#4 $)

>  <Rbt.Library>
libRbt.so (2013.1, Build901 2013/11/27)

>  <Rbt.Parameter_File>
/export/apps/rDock/src/rDock_2013.1_src/data/scripts/dock_solv.prm

>  <Rbt.Receptor>
prm/blind_docking_80.prm

>  <SCORE>
-15.5574

>  <SCORE.INTER>
-5.45588

>  <SCORE.INTER.CONST>
1

>  <SCORE.INTER.POLAR>
0

>  <SCORE.INTER.ROT>
12

>  <SCORE.INTER.SOLV>
22.3206

>  <SCORE.INTER.VDW>
-22.6775

>  <SCORE.INTER.norm>
-0.175996

>  <SCORE.INTRA>
-10.1015

>  <SCORE.INTRA.DIHEDRAL>
2.57438

>  <SCORE.INTRA.DIHEDRAL.0>
14.6094

>  <SCORE.INTRA.POLAR>
0

>  <SCORE.INTRA.POLAR.0>
0

>  <SCORE.INTRA.REPUL>
0

>  <SCORE.INTRA.REPUL.0>
0

>  <SCORE.INTRA.SOLV>
2.07062

>  <SCORE.INTRA.SOLV.lig_0>
-65.6478

>  <SCORE.INTRA.VDW>
-12.424

>  <SCORE.INTRA.VDW.0>
9.35535

>  <SCORE.INTRA.norm>
-0.325855

>  <SCORE.RESTR>
0

>  <SCORE.RESTR.CAVITY>
0

>  <SCORE.RESTR.norm>
0

>  <SCORE.SYSTEM>
0

>  <SCORE.SYSTEM.CONST>
0

>  <SCORE.SYSTEM.DIHEDRAL>
0

>  <SCORE.SYSTEM.SOLV>
0

>  <SCORE.SYSTEM.norm>
0

>  <SCORE.heavy>
31

>  <SCORE.norm>
-0.501851

>  <RMSD>
17.419

$$$$
ligand
 OpenBabel11021811443D
libRbt.so/2013.1/901 2013/11/27
 31 32  0  0  0  0  0  0  0  0999 V2000
   18.3763   19.9414   46.9880 C   0  0  0  0  0  0  0  0  0  0  0  0
   19.4640   21.0001   47.1433 C   0  0  0  0  0  0  0  0  0  0  0  0
   19.2897   22.0787   48.0699 C   0  0  0  0  0  0  0  0  0  0  0  0
   20.3009   23.0597   48.2071 C   0  0  0  0  0  0  0  0  0  0  0  0
   21.4889   22.9800   47.4400 C   0  0  0  0  0  0  0  0  0  0  0  0
   21.6800   21.9223   46.5278 C   0  0  0  0  0  0  0  0  0  0  0  0
   20.6863   20.9388   46.3757 C   0  0  0  0  0  0  0  0  0  0  0  0
   17.9637   19.3350   47.9761 O   0  0  0  0  0  0  0  0  0  0  0  0
   20.5836   21.3519   36.9972 C   0  0  0  0  0  0  0  0  0  0  0  0
   19.7807   19.8655   42.8098 C   0  0  0  0  0  0  0  0  0  0  0  0
   20.2364   15.2186   43.1052 P   0  0  1  0  0  0  0  0  0  0  0  0
   19.2675   21.2299   38.9940 N   0  0  0  0  0  0  0  0  0  0  0  0
   20.9284   15.0037   41.8200 O   0  0  0  0  0  0  0  0  0  0  0  0
   17.8461   19.6521   45.7426 S   0  0  0  0  0  0  0  0  0  0  0  0
   16.4546   19.9910   42.4209 C   0  0  0  0  0  0  0  0  0  0  0  0
   19.9058   20.5322   37.9935 C   0  0  0  0  0  0  0  0  0  0  0  0
   18.7671   15.4233   42.9905 O   0  5  0  0  0  0  0  0  0  0  0  0
   17.4705   19.1055   42.2699 N   0  0  0  0  0  0  0  0  0  0  0  0
   19.9253   19.2389   37.9090 N   0  0  0  0  0  0  0  0  0  0  0  0
   20.6103   14.1598   44.0714 O   0  0  0  0  0  0  0  0  0  0  0  0
   18.5261   19.1874   43.2897 C   0  0  2  0  0  0  0  0  0  0  0  0
   19.2749   18.4679   38.8533 C   0  0  0  0  0  0  0  0  0  0  0  0
   19.3123   17.1386   38.7324 N   0  0  0  0  0  0  0  0  0  0  0  0
   18.4568   18.7120   44.6681 C   0  0  1  0  0  0  0  0  0  0  0  0
   18.5693   19.1314   39.9385 C   0  0  0  0  0  0  0  0  0  0  0  0
   16.6350   21.0153   41.7998 O   0  0  0  0  0  0  0  0  0  0  0  0
   18.9467   17.3820   45.1196 C   0  0  0  0  0  0  0  0  0  0  0  0
   18.6169   20.5108   39.9419 C   0  0  0  0  0  0  0  0  0  0  0  0
   20.3794   17.0695   45.0447 C   0  0  0  0  0  0  0  0  0  0  0  0
   17.8045   18.3444   40.9746 C   0  0  0  0  0  0  0  0  0  0  0  0
   20.7274   16.5647   43.7437 O   0  0  0  0  0  0  0  0  0  0  0  0
  1  2  1  0  0  0  0
  1  8  2  0  0  0  0
  1 14  1  0  0  0  0
  2  3  2  0  0  0  0
  2  7  1  0  0  0  0
  3  4  1  0  0  0  0
  4  5  2  0  0  0  0
  5  6  1  0  0  0  0
  6  7  2  0  0  0  0
  9 16  1  0  0  0  0
 10 21  1  0  0  0  0
 11 13  1  6  0  0  0
 11 17  1  0  0  0  0
 11 20  2  0  0  0  0
 11 31  1  0  0  0  0
 12 16  2  0  0  0  0
 12 28  1  0  0  0  0
 15 26  1  0  0  0  0
 15 18  1  0  0  0  0
 16 19  1  0  0  0  0
 18 30  1  0  0  0  0
 19 22  2  0  0  0  0
 21 18  1  1  0  0  0
 21 24  1  0  0  0  0
 22 23  1  0  0  0  0
 22 25  1  0  0  0  0
 24 14  1  1  0  0  0
 24 27  1  0  0  0  0
 25 28  2  0  0  0  0
 25 30  1  0  0  0  0
 27 29  1  0  0  0  0
 29 31  1  0  0  0  0
M  CHG  1  17  -1
M  END
>  <CHROM.1>
-54.10531791,82.08807745,-132.81606739,92.66565369,-103.61061973,79.55624756
93.30553334,-114.47414512,162.43353889,-85.89183944,-65.31759095,-174.24417825
19.25997497,18.94511490,43.20102317,1.52651935,-1.44279146,1.28809347

>  <Name>
ligand

>  <RI>
0

>  <Rbt.Current_Directory>
/home/itssahil/PROJECTS/Mol_Feturizer/New_Systems/rnas/2HOO

>  <Rbt.Executable>
rbdock ($Id: //depot/dev/client3/rdock/2013.1/src/exe/rbdock.cxx#4 $)

>  <Rbt.Library>
libRbt.so (2013.1, Build901 2013/11/27)

>  <Rbt.Parameter_File>
/export/apps/rDock/src/rDock_2013.1_src/data/scripts/dock_solv.prm

>  <Rbt.Receptor>
prm/blind_docking_60.prm

>  <SCORE>
-18.3477

>  <SCORE.INTER>
-7.68433

>  <SCORE.INTER.CONST>
1

>  <SCORE.INTER.POLAR>
0

>  <SCORE.INTER.ROT>
12

>  <SCORE.INTER.SOLV>
8.71722

>  <SCORE.INTER.VDW>
-19.6286

>  <SCORE.INTER.norm>
-0.247881

>  <SCORE.INTRA>
-10.8585

>  <SCORE.INTRA.DIHEDRAL>
2.90675

>  <SCORE.INTRA.DIHEDRAL.0>
14.6094

>  <SCORE.INTRA.POLAR>
0

>  <SCORE.INTRA.POLAR.0>
0

>  <SCORE.INTRA.REPUL>
0

>  <SCORE.INTRA.REPUL.0>
0

>  <SCORE.INTRA.SOLV>
3.18344

>  <SCORE.INTRA.SOLV.lig_0>
-65.6478

>  <SCORE.INTRA.VDW>
-13.9036

>  <SCORE.INTRA.VDW.0>
9.35535

>  <SCORE.INTRA.norm>
-0.350275

>  <SCORE.RESTR>
0.195155

>  <SCORE.RESTR.CAVITY>
0.195155

>  <SCORE.RESTR.norm>
0.00629531

>  <SCORE.SYSTEM>
0

>  <SCORE.SYSTEM.CONST>
0

>  <SCORE.SYSTEM.DIHEDRAL>
0

>  <SCORE.SYSTEM.SOLV>
0

>  <SCORE.SYSTEM.norm>
0

>  <SCORE.heavy>
31

>  <SCORE.norm>
-0.591861

>  <RMSD>
17.481

$$$$
ligand
 OpenBabel11021811443D
libRbt.so/2013.1/901 2013/11/27
 31 32  0  0  0  0  0  0  0  0999 V2000
   21.2166   20.7170   45.4161 C   0  0  0  0  0  0  0  0  0  0  0  0
   21.1886   20.9767   46.9194 C   0  0  0  0  0  0  0  0  0  0  0  0
   20.1312   21.7533   47.4947 C   0  0  0  0  0  0  0  0  0  0  0  0
   20.1126   21.9936   48.8896 C   0  0  0  0  0  0  0  0  0  0  0  0
   21.1283   21.4659   49.7239 C   0  0  0  0  0  0  0  0  0  0  0  0
   22.1731   20.6944   49.1757 C   0  0  0  0  0  0  0  0  0  0  0  0
   22.2103   20.4459   47.7920 C   0  0  0  0  0  0  0  0  0  0  0  0
   22.2226   20.9934   44.7635 O   0  0  0  0  0  0  0  0  0  0  0  0
   21.2150   19.7660   35.8739 C   0  0  0  0  0  0  0  0  0  0  0  0
   19.5507   16.9713   42.5112 C   0  0  0  0  0  0  0  0  0  0  0  0
   19.8678   16.8001   48.5199 P   0  0  1  0  0  0  0  0  0  0  0  0
   21.5674   19.1807   38.1690 N   0  0  0  0  0  0  0  0  0  0  0  0
   20.1423   15.7369   49.5054 O   0  0  0  0  0  0  0  0  0  0  0  0
   20.1181   20.1727   44.7736 S   0  0  0  0  0  0  0  0  0  0  0  0
   17.6312   19.4842   41.9766 C   0  0  0  0  0  0  0  0  0  0  0  0
   20.8489   19.9406   37.2737 C   0  0  0  0  0  0  0  0  0  0  0  0
   18.6644   17.6235   48.8166 O   0  5  0  0  0  0  0  0  0  0  0  0
   18.9796   19.3443   42.0126 N   0  0  0  0  0  0  0  0  0  0  0  0
   19.9067   20.7638   37.6124 N   0  0  0  0  0  0  0  0  0  0  0  0
   21.0884   17.6049   48.2816 O   0  0  0  0  0  0  0  0  0  0  0  0
   19.4812   18.3889   43.0108 C   0  0  2  0  0  0  0  0  0  0  0  0
   19.5692   20.9295   38.9420 C   0  0  0  0  0  0  0  0  0  0  0  0
   18.5966   21.7893   39.2547 N   0  0  0  0  0  0  0  0  0  0  0  0
   19.9189   18.6862   44.3713 C   0  0  1  0  0  0  0  0  0  0  0  0
   20.2889   20.1677   39.9507 C   0  0  0  0  0  0  0  0  0  0  0  0
   17.2354   20.3618   42.7118 O   0  0  0  0  0  0  0  0  0  0  0  0
   20.2014   17.6529   45.4035 C   0  0  0  0  0  0  0  0  0  0  0  0
   21.2673   19.3130   39.4849 C   0  0  0  0  0  0  0  0  0  0  0  0
   19.1013   16.8467   45.9473 C   0  0  0  0  0  0  0  0  0  0  0  0
   19.9950   20.3384   41.4212 C   0  0  0  0  0  0  0  0  0  0  0  0
   19.5140   16.1508   47.1364 O   0  0  0  0  0  0  0  0  0  0  0  0
  1  2  1  0  0  0  0
  1  8  2  0  0  0  0
  1 14  1  0  0  0  0
  2  3  2  0  0  0  0
  2  7  1  0  0  0  0
  3  4  1  0  0  0  0
  4  5  2  0  0  0  0
  5  6  1  0  0  0  0
  6  7  2  0  0  0  0
  9 16  1  0  0  0  0
 10 21  1  0  0  0  0
 11 13  1  1  0  0  0
 11 17  1  0  0  0  0
 11 20  2  0  0  0  0
 11 31  1  0  0  0  0
 12 16  2  0  0  0  0
 12 28  1  0  0  0  0
 15 26  1  0  0  0  0
 15 18  1  0  0  0  0
 16 19  1  0  0  0  0
 18 30  1  0  0  0  0
 19 22  2  0  0  0  0
 21 18  1  6  0  0  0
 21 24  1  0  0  0  0
 22 23  1  0  0  0  0
 22 25  1  0  0  0  0
 24 14  1  6  0  0  0
 24 27  1  0  0  0  0
 25 28  2  0  0  0  0
 25 30  1  0  0  0  0
 27 29  1  0  0  0  0
 29 31  1  0  0  0  0
M  CHG  1  17  -1
M  END
>  <CHROM.1>
126.34334426,-99.25152912,-131.42371108,90.51276805,87.46960481,-84.57874808
167.61097077,112.68277829,94.07529253,-166.05901346,68.00668118,175.68334379
20.11017756,19.28417474,44.19474889,-1.49410369,-1.26038691,-1.33170552

>  <Name>
ligand

>  <RI>
0

>  <Rbt.Current_Directory>
/home/itssahil/PROJECTS/Mol_Feturizer/New_Systems/rnas/2HOO

>  <Rbt.Executable>
rbdock ($Id: //depot/dev/client3/rdock/2013.1/src/exe/rbdock.cxx#4 $)

>  <Rbt.Library>
libRbt.so (2013.1, Build901 2013/11/27)

>  <Rbt.Parameter_File>
/export/apps/rDock/src/rDock_2013.1_src/data/scripts/dock_solv.prm

>  <Rbt.Receptor>
prm/blind_docking_80.prm

>  <SCORE>
-18.4026

>  <SCORE.INTER>
-7.86044

>  <SCORE.INTER.CONST>
1

>  <SCORE.INTER.POLAR>
0

>  <SCORE.INTER.ROT>
12

>  <SCORE.INTER.SOLV>
13.8861

>  <SCORE.INTER.VDW>
-21.469

>  <SCORE.INTER.norm>
-0.253562

>  <SCORE.INTRA>
-10.5421

>  <SCORE.INTRA.DIHEDRAL>
2.4721

>  <SCORE.INTRA.DIHEDRAL.0>
14.6094

>  <SCORE.INTRA.POLAR>
0

>  <SCORE.INTRA.POLAR.0>
0

>  <SCORE.INTRA.REPUL>
0

>  <SCORE.INTRA.REPUL.0>
0

>  <SCORE.INTRA.SOLV>
4.18427

>  <SCORE.INTRA.SOLV.lig_0>
-65.6478

>  <SCORE.INTRA.VDW>
-13.8703

>  <SCORE.INTRA.VDW.0>
9.35535

>  <SCORE.INTRA.norm>
-0.340069

>  <SCORE.RESTR>
0

>  <SCORE.RESTR.CAVITY>
0

>  <SCORE.RESTR.norm>
0

>  <SCORE.SYSTEM>
0

>  <SCORE.SYSTEM.CONST>
0

>  <SCORE.SYSTEM.DIHEDRAL>
0

>  <SCORE.SYSTEM.SOLV>
0

>  <SCORE.SYSTEM.norm>
0

>  <SCORE.heavy>
31

>  <SCORE.norm>
-0.593631

>  <RMSD>
17.702

$$$$
ligand
 OpenBabel11021811443D
libRbt.so/2013.1/901 2013/11/27
 31 32  0  0  0  0  0  0  0  0999 V2000
   22.4197   18.4897   48.8738 C   0  0  0  0  0  0  0  0  0  0  0  0
   21.9252   17.1060   49.2847 C   0  0  0  0  0  0  0  0  0  0  0  0
   20.8850   16.4637   48.5379 C   0  0  0  0  0  0  0  0  0  0  0  0
   20.4281   15.1814   48.9261 C   0  0  0  0  0  0  0  0  0  0  0  0
   20.9965   14.5236   50.0444 C   0  0  0  0  0  0  0  0  0  0  0  0
   22.0251   15.1381   50.7871 C   0  0  0  0  0  0  0  0  0  0  0  0
   22.4915   16.4126   50.4186 C   0  0  0  0  0  0  0  0  0  0  0  0
   23.0582   19.1758   49.6713 O   0  0  0  0  0  0  0  0  0  0  0  0
   17.9157   21.5036   38.9631 C   0  0  0  0  0  0  0  0  0  0  0  0
   18.8695   19.8252   46.4844 C   0  0  0  0  0  0  0  0  0  0  0  0
   23.9252   24.0423   49.3530 P   0  0  1  0  0  0  0  0  0  0  0  0
   19.7139   20.8896   40.4204 N   0  0  0  0  0  0  0  0  0  0  0  0
   25.0581   23.8320   48.4316 O   0  0  0  0  0  0  0  0  0  0  0  0
   22.1564   18.9861   47.6088 S   0  0  0  0  0  0  0  0  0  0  0  0
   21.7237   20.8535   44.3961 C   0  0  0  0  0  0  0  0  0  0  0  0
   18.3539   20.8835   40.2071 C   0  0  0  0  0  0  0  0  0  0  0  0
   24.0382   23.3190   50.6484 O   0  5  0  0  0  0  0  0  0  0  0  0
   20.5979   20.1724   44.7242 N   0  0  0  0  0  0  0  0  0  0  0  0
   17.4923   20.3727   41.0298 N   0  0  0  0  0  0  0  0  0  0  0  0
   23.6535   25.4902   49.5083 O   0  0  0  0  0  0  0  0  0  0  0  0
   20.3156   20.0907   46.1645 C   0  0  2  0  0  0  0  0  0  0  0  0
   17.9141   19.7923   42.2107 C   0  0  0  0  0  0  0  0  0  0  0  0
   16.9984   19.2799   43.0365 N   0  0  0  0  0  0  0  0  0  0  0  0
   21.2750   20.2152   47.2577 C   0  0  1  0  0  0  0  0  0  0  0  0
   19.3366   19.7666   42.5133 C   0  0  0  0  0  0  0  0  0  0  0  0
   22.3207   20.3464   43.4721 O   0  0  0  0  0  0  0  0  0  0  0  0
   21.4587   21.4458   48.0730 C   0  0  0  0  0  0  0  0  0  0  0  0
   20.1702   20.3291   41.5680 C   0  0  0  0  0  0  0  0  0  0  0  0
   22.5562   22.3697   47.7604 C   0  0  0  0  0  0  0  0  0  0  0  0
   19.8536   19.1858   43.8068 C   0  0  0  0  0  0  0  0  0  0  0  0
   22.6225   23.4336   48.7259 O   0  0  0  0  0  0  0  0  0  0  0  0
  1  2  1  0  0  0  0
  1  8  2  0  0  0  0
  1 14  1  0  0  0  0
  2  3  2  0  0  0  0
  2  7  1  0  0  0  0
  3  4  1  0  0  0  0
  4  5  2  0  0  0  0
  5  6  1  0  0  0  0
  6  7  2  0  0  0  0
  9 16  1  0  0  0  0
 10 21  1  0  0  0  0
 11 13  1  6  0  0  0
 11 17  1  0  0  0  0
 11 20  2  0  0  0  0
 11 31  1  0  0  0  0
 12 16  2  0  0  0  0
 12 28  1  0  0  0  0
 15 26  1  0  0  0  0
 15 18  1  0  0  0  0
 16 19  1  0  0  0  0
 18 30  1  0  0  0  0
 19 22  2  0  0  0  0
 21 18  1  6  0  0  0
 21 24  1  0  0  0  0
 22 23  1  0  0  0  0
 22 25  1  0  0  0  0
 24 14  1  1  0  0  0
 24 27  1  0  0  0  0
 25 28  2  0  0  0  0
 25 30  1  0  0  0  0
 27 29  1  0  0  0  0
 29 31  1  0  0  0  0
M  CHG  1  17  -1
M  END
>  <CHROM.1>
162.30996504,114.85727579,-134.54843237,141.66929885,157.73655050,-60.25375949
99.46080660,82.03864251,-118.00052240,-175.44227619,139.07123031,25.15983086
21.27160519,20.25914292,46.41064936,0.47132277,1.01104210,2.53901221

>  <Name>
ligand

>  <RI>
0

>  <Rbt.Current_Directory>
/home/itssahil/PROJECTS/Mol_Feturizer/New_Systems/rnas/2HOO

>  <Rbt.Executable>
rbdock ($Id: //depot/dev/client3/rdock/2013.1/src/exe/rbdock.cxx#4 $)

>  <Rbt.Library>
libRbt.so (2013.1, Build901 2013/11/27)

>  <Rbt.Parameter_File>
/export/apps/rDock/src/rDock_2013.1_src/data/scripts/dock_solv.prm

>  <Rbt.Receptor>
prm/blind_docking_80.prm

>  <SCORE>
-20.5744

>  <SCORE.INTER>
-15.5668

>  <SCORE.INTER.CONST>
1

>  <SCORE.INTER.POLAR>
0

>  <SCORE.INTER.ROT>
12

>  <SCORE.INTER.SOLV>
16.1357

>  <SCORE.INTER.VDW>
-27.3564

>  <SCORE.INTER.norm>
-0.502153

>  <SCORE.INTRA>
-5.1361

>  <SCORE.INTRA.DIHEDRAL>
10.3529

>  <SCORE.INTRA.DIHEDRAL.0>
14.6094

>  <SCORE.INTRA.POLAR>
0

>  <SCORE.INTRA.POLAR.0>
0

>  <SCORE.INTRA.REPUL>
0

>  <SCORE.INTRA.REPUL.0>
0

>  <SCORE.INTRA.SOLV>
0.309437

>  <SCORE.INTRA.SOLV.lig_0>
-65.6478

>  <SCORE.INTRA.VDW>
-10.4673

>  <SCORE.INTRA.VDW.0>
9.35535

>  <SCORE.INTRA.norm>
-0.165681

>  <SCORE.RESTR>
0.128443

>  <SCORE.RESTR.CAVITY>
0.128443

>  <SCORE.RESTR.norm>
0.00414334

>  <SCORE.SYSTEM>
0

>  <SCORE.SYSTEM.CONST>
0

>  <SCORE.SYSTEM.DIHEDRAL>
0

>  <SCORE.SYSTEM.SOLV>
0

>  <SCORE.SYSTEM.norm>
0

>  <SCORE.heavy>
31

>  <SCORE.norm>
-0.663691

>  <RMSD>
17.705

$$$$
ligand
 OpenBabel11021811443D
libRbt.so/2013.1/901 2013/11/27
 31 32  0  0  0  0  0  0  0  0999 V2000
   23.4119   19.3014   50.3499 C   0  0  0  0  0  0  0  0  0  0  0  0
   24.3410   19.7537   51.4725 C   0  0  0  0  0  0  0  0  0  0  0  0
   25.6134   19.1203   51.6512 C   0  0  0  0  0  0  0  0  0  0  0  0
   26.4696   19.5422   52.6966 C   0  0  0  0  0  0  0  0  0  0  0  0
   26.0814   20.5919   53.5646 C   0  0  0  0  0  0  0  0  0  0  0  0
   24.8356   21.2307   53.3997 C   0  0  0  0  0  0  0  0  0  0  0  0
   23.9700   20.8248   52.3682 C   0  0  0  0  0  0  0  0  0  0  0  0
   23.0970   18.1157   50.2534 O   0  0  0  0  0  0  0  0  0  0  0  0
   16.2013   20.6828   41.9998 C   0  0  0  0  0  0  0  0  0  0  0  0
   22.2424   17.8612   47.4462 C   0  0  0  0  0  0  0  0  0  0  0  0
   21.6664   24.4508   49.3093 P   0  0  1  0  0  0  0  0  0  0  0  0
   17.0606   19.9065   44.0958 N   0  0  0  0  0  0  0  0  0  0  0  0
   22.9116   24.7745   50.0313 O   0  0  0  0  0  0  0  0  0  0  0  0
   22.9174   20.2128   49.4331 S   0  0  0  0  0  0  0  0  0  0  0  0
   21.9267   20.7200   45.5015 C   0  0  0  0  0  0  0  0  0  0  0  0
   17.3286   20.1773   42.7729 C   0  0  0  0  0  0  0  0  0  0  0  0
   20.4446   25.0955   49.8624 O   0  5  0  0  0  0  0  0  0  0  0  0
   21.2667   19.6535   46.0171 N   0  0  0  0  0  0  0  0  0  0  0  0
   18.4875   20.0079   42.2176 N   0  0  0  0  0  0  0  0  0  0  0  0
   21.8442   24.6748   47.8559 O   0  0  0  0  0  0  0  0  0  0  0  0
   21.6836   19.2562   47.3697 C   0  0  2  0  0  0  0  0  0  0  0  0
   19.5503   19.5218   42.9547 C   0  0  0  0  0  0  0  0  0  0  0  0
   20.7286   19.3558   42.3489 N   0  0  0  0  0  0  0  0  0  0  0  0
   21.6269   20.0676   48.5819 C   0  0  1  0  0  0  0  0  0  0  0  0
   19.3452   19.2034   44.3592 C   0  0  0  0  0  0  0  0  0  0  0  0
   21.4084   21.7742   45.7972 O   0  0  0  0  0  0  0  0  0  0  0  0
   20.4036   20.7606   49.0678 C   0  0  0  0  0  0  0  0  0  0  0  0
   18.0771   19.4279   44.8553 C   0  0  0  0  0  0  0  0  0  0  0  0
   20.2583   22.2079   48.8679 C   0  0  0  0  0  0  0  0  0  0  0  0
   20.4560   18.6286   45.2040 C   0  0  0  0  0  0  0  0  0  0  0  0
   21.3549   22.9213   49.4655 O   0  0  0  0  0  0  0  0  0  0  0  0
  1  2  1  0  0  0  0
  1  8  2  0  0  0  0
  1 14  1  0  0  0  0
  2  3  2  0  0  0  0
  2  7  1  0  0  0  0
  3  4  1  0  0  0  0
  4  5  2  0  0  0  0
  5  6  1  0  0  0  0
  6  7  2  0  0  0  0
  9 16  1  0  0  0  0
 10 21  1  0  0  0  0
 11 13  1  1  0  0  0
 11 17  1  0  0  0  0
 11 20  2  0  0  0  0
 11 31  1  0  0  0  0
 12 16  2  0  0  0  0
 12 28  1  0  0  0  0
 15 26  1  0  0  0  0
 15 18  1  0  0  0  0
 16 19  1  0  0  0  0
 18 30  1  0  0  0  0
 19 22  2  0  0  0  0
 21 18  1  6  0  0  0
 21 24  1  0  0  0  0
 22 23  1  0  0  0  0
 22 25  1  0  0  0  0
 24 14  1  1  0  0  0
 24 27  1  0  0  0  0
 25 28  2  0  0  0  0
 25 30  1  0  0  0  0
 27 29  1  0  0  0  0
 29 31  1  0  0  0  0
M  CHG  1  17  -1
M  END
>  <CHROM.1>
54.12015923,-156.49924845,-80.68953677,-87.88791148,-118.60724049,-56.79044776
51.20708432,77.72101509,94.95237573,-57.37660716,171.33467630,-177.49127688
21.52095824,20.85642687,47.85052688,-0.47578631,0.88833578,-2.69169163

>  <Name>
ligand

>  <RI>
0

>  <Rbt.Current_Directory>
/home/itssahil/PROJECTS/Mol_Feturizer/New_Systems/rnas/2HOO

>  <Rbt.Executable>
rbdock ($Id: //depot/dev/client3/rdock/2013.1/src/exe/rbdock.cxx#4 $)

>  <Rbt.Library>
libRbt.so (2013.1, Build901 2013/11/27)

>  <Rbt.Parameter_File>
/export/apps/rDock/src/rDock_2013.1_src/data/scripts/dock_solv.prm

>  <Rbt.Receptor>
prm/blind_docking_80.prm

>  <SCORE>
-26.2431

>  <SCORE.INTER>
-15.8782

>  <SCORE.INTER.CONST>
1

>  <SCORE.INTER.POLAR>
0

>  <SCORE.INTER.ROT>
12

>  <SCORE.INTER.SOLV>
20.8564

>  <SCORE.INTER.VDW>
-29.1376

>  <SCORE.INTER.norm>
-0.512201

>  <SCORE.INTRA>
-10.3649

>  <SCORE.INTRA.DIHEDRAL>
1.26025

>  <SCORE.INTRA.DIHEDRAL.0>
14.6094

>  <SCORE.INTRA.POLAR>
0

>  <SCORE.INTRA.POLAR.0>
0

>  <SCORE.INTRA.REPUL>
0

>  <SCORE.INTRA.REPUL.0>
0

>  <SCORE.INTRA.SOLV>
2.91011

>  <SCORE.INTRA.SOLV.lig_0>
-65.6478

>  <SCORE.INTRA.VDW>
-12.4501

>  <SCORE.INTRA.VDW.0>
9.35535

>  <SCORE.INTRA.norm>
-0.334351

>  <SCORE.RESTR>
0

>  <SCORE.RESTR.CAVITY>
0

>  <SCORE.RESTR.norm>
0

>  <SCORE.SYSTEM>
0

>  <SCORE.SYSTEM.CONST>
0

>  <SCORE.SYSTEM.DIHEDRAL>
0

>  <SCORE.SYSTEM.SOLV>
0

>  <SCORE.SYSTEM.norm>
0

>  <SCORE.heavy>
31

>  <SCORE.norm>
-0.846552

>  <RMSD>
17.727

$$$$
ligand
 OpenBabel11021811443D
libRbt.so/2013.1/901 2013/11/27
 31 32  0  0  0  0  0  0  0  0999 V2000
   21.3984   21.9940   46.7493 C   0  0  0  0  0  0  0  0  0  0  0  0
   22.4739   22.1971   47.8124 C   0  0  0  0  0  0  0  0  0  0  0  0
   22.4076   21.4760   49.0485 C   0  0  0  0  0  0  0  0  0  0  0  0
   23.4066   21.6712   50.0322 C   0  0  0  0  0  0  0  0  0  0  0  0
   24.4771   22.5695   49.8016 C   0  0  0  0  0  0  0  0  0  0  0  0
   24.5617   23.2829   48.5886 C   0  0  0  0  0  0  0  0  0  0  0  0
   23.5779   23.1042   47.5995 C   0  0  0  0  0  0  0  0  0  0  0  0
   20.4694   22.7956   46.6544 O   0  0  0  0  0  0  0  0  0  0  0  0
   21.7007   19.0390   39.1966 C   0  0  0  0  0  0  0  0  0  0  0  0
   20.2905   17.4393   44.8233 C   0  0  0  0  0  0  0  0  0  0  0  0
   22.5525   16.3857   49.3002 P   0  0  1  0  0  0  0  0  0  0  0  0
   21.5526   19.4024   41.5588 N   0  0  0  0  0  0  0  0  0  0  0  0
   23.4323   16.3990   48.1158 O   0  0  0  0  0  0  0  0  0  0  0  0
   21.4541   20.9129   45.8869 S   0  0  0  0  0  0  0  0  0  0  0  0
   17.7390   19.1948   45.9237 C   0  0  0  0  0  0  0  0  0  0  0  0
   20.8838   19.3749   40.3559 C   0  0  0  0  0  0  0  0  0  0  0  0
   22.1020   15.0316   49.7216 O   0  5  0  0  0  0  0  0  0  0  0  0
   18.7268   19.3696   45.0112 N   0  0  0  0  0  0  0  0  0  0  0  0
   19.6188   19.6240   40.2227 N   0  0  0  0  0  0  0  0  0  0  0  0
   23.1600   17.1729   50.3982 O   0  0  0  0  0  0  0  0  0  0  0  0
   20.0321   18.8092   45.3898 C   0  0  2  0  0  0  0  0  0  0  0  0
   18.8515   19.9484   41.3252 C   0  0  0  0  0  0  0  0  0  0  0  0
   17.5525   20.2032   41.1502 N   0  0  0  0  0  0  0  0  0  0  0  0
   21.0591   19.4461   46.2086 C   0  0  1  0  0  0  0  0  0  0  0  0
   19.4872   20.0067   42.6322 C   0  0  0  0  0  0  0  0  0  0  0  0
   17.7905   20.0029   46.8246 O   0  0  0  0  0  0  0  0  0  0  0  0
   21.7678   18.7759   47.3317 C   0  0  0  0  0  0  0  0  0  0  0  0
   20.8360   19.7162   42.6666 C   0  0  0  0  0  0  0  0  0  0  0  0
   21.0488   18.4900   48.5795 C   0  0  0  0  0  0  0  0  0  0  0  0
   18.7107   20.3977   43.8659 C   0  0  0  0  0  0  0  0  0  0  0  0
   21.2044   17.1109   48.9572 O   0  0  0  0  0  0  0  0  0  0  0  0
  1  2  1  0  0  0  0
  1  8  2  0  0  0  0
  1 14  1  0  0  0  0
  2  3  2  0  0  0  0
  2  7  1  0  0  0  0
  3  4  1  0  0  0  0
  4  5  2  0  0  0  0
  5  6  1  0  0  0  0
  6  7  2  0  0  0  0
  9 16  1  0  0  0  0
 10 21  1  0  0  0  0
 11 13  1  6  0  0  0
 11 17  1  0  0  0  0
 11 20  2  0  0  0  0
 11 31  1  0  0  0  0
 12 16  2  0  0  0  0
 12 28  1  0  0  0  0
 15 26  1  0  0  0  0
 15 18  1  0  0  0  0
 16 19  1  0  0  0  0
 18 30  1  0  0  0  0
 19 22  2  0  0  0  0
 21 18  1  6  0  0  0
 21 24  1  0  0  0  0
 22 23  1  0  0  0  0
 22 25  1  0  0  0  0
 24 14  1  6  0  0  0
 24 27  1  0  0  0  0
 25 28  2  0  0  0  0
 25 30  1  0  0  0  0
 27 29  1  0  0  0  0
 29 31  1  0  0  0  0
M  CHG  1  17  -1
M  END
>  <CHROM.1>
98.37075739,77.90688919,122.39740556,80.52911128,96.24605449,-150.78500314
131.26657496,109.40449794,123.25645486,128.47991324,61.65850016,-62.33041339
21.13833795,19.51770921,46.03139838,-0.50485571,-1.13410060,-0.42204858

>  <Name>
ligand

>  <RI>
0

>  <Rbt.Current_Directory>
/home/itssahil/PROJECTS/Mol_Feturizer/New_Systems/rnas/2HOO

>  <Rbt.Executable>
rbdock ($Id: //depot/dev/client3/rdock/2013.1/src/exe/rbdock.cxx#4 $)

>  <Rbt.Library>
libRbt.so (2013.1, Build901 2013/11/27)

>  <Rbt.Parameter_File>
/export/apps/rDock/src/rDock_2013.1_src/data/scripts/dock_solv.prm

>  <Rbt.Receptor>
prm/blind_docking_80.prm

>  <SCORE>
-26.0242

>  <SCORE.INTER>
-14.1399

>  <SCORE.INTER.CONST>
1

>  <SCORE.INTER.POLAR>
0

>  <SCORE.INTER.ROT>
12

>  <SCORE.INTER.SOLV>
13.1022

>  <SCORE.INTER.VDW>
-25.394

>  <SCORE.INTER.norm>
-0.456126

>  <SCORE.INTRA>
-11.8863

>  <SCORE.INTRA.DIHEDRAL>
5.58771

>  <SCORE.INTRA.DIHEDRAL.0>
14.6094

>  <SCORE.INTRA.POLAR>
0

>  <SCORE.INTRA.POLAR.0>
0

>  <SCORE.INTRA.REPUL>
0

>  <SCORE.INTRA.REPUL.0>
0

>  <SCORE.INTRA.SOLV>
0.35777

>  <SCORE.INTRA.SOLV.lig_0>
-65.6478

>  <SCORE.INTRA.VDW>
-14.8591

>  <SCORE.INTRA.VDW.0>
9.35535

>  <SCORE.INTRA.norm>
-0.38343

>  <SCORE.RESTR>
0.00201586

>  <SCORE.RESTR.CAVITY>
0.00201586

>  <SCORE.RESTR.norm>
6.50278e-05

>  <SCORE.SYSTEM>
0

>  <SCORE.SYSTEM.CONST>
0

>  <SCORE.SYSTEM.DIHEDRAL>
0

>  <SCORE.SYSTEM.SOLV>
0

>  <SCORE.SYSTEM.norm>
0

>  <SCORE.heavy>
31

>  <SCORE.norm>
-0.839491

>  <RMSD>
17.759

$$$$
ligand
 OpenBabel11021811443D
libRbt.so/2013.1/901 2013/11/27
 31 32  0  0  0  0  0  0  0  0999 V2000
   18.6276   20.2169   41.2161 C   0  0  0  0  0  0  0  0  0  0  0  0
   18.0596   20.6530   39.8688 C   0  0  0  0  0  0  0  0  0  0  0  0
   17.2351   19.7580   39.1130 C   0  0  0  0  0  0  0  0  0  0  0  0
   16.7138   20.1671   37.8622 C   0  0  0  0  0  0  0  0  0  0  0  0
   16.9950   21.4589   37.3537 C   0  0  0  0  0  0  0  0  0  0  0  0
   17.7995   22.3549   38.0866 C   0  0  0  0  0  0  0  0  0  0  0  0
   18.3283   21.9665   39.3306 C   0  0  0  0  0  0  0  0  0  0  0  0
   18.0619   20.5483   42.2576 O   0  0  0  0  0  0  0  0  0  0  0  0
   19.5932   22.2543   47.9875 C   0  0  0  0  0  0  0  0  0  0  0  0
   19.7611   15.6064   42.2655 C   0  0  0  0  0  0  0  0  0  0  0  0
   20.9425   19.9007   36.9426 P   0  0  1  0  0  0  0  0  0  0  0  0
   18.7504   20.0887   47.4091 N   0  0  0  0  0  0  0  0  0  0  0  0
   22.2340   19.7780   36.2398 O   0  0  0  0  0  0  0  0  0  0  0  0
   19.7782   19.4504   41.2818 S   0  0  0  0  0  0  0  0  0  0  0  0
   17.5514   17.6400   43.5441 C   0  0  0  0  0  0  0  0  0  0  0  0
   19.6989   21.0561   47.1646 C   0  0  0  0  0  0  0  0  0  0  0  0
   20.6678   21.2521   37.5015 O   0  5  0  0  0  0  0  0  0  0  0  0
   18.9044   17.5518   43.5646 N   0  0  0  0  0  0  0  0  0  0  0  0
   20.6350   20.9464   46.2748 N   0  0  0  0  0  0  0  0  0  0  0  0
   19.8460   19.3801   36.0936 O   0  0  0  0  0  0  0  0  0  0  0  0
   19.5187   17.0907   42.3112 C   0  0  2  0  0  0  0  0  0  0  0  0
   20.7255   19.8104   45.4933 C   0  0  0  0  0  0  0  0  0  0  0  0
   21.6999   19.7335   44.5836 N   0  0  0  0  0  0  0  0  0  0  0  0
   19.8745   17.9059   41.1537 C   0  0  1  0  0  0  0  0  0  0  0  0
   19.7539   18.7451   45.6855 C   0  0  0  0  0  0  0  0  0  0  0  0
   17.1397   18.6074   44.1459 O   0  0  0  0  0  0  0  0  0  0  0  0
   20.3151   17.3528   39.8450 C   0  0  0  0  0  0  0  0  0  0  0  0
   18.8037   18.9570   46.6638 C   0  0  0  0  0  0  0  0  0  0  0  0
   19.9449   18.0405   38.6017 C   0  0  0  0  0  0  0  0  0  0  0  0
   19.7752   17.5001   44.8327 C   0  0  0  0  0  0  0  0  0  0  0  0
   20.9550   18.9907   38.2203 O   0  0  0  0  0  0  0  0  0  0  0  0
  1  2  1  0  0  0  0
  1  8  2  0  0  0  0
  1 14  1  0  0  0  0
  2  3  2  0  0  0  0
  2  7  1  0  0  0  0
  3  4  1  0  0  0  0
  4  5  2  0  0  0  0
  5  6  1  0  0  0  0
  6  7  2  0  0  0  0
  9 16  1  0  0  0  0
 10 21  1  0  0  0  0
 11 13  1  6  0  0  0
 11 17  1  0  0  0  0
 11 20  2  0  0  0  0
 11 31  1  0  0  0  0
 12 16  2  0  0  0  0
 12 28  1  0  0  0  0
 15 26  1  0  0  0  0
 15 18  1  0  0  0  0
 16 19  1  0  0  0  0
 18 30  1  0  0  0  0
 19 22  2  0  0  0  0
 21 18  1  6  0  0  0
 21 24  1  0  0  0  0
 22 23  1  0  0  0  0
 22 25  1  0  0  0  0
 24 14  1  6  0  0  0
 24 27  1  0  0  0  0
 25 28  2  0  0  0  0
 25 30  1  0  0  0  0
 27 29  1  0  0  0  0
 29 31  1  0  0  0  0
M  CHG  1  17  -1
M  END
>  <CHROM.1>
-97.64562809,-84.12675471,-78.54816603,-141.37165408,-93.70550117,-65.25340884
-172.71859422,-33.80534235,-91.55311336,91.31311365,178.75103798,-130.07709835
19.44634801,19.48710509,41.46445476,1.45448586,1.17998123,-1.42172573

>  <Name>
ligand

>  <RI>
0

>  <Rbt.Current_Directory>
/home/itssahil/PROJECTS/Mol_Feturizer/New_Systems/rnas/2HOO

>  <Rbt.Executable>
rbdock ($Id: //depot/dev/client3/rdock/2013.1/src/exe/rbdock.cxx#4 $)

>  <Rbt.Library>
libRbt.so (2013.1, Build901 2013/11/27)

>  <Rbt.Parameter_File>
/export/apps/rDock/src/rDock_2013.1_src/data/scripts/dock_solv.prm

>  <Rbt.Receptor>
prm/blind_docking_60.prm

>  <SCORE>
-14.841

>  <SCORE.INTER>
-6.2369

>  <SCORE.INTER.CONST>
1

>  <SCORE.INTER.POLAR>
0

>  <SCORE.INTER.ROT>
12

>  <SCORE.INTER.SOLV>
11.2351

>  <SCORE.INTER.VDW>
-19.503

>  <SCORE.INTER.norm>
-0.20119

>  <SCORE.INTRA>
-8.61775

>  <SCORE.INTRA.DIHEDRAL>
8.36954

>  <SCORE.INTRA.DIHEDRAL.0>
14.6094

>  <SCORE.INTRA.POLAR>
0

>  <SCORE.INTRA.POLAR.0>
0

>  <SCORE.INTRA.REPUL>
0

>  <SCORE.INTRA.REPUL.0>
0

>  <SCORE.INTRA.SOLV>
4.71125

>  <SCORE.INTRA.SOLV.lig_0>
-65.6478

>  <SCORE.INTRA.VDW>
-15.1581

>  <SCORE.INTRA.VDW.0>
9.35535

>  <SCORE.INTRA.norm>
-0.277992

>  <SCORE.RESTR>
0.0136559

>  <SCORE.RESTR.CAVITY>
0.0136559

>  <SCORE.RESTR.norm>
0.000440513

>  <SCORE.SYSTEM>
0

>  <SCORE.SYSTEM.CONST>
0

>  <SCORE.SYSTEM.DIHEDRAL>
0

>  <SCORE.SYSTEM.SOLV>
0

>  <SCORE.SYSTEM.norm>
0

>  <SCORE.heavy>
31

>  <SCORE.norm>
-0.478742

>  <RMSD>
17.801

$$$$
ligand
 OpenBabel11021811443D
libRbt.so/2013.1/901 2013/11/27
 31 32  0  0  0  0  0  0  0  0999 V2000
   18.2992   17.0872   44.3279 C   0  0  0  0  0  0  0  0  0  0  0  0
   18.5527   17.6939   45.7047 C   0  0  0  0  0  0  0  0  0  0  0  0
   17.6289   18.6413   46.2536 C   0  0  0  0  0  0  0  0  0  0  0  0
   17.8714   19.2032   47.5300 C   0  0  0  0  0  0  0  0  0  0  0  0
   19.0179   18.8307   48.2737 C   0  0  0  0  0  0  0  0  0  0  0  0
   19.9344   17.8954   47.7518 C   0  0  0  0  0  0  0  0  0  0  0  0
   19.7122   17.3272   46.4846 C   0  0  0  0  0  0  0  0  0  0  0  0
   17.8867   15.9318   44.2322 O   0  0  0  0  0  0  0  0  0  0  0  0
   20.2343   19.8158   34.2593 C   0  0  0  0  0  0  0  0  0  0  0  0
   16.3915   20.4053   41.8927 C   0  0  0  0  0  0  0  0  0  0  0  0
   22.1250   21.1915   46.2308 P   0  0  1  0  0  0  0  0  0  0  0  0
   20.3971   19.1749   36.5608 N   0  0  0  0  0  0  0  0  0  0  0  0
   23.1053   21.6510   45.2285 O   0  0  0  0  0  0  0  0  0  0  0  0
   18.5300   17.8238   43.1790 S   0  0  0  0  0  0  0  0  0  0  0  0
   19.5798   20.6970   40.4332 C   0  0  0  0  0  0  0  0  0  0  0  0
   19.5795   19.6200   35.5466 C   0  0  0  0  0  0  0  0  0  0  0  0
   22.3913   19.8347   46.7806 O   0  5  0  0  0  0  0  0  0  0  0  0
   18.4104   20.0125   40.4869 N   0  0  0  0  0  0  0  0  0  0  0  0
   18.3134   19.8592   35.6868 N   0  0  0  0  0  0  0  0  0  0  0  0
   21.9386   22.2246   47.2759 O   0  0  0  0  0  0  0  0  0  0  0  0
   17.8099   19.9075   41.8246 C   0  0  2  0  0  0  0  0  0  0  0  0
   17.7003   19.6778   36.9118 C   0  0  0  0  0  0  0  0  0  0  0  0
   16.3952   19.9382   37.0208 N   0  0  0  0  0  0  0  0  0  0  0  0
   18.4326   19.3663   43.0288 C   0  0  1  0  0  0  0  0  0  0  0  0
   18.4989   19.2171   38.0368 C   0  0  0  0  0  0  0  0  0  0  0  0
   20.5369   20.0026   40.6960 O   0  0  0  0  0  0  0  0  0  0  0  0
   18.9739   20.1984   44.1366 C   0  0  0  0  0  0  0  0  0  0  0  0
   19.8347   18.9834   37.7799 C   0  0  0  0  0  0  0  0  0  0  0  0
   20.4110   20.1672   44.4361 C   0  0  0  0  0  0  0  0  0  0  0  0
   17.8949   19.0425   39.4089 C   0  0  0  0  0  0  0  0  0  0  0  0
   20.7220   21.0227   45.5496 O   0  0  0  0  0  0  0  0  0  0  0  0
  1  2  1  0  0  0  0
  1  8  2  0  0  0  0
  1 14  1  0  0  0  0
  2  3  2  0  0  0  0
  2  7  1  0  0  0  0
  3  4  1  0  0  0  0
  4  5  2  0  0  0  0
  5  6  1  0  0  0  0
  6  7  2  0  0  0  0
  9 16  1  0  0  0  0
 10 21  1  0  0  0  0
 11 13  1  6  0  0  0
 11 17  1  0  0  0  0
 11 20  2  0  0  0  0
 11 31  1  0  0  0  0
 12 16  2  0  0  0  0
 12 28  1  0  0  0  0
 15 26  1  0  0  0  0
 15 18  1  0  0  0  0
 16 19  1  0  0  0  0
 18 30  1  0  0  0  0
 19 22  2  0  0  0  0
 21 18  1  6  0  0  0
 21 24  1  0  0  0  0
 22 23  1  0  0  0  0
 22 25  1  0  0  0  0
 24 14  1  1  0  0  0
 24 27  1  0  0  0  0
 25 28  2  0  0  0  0
 25 30  1  0  0  0  0
 27 29  1  0  0  0  0
 29 31  1  0  0  0  0
M  CHG  1  17  -1
M  END
>  <CHROM.1>
-104.22508484,-29.09165887,-138.33483604,84.62915582,125.11772360,-20.71572836
101.39380076,64.57414306,-113.09135456,-179.12802667,175.81829253,58.67570946
19.40983002,19.49694514,42.53937652,1.36007800,0.65197474,1.69327864

>  <Name>
ligand

>  <RI>
0

>  <Rbt.Current_Directory>
/home/itssahil/PROJECTS/Mol_Feturizer/New_Systems/rnas/2HOO

>  <Rbt.Executable>
rbdock ($Id: //depot/dev/client3/rdock/2013.1/src/exe/rbdock.cxx#4 $)

>  <Rbt.Library>
libRbt.so (2013.1, Build901 2013/11/27)

>  <Rbt.Parameter_File>
/export/apps/rDock/src/rDock_2013.1_src/data/scripts/dock_solv.prm

>  <Rbt.Receptor>
prm/blind_docking_60.prm

>  <SCORE>
-20.1005

>  <SCORE.INTER>
-5.81132

>  <SCORE.INTER.CONST>
1

>  <SCORE.INTER.POLAR>
0

>  <SCORE.INTER.ROT>
12

>  <SCORE.INTER.SOLV>
13.5851

>  <SCORE.INTER.VDW>
-20.0026

>  <SCORE.INTER.norm>
-0.187462

>  <SCORE.INTRA>
-14.2892

>  <SCORE.INTRA.DIHEDRAL>
0.312707

>  <SCORE.INTRA.DIHEDRAL.0>
14.6094

>  <SCORE.INTRA.POLAR>
0

>  <SCORE.INTRA.POLAR.0>
0

>  <SCORE.INTRA.REPUL>
0

>  <SCORE.INTRA.REPUL.0>
0

>  <SCORE.INTRA.SOLV>
0.0198916

>  <SCORE.INTRA.SOLV.lig_0>
-65.6478

>  <SCORE.INTRA.VDW>
-14.4555

>  <SCORE.INTRA.VDW.0>
9.35535

>  <SCORE.INTRA.norm>
-0.460942

>  <SCORE.RESTR>
0

>  <SCORE.RESTR.CAVITY>
0

>  <SCORE.RESTR.norm>
0

>  <SCORE.SYSTEM>
0

>  <SCORE.SYSTEM.CONST>
0

>  <SCORE.SYSTEM.DIHEDRAL>
0

>  <SCORE.SYSTEM.SOLV>
0

>  <SCORE.SYSTEM.norm>
0

>  <SCORE.heavy>
31

>  <SCORE.norm>
-0.648404

>  <RMSD>
17.944

$$$$
ligand
 OpenBabel11021811443D
libRbt.so/2013.1/901 2013/11/27
 31 32  0  0  0  0  0  0  0  0999 V2000
   20.9968   23.5286   49.3409 C   0  0  0  0  0  0  0  0  0  0  0  0
   22.5187   23.4457   49.4114 C   0  0  0  0  0  0  0  0  0  0  0  0
   23.2998   23.5457   48.2147 C   0  0  0  0  0  0  0  0  0  0  0  0
   24.7113   23.4647   48.2861 C   0  0  0  0  0  0  0  0  0  0  0  0
   25.3595   23.2926   49.5337 C   0  0  0  0  0  0  0  0  0  0  0  0
   24.6070   23.1984   50.7221 C   0  0  0  0  0  0  0  0  0  0  0  0
   23.2036   23.2747   50.6719 C   0  0  0  0  0  0  0  0  0  0  0  0
   20.4284   24.5957   49.5702 O   0  0  0  0  0  0  0  0  0  0  0  0
   19.7342   18.2170   40.0908 C   0  0  0  0  0  0  0  0  0  0  0  0
   18.9011   20.1419   47.0719 C   0  0  0  0  0  0  0  0  0  0  0  0
   23.9758   18.6736   51.1332 P   0  0  1  0  0  0  0  0  0  0  0  0
   20.7985   19.4552   41.8424 N   0  0  0  0  0  0  0  0  0  0  0  0
   25.4392   18.6092   51.3091 O   0  0  0  0  0  0  0  0  0  0  0  0
   20.2435   22.4121   49.0221 S   0  0  0  0  0  0  0  0  0  0  0  0
   22.0586   21.2725   45.7888 C   0  0  0  0  0  0  0  0  0  0  0  0
   20.1140   18.3126   41.4946 C   0  0  0  0  0  0  0  0  0  0  0  0
   23.2587   17.4071   51.4427 O   0  5  0  0  0  0  0  0  0  0  0  0
   21.1826   20.2794   46.0807 N   0  0  0  0  0  0  0  0  0  0  0  0
   19.8103   17.3666   42.3269 N   0  0  0  0  0  0  0  0  0  0  0  0
   23.4258   19.8510   51.8442 O   0  0  0  0  0  0  0  0  0  0  0  0
   20.3460   20.5141   47.2665 C   0  0  2  0  0  0  0  0  0  0  0  0
   20.1677   17.4667   43.6580 C   0  0  0  0  0  0  0  0  0  0  0  0
   19.8345   16.4753   44.4880 N   0  0  0  0  0  0  0  0  0  0  0  0
   20.7799   21.0296   48.5615 C   0  0  1  0  0  0  0  0  0  0  0  0
   20.8865   18.6491   44.1064 C   0  0  0  0  0  0  0  0  0  0  0  0
   22.5758   21.1313   44.7025 O   0  0  0  0  0  0  0  0  0  0  0  0
   21.7184   20.3204   49.4721 C   0  0  0  0  0  0  0  0  0  0  0  0
   21.1686   19.5930   43.1398 C   0  0  0  0  0  0  0  0  0  0  0  0
   22.3310   19.0560   49.0459 C   0  0  0  0  0  0  0  0  0  0  0  0
   21.2650   18.8350   45.5555 C   0  0  0  0  0  0  0  0  0  0  0  0
   23.6418   18.9022   49.6176 O   0  0  0  0  0  0  0  0  0  0  0  0
  1  2  1  0  0  0  0
  1  8  2  0  0  0  0
  1 14  1  0  0  0  0
  2  3  2  0  0  0  0
  2  7  1  0  0  0  0
  3  4  1  0  0  0  0
  4  5  2  0  0  0  0
  5  6  1  0  0  0  0
  6  7  2  0  0  0  0
  9 16  1  0  0  0  0
 10 21  1  0  0  0  0
 11 13  1  1  0  0  0
 11 17  1  0  0  0  0
 11 20  2  0  0  0  0
 11 31  1  0  0  0  0
 12 16  2  0  0  0  0
 12 28  1  0  0  0  0
 15 26  1  0  0  0  0
 15 18  1  0  0  0  0
 16 19  1  0  0  0  0
 18 30  1  0  0  0  0
 19 22  2  0  0  0  0
 21 18  1  1  0  0  0
 21 24  1  0  0  0  0
 22 23  1  0  0  0  0
 22 25  1  0  0  0  0
 24 14  1  6  0  0  0
 24 27  1  0  0  0  0
 25 28  2  0  0  0  0
 25 30  1  0  0  0  0
 27 29  1  0  0  0  0
 29 31  1  0  0  0  0
M  CHG  1  17  -1
M  END
>  <CHROM.1>
-97.40562248,-6.86484514,-121.35107182,-169.47136479,136.65425947,-73.96072245
-66.63768841,-175.65930365,-143.26221830,148.58174717,68.30085447,-178.23778005
21.90749225,20.33926938,47.51581079,0.64427665,-1.11445252,0.35973483

>  <Name>
ligand

>  <RI>
0

>  <Rbt.Current_Directory>
/home/itssahil/PROJECTS/Mol_Feturizer/New_Systems/rnas/2HOO

>  <Rbt.Executable>
rbdock ($Id: //depot/dev/client3/rdock/2013.1/src/exe/rbdock.cxx#4 $)

>  <Rbt.Library>
libRbt.so (2013.1, Build901 2013/11/27)

>  <Rbt.Parameter_File>
/export/apps/rDock/src/rDock_2013.1_src/data/scripts/dock_solv.prm

>  <Rbt.Receptor>
prm/blind_docking_80.prm

>  <SCORE>
-21.2742

>  <SCORE.INTER>
-10.8808

>  <SCORE.INTER.CONST>
1

>  <SCORE.INTER.POLAR>
0

>  <SCORE.INTER.ROT>
12

>  <SCORE.INTER.SOLV>
21.2052

>  <SCORE.INTER.VDW>
-25.9222

>  <SCORE.INTER.norm>
-0.350992

>  <SCORE.INTRA>
-10.3938

>  <SCORE.INTRA.DIHEDRAL>
3.15326

>  <SCORE.INTRA.DIHEDRAL.0>
14.6094

>  <SCORE.INTRA.POLAR>
0

>  <SCORE.INTRA.POLAR.0>
0

>  <SCORE.INTRA.REPUL>
0

>  <SCORE.INTRA.REPUL.0>
0

>  <SCORE.INTRA.SOLV>
1.23588

>  <SCORE.INTRA.SOLV.lig_0>
-65.6478

>  <SCORE.INTRA.VDW>
-12.5884

>  <SCORE.INTRA.VDW.0>
9.35535

>  <SCORE.INTRA.norm>
-0.335284

>  <SCORE.RESTR>
0.000339739

>  <SCORE.RESTR.CAVITY>
0.000339739

>  <SCORE.RESTR.norm>
1.09593e-05

>  <SCORE.SYSTEM>
0

>  <SCORE.SYSTEM.CONST>
0

>  <SCORE.SYSTEM.DIHEDRAL>
0

>  <SCORE.SYSTEM.SOLV>
0

>  <SCORE.SYSTEM.norm>
0

>  <SCORE.heavy>
31

>  <SCORE.norm>
-0.686265

>  <RMSD>
18.067

$$$$
ligand
 OpenBabel11021811443D
libRbt.so/2013.1/901 2013/11/27
 31 32  0  0  0  0  0  0  0  0999 V2000
   17.3981   19.5090   45.4041 C   0  0  0  0  0  0  0  0  0  0  0  0
   18.1755   19.2800   46.6969 C   0  0  0  0  0  0  0  0  0  0  0  0
   18.0346   18.0462   47.4110 C   0  0  0  0  0  0  0  0  0  0  0  0
   18.7558   17.8409   48.6116 C   0  0  0  0  0  0  0  0  0  0  0  0
   19.6228   18.8440   49.1101 C   0  0  0  0  0  0  0  0  0  0  0  0
   19.7784   20.0618   48.4173 C   0  0  0  0  0  0  0  0  0  0  0  0
   19.0690   20.2856   47.2237 C   0  0  0  0  0  0  0  0  0  0  0  0
   16.1910   19.2730   45.3631 O   0  0  0  0  0  0  0  0  0  0  0  0
   24.0868   20.5784   36.4022 C   0  0  0  0  0  0  0  0  0  0  0  0
   17.7980   17.8461   41.8181 C   0  0  0  0  0  0  0  0  0  0  0  0
   22.1460   21.2985   45.7179 P   0  0  1  0  0  0  0  0  0  0  0  0
   23.5057   19.7301   38.5648 N   0  0  0  0  0  0  0  0  0  0  0  0
   22.3152   20.0406   46.4702 O   0  0  0  0  0  0  0  0  0  0  0  0
   18.0374   19.9801   44.2705 S   0  0  0  0  0  0  0  0  0  0  0  0
   19.7118   20.6983   40.8072 C   0  0  0  0  0  0  0  0  0  0  0  0
   23.0851   19.9855   37.2791 C   0  0  0  0  0  0  0  0  0  0  0  0
   20.9694   22.1117   46.1283 O   0  5  0  0  0  0  0  0  0  0  0  0
   19.5404   19.3547   40.8722 N   0  0  0  0  0  0  0  0  0  0  0  0
   21.8917   19.7311   36.8417 N   0  0  0  0  0  0  0  0  0  0  0  0
   23.4150   22.0625   45.7057 O   0  0  0  0  0  0  0  0  0  0  0  0
   18.8680   18.8696   42.0861 C   0  0  2  0  0  0  0  0  0  0  0  0
   20.9447   19.1752   37.6805 C   0  0  0  0  0  0  0  0  0  0  0  0
   19.7243   18.9306   37.1972 N   0  0  0  0  0  0  0  0  0  0  0  0
   19.1512   19.2588   43.4642 C   0  0  1  0  0  0  0  0  0  0  0  0
   21.3096   18.8833   39.0580 C   0  0  0  0  0  0  0  0  0  0  0  0
   19.3738   21.1585   39.7388 O   0  0  0  0  0  0  0  0  0  0  0  0
   20.4493   19.0204   44.1505 C   0  0  0  0  0  0  0  0  0  0  0  0
   22.6068   19.1838   39.4208 C   0  0  0  0  0  0  0  0  0  0  0  0
   21.6695   19.6612   43.6442 C   0  0  0  0  0  0  0  0  0  0  0  0
   20.3061   18.3166   40.0325 C   0  0  0  0  0  0  0  0  0  0  0  0
   21.8366   20.9705   44.2154 O   0  0  0  0  0  0  0  0  0  0  0  0
  1  2  1  0  0  0  0
  1  8  2  0  0  0  0
  1 14  1  0  0  0  0
  2  3  2  0  0  0  0
  2  7  1  0  0  0  0
  3  4  1  0  0  0  0
  4  5  2  0  0  0  0
  5  6  1  0  0  0  0
  6  7  2  0  0  0  0
  9 16  1  0  0  0  0
 10 21  1  0  0  0  0
 11 13  1  1  0  0  0
 11 17  1  0  0  0  0
 11 20  2  0  0  0  0
 11 31  1  0  0  0  0
 12 16  2  0  0  0  0
 12 28  1  0  0  0  0
 15 26  1  0  0  0  0
 15 18  1  0  0  0  0
 16 19  1  0  0  0  0
 18 30  1  0  0  0  0
 19 22  2  0  0  0  0
 21 18  1  1  0  0  0
 21 24  1  0  0  0  0
 22 23  1  0  0  0  0
 22 25  1  0  0  0  0
 24 14  1  6  0  0  0
 24 27  1  0  0  0  0
 25 28  2  0  0  0  0
 25 30  1  0  0  0  0
 27 29  1  0  0  0  0
 29 31  1  0  0  0  0
M  CHG  1  17  -1
M  END
>  <CHROM.1>
48.63376705,64.17343374,115.95764749,-132.34062755,134.83716600,-0.72455146
-64.31184205,-116.49875764,-92.45657898,87.29056968,67.55213127,2.97611360
20.33160622,19.80532163,43.02017383,1.84518140,0.39070418,1.45389501

>  <Name>
ligand

>  <RI>
0

>  <Rbt.Current_Directory>
/home/itssahil/PROJECTS/Mol_Feturizer/New_Systems/rnas/2HOO

>  <Rbt.Executable>
rbdock ($Id: //depot/dev/client3/rdock/2013.1/src/exe/rbdock.cxx#4 $)

>  <Rbt.Library>
libRbt.so (2013.1, Build901 2013/11/27)

>  <Rbt.Parameter_File>
/export/apps/rDock/src/rDock_2013.1_src/data/scripts/dock_solv.prm

>  <Rbt.Receptor>
prm/blind_docking_60.prm

>  <SCORE>
-28.9596

>  <SCORE.INTER>
-18.6736

>  <SCORE.INTER.CONST>
1

>  <SCORE.INTER.POLAR>
0

>  <SCORE.INTER.ROT>
12

>  <SCORE.INTER.SOLV>
17.4823

>  <SCORE.INTER.VDW>
-29.8765

>  <SCORE.INTER.norm>
-0.602374

>  <SCORE.INTRA>
-10.286

>  <SCORE.INTRA.DIHEDRAL>
5.94598

>  <SCORE.INTRA.DIHEDRAL.0>
14.6094

>  <SCORE.INTRA.POLAR>
0

>  <SCORE.INTRA.POLAR.0>
0

>  <SCORE.INTRA.REPUL>
0

>  <SCORE.INTRA.REPUL.0>
0

>  <SCORE.INTRA.SOLV>
3.51052

>  <SCORE.INTRA.SOLV.lig_0>
-65.6478

>  <SCORE.INTRA.VDW>
-15.0142

>  <SCORE.INTRA.VDW.0>
9.35535

>  <SCORE.INTRA.norm>
-0.331806

>  <SCORE.RESTR>
0

>  <SCORE.RESTR.CAVITY>
0

>  <SCORE.RESTR.norm>
0

>  <SCORE.SYSTEM>
0

>  <SCORE.SYSTEM.CONST>
0

>  <SCORE.SYSTEM.DIHEDRAL>
0

>  <SCORE.SYSTEM.SOLV>
0

>  <SCORE.SYSTEM.norm>
0

>  <SCORE.heavy>
31

>  <SCORE.norm>
-0.93418

>  <RMSD>
18.217

$$$$
ligand
 OpenBabel11021811443D
libRbt.so/2013.1/901 2013/11/27
 31 32  0  0  0  0  0  0  0  0999 V2000
   21.5193   20.1709   44.6591 C   0  0  0  0  0  0  0  0  0  0  0  0
   21.8554   20.3185   46.1401 C   0  0  0  0  0  0  0  0  0  0  0  0
   21.9162   21.6194   46.7369 C   0  0  0  0  0  0  0  0  0  0  0  0
   22.2318   21.7500   48.1106 C   0  0  0  0  0  0  0  0  0  0  0  0
   22.4814   20.6031   48.9033 C   0  0  0  0  0  0  0  0  0  0  0  0
   22.4200   19.3148   48.3342 C   0  0  0  0  0  0  0  0  0  0  0  0
   22.1098   19.1642   46.9707 C   0  0  0  0  0  0  0  0  0  0  0  0
   22.4115   20.2533   43.8155 O   0  0  0  0  0  0  0  0  0  0  0  0
   24.0223   19.8174   36.0133 C   0  0  0  0  0  0  0  0  0  0  0  0
   17.6473   19.2551   42.0457 C   0  0  0  0  0  0  0  0  0  0  0  0
   18.6550   18.1466   47.8193 P   0  0  1  0  0  0  0  0  0  0  0  0
   23.2191   19.2981   38.2086 N   0  0  0  0  0  0  0  0  0  0  0  0
   17.2241   18.2563   48.1620 O   0  0  0  0  0  0  0  0  0  0  0  0
   20.2162   19.9458   44.2504 S   0  0  0  0  0  0  0  0  0  0  0  0
   19.8607   17.4835   40.3961 C   0  0  0  0  0  0  0  0  0  0  0  0
   22.9469   19.8871   36.9945 C   0  0  0  0  0  0  0  0  0  0  0  0
   19.4332   19.4017   48.0016 O   0  5  0  0  0  0  0  0  0  0  0  0
   19.7855   18.7516   40.8706 N   0  0  0  0  0  0  0  0  0  0  0  0
   21.8265   20.4716   36.7061 N   0  0  0  0  0  0  0  0  0  0  0  0
   19.2562   16.9763   48.4998 O   0  0  0  0  0  0  0  0  0  0  0  0
   19.1031   18.8940   42.1649 C   0  0  2  0  0  0  0  0  0  0  0  0
   20.8135   20.5400   37.6434 C   0  0  0  0  0  0  0  0  0  0  0  0
   19.6745   21.1537   37.3133 N   0  0  0  0  0  0  0  0  0  0  0  0
   19.6823   18.7012   43.4908 C   0  0  1  0  0  0  0  0  0  0  0  0
   21.0272   19.9480   38.9548 C   0  0  0  0  0  0  0  0  0  0  0  0
   19.5514   17.4058   39.2274 O   0  0  0  0  0  0  0  0  0  0  0  0
   19.8081   17.3809   44.1645 C   0  0  0  0  0  0  0  0  0  0  0  0
   22.2509   19.3426   39.1572 C   0  0  0  0  0  0  0  0  0  0  0  0
   19.9599   17.3191   45.6236 C   0  0  0  0  0  0  0  0  0  0  0  0
   19.9750   20.0293   40.0336 C   0  0  0  0  0  0  0  0  0  0  0  0
   18.8037   17.8638   46.2835 O   0  0  0  0  0  0  0  0  0  0  0  0
  1  2  1  0  0  0  0
  1  8  2  0  0  0  0
  1 14  1  0  0  0  0
  2  3  2  0  0  0  0
  2  7  1  0  0  0  0
  3  4  1  0  0  0  0
  4  5  2  0  0  0  0
  5  6  1  0  0  0  0
  6  7  2  0  0  0  0
  9 16  1  0  0  0  0
 10 21  1  0  0  0  0
 11 13  1  1  0  0  0
 11 17  1  0  0  0  0
 11 20  2  0  0  0  0
 11 31  1  0  0  0  0
 12 16  2  0  0  0  0
 12 28  1  0  0  0  0
 15 26  1  0  0  0  0
 15 18  1  0  0  0  0
 16 19  1  0  0  0  0
 18 30  1  0  0  0  0
 19 22  2  0  0  0  0
 21 18  1  6  0  0  0
 21 24  1  0  0  0  0
 22 23  1  0  0  0  0
 22 25  1  0  0  0  0
 24 14  1  6  0  0  0
 24 27  1  0  0  0  0
 25 28  2  0  0  0  0
 25 30  1  0  0  0  0
 27 29  1  0  0  0  0
 29 31  1  0  0  0  0
M  CHG  1  17  -1
M  END
>  <CHROM.1>
85.69286540,-117.94533576,-118.46623512,133.38068148,-95.50545349,-36.95979400
-86.08381253,21.58212811,139.50836069,62.58859416,-171.60362440,-160.81171050
20.51828254,19.25177137,43.31983928,-1.75481905,-0.55074680,-1.58868670

>  <Name>
ligand

>  <RI>
0

>  <Rbt.Current_Directory>
/home/itssahil/PROJECTS/Mol_Feturizer/New_Systems/rnas/2HOO

>  <Rbt.Executable>
rbdock ($Id: //depot/dev/client3/rdock/2013.1/src/exe/rbdock.cxx#4 $)

>  <Rbt.Library>
libRbt.so (2013.1, Build901 2013/11/27)

>  <Rbt.Parameter_File>
/export/apps/rDock/src/rDock_2013.1_src/data/scripts/dock_solv.prm

>  <Rbt.Receptor>
prm/blind_docking_60.prm

>  <SCORE>
-26.9319

>  <SCORE.INTER>
-15.6731

>  <SCORE.INTER.CONST>
1

>  <SCORE.INTER.POLAR>
0

>  <SCORE.INTER.ROT>
12

>  <SCORE.INTER.SOLV>
10.7064

>  <SCORE.INTER.VDW>
-25.6175

>  <SCORE.INTER.norm>
-0.505584

>  <SCORE.INTRA>
-11.2588

>  <SCORE.INTRA.DIHEDRAL>
2.21889

>  <SCORE.INTRA.DIHEDRAL.0>
14.6094

>  <SCORE.INTRA.POLAR>
0

>  <SCORE.INTRA.POLAR.0>
0

>  <SCORE.INTRA.REPUL>
0

>  <SCORE.INTRA.REPUL.0>
0

>  <SCORE.INTRA.SOLV>
2.78835

>  <SCORE.INTRA.SOLV.lig_0>
-65.6478

>  <SCORE.INTRA.VDW>
-13.7625

>  <SCORE.INTRA.VDW.0>
9.35535

>  <SCORE.INTRA.norm>
-0.363188

>  <SCORE.RESTR>
0

>  <SCORE.RESTR.CAVITY>
0

>  <SCORE.RESTR.norm>
0

>  <SCORE.SYSTEM>
0

>  <SCORE.SYSTEM.CONST>
0

>  <SCORE.SYSTEM.DIHEDRAL>
0

>  <SCORE.SYSTEM.SOLV>
0

>  <SCORE.SYSTEM.norm>
0

>  <SCORE.heavy>
31

>  <SCORE.norm>
-0.868772

>  <RMSD>
18.314

$$$$
ligand
 OpenBabel11021811443D
libRbt.so/2013.1/901 2013/11/27
 31 32  0  0  0  0  0  0  0  0999 V2000
   22.3621   19.5896   37.3457 C   0  0  0  0  0  0  0  0  0  0  0  0
   23.7004   20.1425   36.8646 C   0  0  0  0  0  0  0  0  0  0  0  0
   24.3047   21.2511   37.5413 C   0  0  0  0  0  0  0  0  0  0  0  0
   25.5448   21.7618   37.0882 C   0  0  0  0  0  0  0  0  0  0  0  0
   26.1979   21.1805   35.9738 C   0  0  0  0  0  0  0  0  0  0  0  0
   25.6208   20.0851   35.2997 C   0  0  0  0  0  0  0  0  0  0  0  0
   24.3884   19.5645   35.7334 C   0  0  0  0  0  0  0  0  0  0  0  0
   22.3124   18.9009   38.3644 O   0  0  0  0  0  0  0  0  0  0  0  0
   16.5106   18.8918   44.5089 C   0  0  0  0  0  0  0  0  0  0  0  0
   17.8178   21.1552   36.0708 C   0  0  0  0  0  0  0  0  0  0  0  0
   21.5980   23.2425   32.9728 P   0  0  1  0  0  0  0  0  0  0  0  0
   16.1334   20.0188   42.4300 N   0  0  0  0  0  0  0  0  0  0  0  0
   21.8777   24.6896   33.0411 O   0  0  0  0  0  0  0  0  0  0  0  0
   21.1973   19.8532   36.6460 S   0  0  0  0  0  0  0  0  0  0  0  0
   17.9884   18.9671   38.3428 C   0  0  0  0  0  0  0  0  0  0  0  0
   17.0544   19.4364   43.2713 C   0  0  0  0  0  0  0  0  0  0  0  0
   20.5097   22.8662   32.0305 O   0  5  0  0  0  0  0  0  0  0  0  0
   18.2746   20.2925   38.3628 N   0  0  0  0  0  0  0  0  0  0  0  0
   18.3229   19.3584   43.0165 N   0  0  0  0  0  0  0  0  0  0  0  0
   22.8539   22.4881   32.7541 O   0  0  0  0  0  0  0  0  0  0  0  0
   18.8467   20.8260   37.1182 C   0  0  2  0  0  0  0  0  0  0  0  0
   18.8328   19.8829   41.8442 C   0  0  0  0  0  0  0  0  0  0  0  0
   20.1452   19.7885   41.6167 N   0  0  0  0  0  0  0  0  0  0  0  0
   20.2567   21.0743   36.8335 C   0  0  1  0  0  0  0  0  0  0  0  0
   17.9240   20.5229   40.9060 C   0  0  0  0  0  0  0  0  0  0  0  0
   18.9591   18.2788   38.5699 O   0  0  0  0  0  0  0  0  0  0  0  0
   20.8614   22.4289   36.7219 C   0  0  0  0  0  0  0  0  0  0  0  0
   16.5924   20.5457   41.2677 C   0  0  0  0  0  0  0  0  0  0  0  0
   21.7629   22.7343   35.6039 C   0  0  0  0  0  0  0  0  0  0  0  0
   18.4281   21.1522   39.6302 C   0  0  0  0  0  0  0  0  0  0  0  0
   21.0465   22.7515   34.3568 O   0  0  0  0  0  0  0  0  0  0  0  0
  1  2  1  0  0  0  0
  1  8  2  0  0  0  0
  1 14  1  0  0  0  0
  2  3  2  0  0  0  0
  2  7  1  0  0  0  0
  3  4  1  0  0  0  0
  4  5  2  0  0  0  0
  5  6  1  0  0  0  0
  6  7  2  0  0  0  0
  9 16  1  0  0  0  0
 10 21  1  0  0  0  0
 11 13  1  6  0  0  0
 11 17  1  0  0  0  0
 11 20  2  0  0  0  0
 11 31  1  0  0  0  0
 12 16  2  0  0  0  0
 12 28  1  0  0  0  0
 15 26  1  0  0  0  0
 15 18  1  0  0  0  0
 16 19  1  0  0  0  0
 18 30  1  0  0  0  0
 19 22  2  0  0  0  0
 21 18  1  1  0  0  0
 21 24  1  0  0  0  0
 22 23  1  0  0  0  0
 22 25  1  0  0  0  0
 24 14  1  1  0  0  0
 24 27  1  0  0  0  0
 25 28  2  0  0  0  0
 25 30  1  0  0  0  0
 27 29  1  0  0  0  0
 29 31  1  0  0  0  0
M  CHG  1  17  -1
M  END
>  <CHROM.1>
-75.21676538,-88.27987924,-124.33288037,82.46774266,82.25945326,-13.90954638
-110.62874148,46.66009687,99.26048352,68.02129902,170.25567612,-65.03069084
20.58591111,20.85956840,37.49242429,-0.99867653,-0.20248417,2.03288584

>  <Name>
ligand

>  <RI>
0

>  <Rbt.Current_Directory>
/home/itssahil/PROJECTS/Mol_Feturizer/New_Systems/rnas/2HOO

>  <Rbt.Executable>
rbdock ($Id: //depot/dev/client3/rdock/2013.1/src/exe/rbdock.cxx#4 $)

>  <Rbt.Library>
libRbt.so (2013.1, Build901 2013/11/27)

>  <Rbt.Parameter_File>
/export/apps/rDock/src/rDock_2013.1_src/data/scripts/dock_solv.prm

>  <Rbt.Receptor>
prm/blind_docking_60.prm

>  <SCORE>
-23.793

>  <SCORE.INTER>
-12.0511

>  <SCORE.INTER.CONST>
1

>  <SCORE.INTER.POLAR>
0

>  <SCORE.INTER.ROT>
12

>  <SCORE.INTER.SOLV>
9.02897

>  <SCORE.INTER.VDW>
-22.6437

>  <SCORE.INTER.norm>
-0.388746

>  <SCORE.INTRA>
-11.7419

>  <SCORE.INTRA.DIHEDRAL>
3.79325

>  <SCORE.INTRA.DIHEDRAL.0>
14.6094

>  <SCORE.INTRA.POLAR>
0

>  <SCORE.INTRA.POLAR.0>
0

>  <SCORE.INTRA.REPUL>
0.0362451

>  <SCORE.INTRA.REPUL.0>
0

>  <SCORE.INTRA.SOLV>
1.8118

>  <SCORE.INTRA.SOLV.lig_0>
-65.6478

>  <SCORE.INTRA.VDW>
-14.7256

>  <SCORE.INTRA.VDW.0>
9.35535

>  <SCORE.INTRA.norm>
-0.378769

>  <SCORE.RESTR>
0

>  <SCORE.RESTR.CAVITY>
0

>  <SCORE.RESTR.norm>
0

>  <SCORE.SYSTEM>
0

>  <SCORE.SYSTEM.CONST>
0

>  <SCORE.SYSTEM.DIHEDRAL>
0

>  <SCORE.SYSTEM.SOLV>
0

>  <SCORE.SYSTEM.norm>
0

>  <SCORE.heavy>
31

>  <SCORE.norm>
-0.767515

>  <RMSD>
21.549

$$$$
ligand
 OpenBabel11021811443D
libRbt.so/2013.1/901 2013/11/27
 31 32  0  0  0  0  0  0  0  0999 V2000
   24.1078   20.9789   38.4810 C   0  0  0  0  0  0  0  0  0  0  0  0
   24.2963   21.8872   37.2696 C   0  0  0  0  0  0  0  0  0  0  0  0
   23.8699   23.2538   37.3230 C   0  0  0  0  0  0  0  0  0  0  0  0
   24.0444   24.0906   36.1947 C   0  0  0  0  0  0  0  0  0  0  0  0
   24.6445   23.5895   35.0136 C   0  0  0  0  0  0  0  0  0  0  0  0
   25.0756   22.2490   34.9454 C   0  0  0  0  0  0  0  0  0  0  0  0
   24.9094   21.4012   36.0551 C   0  0  0  0  0  0  0  0  0  0  0  0
   24.8370   21.1067   39.4640 O   0  0  0  0  0  0  0  0  0  0  0  0
   16.3425   18.9791   44.8156 C   0  0  0  0  0  0  0  0  0  0  0  0
   19.6514   18.6411   37.7164 C   0  0  0  0  0  0  0  0  0  0  0  0
   21.3803   23.1433   33.5148 P   0  0  1  0  0  0  0  0  0  0  0  0
   17.7491   20.3460   43.4418 N   0  0  0  0  0  0  0  0  0  0  0  0
   21.4639   24.3763   34.3206 O   0  0  0  0  0  0  0  0  0  0  0  0
   23.1225   20.0068   38.4874 S   0  0  0  0  0  0  0  0  0  0  0  0
   18.9987   21.1047   39.4204 C   0  0  0  0  0  0  0  0  0  0  0  0
   17.3818   19.0679   43.7977 C   0  0  0  0  0  0  0  0  0  0  0  0
   20.0047   22.7814   33.0778 O   0  5  0  0  0  0  0  0  0  0  0  0
   20.0432   20.2537   39.5744 N   0  0  0  0  0  0  0  0  0  0  0  0
   17.8996   17.9949   43.2871 N   0  0  0  0  0  0  0  0  0  0  0  0
   22.3584   23.1906   32.4033 O   0  0  0  0  0  0  0  0  0  0  0  0
   20.5619   19.6709   38.3285 C   0  0  2  0  0  0  0  0  0  0  0  0
   18.8894   18.0863   42.3273 C   0  0  0  0  0  0  0  0  0  0  0  0
   19.4032   16.9602   41.8264 N   0  0  0  0  0  0  0  0  0  0  0  0
   21.8124   20.0060   37.6540 C   0  0  1  0  0  0  0  0  0  0  0  0
   19.3389   19.4031   41.9033 C   0  0  0  0  0  0  0  0  0  0  0  0
   19.2507   22.0176   38.6650 O   0  0  0  0  0  0  0  0  0  0  0  0
   21.9162   20.3617   36.2133 C   0  0  0  0  0  0  0  0  0  0  0  0
   18.7176   20.4803   42.5020 C   0  0  0  0  0  0  0  0  0  0  0  0
   21.3617   21.6345   35.7355 C   0  0  0  0  0  0  0  0  0  0  0  0
   20.4464   19.5662   40.8911 C   0  0  0  0  0  0  0  0  0  0  0  0
   21.8012   21.9149   34.3950 O   0  0  0  0  0  0  0  0  0  0  0  0
  1  2  1  0  0  0  0
  1  8  2  0  0  0  0
  1 14  1  0  0  0  0
  2  3  2  0  0  0  0
  2  7  1  0  0  0  0
  3  4  1  0  0  0  0
  4  5  2  0  0  0  0
  5  6  1  0  0  0  0
  6  7  2  0  0  0  0
  9 16  1  0  0  0  0
 10 21  1  0  0  0  0
 11 13  1  1  0  0  0
 11 17  1  0  0  0  0
 11 20  2  0  0  0  0
 11 31  1  0  0  0  0
 12 16  2  0  0  0  0
 12 28  1  0  0  0  0
 15 26  1  0  0  0  0
 15 18  1  0  0  0  0
 16 19  1  0  0  0  0
 18 30  1  0  0  0  0
 19 22  2  0  0  0  0
 21 18  1  6  0  0  0
 21 24  1  0  0  0  0
 22 23  1  0  0  0  0
 22 25  1  0  0  0  0
 24 14  1  1  0  0  0
 24 27  1  0  0  0  0
 25 28  2  0  0  0  0
 25 30  1  0  0  0  0
 27 29  1  0  0  0  0
 29 31  1  0  0  0  0
M  CHG  1  17  -1
M  END
>  <CHROM.1>
-74.29745941,-24.60194561,-133.90966927,-56.14516594,-72.18185251,24.41707112
-130.37377837,-110.05395783,116.92585998,168.04910188,177.23759435,46.08881224
21.17996213,20.98596242,38.10298895,-1.11505201,0.00223072,2.00842437

>  <Name>
ligand

>  <RI>
0

>  <Rbt.Current_Directory>
/home/itssahil/PROJECTS/Mol_Feturizer/New_Systems/rnas/2HOO

>  <Rbt.Executable>
rbdock ($Id: //depot/dev/client3/rdock/2013.1/src/exe/rbdock.cxx#4 $)

>  <Rbt.Library>
libRbt.so (2013.1, Build901 2013/11/27)

>  <Rbt.Parameter_File>
/export/apps/rDock/src/rDock_2013.1_src/data/scripts/dock_solv.prm

>  <Rbt.Receptor>
prm/blind_docking_60.prm

>  <SCORE>
-26.2845

>  <SCORE.INTER>
-11.6837

>  <SCORE.INTER.CONST>
1

>  <SCORE.INTER.POLAR>
0

>  <SCORE.INTER.ROT>
12

>  <SCORE.INTER.SOLV>
9.66755

>  <SCORE.INTER.VDW>
-22.6117

>  <SCORE.INTER.norm>
-0.376895

>  <SCORE.INTRA>
-14.6007

>  <SCORE.INTRA.DIHEDRAL>
-0.233627

>  <SCORE.INTRA.DIHEDRAL.0>
14.6094

>  <SCORE.INTRA.POLAR>
0

>  <SCORE.INTRA.POLAR.0>
0

>  <SCORE.INTRA.REPUL>
0

>  <SCORE.INTRA.REPUL.0>
0

>  <SCORE.INTRA.SOLV>
0.221065

>  <SCORE.INTRA.SOLV.lig_0>
-65.6478

>  <SCORE.INTRA.VDW>
-14.5944

>  <SCORE.INTRA.VDW.0>
9.35535

>  <SCORE.INTRA.norm>
-0.470991

>  <SCORE.RESTR>
0

>  <SCORE.RESTR.CAVITY>
0

>  <SCORE.RESTR.norm>
0

>  <SCORE.SYSTEM>
0

>  <SCORE.SYSTEM.CONST>
0

>  <SCORE.SYSTEM.DIHEDRAL>
0

>  <SCORE.SYSTEM.SOLV>
0

>  <SCORE.SYSTEM.norm>
0

>  <SCORE.heavy>
31

>  <SCORE.norm>
-0.847886

>  <RMSD>
21.632

$$$$
ligand
 OpenBabel11021811443D
libRbt.so/2013.1/901 2013/11/27
 31 32  0  0  0  0  0  0  0  0999 V2000
   20.9380   22.0966   35.0551 C   0  0  0  0  0  0  0  0  0  0  0  0
   21.0710   23.4972   34.4647 C   0  0  0  0  0  0  0  0  0  0  0  0
   20.3037   23.8672   33.3130 C   0  0  0  0  0  0  0  0  0  0  0  0
   20.4339   25.1671   32.7678 C   0  0  0  0  0  0  0  0  0  0  0  0
   21.3125   26.1092   33.3566 C   0  0  0  0  0  0  0  0  0  0  0  0
   22.0707   25.7643   34.4940 C   0  0  0  0  0  0  0  0  0  0  0  0
   21.9568   24.4773   35.0494 C   0  0  0  0  0  0  0  0  0  0  0  0
   21.1180   21.1098   34.3422 O   0  0  0  0  0  0  0  0  0  0  0  0
   16.5014   19.0518   44.8563 C   0  0  0  0  0  0  0  0  0  0  0  0
   19.2628   19.0393   36.7629 C   0  0  0  0  0  0  0  0  0  0  0  0
   25.2519   22.3915   37.1610 P   0  0  1  0  0  0  0  0  0  0  0  0
   16.3970   19.6186   42.5321 N   0  0  0  0  0  0  0  0  0  0  0  0
   24.3412   23.0703   38.1026 O   0  0  0  0  0  0  0  0  0  0  0  0
   20.6144   21.9212   36.3894 S   0  0  0  0  0  0  0  0  0  0  0  0
   20.3425   18.4206   39.6991 C   0  0  0  0  0  0  0  0  0  0  0  0
   17.1996   19.4318   43.6348 C   0  0  0  0  0  0  0  0  0  0  0  0
   25.2007   22.9104   35.7673 O   0  5  0  0  0  0  0  0  0  0  0  0
   19.7152   19.4996   39.1690 N   0  0  0  0  0  0  0  0  0  0  0  0
   18.4880   19.5740   43.6274 N   0  0  0  0  0  0  0  0  0  0  0  0
   26.6224   22.3406   37.7208 O   0  0  0  0  0  0  0  0  0  0  0  0
   20.0700   19.8054   37.7756 C   0  0  2  0  0  0  0  0  0  0  0  0
   19.1430   19.9410   42.4674 C   0  0  0  0  0  0  0  0  0  0  0  0
   20.4704   20.0826   42.4976 N   0  0  0  0  0  0  0  0  0  0  0  0
   21.0728   20.7594   37.3119 C   0  0  1  0  0  0  0  0  0  0  0  0
   18.3633   20.1655   41.2601 C   0  0  0  0  0  0  0  0  0  0  0  0
   19.9001   17.3737   39.2798 O   0  0  0  0  0  0  0  0  0  0  0  0
   22.5183   20.6867   37.6560 C   0  0  0  0  0  0  0  0  0  0  0  0
   17.0004   19.9792   41.3723 C   0  0  0  0  0  0  0  0  0  0  0  0
   23.5062   20.4302   36.6006 C   0  0  0  0  0  0  0  0  0  0  0  0
   19.0174   20.6100   39.9747 C   0  0  0  0  0  0  0  0  0  0  0  0
   24.8092   20.8960   36.9929 O   0  0  0  0  0  0  0  0  0  0  0  0
  1  2  1  0  0  0  0
  1  8  2  0  0  0  0
  1 14  1  0  0  0  0
  2  3  2  0  0  0  0
  2  7  1  0  0  0  0
  3  4  1  0  0  0  0
  4  5  2  0  0  0  0
  5  6  1  0  0  0  0
  6  7  2  0  0  0  0
  9 16  1  0  0  0  0
 10 21  1  0  0  0  0
 11 13  1  1  0  0  0
 11 17  1  0  0  0  0
 11 20  2  0  0  0  0
 11 31  1  0  0  0  0
 12 16  2  0  0  0  0
 12 28  1  0  0  0  0
 15 26  1  0  0  0  0
 15 18  1  0  0  0  0
 16 19  1  0  0  0  0
 18 30  1  0  0  0  0
 19 22  2  0  0  0  0
 21 18  1  1  0  0  0
 21 24  1  0  0  0  0
 22 23  1  0  0  0  0
 22 25  1  0  0  0  0
 24 14  1  6  0  0  0
 24 27  1  0  0  0  0
 25 28  2  0  0  0  0
 25 30  1  0  0  0  0
 27 29  1  0  0  0  0
 29 31  1  0  0  0  0
M  CHG  1  17  -1
M  END
>  <CHROM.1>
54.93324703,-148.23050282,-112.11353253,-74.53883090,85.52064003,-33.21699998
57.85475211,-64.94658305,79.28024827,157.70912367,-69.31512927,55.14882879
21.06535556,21.28152492,38.04730047,1.02603706,-0.01470551,-1.06698960

>  <Name>
ligand

>  <RI>
0

>  <Rbt.Current_Directory>
/home/itssahil/PROJECTS/Mol_Feturizer/New_Systems/rnas/2HOO

>  <Rbt.Executable>
rbdock ($Id: //depot/dev/client3/rdock/2013.1/src/exe/rbdock.cxx#4 $)

>  <Rbt.Library>
libRbt.so (2013.1, Build901 2013/11/27)

>  <Rbt.Parameter_File>
/export/apps/rDock/src/rDock_2013.1_src/data/scripts/dock_solv.prm

>  <Rbt.Receptor>
prm/blind_docking_60.prm

>  <SCORE>
-23.6887

>  <SCORE.INTER>
-12.9146

>  <SCORE.INTER.CONST>
1

>  <SCORE.INTER.POLAR>
0

>  <SCORE.INTER.ROT>
12

>  <SCORE.INTER.SOLV>
8.34197

>  <SCORE.INTER.VDW>
-22.9904

>  <SCORE.INTER.norm>
-0.4166

>  <SCORE.INTRA>
-10.7748

>  <SCORE.INTRA.DIHEDRAL>
2.81555

>  <SCORE.INTRA.DIHEDRAL.0>
14.6094

>  <SCORE.INTRA.POLAR>
0

>  <SCORE.INTRA.POLAR.0>
0

>  <SCORE.INTRA.REPUL>
0

>  <SCORE.INTRA.REPUL.0>
0

>  <SCORE.INTRA.SOLV>
2.75654

>  <SCORE.INTRA.SOLV.lig_0>
-65.6478

>  <SCORE.INTRA.VDW>
-13.5608

>  <SCORE.INTRA.VDW.0>
9.35535

>  <SCORE.INTRA.norm>
-0.347573

>  <SCORE.RESTR>
0.00064465

>  <SCORE.RESTR.CAVITY>
0.00064465

>  <SCORE.RESTR.norm>
2.07952e-05

>  <SCORE.SYSTEM>
0

>  <SCORE.SYSTEM.CONST>
0

>  <SCORE.SYSTEM.DIHEDRAL>
0

>  <SCORE.SYSTEM.SOLV>
0

>  <SCORE.SYSTEM.norm>
0

>  <SCORE.heavy>
31

>  <SCORE.norm>
-0.764152

>  <RMSD>
21.702

$$$$
ligand
 OpenBabel11021811443D
libRbt.so/2013.1/901 2013/11/27
 31 32  0  0  0  0  0  0  0  0999 V2000
   23.4855   20.0927   36.7731 C   0  0  0  0  0  0  0  0  0  0  0  0
   24.5203   20.6837   35.8202 C   0  0  0  0  0  0  0  0  0  0  0  0
   24.5768   22.0995   35.6093 C   0  0  0  0  0  0  0  0  0  0  0  0
   25.5369   22.6416   34.7215 C   0  0  0  0  0  0  0  0  0  0  0  0
   26.4485   21.7953   34.0440 C   0  0  0  0  0  0  0  0  0  0  0  0
   26.4113   20.4003   34.2442 C   0  0  0  0  0  0  0  0  0  0  0  0
   25.4636   19.8423   35.1208 C   0  0  0  0  0  0  0  0  0  0  0  0
   23.4531   18.8781   36.9682 O   0  0  0  0  0  0  0  0  0  0  0  0
   20.1921   17.5802   45.1145 C   0  0  0  0  0  0  0  0  0  0  0  0
   18.6076   21.0400   37.4270 C   0  0  0  0  0  0  0  0  0  0  0  0
   21.8932   23.0799   32.8407 P   0  0  1  0  0  0  0  0  0  0  0  0
   21.2132   18.7882   43.3166 N   0  0  0  0  0  0  0  0  0  0  0  0
   21.5902   23.5747   31.4842 O   0  0  0  0  0  0  0  0  0  0  0  0
   22.5770   20.9100   37.4231 S   0  0  0  0  0  0  0  0  0  0  0  0
   20.8398   18.8344   39.0094 C   0  0  0  0  0  0  0  0  0  0  0  0
   20.0381   18.4040   43.9221 C   0  0  0  0  0  0  0  0  0  0  0  0
   23.0546   22.1529   32.9165 O   0  5  0  0  0  0  0  0  0  0  0  0
   20.1414   19.9941   39.0884 N   0  0  0  0  0  0  0  0  0  0  0  0
   18.8596   18.7313   43.4931 N   0  0  0  0  0  0  0  0  0  0  0  0
   21.9803   24.2126   33.7914 O   0  0  0  0  0  0  0  0  0  0  0  0
   20.0269   20.7405   37.8271 C   0  0  2  0  0  0  0  0  0  0  0  0
   18.7206   19.5070   42.3581 C   0  0  0  0  0  0  0  0  0  0  0  0
   17.4912   19.8212   41.9424 N   0  0  0  0  0  0  0  0  0  0  0  0
   21.1194   21.2140   36.9826 C   0  0  1  0  0  0  0  0  0  0  0  0
   19.9160   19.9465   41.6556 C   0  0  0  0  0  0  0  0  0  0  0  0
   20.2774   17.9149   39.5625 O   0  0  0  0  0  0  0  0  0  0  0  0
   20.9301   21.9850   35.7246 C   0  0  0  0  0  0  0  0  0  0  0  0
   21.1214   19.5513   42.1993 C   0  0  0  0  0  0  0  0  0  0  0  0
   20.7382   21.2723   34.4554 C   0  0  0  0  0  0  0  0  0  0  0  0
   19.8268   20.7587   40.3866 C   0  0  0  0  0  0  0  0  0  0  0  0
   20.7044   22.1922   33.3502 O   0  0  0  0  0  0  0  0  0  0  0  0
  1  2  1  0  0  0  0
  1  8  2  0  0  0  0
  1 14  1  0  0  0  0
  2  3  2  0  0  0  0
  2  7  1  0  0  0  0
  3  4  1  0  0  0  0
  4  5  2  0  0  0  0
  5  6  1  0  0  0  0
  6  7  2  0  0  0  0
  9 16  1  0  0  0  0
 10 21  1  0  0  0  0
 11 13  1  6  0  0  0
 11 17  1  0  0  0  0
 11 20  2  0  0  0  0
 11 31  1  0  0  0  0
 12 16  2  0  0  0  0
 12 28  1  0  0  0  0
 15 26  1  0  0  0  0
 15 18  1  0  0  0  0
 16 19  1  0  0  0  0
 18 30  1  0  0  0  0
 19 22  2  0  0  0  0
 21 18  1  1  0  0  0
 21 24  1  0  0  0  0
 22 23  1  0  0  0  0
 22 25  1  0  0  0  0
 24 14  1  1  0  0  0
 24 27  1  0  0  0  0
 25 28  2  0  0  0  0
 25 30  1  0  0  0  0
 27 29  1  0  0  0  0
 29 31  1  0  0  0  0
M  CHG  1  17  -1
M  END
>  <CHROM.1>
-178.86127778,96.54586129,114.03399902,-133.74357649,124.51344391,-20.23433781
179.23030645,93.29471683,-105.16192301,-174.41317596,66.07143840,163.67441117
21.63468069,20.72780782,37.46713565,-1.21722628,-0.24057333,2.02245535

>  <Name>
ligand

>  <RI>
0

>  <Rbt.Current_Directory>
/home/itssahil/PROJECTS/Mol_Feturizer/New_Systems/rnas/2HOO

>  <Rbt.Executable>
rbdock ($Id: //depot/dev/client3/rdock/2013.1/src/exe/rbdock.cxx#4 $)

>  <Rbt.Library>
libRbt.so (2013.1, Build901 2013/11/27)

>  <Rbt.Parameter_File>
/export/apps/rDock/src/rDock_2013.1_src/data/scripts/dock_solv.prm

>  <Rbt.Receptor>
prm/blind_docking_80.prm

>  <SCORE>
-21.8041

>  <SCORE.INTER>
-12.071

>  <SCORE.INTER.CONST>
1

>  <SCORE.INTER.POLAR>
0

>  <SCORE.INTER.ROT>
12

>  <SCORE.INTER.SOLV>
9.62065

>  <SCORE.INTER.VDW>
-22.8542

>  <SCORE.INTER.norm>
-0.389387

>  <SCORE.INTRA>
-9.73313

>  <SCORE.INTRA.DIHEDRAL>
2.75274

>  <SCORE.INTRA.DIHEDRAL.0>
14.6094

>  <SCORE.INTRA.POLAR>
0

>  <SCORE.INTRA.POLAR.0>
0

>  <SCORE.INTRA.REPUL>
0

>  <SCORE.INTRA.REPUL.0>
0

>  <SCORE.INTRA.SOLV>
3.6381

>  <SCORE.INTRA.SOLV.lig_0>
-65.6478

>  <SCORE.INTRA.VDW>
-12.9286

>  <SCORE.INTRA.VDW.0>
9.35535

>  <SCORE.INTRA.norm>
-0.313972

>  <SCORE.RESTR>
0

>  <SCORE.RESTR.CAVITY>
0

>  <SCORE.RESTR.norm>
0

>  <SCORE.SYSTEM>
0

>  <SCORE.SYSTEM.CONST>
0

>  <SCORE.SYSTEM.DIHEDRAL>
0

>  <SCORE.SYSTEM.SOLV>
0

>  <SCORE.SYSTEM.norm>
0

>  <SCORE.heavy>
31

>  <SCORE.norm>
-0.703359

>  <RMSD>
22.203

$$$$
ligand
 OpenBabel11021811443D
libRbt.so/2013.1/901 2013/11/27
 31 32  0  0  0  0  0  0  0  0999 V2000
   24.0201   20.9222   37.8040 C   0  0  0  0  0  0  0  0  0  0  0  0
   24.8505   21.8974   38.6331 C   0  0  0  0  0  0  0  0  0  0  0  0
   25.0946   23.2240   38.1505 C   0  0  0  0  0  0  0  0  0  0  0  0
   25.8686   24.1230   38.9228 C   0  0  0  0  0  0  0  0  0  0  0  0
   26.3988   23.7240   40.1741 C   0  0  0  0  0  0  0  0  0  0  0  0
   26.1635   22.4246   40.6674 C   0  0  0  0  0  0  0  0  0  0  0  0
   25.3985   21.5160   39.9142 C   0  0  0  0  0  0  0  0  0  0  0  0
   24.0341   20.9936   36.5755 O   0  0  0  0  0  0  0  0  0  0  0  0
   21.6438   24.5834   32.2996 C   0  0  0  0  0  0  0  0  0  0  0  0
   20.4763   21.6897   37.1101 C   0  0  0  0  0  0  0  0  0  0  0  0
   18.0880   19.7147   40.9002 P   0  0  1  0  0  0  0  0  0  0  0  0
   22.7500   22.7256   33.3289 N   0  0  0  0  0  0  0  0  0  0  0  0
   18.7376   20.9569   40.4402 O   0  0  0  0  0  0  0  0  0  0  0  0
   23.2460   19.9540   38.4197 S   0  0  0  0  0  0  0  0  0  0  0  0
   19.3420   18.9250   36.1265 C   0  0  0  0  0  0  0  0  0  0  0  0
   21.5511   23.2736   32.9321 C   0  0  0  0  0  0  0  0  0  0  0  0
   17.8063   19.6674   42.3605 O   0  5  0  0  0  0  0  0  0  0  0  0
   20.6064   19.4145   36.1036 N   0  0  0  0  0  0  0  0  0  0  0  0
   20.4012   22.6972   33.0919 N   0  0  0  0  0  0  0  0  0  0  0  0
   16.9041   19.4151   40.0617 O   0  0  0  0  0  0  0  0  0  0  0  0
   20.9639   20.2723   37.2426 C   0  0  2  0  0  0  0  0  0  0  0  0
   20.3197   21.4583   33.6984 C   0  0  0  0  0  0  0  0  0  0  0  0
   19.1181   20.8962   33.8504 N   0  0  0  0  0  0  0  0  0  0  0  0
   21.6952   19.8806   38.4438 C   0  0  1  0  0  0  0  0  0  0  0  0
   21.5429   20.8163   34.1538 C   0  0  0  0  0  0  0  0  0  0  0  0
   19.2087   17.9497   35.4204 O   0  0  0  0  0  0  0  0  0  0  0  0
   21.0510   19.4003   39.6956 C   0  0  0  0  0  0  0  0  0  0  0  0
   22.7147   21.5097   33.9283 C   0  0  0  0  0  0  0  0  0  0  0  0
   20.0231   18.3538   39.6307 C   0  0  0  0  0  0  0  0  0  0  0  0
   21.5132   19.4837   34.8619 C   0  0  0  0  0  0  0  0  0  0  0  0
   19.0672   18.5065   40.6945 O   0  0  0  0  0  0  0  0  0  0  0  0
  1  2  1  0  0  0  0
  1  8  2  0  0  0  0
  1 14  1  0  0  0  0
  2  3  2  0  0  0  0
  2  7  1  0  0  0  0
  3  4  1  0  0  0  0
  4  5  2  0  0  0  0
  5  6  1  0  0  0  0
  6  7  2  0  0  0  0
  9 16  1  0  0  0  0
 10 21  1  0  0  0  0
 11 13  1  6  0  0  0
 11 17  1  0  0  0  0
 11 20  2  0  0  0  0
 11 31  1  0  0  0  0
 12 16  2  0  0  0  0
 12 28  1  0  0  0  0
 15 26  1  0  0  0  0
 15 18  1  0  0  0  0
 16 19  1  0  0  0  0
 18 30  1  0  0  0  0
 19 22  2  0  0  0  0
 21 18  1  1  0  0  0
 21 24  1  0  0  0  0
 22 23  1  0  0  0  0
 22 25  1  0  0  0  0
 24 14  1  6  0  0  0
 24 27  1  0  0  0  0
 25 28  2  0  0  0  0
 25 30  1  0  0  0  0
 27 29  1  0  0  0  0
 29 31  1  0  0  0  0
M  CHG  1  17  -1
M  END
>  <CHROM.1>
31.04118719,112.19086336,37.69567353,-159.91648801,-80.87267929,97.49789024
-93.45074575,-130.80568987,-54.62098908,-149.50417034,63.99403499,-33.70006011
21.38957439,20.80811921,37.49957745,-0.94604568,0.42864493,1.77822833

>  <Name>
ligand

>  <RI>
0

>  <Rbt.Current_Directory>
/home/itssahil/PROJECTS/Mol_Feturizer/New_Systems/rnas/2HOO

>  <Rbt.Executable>
rbdock ($Id: //depot/dev/client3/rdock/2013.1/src/exe/rbdock.cxx#4 $)

>  <Rbt.Library>
libRbt.so (2013.1, Build901 2013/11/27)

>  <Rbt.Parameter_File>
/export/apps/rDock/src/rDock_2013.1_src/data/scripts/dock_solv.prm

>  <Rbt.Receptor>
prm/blind_docking_60.prm

>  <SCORE>
-25.1452

>  <SCORE.INTER>
-16.2859

>  <SCORE.INTER.CONST>
1

>  <SCORE.INTER.POLAR>
0

>  <SCORE.INTER.ROT>
12

>  <SCORE.INTER.SOLV>
7.67187

>  <SCORE.INTER.VDW>
-25.0146

>  <SCORE.INTER.norm>
-0.525352

>  <SCORE.INTRA>
-8.85929

>  <SCORE.INTRA.DIHEDRAL>
4.79997

>  <SCORE.INTRA.DIHEDRAL.0>
14.6094

>  <SCORE.INTRA.POLAR>
0

>  <SCORE.INTRA.POLAR.0>
0

>  <SCORE.INTRA.REPUL>
0

>  <SCORE.INTRA.REPUL.0>
0

>  <SCORE.INTRA.SOLV>
5.80957

>  <SCORE.INTRA.SOLV.lig_0>
-65.6478

>  <SCORE.INTRA.VDW>
-14.1641

>  <SCORE.INTRA.VDW.0>
9.35535

>  <SCORE.INTRA.norm>
-0.285784

>  <SCORE.RESTR>
0

>  <SCORE.RESTR.CAVITY>
0

>  <SCORE.RESTR.norm>
0

>  <SCORE.SYSTEM>
0

>  <SCORE.SYSTEM.CONST>
0

>  <SCORE.SYSTEM.DIHEDRAL>
0

>  <SCORE.SYSTEM.SOLV>
0

>  <SCORE.SYSTEM.norm>
0

>  <SCORE.heavy>
31

>  <SCORE.norm>
-0.811136

>  <RMSD>
22.433

$$$$
ligand
 OpenBabel11021811443D
libRbt.so/2013.1/901 2013/11/27
 31 32  0  0  0  0  0  0  0  0999 V2000
   23.8038   20.5972   35.8262 C   0  0  0  0  0  0  0  0  0  0  0  0
   24.7278   21.1932   36.8840 C   0  0  0  0  0  0  0  0  0  0  0  0
   26.1059   21.4379   36.5786 C   0  0  0  0  0  0  0  0  0  0  0  0
   26.9590   21.9879   37.5652 C   0  0  0  0  0  0  0  0  0  0  0  0
   26.4593   22.3058   38.8519 C   0  0  0  0  0  0  0  0  0  0  0  0
   25.1046   22.0774   39.1679 C   0  0  0  0  0  0  0  0  0  0  0  0
   24.2414   21.5299   38.2020 C   0  0  0  0  0  0  0  0  0  0  0  0
   23.9500   20.8991   34.6422 O   0  0  0  0  0  0  0  0  0  0  0  0
   20.9275   19.3653   44.5068 C   0  0  0  0  0  0  0  0  0  0  0  0
   19.1060   18.5168   36.0234 C   0  0  0  0  0  0  0  0  0  0  0  0
   21.9649   23.2211   33.0618 P   0  0  1  0  0  0  0  0  0  0  0  0
   21.5866   19.6010   42.2168 N   0  0  0  0  0  0  0  0  0  0  0  0
   22.9536   22.2368   32.5819 O   0  0  0  0  0  0  0  0  0  0  0  0
   22.7968   19.7175   36.1840 S   0  0  0  0  0  0  0  0  0  0  0  0
   19.8047   20.8117   38.3484 C   0  0  0  0  0  0  0  0  0  0  0  0
   20.6664   19.0844   43.1007 C   0  0  0  0  0  0  0  0  0  0  0  0
   22.5492   24.3850   33.7815 O   0  5  0  0  0  0  0  0  0  0  0  0
   20.1860   19.5539   38.0145 N   0  0  0  0  0  0  0  0  0  0  0  0
   19.6290   18.3925   42.7469 N   0  0  0  0  0  0  0  0  0  0  0  0
   21.0508   23.6068   31.9618 O   0  0  0  0  0  0  0  0  0  0  0  0
   20.2742   19.2913   36.5708 C   0  0  2  0  0  0  0  0  0  0  0  0
   19.3911   18.1241   41.4125 C   0  0  0  0  0  0  0  0  0  0  0  0
   18.3151   17.4045   41.0848 N   0  0  0  0  0  0  0  0  0  0  0  0
   21.3343   19.7171   35.6621 C   0  0  1  0  0  0  0  0  0  0  0  0
   20.3232   18.6287   40.4163 C   0  0  0  0  0  0  0  0  0  0  0  0
   18.6025   20.9213   38.4491 O   0  0  0  0  0  0  0  0  0  0  0  0
   21.1058   20.1659   34.2624 C   0  0  0  0  0  0  0  0  0  0  0  0
   21.3900   19.3609   40.8966 C   0  0  0  0  0  0  0  0  0  0  0  0
   20.2819   21.3533   34.0036 C   0  0  0  0  0  0  0  0  0  0  0  0
   20.1401   18.3311   38.9481 C   0  0  0  0  0  0  0  0  0  0  0  0
   21.0547   22.5570   34.1533 O   0  0  0  0  0  0  0  0  0  0  0  0
  1  2  1  0  0  0  0
  1  8  2  0  0  0  0
  1 14  1  0  0  0  0
  2  3  2  0  0  0  0
  2  7  1  0  0  0  0
  3  4  1  0  0  0  0
  4  5  2  0  0  0  0
  5  6  1  0  0  0  0
  6  7  2  0  0  0  0
  9 16  1  0  0  0  0
 10 21  1  0  0  0  0
 11 13  1  6  0  0  0
 11 17  1  0  0  0  0
 11 20  2  0  0  0  0
 11 31  1  0  0  0  0
 12 16  2  0  0  0  0
 12 28  1  0  0  0  0
 15 26  1  0  0  0  0
 15 18  1  0  0  0  0
 16 19  1  0  0  0  0
 18 30  1  0  0  0  0
 19 22  2  0  0  0  0
 21 18  1  6  0  0  0
 21 24  1  0  0  0  0
 22 23  1  0  0  0  0
 22 25  1  0  0  0  0
 24 14  1  1  0  0  0
 24 27  1  0  0  0  0
 25 28  2  0  0  0  0
 25 30  1  0  0  0  0
 27 29  1  0  0  0  0
 29 31  1  0  0  0  0
M  CHG  1  17  -1
M  END
>  <CHROM.1>
-35.31799981,136.31700393,-146.86760401,89.63519923,-102.38904411,-30.03559664
-144.05829308,-117.76301687,129.12051558,82.56126878,84.46506340,-55.51698988
21.78443598,20.64048050,37.25689312,-1.29419560,0.33680716,1.90086986

>  <Name>
ligand

>  <RI>
0

>  <Rbt.Current_Directory>
/home/itssahil/PROJECTS/Mol_Feturizer/New_Systems/rnas/2HOO

>  <Rbt.Executable>
rbdock ($Id: //depot/dev/client3/rdock/2013.1/src/exe/rbdock.cxx#4 $)

>  <Rbt.Library>
libRbt.so (2013.1, Build901 2013/11/27)

>  <Rbt.Parameter_File>
/export/apps/rDock/src/rDock_2013.1_src/data/scripts/dock_solv.prm

>  <Rbt.Receptor>
prm/blind_docking_60.prm

>  <SCORE>
-21.8479

>  <SCORE.INTER>
-10.7858

>  <SCORE.INTER.CONST>
1

>  <SCORE.INTER.POLAR>
0

>  <SCORE.INTER.ROT>
12

>  <SCORE.INTER.SOLV>
4.65654

>  <SCORE.INTER.VDW>
-20.3427

>  <SCORE.INTER.norm>
-0.347928

>  <SCORE.INTRA>
-11.0621

>  <SCORE.INTRA.DIHEDRAL>
3.09691

>  <SCORE.INTRA.DIHEDRAL.0>
14.6094

>  <SCORE.INTRA.POLAR>
0

>  <SCORE.INTRA.POLAR.0>
0

>  <SCORE.INTRA.REPUL>
0

>  <SCORE.INTRA.REPUL.0>
0

>  <SCORE.INTRA.SOLV>
1.12482

>  <SCORE.INTRA.SOLV.lig_0>
-65.6478

>  <SCORE.INTRA.VDW>
-13.173

>  <SCORE.INTRA.VDW.0>
9.35535

>  <SCORE.INTRA.norm>
-0.356843

>  <SCORE.RESTR>
0

>  <SCORE.RESTR.CAVITY>
0

>  <SCORE.RESTR.norm>
0

>  <SCORE.SYSTEM>
0

>  <SCORE.SYSTEM.CONST>
0

>  <SCORE.SYSTEM.DIHEDRAL>
0

>  <SCORE.SYSTEM.SOLV>
0

>  <SCORE.SYSTEM.norm>
0

>  <SCORE.heavy>
31

>  <SCORE.norm>
-0.70477

>  <RMSD>
22.465

$$$$
ligand
 OpenBabel11021811443D
libRbt.so/2013.1/901 2013/11/27
 31 32  0  0  0  0  0  0  0  0999 V2000
   22.0690   23.7976   35.7490 C   0  0  0  0  0  0  0  0  0  0  0  0
   21.5033   24.5750   34.5642 C   0  0  0  0  0  0  0  0  0  0  0  0
   20.6814   23.9119   33.5962 C   0  0  0  0  0  0  0  0  0  0  0  0
   20.1622   24.6378   32.4974 C   0  0  0  0  0  0  0  0  0  0  0  0
   20.4430   26.0183   32.3503 C   0  0  0  0  0  0  0  0  0  0  0  0
   21.2448   26.6884   33.2966 C   0  0  0  0  0  0  0  0  0  0  0  0
   21.7715   25.9844   34.3942 C   0  0  0  0  0  0  0  0  0  0  0  0
   23.1448   24.1308   36.2451 O   0  0  0  0  0  0  0  0  0  0  0  0
   17.1252   19.8406   42.9876 C   0  0  0  0  0  0  0  0  0  0  0  0
   19.4419   19.9702   34.4379 C   0  0  0  0  0  0  0  0  0  0  0  0
   25.6138   21.0025   35.9437 P   0  0  1  0  0  0  0  0  0  0  0  0
   16.7629   19.8031   40.6209 N   0  0  0  0  0  0  0  0  0  0  0  0
   26.4502   21.5084   37.0488 O   0  0  0  0  0  0  0  0  0  0  0  0
   21.3842   22.7157   36.2745 S   0  0  0  0  0  0  0  0  0  0  0  0
   18.0396   21.4753   36.8261 C   0  0  0  0  0  0  0  0  0  0  0  0
   17.6696   19.6637   41.6473 C   0  0  0  0  0  0  0  0  0  0  0  0
   25.0754   22.0566   35.0420 O   0  5  0  0  0  0  0  0  0  0  0  0
   19.0375   20.5570   36.8251 N   0  0  0  0  0  0  0  0  0  0  0  0
   18.9257   19.3947   41.4747 N   0  0  0  0  0  0  0  0  0  0  0  0
   26.3179   19.9154   35.2248 O   0  0  0  0  0  0  0  0  0  0  0  0
   19.9592   20.6387   35.6828 C   0  0  2  0  0  0  0  0  0  0  0  0
   19.4367   19.2349   40.2009 C   0  0  0  0  0  0  0  0  0  0  0  0
   20.7364   18.9628   40.0605 N   0  0  0  0  0  0  0  0  0  0  0  0
   21.2596   21.3008   35.6470 C   0  0  1  0  0  0  0  0  0  0  0  0
   18.5431   19.3753   39.0617 C   0  0  0  0  0  0  0  0  0  0  0  0
   17.0657   21.1037   36.2090 O   0  0  0  0  0  0  0  0  0  0  0  0
   22.4809   20.7127   35.0343 C   0  0  0  0  0  0  0  0  0  0  0  0
   17.2233   19.6535   39.3541 C   0  0  0  0  0  0  0  0  0  0  0  0
   23.2623   19.7173   35.7789 C   0  0  0  0  0  0  0  0  0  0  0  0
   19.0516   19.2551   37.6458 C   0  0  0  0  0  0  0  0  0  0  0  0
   24.3144   20.3478   36.5300 O   0  0  0  0  0  0  0  0  0  0  0  0
  1  2  1  0  0  0  0
  1  8  2  0  0  0  0
  1 14  1  0  0  0  0
  2  3  2  0  0  0  0
  2  7  1  0  0  0  0
  3  4  1  0  0  0  0
  4  5  2  0  0  0  0
  5  6  1  0  0  0  0
  6  7  2  0  0  0  0
  9 16  1  0  0  0  0
 10 21  1  0  0  0  0
 11 13  1  1  0  0  0
 11 17  1  0  0  0  0
 11 20  2  0  0  0  0
 11 31  1  0  0  0  0
 12 16  2  0  0  0  0
 12 28  1  0  0  0  0
 15 26  1  0  0  0  0
 15 18  1  0  0  0  0
 16 19  1  0  0  0  0
 18 30  1  0  0  0  0
 19 22  2  0  0  0  0
 21 18  1  6  0  0  0
 21 24  1  0  0  0  0
 22 23  1  0  0  0  0
 22 25  1  0  0  0  0
 24 14  1  6  0  0  0
 24 27  1  0  0  0  0
 25 28  2  0  0  0  0
 25 30  1  0  0  0  0
 27 29  1  0  0  0  0
 29 31  1  0  0  0  0
M  CHG  1  17  -1
M  END
>  <CHROM.1>
149.95242123,74.48563113,-137.57322096,87.43652774,-81.51182237,-41.47441070
134.15003379,100.57920610,-111.39503839,-92.47465104,-71.10143465,-178.66271182
21.14408641,21.49477124,36.69900433,0.84808029,0.20263474,-0.83711470

>  <Name>
ligand

>  <RI>
0

>  <Rbt.Current_Directory>
/home/itssahil/PROJECTS/Mol_Feturizer/New_Systems/rnas/2HOO

>  <Rbt.Executable>
rbdock ($Id: //depot/dev/client3/rdock/2013.1/src/exe/rbdock.cxx#4 $)

>  <Rbt.Library>
libRbt.so (2013.1, Build901 2013/11/27)

>  <Rbt.Parameter_File>
/export/apps/rDock/src/rDock_2013.1_src/data/scripts/dock_solv.prm

>  <Rbt.Receptor>
prm/blind_docking_60.prm

>  <SCORE>
-19.0757

>  <SCORE.INTER>
-9.72566

>  <SCORE.INTER.CONST>
1

>  <SCORE.INTER.POLAR>
0

>  <SCORE.INTER.ROT>
12

>  <SCORE.INTER.SOLV>
11.4403

>  <SCORE.INTER.VDW>
-21.8972

>  <SCORE.INTER.norm>
-0.313731

>  <SCORE.INTRA>
-9.34999

>  <SCORE.INTRA.DIHEDRAL>
4.79145

>  <SCORE.INTRA.DIHEDRAL.0>
14.6094

>  <SCORE.INTRA.POLAR>
0

>  <SCORE.INTRA.POLAR.0>
0

>  <SCORE.INTRA.REPUL>
0

>  <SCORE.INTRA.REPUL.0>
0

>  <SCORE.INTRA.SOLV>
3.36279

>  <SCORE.INTRA.SOLV.lig_0>
-65.6478

>  <SCORE.INTRA.VDW>
-13.4271

>  <SCORE.INTRA.VDW.0>
9.35535

>  <SCORE.INTRA.norm>
-0.301613

>  <SCORE.RESTR>
0

>  <SCORE.RESTR.CAVITY>
0

>  <SCORE.RESTR.norm>
0

>  <SCORE.SYSTEM>
0

>  <SCORE.SYSTEM.CONST>
0

>  <SCORE.SYSTEM.DIHEDRAL>
0

>  <SCORE.SYSTEM.SOLV>
0

>  <SCORE.SYSTEM.norm>
0

>  <SCORE.heavy>
31

>  <SCORE.norm>
-0.615344

>  <RMSD>
22.706

$$$$
ligand
 OpenBabel11021811443D
libRbt.so/2013.1/901 2013/11/27
 31 32  0  0  0  0  0  0  0  0999 V2000
   23.4275   21.0503   34.4614 C   0  0  0  0  0  0  0  0  0  0  0  0
   24.9001   20.9733   34.8535 C   0  0  0  0  0  0  0  0  0  0  0  0
   25.3656   21.6413   36.0322 C   0  0  0  0  0  0  0  0  0  0  0  0
   26.7336   21.5690   36.3889 C   0  0  0  0  0  0  0  0  0  0  0  0
   27.6464   20.8346   35.5929 C   0  0  0  0  0  0  0  0  0  0  0  0
   27.2048   20.1660   34.4330 C   0  0  0  0  0  0  0  0  0  0  0  0
   25.8499   20.2273   34.0608 C   0  0  0  0  0  0  0  0  0  0  0  0
   23.1005   21.5897   33.4048 O   0  0  0  0  0  0  0  0  0  0  0  0
   18.2874   19.2178   44.0518 C   0  0  0  0  0  0  0  0  0  0  0  0
   19.3287   19.2694   35.7547 C   0  0  0  0  0  0  0  0  0  0  0  0
   21.1857   24.6669   32.6947 P   0  0  1  0  0  0  0  0  0  0  0  0
   19.2405   20.5084   42.2741 N   0  0  0  0  0  0  0  0  0  0  0  0
   21.7093   23.7533   31.6612 O   0  0  0  0  0  0  0  0  0  0  0  0
   22.4496   20.5193   35.2845 S   0  0  0  0  0  0  0  0  0  0  0  0
   18.6973   21.2549   38.1018 C   0  0  0  0  0  0  0  0  0  0  0  0
   18.8412   19.2632   42.7044 C   0  0  0  0  0  0  0  0  0  0  0  0
   22.1176   24.9200   33.8268 O   0  5  0  0  0  0  0  0  0  0  0  0
   19.8232   20.5477   37.8350 N   0  0  0  0  0  0  0  0  0  0  0  0
   18.9347   18.1845   41.9920 N   0  0  0  0  0  0  0  0  0  0  0  0
   20.6688   25.9059   32.0686 O   0  0  0  0  0  0  0  0  0  0  0  0
   20.1233   20.3681   36.4072 C   0  0  2  0  0  0  0  0  0  0  0  0
   19.4671   18.2335   40.7178 C   0  0  0  0  0  0  0  0  0  0  0  0
   19.5522   17.1019   40.0141 N   0  0  0  0  0  0  0  0  0  0  0  0
   21.0628   21.1418   35.6012 C   0  0  1  0  0  0  0  0  0  0  0  0
   19.9202   19.5124   40.1934 C   0  0  0  0  0  0  0  0  0  0  0  0
   18.9254   22.4222   38.3316 O   0  0  0  0  0  0  0  0  0  0  0  0
   20.7844   22.5026   35.0685 C   0  0  0  0  0  0  0  0  0  0  0  0
   19.7684   20.6008   41.0283 C   0  0  0  0  0  0  0  0  0  0  0  0
   19.8828   22.6653   33.9212 C   0  0  0  0  0  0  0  0  0  0  0  0
   20.5500   19.6214   38.8262 C   0  0  0  0  0  0  0  0  0  0  0  0
   19.9513   24.0042   33.4003 O   0  0  0  0  0  0  0  0  0  0  0  0
  1  2  1  0  0  0  0
  1  8  2  0  0  0  0
  1 14  1  0  0  0  0
  2  3  2  0  0  0  0
  2  7  1  0  0  0  0
  3  4  1  0  0  0  0
  4  5  2  0  0  0  0
  5  6  1  0  0  0  0
  6  7  2  0  0  0  0
  9 16  1  0  0  0  0
 10 21  1  0  0  0  0
 11 13  1  6  0  0  0
 11 17  1  0  0  0  0
 11 20  2  0  0  0  0
 11 31  1  0  0  0  0
 12 16  2  0  0  0  0
 12 28  1  0  0  0  0
 15 26  1  0  0  0  0
 15 18  1  0  0  0  0
 16 19  1  0  0  0  0
 18 30  1  0  0  0  0
 19 22  2  0  0  0  0
 21 18  1  6  0  0  0
 21 24  1  0  0  0  0
 22 23  1  0  0  0  0
 22 25  1  0  0  0  0
 24 14  1  1  0  0  0
 24 27  1  0  0  0  0
 25 28  2  0  0  0  0
 25 30  1  0  0  0  0
 27 29  1  0  0  0  0
 29 31  1  0  0  0  0
M  CHG  1  17  -1
M  END
>  <CHROM.1>
116.80757850,139.57779787,174.83803787,-96.92519629,-80.05159168,0.40866967
-79.42040401,105.41842931,120.43946463,-168.65971883,66.74932783,48.44711411
21.37755133,21.31061418,36.50860426,-1.14923040,-0.33429717,2.16855953

>  <Name>
ligand

>  <RI>
0

>  <Rbt.Current_Directory>
/home/itssahil/PROJECTS/Mol_Feturizer/New_Systems/rnas/2HOO

>  <Rbt.Executable>
rbdock ($Id: //depot/dev/client3/rdock/2013.1/src/exe/rbdock.cxx#4 $)

>  <Rbt.Library>
libRbt.so (2013.1, Build901 2013/11/27)

>  <Rbt.Parameter_File>
/export/apps/rDock/src/rDock_2013.1_src/data/scripts/dock_solv.prm

>  <Rbt.Receptor>
prm/blind_docking_60.prm

>  <SCORE>
-19.1579

>  <SCORE.INTER>
-7.98878

>  <SCORE.INTER.CONST>
1

>  <SCORE.INTER.POLAR>
0

>  <SCORE.INTER.ROT>
12

>  <SCORE.INTER.SOLV>
7.65188

>  <SCORE.INTER.VDW>
-19.4765

>  <SCORE.INTER.norm>
-0.257703

>  <SCORE.INTRA>
-11.258

>  <SCORE.INTRA.DIHEDRAL>
2.25475

>  <SCORE.INTRA.DIHEDRAL.0>
14.6094

>  <SCORE.INTRA.POLAR>
0

>  <SCORE.INTRA.POLAR.0>
0

>  <SCORE.INTRA.REPUL>
0

>  <SCORE.INTRA.REPUL.0>
0

>  <SCORE.INTRA.SOLV>
1.85037

>  <SCORE.INTRA.SOLV.lig_0>
-65.6478

>  <SCORE.INTRA.VDW>
-13.3105

>  <SCORE.INTRA.VDW.0>
9.35535

>  <SCORE.INTRA.norm>
-0.36316

>  <SCORE.RESTR>
0.08881

>  <SCORE.RESTR.CAVITY>
0.08881

>  <SCORE.RESTR.norm>
0.00286484

>  <SCORE.SYSTEM>
0

>  <SCORE.SYSTEM.CONST>
0

>  <SCORE.SYSTEM.DIHEDRAL>
0

>  <SCORE.SYSTEM.SOLV>
0

>  <SCORE.SYSTEM.norm>
0

>  <SCORE.heavy>
31

>  <SCORE.norm>
-0.617998

>  <RMSD>
22.791

$$$$
ligand
 OpenBabel11021811443D
libRbt.so/2013.1/901 2013/11/27
 31 32  0  0  0  0  0  0  0  0999 V2000
    0.8427   14.8770   73.1715 C   0  0  0  0  0  0  0  0  0  0  0  0
    0.7392   14.1974   74.5336 C   0  0  0  0  0  0  0  0  0  0  0  0
    0.6436   12.7706   74.6193 C   0  0  0  0  0  0  0  0  0  0  0  0
    0.5444   12.1461   75.8857 C   0  0  0  0  0  0  0  0  0  0  0  0
    0.5460   12.9207   77.0716 C   0  0  0  0  0  0  0  0  0  0  0  0
    0.6455   14.3254   77.0065 C   0  0  0  0  0  0  0  0  0  0  0  0
    0.7431   14.9648   75.7577 C   0  0  0  0  0  0  0  0  0  0  0  0
   -0.1769   15.2488   72.5914 O   0  0  0  0  0  0  0  0  0  0  0  0
    8.0942   15.4533   70.0102 C   0  0  0  0  0  0  0  0  0  0  0  0
    4.0015   15.2901   75.7565 C   0  0  0  0  0  0  0  0  0  0  0  0
    4.8882   11.5709   75.7112 P   0  0  1  0  0  0  0  0  0  0  0  0
    7.2953   15.6779   72.2565 N   0  0  0  0  0  0  0  0  0  0  0  0
    5.3181   12.4273   76.8330 O   0  0  0  0  0  0  0  0  0  0  0  0
    2.0757   15.0805   72.5765 S   0  0  0  0  0  0  0  0  0  0  0  0
    2.6748   17.9127   75.1819 C   0  0  0  0  0  0  0  0  0  0  0  0
    7.2519   16.1593   70.9675 C   0  0  0  0  0  0  0  0  0  0  0  0
    5.9742   10.7547   75.1040 O   0  5  0  0  0  0  0  0  0  0  0  0
    3.6630   17.3703   74.4280 N   0  0  0  0  0  0  0  0  0  0  0  0
    6.5266   17.1660   70.5926 N   0  0  0  0  0  0  0  0  0  0  0  0
    3.7005   10.7756   76.0999 O   0  0  0  0  0  0  0  0  0  0  0  0
    3.7020   15.9008   74.4143 C   0  0  2  0  0  0  0  0  0  0  0  0
    5.7355   17.8351   71.5068 C   0  0  0  0  0  0  0  0  0  0  0  0
    5.0047   18.8705   71.0862 N   0  0  0  0  0  0  0  0  0  0  0  0
    3.4634   15.0249   73.2712 C   0  0  1  0  0  0  0  0  0  0  0  0
    5.7329   17.3919   72.8922 C   0  0  0  0  0  0  0  0  0  0  0  0
    2.9959   18.0463   76.3422 O   0  0  0  0  0  0  0  0  0  0  0  0
    4.4631   14.0657   72.7296 C   0  0  0  0  0  0  0  0  0  0  0  0
    6.5329   16.3062   73.1855 C   0  0  0  0  0  0  0  0  0  0  0  0
    5.2648   13.2511   73.6513 C   0  0  0  0  0  0  0  0  0  0  0  0
    4.9232   18.1097   73.9444 C   0  0  0  0  0  0  0  0  0  0  0  0
    4.4195   12.4724   74.5160 O   0  0  0  0  0  0  0  0  0  0  0  0
  1  2  1  0  0  0  0
  1  8  2  0  0  0  0
  1 14  1  0  0  0  0
  2  3  2  0  0  0  0
  2  7  1  0  0  0  0
  3  4  1  0  0  0  0
  4  5  2  0  0  0  0
  5  6  1  0  0  0  0
  6  7  2  0  0  0  0
  9 16  1  0  0  0  0
 10 21  1  0  0  0  0
 11 13  1  1  0  0  0
 11 17  1  0  0  0  0
 11 20  2  0  0  0  0
 11 31  1  0  0  0  0
 12 16  2  0  0  0  0
 12 28  1  0  0  0  0
 15 26  1  0  0  0  0
 15 18  1  0  0  0  0
 16 19  1  0  0  0  0
 18 30  1  0  0  0  0
 19 22  2  0  0  0  0
 21 18  1  1  0  0  0
 21 24  1  0  0  0  0
 22 23  1  0  0  0  0
 22 25  1  0  0  0  0
 24 14  1  1  0  0  0
 24 27  1  0  0  0  0
 25 28  2  0  0  0  0
 25 30  1  0  0  0  0
 27 29  1  0  0  0  0
 29 31  1  0  0  0  0
M  CHG  1  17  -1
M  END
>  <CHROM.1>
91.78662917,-16.82039265,-56.70705339,86.53515035,-64.30494036,-167.91401738
117.93196074,-136.61814988,106.85705296,56.99424553,-174.57384235,72.68089505
3.84560673,14.81715847,74.01479812,2.19320263,-0.38574098,2.65839760

>  <Name>
ligand

>  <RI>
0

>  <Rbt.Current_Directory>
/home/itssahil/PROJECTS/Mol_Feturizer/New_Systems/rnas/2HOO

>  <Rbt.Executable>
rbdock ($Id: //depot/dev/client3/rdock/2013.1/src/exe/rbdock.cxx#4 $)

>  <Rbt.Library>
libRbt.so (2013.1, Build901 2013/11/27)

>  <Rbt.Parameter_File>
/export/apps/rDock/src/rDock_2013.1_src/data/scripts/dock_solv.prm

>  <Rbt.Receptor>
prm/blind_docking_100.prm

>  <SCORE>
-19.2058

>  <SCORE.INTER>
-3.37893

>  <SCORE.INTER.CONST>
1

>  <SCORE.INTER.POLAR>
0

>  <SCORE.INTER.ROT>
12

>  <SCORE.INTER.SOLV>
13.1849

>  <SCORE.INTER.VDW>
-18.2476

>  <SCORE.INTER.norm>
-0.108998

>  <SCORE.INTRA>
-15.8269

>  <SCORE.INTRA.DIHEDRAL>
-1.40544

>  <SCORE.INTRA.DIHEDRAL.0>
14.6094

>  <SCORE.INTRA.POLAR>
0

>  <SCORE.INTRA.POLAR.0>
0

>  <SCORE.INTRA.REPUL>
0

>  <SCORE.INTRA.REPUL.0>
0

>  <SCORE.INTRA.SOLV>
0.42777

>  <SCORE.INTRA.SOLV.lig_0>
-65.6478

>  <SCORE.INTRA.VDW>
-15.338

>  <SCORE.INTRA.VDW.0>
9.35535

>  <SCORE.INTRA.norm>
-0.510544

>  <SCORE.RESTR>
0

>  <SCORE.RESTR.CAVITY>
0

>  <SCORE.RESTR.norm>
0

>  <SCORE.SYSTEM>
0

>  <SCORE.SYSTEM.CONST>
0

>  <SCORE.SYSTEM.DIHEDRAL>
0

>  <SCORE.SYSTEM.SOLV>
0

>  <SCORE.SYSTEM.norm>
0

>  <SCORE.heavy>
31

>  <SCORE.norm>
-0.619542

>  <RMSD>
22.881

$$$$
ligand
 OpenBabel11021811443D
libRbt.so/2013.1/901 2013/11/27
 31 32  0  0  0  0  0  0  0  0999 V2000
   21.8803   24.2747   35.3662 C   0  0  0  0  0  0  0  0  0  0  0  0
   21.3511   25.1673   34.2476 C   0  0  0  0  0  0  0  0  0  0  0  0
   20.4310   24.6418   33.2835 C   0  0  0  0  0  0  0  0  0  0  0  0
   19.9462   25.4740   32.2461 C   0  0  0  0  0  0  0  0  0  0  0  0
   20.3582   26.8262   32.1570 C   0  0  0  0  0  0  0  0  0  0  0  0
   21.2582   27.3618   33.1006 C   0  0  0  0  0  0  0  0  0  0  0  0
   21.7527   26.5507   34.1377 C   0  0  0  0  0  0  0  0  0  0  0  0
   22.5350   24.7650   36.2857 O   0  0  0  0  0  0  0  0  0  0  0  0
   17.8584   19.5175   44.0542 C   0  0  0  0  0  0  0  0  0  0  0  0
   20.6555   19.8068   35.8721 C   0  0  0  0  0  0  0  0  0  0  0  0
   25.8311   21.0691   34.1916 P   0  0  1  0  0  0  0  0  0  0  0  0
   19.2794   20.5796   42.4457 N   0  0  0  0  0  0  0  0  0  0  0  0
   25.4375   21.2253   32.7783 O   0  0  0  0  0  0  0  0  0  0  0  0
   21.6330   22.9129   35.3588 S   0  0  0  0  0  0  0  0  0  0  0  0
   19.2020   21.6487   38.2077 C   0  0  0  0  0  0  0  0  0  0  0  0
   18.4972   19.4869   42.7445 C   0  0  0  0  0  0  0  0  0  0  0  0
   26.0191   19.6596   34.6298 O   0  5  0  0  0  0  0  0  0  0  0  0
   20.2686   20.8163   38.1165 N   0  0  0  0  0  0  0  0  0  0  0  0
   18.3169   18.4828   41.9450 N   0  0  0  0  0  0  0  0  0  0  0  0
   26.9877   21.9415   34.5004 O   0  0  0  0  0  0  0  0  0  0  0  0
   21.0128   20.8922   36.8510 C   0  0  2  0  0  0  0  0  0  0  0  0
   18.9310   18.4570   40.7074 C   0  0  0  0  0  0  0  0  0  0  0  0
   18.7262   17.4047   39.9114 N   0  0  0  0  0  0  0  0  0  0  0  0
   22.0032   21.8950   36.4715 C   0  0  1  0  0  0  0  0  0  0  0  0
   19.7813   19.5720   40.3206 C   0  0  0  0  0  0  0  0  0  0  0  0
   18.1488   21.0746   38.0383 O   0  0  0  0  0  0  0  0  0  0  0  0
   23.3590   22.0015   37.0744 C   0  0  0  0  0  0  0  0  0  0  0  0
   19.9001   20.5944   41.2400 C   0  0  0  0  0  0  0  0  0  0  0  0
   24.4731   21.2358   36.5017 C   0  0  0  0  0  0  0  0  0  0  0  0
   20.5128   19.5802   39.0005 C   0  0  0  0  0  0  0  0  0  0  0  0
   24.6667   21.5695   35.1161 O   0  0  0  0  0  0  0  0  0  0  0  0
  1  2  1  0  0  0  0
  1  8  2  0  0  0  0
  1 14  1  0  0  0  0
  2  3  2  0  0  0  0
  2  7  1  0  0  0  0
  3  4  1  0  0  0  0
  4  5  2  0  0  0  0
  5  6  1  0  0  0  0
  6  7  2  0  0  0  0
  9 16  1  0  0  0  0
 10 21  1  0  0  0  0
 11 13  1  6  0  0  0
 11 17  1  0  0  0  0
 11 20  2  0  0  0  0
 11 31  1  0  0  0  0
 12 16  2  0  0  0  0
 12 28  1  0  0  0  0
 15 26  1  0  0  0  0
 15 18  1  0  0  0  0
 16 19  1  0  0  0  0
 18 30  1  0  0  0  0
 19 22  2  0  0  0  0
 21 18  1  6  0  0  0
 21 24  1  0  0  0  0
 22 23  1  0  0  0  0
 22 25  1  0  0  0  0
 24 14  1  6  0  0  0
 24 27  1  0  0  0  0
 25 28  2  0  0  0  0
 25 30  1  0  0  0  0
 27 29  1  0  0  0  0
 29 31  1  0  0  0  0
M  CHG  1  17  -1
M  END
>  <CHROM.1>
-170.95147588,-174.83506187,136.52077090,102.53897139,-98.94940879,-21.33084868
68.50880699,-91.09116673,125.88418424,58.12625550,173.99991893,160.18344848
21.60603148,21.74641026,36.82978718,0.99317111,0.51235236,-0.75826656

>  <Name>
ligand

>  <RI>
0

>  <Rbt.Current_Directory>
/home/itssahil/PROJECTS/Mol_Feturizer/New_Systems/rnas/2HOO

>  <Rbt.Executable>
rbdock ($Id: //depot/dev/client3/rdock/2013.1/src/exe/rbdock.cxx#4 $)

>  <Rbt.Library>
libRbt.so (2013.1, Build901 2013/11/27)

>  <Rbt.Parameter_File>
/export/apps/rDock/src/rDock_2013.1_src/data/scripts/dock_solv.prm

>  <Rbt.Receptor>
prm/blind_docking_60.prm

>  <SCORE>
-24.4927

>  <SCORE.INTER>
-12.0766

>  <SCORE.INTER.CONST>
1

>  <SCORE.INTER.POLAR>
0

>  <SCORE.INTER.ROT>
12

>  <SCORE.INTER.SOLV>
15.8893

>  <SCORE.INTER.VDW>
-24.9475

>  <SCORE.INTER.norm>
-0.389568

>  <SCORE.INTRA>
-12.4648

>  <SCORE.INTRA.DIHEDRAL>
-0.801491

>  <SCORE.INTRA.DIHEDRAL.0>
14.6094

>  <SCORE.INTRA.POLAR>
0

>  <SCORE.INTRA.POLAR.0>
0

>  <SCORE.INTRA.REPUL>
0

>  <SCORE.INTRA.REPUL.0>
0

>  <SCORE.INTRA.SOLV>
0.22853

>  <SCORE.INTRA.SOLV.lig_0>
-65.6478

>  <SCORE.INTRA.VDW>
-12.1784

>  <SCORE.INTRA.VDW.0>
9.35535

>  <SCORE.INTRA.norm>
-0.402092

>  <SCORE.RESTR>
0.0487499

>  <SCORE.RESTR.CAVITY>
0.0487499

>  <SCORE.RESTR.norm>
0.00157258

>  <SCORE.SYSTEM>
0

>  <SCORE.SYSTEM.CONST>
0

>  <SCORE.SYSTEM.DIHEDRAL>
0

>  <SCORE.SYSTEM.SOLV>
0

>  <SCORE.SYSTEM.norm>
0

>  <SCORE.heavy>
31

>  <SCORE.norm>
-0.790087

>  <RMSD>
22.929

$$$$
ligand
 OpenBabel11021811443D
libRbt.so/2013.1/901 2013/11/27
 31 32  0  0  0  0  0  0  0  0999 V2000
    6.9752   14.3951   72.2641 C   0  0  0  0  0  0  0  0  0  0  0  0
    6.5800   15.6972   71.5739 C   0  0  0  0  0  0  0  0  0  0  0  0
    6.9746   15.9403   70.2184 C   0  0  0  0  0  0  0  0  0  0  0  0
    6.6078   17.1517   69.5845 C   0  0  0  0  0  0  0  0  0  0  0  0
    5.8465   18.1243   70.2779 C   0  0  0  0  0  0  0  0  0  0  0  0
    5.4444   17.8993   71.6101 C   0  0  0  0  0  0  0  0  0  0  0  0
    5.8004   16.7028   72.2580 C   0  0  0  0  0  0  0  0  0  0  0  0
    8.1486   14.0244   72.2510 O   0  0  0  0  0  0  0  0  0  0  0  0
    0.5965   15.9569   72.4701 C   0  0  0  0  0  0  0  0  0  0  0  0
    7.6785   13.1937   76.3337 C   0  0  0  0  0  0  0  0  0  0  0  0
    2.2656   11.1298   75.8531 P   0  0  1  0  0  0  0  0  0  0  0  0
    2.2410   14.5560   73.5033 N   0  0  0  0  0  0  0  0  0  0  0  0
    1.9550    9.7058   75.6237 O   0  0  0  0  0  0  0  0  0  0  0  0
    6.0250   13.6209   72.9070 S   0  0  0  0  0  0  0  0  0  0  0  0
    6.7440   16.1020   75.3644 C   0  0  0  0  0  0  0  0  0  0  0  0
    1.6051   15.7770   73.5067 C   0  0  0  0  0  0  0  0  0  0  0  0
    1.2721   12.0797   75.2833 O   0  5  0  0  0  0  0  0  0  0  0  0
    6.0665   15.0281   75.8407 N   0  0  0  0  0  0  0  0  0  0  0  0
    1.8571   16.7244   74.3546 N   0  0  0  0  0  0  0  0  0  0  0  0
    2.5525   11.3668   77.2869 O   0  0  0  0  0  0  0  0  0  0  0  0
    6.5989   13.7215   75.4280 C   0  0  2  0  0  0  0  0  0  0  0  0
    2.8194   16.5496   75.3308 C   0  0  0  0  0  0  0  0  0  0  0  0
    3.0558   17.5486   76.1846 N   0  0  0  0  0  0  0  0  0  0  0  0
    6.1745   12.9197   74.2844 C   0  0  1  0  0  0  0  0  0  0  0  0
    3.5425   15.2888   75.3881 C   0  0  0  0  0  0  0  0  0  0  0  0
    7.6472   16.4431   76.0961 O   0  0  0  0  0  0  0  0  0  0  0  0
    5.8611   11.4671   74.3517 C   0  0  0  0  0  0  0  0  0  0  0  0
    3.1926   14.3431   74.4457 C   0  0  0  0  0  0  0  0  0  0  0  0
    4.8971   10.9751   75.3439 C   0  0  0  0  0  0  0  0  0  0  0  0
    4.6343   15.0556   76.4036 C   0  0  0  0  0  0  0  0  0  0  0  0
    3.5844   11.5057   75.0913 O   0  0  0  0  0  0  0  0  0  0  0  0
  1  2  1  0  0  0  0
  1  8  2  0  0  0  0
  1 14  1  0  0  0  0
  2  3  2  0  0  0  0
  2  7  1  0  0  0  0
  3  4  1  0  0  0  0
  4  5  2  0  0  0  0
  5  6  1  0  0  0  0
  6  7  2  0  0  0  0
  9 16  1  0  0  0  0
 10 21  1  0  0  0  0
 11 13  1  6  0  0  0
 11 17  1  0  0  0  0
 11 20  2  0  0  0  0
 11 31  1  0  0  0  0
 12 16  2  0  0  0  0
 12 28  1  0  0  0  0
 15 26  1  0  0  0  0
 15 18  1  0  0  0  0
 16 19  1  0  0  0  0
 18 30  1  0  0  0  0
 19 22  2  0  0  0  0
 21 18  1  1  0  0  0
 21 24  1  0  0  0  0
 22 23  1  0  0  0  0
 22 25  1  0  0  0  0
 24 14  1  1  0  0  0
 24 27  1  0  0  0  0
 25 28  2  0  0  0  0
 25 30  1  0  0  0  0
 27 29  1  0  0  0  0
 29 31  1  0  0  0  0
M  CHG  1  17  -1
M  END
>  <CHROM.1>
50.98004012,-137.29909267,52.70869412,-89.11944695,87.21977578,70.46201361
-133.59503556,-126.55154144,-108.14300563,64.20620110,174.70270034,-63.87954262
4.60941907,14.26043094,74.21590748,-1.01794119,-0.19480117,2.59244303

>  <Name>
ligand

>  <RI>
0

>  <Rbt.Current_Directory>
/home/itssahil/PROJECTS/Mol_Feturizer/New_Systems/rnas/2HOO

>  <Rbt.Executable>
rbdock ($Id: //depot/dev/client3/rdock/2013.1/src/exe/rbdock.cxx#4 $)

>  <Rbt.Library>
libRbt.so (2013.1, Build901 2013/11/27)

>  <Rbt.Parameter_File>
/export/apps/rDock/src/rDock_2013.1_src/data/scripts/dock_solv.prm

>  <Rbt.Receptor>
prm/blind_docking_100.prm

>  <SCORE>
-21.7469

>  <SCORE.INTER>
-5.67526

>  <SCORE.INTER.CONST>
1

>  <SCORE.INTER.POLAR>
0

>  <SCORE.INTER.ROT>
12

>  <SCORE.INTER.SOLV>
15.2992

>  <SCORE.INTER.VDW>
-20.4832

>  <SCORE.INTER.norm>
-0.183073

>  <SCORE.INTRA>
-16.0795

>  <SCORE.INTRA.DIHEDRAL>
0.274257

>  <SCORE.INTRA.DIHEDRAL.0>
14.6094

>  <SCORE.INTRA.POLAR>
0

>  <SCORE.INTRA.POLAR.0>
0

>  <SCORE.INTRA.REPUL>
0

>  <SCORE.INTRA.REPUL.0>
0

>  <SCORE.INTRA.SOLV>
1.94389

>  <SCORE.INTRA.SOLV.lig_0>
-65.6478

>  <SCORE.INTRA.VDW>
-17.1886

>  <SCORE.INTRA.VDW.0>
9.35535

>  <SCORE.INTRA.norm>
-0.518694

>  <SCORE.RESTR>
0.00783239

>  <SCORE.RESTR.CAVITY>
0.00783239

>  <SCORE.RESTR.norm>
0.000252658

>  <SCORE.SYSTEM>
0

>  <SCORE.SYSTEM.CONST>
0

>  <SCORE.SYSTEM.DIHEDRAL>
0

>  <SCORE.SYSTEM.SOLV>
0

>  <SCORE.SYSTEM.norm>
0

>  <SCORE.heavy>
31

>  <SCORE.norm>
-0.701514

>  <RMSD>
23.078

$$$$
ligand
 OpenBabel11021811443D
libRbt.so/2013.1/901 2013/11/27
 31 32  0  0  0  0  0  0  0  0999 V2000
   21.1062   23.3449   32.9217 C   0  0  0  0  0  0  0  0  0  0  0  0
   22.6071   23.4418   32.6649 C   0  0  0  0  0  0  0  0  0  0  0  0
   23.3314   24.6097   33.0696 C   0  0  0  0  0  0  0  0  0  0  0  0
   24.7231   24.6952   32.8255 C   0  0  0  0  0  0  0  0  0  0  0  0
   25.4084   23.6310   32.1899 C   0  0  0  0  0  0  0  0  0  0  0  0
   24.7129   22.4716   31.7905 C   0  0  0  0  0  0  0  0  0  0  0  0
   23.3296   22.3684   32.0224 C   0  0  0  0  0  0  0  0  0  0  0  0
   20.3813   24.3145   32.7009 O   0  0  0  0  0  0  0  0  0  0  0  0
   21.0097   19.5691   42.7181 C   0  0  0  0  0  0  0  0  0  0  0  0
   19.9640   19.0703   34.2186 C   0  0  0  0  0  0  0  0  0  0  0  0
   24.1752   23.9173   36.7774 P   0  0  1  0  0  0  0  0  0  0  0  0
   21.6248   19.1807   40.4366 N   0  0  0  0  0  0  0  0  0  0  0  0
   24.8055   24.5012   37.9768 O   0  0  0  0  0  0  0  0  0  0  0  0
   20.5472   22.1741   33.4039 S   0  0  0  0  0  0  0  0  0  0  0  0
   18.4404   21.0738   36.5364 C   0  0  0  0  0  0  0  0  0  0  0  0
   20.6027   19.4240   41.3261 C   0  0  0  0  0  0  0  0  0  0  0  0
   22.9429   24.6167   36.3230 O   0  5  0  0  0  0  0  0  0  0  0  0
   19.4519   20.1828   36.3880 N   0  0  0  0  0  0  0  0  0  0  0  0
   19.3551   19.5238   40.9889 N   0  0  0  0  0  0  0  0  0  0  0  0
   25.1815   23.7398   35.7050 O   0  0  0  0  0  0  0  0  0  0  0  0
   20.1729   20.2648   35.1096 C   0  0  2  0  0  0  0  0  0  0  0  0
   18.9754   19.3785   39.6683 C   0  0  0  0  0  0  0  0  0  0  0  0
   17.6809   19.4832   39.3578 N   0  0  0  0  0  0  0  0  0  0  0  0
   21.0143   21.3625   34.6426 C   0  0  1  0  0  0  0  0  0  0  0  0
   19.9969   19.1109   38.6679 C   0  0  0  0  0  0  0  0  0  0  0  0
   18.5481   21.7350   37.5456 O   0  0  0  0  0  0  0  0  0  0  0  0
   22.3054   21.7520   35.2703 C   0  0  0  0  0  0  0  0  0  0  0  0
   21.2951   19.0321   39.1295 C   0  0  0  0  0  0  0  0  0  0  0  0
   22.3871   21.9151   36.7271 C   0  0  0  0  0  0  0  0  0  0  0  0
   19.6384   18.8996   37.2171 C   0  0  0  0  0  0  0  0  0  0  0  0
   23.6551   22.4753   37.1107 O   0  0  0  0  0  0  0  0  0  0  0  0
  1  2  1  0  0  0  0
  1  8  2  0  0  0  0
  1 14  1  0  0  0  0
  2  3  2  0  0  0  0
  2  7  1  0  0  0  0
  3  4  1  0  0  0  0
  4  5  2  0  0  0  0
  5  6  1  0  0  0  0
  6  7  2  0  0  0  0
  9 16  1  0  0  0  0
 10 21  1  0  0  0  0
 11 13  1  1  0  0  0
 11 17  1  0  0  0  0
 11 20  2  0  0  0  0
 11 31  1  0  0  0  0
 12 16  2  0  0  0  0
 12 28  1  0  0  0  0
 15 26  1  0  0  0  0
 15 18  1  0  0  0  0
 16 19  1  0  0  0  0
 18 30  1  0  0  0  0
 19 22  2  0  0  0  0
 21 18  1  6  0  0  0
 21 24  1  0  0  0  0
 22 23  1  0  0  0  0
 22 25  1  0  0  0  0
 24 14  1  6  0  0  0
 24 27  1  0  0  0  0
 25 28  2  0  0  0  0
 25 30  1  0  0  0  0
 27 29  1  0  0  0  0
 29 31  1  0  0  0  0
M  CHG  1  17  -1
M  END
>  <CHROM.1>
43.44904007,51.03438327,170.87311615,-125.68478286,-112.10173558,-68.56913489
64.50365820,132.60297736,83.18941688,-171.72665346,66.30520015,136.44876759
21.63470750,21.78592926,36.21736347,1.02614388,-0.57704988,-1.31430918

>  <Name>
ligand

>  <RI>
0

>  <Rbt.Current_Directory>
/home/itssahil/PROJECTS/Mol_Feturizer/New_Systems/rnas/2HOO

>  <Rbt.Executable>
rbdock ($Id: //depot/dev/client3/rdock/2013.1/src/exe/rbdock.cxx#4 $)

>  <Rbt.Library>
libRbt.so (2013.1, Build901 2013/11/27)

>  <Rbt.Parameter_File>
/export/apps/rDock/src/rDock_2013.1_src/data/scripts/dock_solv.prm

>  <Rbt.Receptor>
prm/blind_docking_60.prm

>  <SCORE>
-21.0495

>  <SCORE.INTER>
-11.9997

>  <SCORE.INTER.CONST>
1

>  <SCORE.INTER.POLAR>
0

>  <SCORE.INTER.ROT>
12

>  <SCORE.INTER.SOLV>
9.40447

>  <SCORE.INTER.VDW>
-22.7346

>  <SCORE.INTER.norm>
-0.387087

>  <SCORE.INTRA>
-9.09487

>  <SCORE.INTRA.DIHEDRAL>
3.55529

>  <SCORE.INTRA.DIHEDRAL.0>
14.6094

>  <SCORE.INTRA.POLAR>
0

>  <SCORE.INTRA.POLAR.0>
0

>  <SCORE.INTRA.REPUL>
0

>  <SCORE.INTRA.REPUL.0>
0

>  <SCORE.INTRA.SOLV>
6.34819

>  <SCORE.INTRA.SOLV.lig_0>
-65.6478

>  <SCORE.INTRA.VDW>
-14.0466

>  <SCORE.INTRA.VDW.0>
9.35535

>  <SCORE.INTRA.norm>
-0.293383

>  <SCORE.RESTR>
0.0450414

>  <SCORE.RESTR.CAVITY>
0.0450414

>  <SCORE.RESTR.norm>
0.00145295

>  <SCORE.SYSTEM>
0

>  <SCORE.SYSTEM.CONST>
0

>  <SCORE.SYSTEM.DIHEDRAL>
0

>  <SCORE.SYSTEM.SOLV>
0

>  <SCORE.SYSTEM.norm>
0

>  <SCORE.heavy>
31

>  <SCORE.norm>
-0.679017

>  <RMSD>
23.226

$$$$
ligand
 OpenBabel11021811443D
libRbt.so/2013.1/901 2013/11/27
 31 32  0  0  0  0  0  0  0  0999 V2000
   20.7237   23.6298   34.2600 C   0  0  0  0  0  0  0  0  0  0  0  0
   22.0446   24.2327   34.7289 C   0  0  0  0  0  0  0  0  0  0  0  0
   22.4802   24.0452   36.0806 C   0  0  0  0  0  0  0  0  0  0  0  0
   23.7050   24.6099   36.5106 C   0  0  0  0  0  0  0  0  0  0  0  0
   24.5085   25.3539   35.6123 C   0  0  0  0  0  0  0  0  0  0  0  0
   24.0984   25.5433   34.2769 C   0  0  0  0  0  0  0  0  0  0  0  0
   22.8839   24.9919   33.8309 C   0  0  0  0  0  0  0  0  0  0  0  0
   19.9488   24.3018   33.5800 O   0  0  0  0  0  0  0  0  0  0  0  0
   17.3478   19.9105   42.4503 C   0  0  0  0  0  0  0  0  0  0  0  0
   19.5209   21.1753   37.1659 C   0  0  0  0  0  0  0  0  0  0  0  0
   26.3788   21.0541   34.6280 P   0  0  1  0  0  0  0  0  0  0  0  0
   19.1991   20.5879   41.0907 N   0  0  0  0  0  0  0  0  0  0  0  0
   26.6148   22.2404   33.7832 O   0  0  0  0  0  0  0  0  0  0  0  0
   20.3838   22.3301   34.5930 S   0  0  0  0  0  0  0  0  0  0  0  0
   22.8072   20.8436   38.0942 C   0  0  0  0  0  0  0  0  0  0  0  0
   18.2774   19.6043   41.3703 C   0  0  0  0  0  0  0  0  0  0  0  0
   27.0760   19.8211   34.1724 O   0  5  0  0  0  0  0  0  0  0  0  0
   21.7410   20.1453   37.6310 N   0  0  0  0  0  0  0  0  0  0  0  0
   18.2090   18.4734   40.7407 N   0  0  0  0  0  0  0  0  0  0  0  0
   26.6289   21.3809   36.0510 O   0  0  0  0  0  0  0  0  0  0  0  0
   20.9019   20.8602   36.6584 C   0  0  2  0  0  0  0  0  0  0  0  0
   19.0978   18.1867   39.7222 C   0  0  0  0  0  0  0  0  0  0  0  0
   19.0008   17.0102   39.0984 N   0  0  0  0  0  0  0  0  0  0  0  0
   21.2824   21.2908   35.3165 C   0  0  1  0  0  0  0  0  0  0  0  0
   20.1084   19.1726   39.3722 C   0  0  0  0  0  0  0  0  0  0  0  0
   23.8601   20.2899   37.8656 O   0  0  0  0  0  0  0  0  0  0  0  0
   22.4756   20.7883   34.5839 C   0  0  0  0  0  0  0  0  0  0  0  0
   20.0901   20.3469   40.0972 C   0  0  0  0  0  0  0  0  0  0  0  0
   23.7376   21.5360   34.6476 C   0  0  0  0  0  0  0  0  0  0  0  0
   21.1334   18.8989   38.2988 C   0  0  0  0  0  0  0  0  0  0  0  0
   24.8654   20.6490   34.5480 O   0  0  0  0  0  0  0  0  0  0  0  0
  1  2  1  0  0  0  0
  1  8  2  0  0  0  0
  1 14  1  0  0  0  0
  2  3  2  0  0  0  0
  2  7  1  0  0  0  0
  3  4  1  0  0  0  0
  4  5  2  0  0  0  0
  5  6  1  0  0  0  0
  6  7  2  0  0  0  0
  9 16  1  0  0  0  0
 10 21  1  0  0  0  0
 11 13  1  6  0  0  0
 11 17  1  0  0  0  0
 11 20  2  0  0  0  0
 11 31  1  0  0  0  0
 12 16  2  0  0  0  0
 12 28  1  0  0  0  0
 15 26  1  0  0  0  0
 15 18  1  0  0  0  0
 16 19  1  0  0  0  0
 18 30  1  0  0  0  0
 19 22  2  0  0  0  0
 21 18  1  1  0  0  0
 21 24  1  0  0  0  0
 22 23  1  0  0  0  0
 22 25  1  0  0  0  0
 24 14  1  6  0  0  0
 24 27  1  0  0  0  0
 25 28  2  0  0  0  0
 25 30  1  0  0  0  0
 27 29  1  0  0  0  0
 29 31  1  0  0  0  0
M  CHG  1  17  -1
M  END
>  <CHROM.1>
135.42821061,-6.52860687,113.21782592,-121.01030384,-113.28563129,86.00121672
13.95402113,86.14527318,155.91580956,148.87394754,-177.60126756,-45.87420360
22.15078731,21.35729769,36.60029532,0.77621235,0.36801348,-0.70208787

>  <Name>
ligand

>  <RI>
0

>  <Rbt.Current_Directory>
/home/itssahil/PROJECTS/Mol_Feturizer/New_Systems/rnas/2HOO

>  <Rbt.Executable>
rbdock ($Id: //depot/dev/client3/rdock/2013.1/src/exe/rbdock.cxx#4 $)

>  <Rbt.Library>
libRbt.so (2013.1, Build901 2013/11/27)

>  <Rbt.Parameter_File>
/export/apps/rDock/src/rDock_2013.1_src/data/scripts/dock_solv.prm

>  <Rbt.Receptor>
prm/blind_docking_60.prm

>  <SCORE>
-20.1996

>  <SCORE.INTER>
-9.29208

>  <SCORE.INTER.CONST>
1

>  <SCORE.INTER.POLAR>
0

>  <SCORE.INTER.ROT>
12

>  <SCORE.INTER.SOLV>
14.4301

>  <SCORE.INTER.VDW>
-22.6048

>  <SCORE.INTER.norm>
-0.299745

>  <SCORE.INTRA>
-10.9223

>  <SCORE.INTRA.DIHEDRAL>
1.95311

>  <SCORE.INTRA.DIHEDRAL.0>
14.6094

>  <SCORE.INTRA.POLAR>
0

>  <SCORE.INTRA.POLAR.0>
0

>  <SCORE.INTRA.REPUL>
0

>  <SCORE.INTRA.REPUL.0>
0

>  <SCORE.INTRA.SOLV>
-0.124479

>  <SCORE.INTRA.SOLV.lig_0>
-65.6478

>  <SCORE.INTRA.VDW>
-11.8366

>  <SCORE.INTRA.VDW.0>
9.35535

>  <SCORE.INTRA.norm>
-0.352331

>  <SCORE.RESTR>
0.0147726

>  <SCORE.RESTR.CAVITY>
0.0147726

>  <SCORE.RESTR.norm>
0.000476535

>  <SCORE.SYSTEM>
0

>  <SCORE.SYSTEM.CONST>
0

>  <SCORE.SYSTEM.DIHEDRAL>
0

>  <SCORE.SYSTEM.SOLV>
0

>  <SCORE.SYSTEM.norm>
0

>  <SCORE.heavy>
31

>  <SCORE.norm>
-0.651599

>  <RMSD>
23.383

$$$$
ligand
 OpenBabel11021811443D
libRbt.so/2013.1/901 2013/11/27
 31 32  0  0  0  0  0  0  0  0999 V2000
    4.0975   16.7155   75.7846 C   0  0  0  0  0  0  0  0  0  0  0  0
    4.7958   17.2048   74.5193 C   0  0  0  0  0  0  0  0  0  0  0  0
    6.1384   17.7001   74.5854 C   0  0  0  0  0  0  0  0  0  0  0  0
    6.7798   18.1557   73.4087 C   0  0  0  0  0  0  0  0  0  0  0  0
    6.1069   18.1195   72.1628 C   0  0  0  0  0  0  0  0  0  0  0  0
    4.7878   17.6296   72.0780 C   0  0  0  0  0  0  0  0  0  0  0  0
    4.1326   17.1741   73.2362 C   0  0  0  0  0  0  0  0  0  0  0  0
    3.1083   17.3115   76.2098 O   0  0  0  0  0  0  0  0  0  0  0  0
    7.1218   15.3432   70.7437 C   0  0  0  0  0  0  0  0  0  0  0  0
    4.8351   12.7055   78.4714 C   0  0  0  0  0  0  0  0  0  0  0  0
   -1.0753   13.6695   74.9682 P   0  0  1  0  0  0  0  0  0  0  0  0
    6.1295   13.5565   71.9916 N   0  0  0  0  0  0  0  0  0  0  0  0
   -0.7309   14.0805   73.5937 O   0  0  0  0  0  0  0  0  0  0  0  0
    4.5661   15.6047   76.4644 S   0  0  0  0  0  0  0  0  0  0  0  0
    4.1173   11.3985   75.4107 C   0  0  0  0  0  0  0  0  0  0  0  0
    6.9887   14.6320   72.0088 C   0  0  0  0  0  0  0  0  0  0  0  0
   -2.2485   14.3761   75.5499 O   0  5  0  0  0  0  0  0  0  0  0  0
    5.0512   12.1417   76.0544 N   0  0  0  0  0  0  0  0  0  0  0  0
    7.6500   15.0162   73.0553 N   0  0  0  0  0  0  0  0  0  0  0  0
   -1.1753   12.1939   75.0516 O   0  0  0  0  0  0  0  0  0  0  0  0
    4.5207   13.0847   77.0496 C   0  0  2  0  0  0  0  0  0  0  0  0
    7.5243   14.3332   74.2499 C   0  0  0  0  0  0  0  0  0  0  0  0
    8.2241   14.7544   75.3063 N   0  0  0  0  0  0  0  0  0  0  0  0
    3.7720   14.3104   76.7889 C   0  0  1  0  0  0  0  0  0  0  0  0
    6.6411   13.1791   74.3109 C   0  0  0  0  0  0  0  0  0  0  0  0
    4.4931   10.2677   75.1926 O   0  0  0  0  0  0  0  0  0  0  0  0
    2.2880   14.4076   76.8254 C   0  0  0  0  0  0  0  0  0  0  0  0
    5.9768   12.8586   73.1444 C   0  0  0  0  0  0  0  0  0  0  0  0
    1.4935   13.8366   75.7307 C   0  0  0  0  0  0  0  0  0  0  0  0
    6.4963   12.3675   75.5751 C   0  0  0  0  0  0  0  0  0  0  0  0
    0.0896   14.0690   75.9399 O   0  0  0  0  0  0  0  0  0  0  0  0
  1  2  1  0  0  0  0
  1  8  2  0  0  0  0
  1 14  1  0  0  0  0
  2  3  2  0  0  0  0
  2  7  1  0  0  0  0
  3  4  1  0  0  0  0
  4  5  2  0  0  0  0
  5  6  1  0  0  0  0
  6  7  2  0  0  0  0
  9 16  1  0  0  0  0
 10 21  1  0  0  0  0
 11 13  1  6  0  0  0
 11 17  1  0  0  0  0
 11 20  2  0  0  0  0
 11 31  1  0  0  0  0
 12 16  2  0  0  0  0
 12 28  1  0  0  0  0
 15 26  1  0  0  0  0
 15 18  1  0  0  0  0
 16 19  1  0  0  0  0
 18 30  1  0  0  0  0
 19 22  2  0  0  0  0
 21 18  1  6  0  0  0
 21 24  1  0  0  0  0
 22 23  1  0  0  0  0
 22 25  1  0  0  0  0
 24 14  1  1  0  0  0
 24 27  1  0  0  0  0
 25 28  2  0  0  0  0
 25 30  1  0  0  0  0
 27 29  1  0  0  0  0
 29 31  1  0  0  0  0
M  CHG  1  17  -1
M  END
>  <CHROM.1>
115.23494847,-122.43123839,157.43087961,-143.22668045,109.99697775,67.15492165
95.16773836,106.31149535,128.11264748,-178.41029223,177.21998968,-47.16950618
3.93256415,14.49657138,74.82977234,0.35255036,0.13510408,-0.47040315

>  <Name>
ligand

>  <RI>
0

>  <Rbt.Current_Directory>
/home/itssahil/PROJECTS/Mol_Feturizer/New_Systems/rnas/2HOO

>  <Rbt.Executable>
rbdock ($Id: //depot/dev/client3/rdock/2013.1/src/exe/rbdock.cxx#4 $)

>  <Rbt.Library>
libRbt.so (2013.1, Build901 2013/11/27)

>  <Rbt.Parameter_File>
/export/apps/rDock/src/rDock_2013.1_src/data/scripts/dock_solv.prm

>  <Rbt.Receptor>
prm/blind_docking_100.prm

>  <SCORE>
-18.4234

>  <SCORE.INTER>
-2.0698

>  <SCORE.INTER.CONST>
1

>  <SCORE.INTER.POLAR>
0

>  <SCORE.INTER.ROT>
12

>  <SCORE.INTER.SOLV>
7.57358

>  <SCORE.INTER.VDW>
-15.5044

>  <SCORE.INTER.norm>
-0.0667676

>  <SCORE.INTRA>
-16.3606

>  <SCORE.INTRA.DIHEDRAL>
0.520285

>  <SCORE.INTRA.DIHEDRAL.0>
14.6094

>  <SCORE.INTRA.POLAR>
0

>  <SCORE.INTRA.POLAR.0>
0

>  <SCORE.INTRA.REPUL>
0

>  <SCORE.INTRA.REPUL.0>
0

>  <SCORE.INTRA.SOLV>
0.190804

>  <SCORE.INTRA.SOLV.lig_0>
-65.6478

>  <SCORE.INTRA.VDW>
-16.7161

>  <SCORE.INTRA.VDW.0>
9.35535

>  <SCORE.INTRA.norm>
-0.52776

>  <SCORE.RESTR>
0.00691802

>  <SCORE.RESTR.CAVITY>
0.00691802

>  <SCORE.RESTR.norm>
0.000223162

>  <SCORE.SYSTEM>
0

>  <SCORE.SYSTEM.CONST>
0

>  <SCORE.SYSTEM.DIHEDRAL>
0

>  <SCORE.SYSTEM.SOLV>
0

>  <SCORE.SYSTEM.norm>
0

>  <SCORE.heavy>
31

>  <SCORE.norm>
-0.594304

>  <RMSD>
23.396

$$$$
ligand
 OpenBabel11021811443D
libRbt.so/2013.1/901 2013/11/27
 31 32  0  0  0  0  0  0  0  0999 V2000
   24.8857   22.5222   37.6882 C   0  0  0  0  0  0  0  0  0  0  0  0
   25.7417   22.8109   38.9178 C   0  0  0  0  0  0  0  0  0  0  0  0
   26.2991   24.1157   39.1150 C   0  0  0  0  0  0  0  0  0  0  0  0
   27.0952   24.3764   40.2561 C   0  0  0  0  0  0  0  0  0  0  0  0
   27.3400   23.3584   41.2100 C   0  0  0  0  0  0  0  0  0  0  0  0
   26.7945   22.0703   41.0352 C   0  0  0  0  0  0  0  0  0  0  0  0
   26.0024   21.7909   39.9072 C   0  0  0  0  0  0  0  0  0  0  0  0
   24.9566   21.4258   37.1339 O   0  0  0  0  0  0  0  0  0  0  0  0
   16.7248   19.7999   41.3492 C   0  0  0  0  0  0  0  0  0  0  0  0
   22.7274   21.0613   34.9368 C   0  0  0  0  0  0  0  0  0  0  0  0
   22.5601   27.0108   32.6808 P   0  0  1  0  0  0  0  0  0  0  0  0
   18.6366   20.9381   40.4640 N   0  0  0  0  0  0  0  0  0  0  0  0
   21.9951   26.2879   31.5254 O   0  0  0  0  0  0  0  0  0  0  0  0
   24.0268   23.4839   37.1850 S   0  0  0  0  0  0  0  0  0  0  0  0
   21.9421   20.5161   38.0484 C   0  0  0  0  0  0  0  0  0  0  0  0
   17.4802   20.2453   40.1851 C   0  0  0  0  0  0  0  0  0  0  0  0
   24.0445   27.1137   32.6810 O   0  5  0  0  0  0  0  0  0  0  0  0
   21.3628   21.1801   37.0177 N   0  0  0  0  0  0  0  0  0  0  0  0
   17.0595   19.9875   38.9865 N   0  0  0  0  0  0  0  0  0  0  0  0
   21.8789   28.3150   32.8519 O   0  0  0  0  0  0  0  0  0  0  0  0
   22.2960   21.8801   36.1233 C   0  0  2  0  0  0  0  0  0  0  0  0
   17.7841   20.4068   37.8872 C   0  0  0  0  0  0  0  0  0  0  0  0
   17.3230   20.1198   36.6674 N   0  0  0  0  0  0  0  0  0  0  0  0
   22.7975   23.2435   36.2673 C   0  0  1  0  0  0  0  0  0  0  0  0
   19.0233   21.1385   38.0989 C   0  0  0  0  0  0  0  0  0  0  0  0
   21.5594   19.3701   38.1364 O   0  0  0  0  0  0  0  0  0  0  0  0
   22.1986   24.4298   35.5988 C   0  0  0  0  0  0  0  0  0  0  0  0
   19.3777   21.3683   39.4128 C   0  0  0  0  0  0  0  0  0  0  0  0
   22.7222   24.8768   34.3020 C   0  0  0  0  0  0  0  0  0  0  0  0
   19.8797   21.5841   36.9387 C   0  0  0  0  0  0  0  0  0  0  0  0
   22.2661   26.2058   33.9948 O   0  0  0  0  0  0  0  0  0  0  0  0
  1  2  1  0  0  0  0
  1  8  2  0  0  0  0
  1 14  1  0  0  0  0
  2  3  2  0  0  0  0
  2  7  1  0  0  0  0
  3  4  1  0  0  0  0
  4  5  2  0  0  0  0
  5  6  1  0  0  0  0
  6  7  2  0  0  0  0
  9 16  1  0  0  0  0
 10 21  1  0  0  0  0
 11 13  1  6  0  0  0
 11 17  1  0  0  0  0
 11 20  2  0  0  0  0
 11 31  1  0  0  0  0
 12 16  2  0  0  0  0
 12 28  1  0  0  0  0
 15 26  1  0  0  0  0
 15 18  1  0  0  0  0
 16 19  1  0  0  0  0
 18 30  1  0  0  0  0
 19 22  2  0  0  0  0
 21 18  1  6  0  0  0
 21 24  1  0  0  0  0
 22 23  1  0  0  0  0
 22 25  1  0  0  0  0
 24 14  1  1  0  0  0
 24 27  1  0  0  0  0
 25 28  2  0  0  0  0
 25 30  1  0  0  0  0
 27 29  1  0  0  0  0
 29 31  1  0  0  0  0
M  CHG  1  17  -1
M  END
>  <CHROM.1>
143.26314303,-159.28101962,13.98243889,-129.55183450,92.73616077,-2.50966680
-96.86408531,87.31533679,-127.81648146,-165.01330924,-177.46481624,61.55213928
22.18518025,22.93836562,36.96490383,-1.05996600,0.29736237,2.22736681

>  <Name>
ligand

>  <RI>
0

>  <Rbt.Current_Directory>
/home/itssahil/PROJECTS/Mol_Feturizer/New_Systems/rnas/2HOO

>  <Rbt.Executable>
rbdock ($Id: //depot/dev/client3/rdock/2013.1/src/exe/rbdock.cxx#4 $)

>  <Rbt.Library>
libRbt.so (2013.1, Build901 2013/11/27)

>  <Rbt.Parameter_File>
/export/apps/rDock/src/rDock_2013.1_src/data/scripts/dock_solv.prm

>  <Rbt.Receptor>
prm/blind_docking_60.prm

>  <SCORE>
-31.8147

>  <SCORE.INTER>
-18.9107

>  <SCORE.INTER.CONST>
1

>  <SCORE.INTER.POLAR>
0

>  <SCORE.INTER.ROT>
12

>  <SCORE.INTER.SOLV>
8.54971

>  <SCORE.INTER.VDW>
-27.057

>  <SCORE.INTER.norm>
-0.610022

>  <SCORE.INTRA>
-12.9198

>  <SCORE.INTRA.DIHEDRAL>
0.469111

>  <SCORE.INTRA.DIHEDRAL.0>
14.6094

>  <SCORE.INTRA.POLAR>
0

>  <SCORE.INTRA.POLAR.0>
0

>  <SCORE.INTRA.REPUL>
0

>  <SCORE.INTRA.REPUL.0>
0

>  <SCORE.INTRA.SOLV>
-0.0440028

>  <SCORE.INTRA.SOLV.lig_0>
-65.6478

>  <SCORE.INTRA.VDW>
-13.1323

>  <SCORE.INTRA.VDW.0>
9.35535

>  <SCORE.INTRA.norm>
-0.416766

>  <SCORE.RESTR>
0.0157423

>  <SCORE.RESTR.CAVITY>
0.0157423

>  <SCORE.RESTR.norm>
0.000507815

>  <SCORE.SYSTEM>
0

>  <SCORE.SYSTEM.CONST>
0

>  <SCORE.SYSTEM.DIHEDRAL>
0

>  <SCORE.SYSTEM.SOLV>
0

>  <SCORE.SYSTEM.norm>
0

>  <SCORE.heavy>
31

>  <SCORE.norm>
-1.02628

>  <RMSD>
23.463

$$$$
ligand
 OpenBabel11021811443D
libRbt.so/2013.1/901 2013/11/27
 31 32  0  0  0  0  0  0  0  0999 V2000
   21.9136   24.3920   35.0693 C   0  0  0  0  0  0  0  0  0  0  0  0
   21.3868   24.1851   33.6523 C   0  0  0  0  0  0  0  0  0  0  0  0
   21.8992   24.9750   32.5727 C   0  0  0  0  0  0  0  0  0  0  0  0
   21.4040   24.7807   31.2609 C   0  0  0  0  0  0  0  0  0  0  0  0
   20.4095   23.8051   31.0049 C   0  0  0  0  0  0  0  0  0  0  0  0
   19.8982   23.0145   32.0541 C   0  0  0  0  0  0  0  0  0  0  0  0
   20.3760   23.1937   33.3647 C   0  0  0  0  0  0  0  0  0  0  0  0
   22.5797   25.3916   35.3371 O   0  0  0  0  0  0  0  0  0  0  0  0
   20.5966   20.0200   43.7521 C   0  0  0  0  0  0  0  0  0  0  0  0
   21.2243   20.5131   35.0042 C   0  0  0  0  0  0  0  0  0  0  0  0
   25.4113   21.7954   33.2921 P   0  0  1  0  0  0  0  0  0  0  0  0
   21.5519   19.3231   41.6698 N   0  0  0  0  0  0  0  0  0  0  0  0
   26.2363   20.5735   33.3506 O   0  0  0  0  0  0  0  0  0  0  0  0
   21.6514   23.4639   36.0620 S   0  0  0  0  0  0  0  0  0  0  0  0
   23.0070   19.4100   37.7904 C   0  0  0  0  0  0  0  0  0  0  0  0
   20.5184   19.9813   42.2973 C   0  0  0  0  0  0  0  0  0  0  0  0
   26.1862   23.0657   33.2838 O   0  5  0  0  0  0  0  0  0  0  0  0
   21.8113   19.8597   37.3354 N   0  0  0  0  0  0  0  0  0  0  0  0
   19.5285   20.5396   41.6740 N   0  0  0  0  0  0  0  0  0  0  0  0
   24.4287   21.6973   32.1879 O   0  0  0  0  0  0  0  0  0  0  0  0
   21.8891   20.8982   36.2980 C   0  0  2  0  0  0  0  0  0  0  0  0
   19.4570   20.4933   40.2948 C   0  0  0  0  0  0  0  0  0  0  0  0
   18.4208   21.0754   39.6863 N   0  0  0  0  0  0  0  0  0  0  0  0
   22.5051   22.2163   36.4168 C   0  0  1  0  0  0  0  0  0  0  0  0
   20.5078   19.8081   39.5584 C   0  0  0  0  0  0  0  0  0  0  0  0
   23.7250   19.0156   36.8981 O   0  0  0  0  0  0  0  0  0  0  0  0
   23.9105   22.4469   36.8464 C   0  0  0  0  0  0  0  0  0  0  0  0
   21.5205   19.2551   40.3157 C   0  0  0  0  0  0  0  0  0  0  0  0
   24.9768   22.5219   35.8399 C   0  0  0  0  0  0  0  0  0  0  0  0
   20.4616   19.6869   38.0548 C   0  0  0  0  0  0  0  0  0  0  0  0
   24.5605   21.9142   34.6046 O   0  0  0  0  0  0  0  0  0  0  0  0
  1  2  1  0  0  0  0
  1  8  2  0  0  0  0
  1 14  1  0  0  0  0
  2  3  2  0  0  0  0
  2  7  1  0  0  0  0
  3  4  1  0  0  0  0
  4  5  2  0  0  0  0
  5  6  1  0  0  0  0
  6  7  2  0  0  0  0
  9 16  1  0  0  0  0
 10 21  1  0  0  0  0
 11 13  1  1  0  0  0
 11 17  1  0  0  0  0
 11 20  2  0  0  0  0
 11 31  1  0  0  0  0
 12 16  2  0  0  0  0
 12 28  1  0  0  0  0
 15 26  1  0  0  0  0
 15 18  1  0  0  0  0
 16 19  1  0  0  0  0
 18 30  1  0  0  0  0
 19 22  2  0  0  0  0
 21 18  1  1  0  0  0
 21 24  1  0  0  0  0
 22 23  1  0  0  0  0
 22 25  1  0  0  0  0
 24 14  1  6  0  0  0
 24 27  1  0  0  0  0
 25 28  2  0  0  0  0
 25 30  1  0  0  0  0
 27 29  1  0  0  0  0
 29 31  1  0  0  0  0
M  CHG  1  17  -1
M  END
>  <CHROM.1>
13.85532479,88.99741381,-119.09423073,-54.64401289,120.63431178,37.54591628
52.73811392,-87.99216494,140.33276788,-19.59610188,179.90516249,86.71099410
22.28971687,21.75200250,36.22132702,1.21960426,0.41959402,-1.04978221

>  <Name>
ligand

>  <RI>
0

>  <Rbt.Current_Directory>
/home/itssahil/PROJECTS/Mol_Feturizer/New_Systems/rnas/2HOO

>  <Rbt.Executable>
rbdock ($Id: //depot/dev/client3/rdock/2013.1/src/exe/rbdock.cxx#4 $)

>  <Rbt.Library>
libRbt.so (2013.1, Build901 2013/11/27)

>  <Rbt.Parameter_File>
/export/apps/rDock/src/rDock_2013.1_src/data/scripts/dock_solv.prm

>  <Rbt.Receptor>
prm/blind_docking_60.prm

>  <SCORE>
-22.1808

>  <SCORE.INTER>
-13.3652

>  <SCORE.INTER.CONST>
1

>  <SCORE.INTER.POLAR>
0

>  <SCORE.INTER.ROT>
12

>  <SCORE.INTER.SOLV>
21.1259

>  <SCORE.INTER.VDW>
-27.5521

>  <SCORE.INTER.norm>
-0.431134

>  <SCORE.INTRA>
-8.82076

>  <SCORE.INTRA.DIHEDRAL>
7.85199

>  <SCORE.INTRA.DIHEDRAL.0>
14.6094

>  <SCORE.INTRA.POLAR>
0

>  <SCORE.INTRA.POLAR.0>
0

>  <SCORE.INTRA.REPUL>
0

>  <SCORE.INTRA.REPUL.0>
0

>  <SCORE.INTRA.SOLV>
0.096609

>  <SCORE.INTRA.SOLV.lig_0>
-65.6478

>  <SCORE.INTRA.VDW>
-12.7951

>  <SCORE.INTRA.VDW.0>
9.35535

>  <SCORE.INTRA.norm>
-0.284541

>  <SCORE.RESTR>
0.00510231

>  <SCORE.RESTR.CAVITY>
0.00510231

>  <SCORE.RESTR.norm>
0.000164591

>  <SCORE.SYSTEM>
0

>  <SCORE.SYSTEM.CONST>
0

>  <SCORE.SYSTEM.DIHEDRAL>
0

>  <SCORE.SYSTEM.SOLV>
0

>  <SCORE.SYSTEM.norm>
0

>  <SCORE.heavy>
31

>  <SCORE.norm>
-0.71551

>  <RMSD>
23.548

$$$$
ligand
 OpenBabel11021811443D
libRbt.so/2013.1/901 2013/11/27
 31 32  0  0  0  0  0  0  0  0999 V2000
    3.5233   16.6850   76.1251 C   0  0  0  0  0  0  0  0  0  0  0  0
    2.4460   16.0822   75.2284 C   0  0  0  0  0  0  0  0  0  0  0  0
    1.6168   16.9343   74.4292 C   0  0  0  0  0  0  0  0  0  0  0  0
    0.6168   16.3693   73.6018 C   0  0  0  0  0  0  0  0  0  0  0  0
    0.4334   14.9657   73.5517 C   0  0  0  0  0  0  0  0  0  0  0  0
    1.2442   14.1117   74.3267 C   0  0  0  0  0  0  0  0  0  0  0  0
    2.2420   14.6538   75.1564 C   0  0  0  0  0  0  0  0  0  0  0  0
    3.2609   17.6578   76.8317 O   0  0  0  0  0  0  0  0  0  0  0  0
    5.0467   19.1129   70.6910 C   0  0  0  0  0  0  0  0  0  0  0  0
    4.8808   12.5033   75.1965 C   0  0  0  0  0  0  0  0  0  0  0  0
    1.9642   13.7143   78.3317 P   0  0  1  0  0  0  0  0  0  0  0  0
    4.5546   17.2810   72.1526 N   0  0  0  0  0  0  0  0  0  0  0  0
    2.5756   12.7293   77.4191 O   0  0  0  0  0  0  0  0  0  0  0  0
    4.7992   16.1493   76.1527 S   0  0  0  0  0  0  0  0  0  0  0  0
    7.9498   13.8533   74.9753 C   0  0  0  0  0  0  0  0  0  0  0  0
    5.4407   17.8265   71.2513 C   0  0  0  0  0  0  0  0  0  0  0  0
    0.6696   14.2756   77.8594 O   0  5  0  0  0  0  0  0  0  0  0  0
    6.7072   14.0300   74.4618 N   0  0  0  0  0  0  0  0  0  0  0  0
    6.5560   17.2669   70.9002 N   0  0  0  0  0  0  0  0  0  0  0  0
    1.9029   13.1686   79.7075 O   0  0  0  0  0  0  0  0  0  0  0  0
    5.6040   13.8059   75.4071 C   0  0  2  0  0  0  0  0  0  0  0  0
    6.9203   16.0439   71.4302 C   0  0  0  0  0  0  0  0  0  0  0  0
    8.0741   15.4948   71.0426 N   0  0  0  0  0  0  0  0  0  0  0  0
    5.1850   14.6846   76.4949 C   0  0  1  0  0  0  0  0  0  0  0  0
    6.0323   15.3978   72.3841 C   0  0  0  0  0  0  0  0  0  0  0  0
    8.2995   12.6936   74.9567 O   0  0  0  0  0  0  0  0  0  0  0  0
    5.1136   14.2726   77.9225 C   0  0  0  0  0  0  0  0  0  0  0  0
    4.8746   16.0808   72.6971 C   0  0  0  0  0  0  0  0  0  0  0  0
    4.2542   15.0153   78.8529 C   0  0  0  0  0  0  0  0  0  0  0  0
    6.3553   14.0422   72.9636 C   0  0  0  0  0  0  0  0  0  0  0  0
    2.8824   14.9830   78.4217 O   0  0  0  0  0  0  0  0  0  0  0  0
  1  2  1  0  0  0  0
  1  8  2  0  0  0  0
  1 14  1  0  0  0  0
  2  3  2  0  0  0  0
  2  7  1  0  0  0  0
  3  4  1  0  0  0  0
  4  5  2  0  0  0  0
  5  6  1  0  0  0  0
  6  7  2  0  0  0  0
  9 16  1  0  0  0  0
 10 21  1  0  0  0  0
 11 13  1  6  0  0  0
 11 17  1  0  0  0  0
 11 20  2  0  0  0  0
 11 31  1  0  0  0  0
 12 16  2  0  0  0  0
 12 28  1  0  0  0  0
 15 26  1  0  0  0  0
 15 18  1  0  0  0  0
 16 19  1  0  0  0  0
 18 30  1  0  0  0  0
 19 22  2  0  0  0  0
 21 18  1  1  0  0  0
 21 24  1  0  0  0  0
 22 23  1  0  0  0  0
 22 25  1  0  0  0  0
 24 14  1  1  0  0  0
 24 27  1  0  0  0  0
 25 28  2  0  0  0  0
 25 30  1  0  0  0  0
 27 29  1  0  0  0  0
 29 31  1  0  0  0  0
M  CHG  1  17  -1
M  END
>  <CHROM.1>
45.69023645,-57.25579236,106.34905707,84.36769514,-104.65731894,-106.54182787
-124.46310431,22.57983975,111.18952938,59.40711967,65.25642806,-58.86706719
4.21786172,15.15075476,75.16127340,2.16667590,-0.36766719,2.15548400

>  <Name>
ligand

>  <RI>
0

>  <Rbt.Current_Directory>
/home/itssahil/PROJECTS/Mol_Feturizer/New_Systems/rnas/2HOO

>  <Rbt.Executable>
rbdock ($Id: //depot/dev/client3/rdock/2013.1/src/exe/rbdock.cxx#4 $)

>  <Rbt.Library>
libRbt.so (2013.1, Build901 2013/11/27)

>  <Rbt.Parameter_File>
/export/apps/rDock/src/rDock_2013.1_src/data/scripts/dock_solv.prm

>  <Rbt.Receptor>
prm/blind_docking_100.prm

>  <SCORE>
-15.3794

>  <SCORE.INTER>
-1.36626

>  <SCORE.INTER.CONST>
1

>  <SCORE.INTER.POLAR>
0

>  <SCORE.INTER.ROT>
12

>  <SCORE.INTER.SOLV>
11.2306

>  <SCORE.INTER.VDW>
-16.2544

>  <SCORE.INTER.norm>
-0.0440728

>  <SCORE.INTRA>
-14.0327

>  <SCORE.INTRA.DIHEDRAL>
1.44354

>  <SCORE.INTRA.DIHEDRAL.0>
14.6094

>  <SCORE.INTRA.POLAR>
0

>  <SCORE.INTRA.POLAR.0>
0

>  <SCORE.INTRA.REPUL>
0

>  <SCORE.INTRA.REPUL.0>
0

>  <SCORE.INTRA.SOLV>
2.92471

>  <SCORE.INTRA.SOLV.lig_0>
-65.6478

>  <SCORE.INTRA.VDW>
-16.2168

>  <SCORE.INTRA.VDW.0>
9.35535

>  <SCORE.INTRA.norm>
-0.452667

>  <SCORE.RESTR>
0.0194852

>  <SCORE.RESTR.CAVITY>
0.0194852

>  <SCORE.RESTR.norm>
0.000628555

>  <SCORE.SYSTEM>
0

>  <SCORE.SYSTEM.CONST>
0

>  <SCORE.SYSTEM.DIHEDRAL>
0

>  <SCORE.SYSTEM.SOLV>
0

>  <SCORE.SYSTEM.norm>
0

>  <SCORE.heavy>
31

>  <SCORE.norm>
-0.496111

>  <RMSD>
23.574

$$$$
ligand
 OpenBabel11021811443D
libRbt.so/2013.1/901 2013/11/27
 31 32  0  0  0  0  0  0  0  0999 V2000
   23.3371   20.1665   36.5186 C   0  0  0  0  0  0  0  0  0  0  0  0
   23.9086   21.4093   37.1945 C   0  0  0  0  0  0  0  0  0  0  0  0
   23.6673   22.7062   36.6358 C   0  0  0  0  0  0  0  0  0  0  0  0
   24.2030   23.8552   37.2656 C   0  0  0  0  0  0  0  0  0  0  0  0
   24.9709   23.7341   38.4496 C   0  0  0  0  0  0  0  0  0  0  0  0
   25.2132   22.4665   39.0167 C   0  0  0  0  0  0  0  0  0  0  0  0
   24.6912   21.3127   38.4050 C   0  0  0  0  0  0  0  0  0  0  0  0
   23.7523   19.0512   36.8316 O   0  0  0  0  0  0  0  0  0  0  0  0
   23.6774   29.1483   32.3136 C   0  0  0  0  0  0  0  0  0  0  0  0
   19.5689   22.2286   33.8699 C   0  0  0  0  0  0  0  0  0  0  0  0
   18.8505   20.4020   39.7346 P   0  0  1  0  0  0  0  0  0  0  0  0
   21.8930   27.7837   33.1433 N   0  0  0  0  0  0  0  0  0  0  0  0
   19.7590   20.9983   40.7326 O   0  0  0  0  0  0  0  0  0  0  0  0
   22.3531   20.2787   35.5516 S   0  0  0  0  0  0  0  0  0  0  0  0
   22.3487   23.1136   33.0228 C   0  0  0  0  0  0  0  0  0  0  0  0
   23.2546   27.9634   33.0494 C   0  0  0  0  0  0  0  0  0  0  0  0
   19.3828   19.1867   39.0609 O   0  5  0  0  0  0  0  0  0  0  0  0
   21.8112   23.2411   34.2613 N   0  0  0  0  0  0  0  0  0  0  0  0
   24.1303   27.1588   33.5651 N   0  0  0  0  0  0  0  0  0  0  0  0
   17.5032   20.2093   40.3192 O   0  0  0  0  0  0  0  0  0  0  0  0
   20.8606   22.1859   34.6405 C   0  0  2  0  0  0  0  0  0  0  0  0
   23.7227   26.0335   34.2558 C   0  0  0  0  0  0  0  0  0  0  0  0
   24.6523   25.2246   34.7698 N   0  0  0  0  0  0  0  0  0  0  0  0
   21.0615   21.1365   35.6352 C   0  0  1  0  0  0  0  0  0  0  0  0
   22.2989   25.7687   34.3916 C   0  0  0  0  0  0  0  0  0  0  0  0
   21.8092   23.8278   32.2066 O   0  0  0  0  0  0  0  0  0  0  0  0
   20.0992   20.8222   36.7252 C   0  0  0  0  0  0  0  0  0  0  0  0
   21.4504   26.6912   33.8138 C   0  0  0  0  0  0  0  0  0  0  0  0
   19.6766   21.8803   37.6513 C   0  0  0  0  0  0  0  0  0  0  0  0
   21.7940   24.5336   35.0968 C   0  0  0  0  0  0  0  0  0  0  0  0
   18.6541   21.4035   38.5433 O   0  0  0  0  0  0  0  0  0  0  0  0
  1  2  1  0  0  0  0
  1  8  2  0  0  0  0
  1 14  1  0  0  0  0
  2  3  2  0  0  0  0
  2  7  1  0  0  0  0
  3  4  1  0  0  0  0
  4  5  2  0  0  0  0
  5  6  1  0  0  0  0
  6  7  2  0  0  0  0
  9 16  1  0  0  0  0
 10 21  1  0  0  0  0
 11 13  1  1  0  0  0
 11 17  1  0  0  0  0
 11 20  2  0  0  0  0
 11 31  1  0  0  0  0
 12 16  2  0  0  0  0
 12 28  1  0  0  0  0
 15 26  1  0  0  0  0
 15 18  1  0  0  0  0
 16 19  1  0  0  0  0
 18 30  1  0  0  0  0
 19 22  2  0  0  0  0
 21 18  1  6  0  0  0
 21 24  1  0  0  0  0
 22 23  1  0  0  0  0
 22 25  1  0  0  0  0
 24 14  1  6  0  0  0
 24 27  1  0  0  0  0
 25 28  2  0  0  0  0
 25 30  1  0  0  0  0
 27 29  1  0  0  0  0
 29 31  1  0  0  0  0
M  CHG  1  17  -1
M  END
>  <CHROM.1>
165.61938780,-47.31087511,119.57046559,100.08081291,-69.10342888,6.49671668
127.77599235,125.08138122,-80.12341435,174.48272875,72.26177807,62.55477365
21.84233839,22.80655156,36.16912118,-1.94081988,-0.04874487,-0.74041890

>  <Name>
ligand

>  <RI>
0

>  <Rbt.Current_Directory>
/home/itssahil/PROJECTS/Mol_Feturizer/New_Systems/rnas/2HOO

>  <Rbt.Executable>
rbdock ($Id: //depot/dev/client3/rdock/2013.1/src/exe/rbdock.cxx#4 $)

>  <Rbt.Library>
libRbt.so (2013.1, Build901 2013/11/27)

>  <Rbt.Parameter_File>
/export/apps/rDock/src/rDock_2013.1_src/data/scripts/dock_solv.prm

>  <Rbt.Receptor>
prm/blind_docking_60.prm

>  <SCORE>
-27.9153

>  <SCORE.INTER>
-17.2369

>  <SCORE.INTER.CONST>
1

>  <SCORE.INTER.POLAR>
0

>  <SCORE.INTER.ROT>
12

>  <SCORE.INTER.SOLV>
9.5767

>  <SCORE.INTER.VDW>
-26.2835

>  <SCORE.INTER.norm>
-0.556031

>  <SCORE.INTRA>
-10.6783

>  <SCORE.INTRA.DIHEDRAL>
0.759665

>  <SCORE.INTRA.DIHEDRAL.0>
14.6094

>  <SCORE.INTRA.POLAR>
0

>  <SCORE.INTRA.POLAR.0>
0

>  <SCORE.INTRA.REPUL>
0

>  <SCORE.INTRA.REPUL.0>
0

>  <SCORE.INTRA.SOLV>
4.10912

>  <SCORE.INTRA.SOLV.lig_0>
-65.6478

>  <SCORE.INTRA.VDW>
-13.1127

>  <SCORE.INTRA.VDW.0>
9.35535

>  <SCORE.INTRA.norm>
-0.344462

>  <SCORE.RESTR>
0

>  <SCORE.RESTR.CAVITY>
0

>  <SCORE.RESTR.norm>
0

>  <SCORE.SYSTEM>
0

>  <SCORE.SYSTEM.CONST>
0

>  <SCORE.SYSTEM.DIHEDRAL>
0

>  <SCORE.SYSTEM.SOLV>
0

>  <SCORE.SYSTEM.norm>
0

>  <SCORE.heavy>
31

>  <SCORE.norm>
-0.900492

>  <RMSD>
23.582

$$$$
ligand
 OpenBabel11021811443D
libRbt.so/2013.1/901 2013/11/27
 31 32  0  0  0  0  0  0  0  0999 V2000
    2.9761   16.5398   75.2138 C   0  0  0  0  0  0  0  0  0  0  0  0
    2.3392   16.2637   73.8550 C   0  0  0  0  0  0  0  0  0  0  0  0
    1.9720   17.3521   72.9991 C   0  0  0  0  0  0  0  0  0  0  0  0
    1.3784   17.0896   71.7411 C   0  0  0  0  0  0  0  0  0  0  0  0
    1.1506   15.7573   71.3174 C   0  0  0  0  0  0  0  0  0  0  0  0
    1.5113   14.6739   72.1441 C   0  0  0  0  0  0  0  0  0  0  0  0
    2.1005   14.9140   73.3983 C   0  0  0  0  0  0  0  0  0  0  0  0
    2.3848   16.2221   76.2453 O   0  0  0  0  0  0  0  0  0  0  0  0
    3.2334    8.1015   76.4027 C   0  0  0  0  0  0  0  0  0  0  0  0
    5.0797   15.0976   77.5820 C   0  0  0  0  0  0  0  0  0  0  0  0
    6.8758   15.0196   71.5762 P   0  0  1  0  0  0  0  0  0  0  0  0
    5.0595    9.4578   75.6542 N   0  0  0  0  0  0  0  0  0  0  0  0
    8.1915   14.3627   71.6957 O   0  0  0  0  0  0  0  0  0  0  0  0
    4.2164   17.1477   75.3011 S   0  0  0  0  0  0  0  0  0  0  0  0
    7.1926   13.3867   76.4596 C   0  0  0  0  0  0  0  0  0  0  0  0
    3.7242    9.4089   75.9855 C   0  0  0  0  0  0  0  0  0  0  0  0
    6.8329   16.1480   70.6072 O   0  5  0  0  0  0  0  0  0  0  0  0
    6.1908   13.8983   75.7022 N   0  0  0  0  0  0  0  0  0  0  0  0
    2.9277   10.4305   75.9425 N   0  0  0  0  0  0  0  0  0  0  0  0
    5.8172   14.0083   71.3503 O   0  0  0  0  0  0  0  0  0  0  0  0
    5.6314   15.1696   76.1839 C   0  0  2  0  0  0  0  0  0  0  0  0
    3.3980   11.6658   75.5396 C   0  0  0  0  0  0  0  0  0  0  0  0
    2.5483   12.6951   75.5032 N   0  0  0  0  0  0  0  0  0  0  0  0
    5.5887   16.4401   75.4665 C   0  0  1  0  0  0  0  0  0  0  0  0
    4.7973   11.7976   75.1646 C   0  0  0  0  0  0  0  0  0  0  0  0
    8.0652   12.8763   75.7922 O   0  0  0  0  0  0  0  0  0  0  0  0
    6.7782   17.1026   74.8674 C   0  0  0  0  0  0  0  0  0  0  0  0
    5.5618   10.6521   75.2537 C   0  0  0  0  0  0  0  0  0  0  0  0
    7.0508   16.9513   73.4326 C   0  0  0  0  0  0  0  0  0  0  0  0
    5.3583   13.1104   74.6750 C   0  0  0  0  0  0  0  0  0  0  0  0
    6.5133   15.7132   72.9358 O   0  0  0  0  0  0  0  0  0  0  0  0
  1  2  1  0  0  0  0
  1  8  2  0  0  0  0
  1 14  1  0  0  0  0
  2  3  2  0  0  0  0
  2  7  1  0  0  0  0
  3  4  1  0  0  0  0
  4  5  2  0  0  0  0
  5  6  1  0  0  0  0
  6  7  2  0  0  0  0
  9 16  1  0  0  0  0
 10 21  1  0  0  0  0
 11 13  1  1  0  0  0
 11 17  1  0  0  0  0
 11 20  2  0  0  0  0
 11 31  1  0  0  0  0
 12 16  2  0  0  0  0
 12 28  1  0  0  0  0
 15 26  1  0  0  0  0
 15 18  1  0  0  0  0
 16 19  1  0  0  0  0
 18 30  1  0  0  0  0
 19 22  2  0  0  0  0
 21 18  1  1  0  0  0
 21 24  1  0  0  0  0
 22 23  1  0  0  0  0
 22 25  1  0  0  0  0
 24 14  1  6  0  0  0
 24 27  1  0  0  0  0
 25 28  2  0  0  0  0
 25 30  1  0  0  0  0
 27 29  1  0  0  0  0
 29 31  1  0  0  0  0
M  CHG  1  17  -1
M  END
>  <CHROM.1>
115.55946423,-96.34406490,-30.20616575,-141.69531602,-58.18640039,48.92163505
-55.54014719,-80.91749714,102.81828804,-27.38461906,-164.24762400,76.62332705
4.78811961,14.32327358,74.31552514,1.49915662,0.21295647,-0.46543541

>  <Name>
ligand

>  <RI>
0

>  <Rbt.Current_Directory>
/home/itssahil/PROJECTS/Mol_Feturizer/New_Systems/rnas/2HOO

>  <Rbt.Executable>
rbdock ($Id: //depot/dev/client3/rdock/2013.1/src/exe/rbdock.cxx#4 $)

>  <Rbt.Library>
libRbt.so (2013.1, Build901 2013/11/27)

>  <Rbt.Parameter_File>
/export/apps/rDock/src/rDock_2013.1_src/data/scripts/dock_solv.prm

>  <Rbt.Receptor>
prm/blind_docking_80.prm

>  <SCORE>
-13.2652

>  <SCORE.INTER>
-5.75513

>  <SCORE.INTER.CONST>
1

>  <SCORE.INTER.POLAR>
0

>  <SCORE.INTER.ROT>
12

>  <SCORE.INTER.SOLV>
14.5968

>  <SCORE.INTER.VDW>
-20.3024

>  <SCORE.INTER.norm>
-0.18565

>  <SCORE.INTRA>
-7.51002

>  <SCORE.INTRA.DIHEDRAL>
8.15887

>  <SCORE.INTRA.DIHEDRAL.0>
14.6094

>  <SCORE.INTRA.POLAR>
0

>  <SCORE.INTRA.POLAR.0>
0

>  <SCORE.INTRA.REPUL>
0.0286097

>  <SCORE.INTRA.REPUL.0>
0

>  <SCORE.INTRA.SOLV>
4.73195

>  <SCORE.INTRA.SOLV.lig_0>
-65.6478

>  <SCORE.INTRA.VDW>
-14.0985

>  <SCORE.INTRA.VDW.0>
9.35535

>  <SCORE.INTRA.norm>
-0.242259

>  <SCORE.RESTR>
0

>  <SCORE.RESTR.CAVITY>
0

>  <SCORE.RESTR.norm>
0

>  <SCORE.SYSTEM>
0

>  <SCORE.SYSTEM.CONST>
0

>  <SCORE.SYSTEM.DIHEDRAL>
0

>  <SCORE.SYSTEM.SOLV>
0

>  <SCORE.SYSTEM.norm>
0

>  <SCORE.heavy>
31

>  <SCORE.norm>
-0.427908

>  <RMSD>
23.600

$$$$
ligand
 OpenBabel11021811443D
libRbt.so/2013.1/901 2013/11/27
 31 32  0  0  0  0  0  0  0  0999 V2000
    1.1531   12.8182   75.4620 C   0  0  0  0  0  0  0  0  0  0  0  0
    1.1890   14.1808   74.7764 C   0  0  0  0  0  0  0  0  0  0  0  0
    1.2547   15.3781   75.5603 C   0  0  0  0  0  0  0  0  0  0  0  0
    1.2844   16.6394   74.9185 C   0  0  0  0  0  0  0  0  0  0  0  0
    1.2568   16.7279   73.5051 C   0  0  0  0  0  0  0  0  0  0  0  0
    1.1983   15.5600   72.7178 C   0  0  0  0  0  0  0  0  0  0  0  0
    1.1662   14.2975   73.3366 C   0  0  0  0  0  0  0  0  0  0  0  0
    0.1191   12.4312   76.0057 O   0  0  0  0  0  0  0  0  0  0  0  0
    4.5317   18.1375   71.9234 C   0  0  0  0  0  0  0  0  0  0  0  0
    5.2829   10.4047   75.8983 C   0  0  0  0  0  0  0  0  0  0  0  0
    3.9940   16.5288   77.8201 P   0  0  1  0  0  0  0  0  0  0  0  0
    4.2421   16.2050   73.3076 N   0  0  0  0  0  0  0  0  0  0  0  0
    4.3770   17.5861   78.7752 O   0  0  0  0  0  0  0  0  0  0  0  0
    2.2754   12.0084   75.4814 S   0  0  0  0  0  0  0  0  0  0  0  0
    5.2589   11.6242   72.9503 C   0  0  0  0  0  0  0  0  0  0  0  0
    5.1047   16.9411   72.5272 C   0  0  0  0  0  0  0  0  0  0  0  0
    2.6998   15.8601   78.1230 O   0  5  0  0  0  0  0  0  0  0  0  0
    5.6461   12.1365   74.1446 N   0  0  0  0  0  0  0  0  0  0  0  0
    6.3448   16.6259   72.3199 N   0  0  0  0  0  0  0  0  0  0  0  0
    4.0843   17.0362   76.4313 O   0  0  0  0  0  0  0  0  0  0  0  0
    4.8390   11.7108   75.2972 C   0  0  2  0  0  0  0  0  0  0  0  0
    6.8799   15.4866   72.8900 C   0  0  0  0  0  0  0  0  0  0  0  0
    8.1599   15.1903   72.6514 N   0  0  0  0  0  0  0  0  0  0  0  0
    3.7136   12.4231   75.8946 C   0  0  1  0  0  0  0  0  0  0  0  0
    6.0292   14.6501   73.7221 C   0  0  0  0  0  0  0  0  0  0  0  0
    5.1022   12.4795   72.1068 O   0  0  0  0  0  0  0  0  0  0  0  0
    3.8521   13.5367   76.8711 C   0  0  0  0  0  0  0  0  0  0  0  0
    4.7277   15.0788   73.8864 C   0  0  0  0  0  0  0  0  0  0  0  0
    5.1337   14.2425   76.9941 C   0  0  0  0  0  0  0  0  0  0  0  0
    6.5448   13.3713   74.3358 C   0  0  0  0  0  0  0  0  0  0  0  0
    5.0247   15.3493   77.9061 O   0  0  0  0  0  0  0  0  0  0  0  0
  1  2  1  0  0  0  0
  1  8  2  0  0  0  0
  1 14  1  0  0  0  0
  2  3  2  0  0  0  0
  2  7  1  0  0  0  0
  3  4  1  0  0  0  0
  4  5  2  0  0  0  0
  5  6  1  0  0  0  0
  6  7  2  0  0  0  0
  9 16  1  0  0  0  0
 10 21  1  0  0  0  0
 11 13  1  1  0  0  0
 11 17  1  0  0  0  0
 11 20  2  0  0  0  0
 11 31  1  0  0  0  0
 12 16  2  0  0  0  0
 12 28  1  0  0  0  0
 15 26  1  0  0  0  0
 15 18  1  0  0  0  0
 16 19  1  0  0  0  0
 18 30  1  0  0  0  0
 19 22  2  0  0  0  0
 21 18  1  1  0  0  0
 21 24  1  0  0  0  0
 22 23  1  0  0  0  0
 22 25  1  0  0  0  0
 24 14  1  6  0  0  0
 24 27  1  0  0  0  0
 25 28  2  0  0  0  0
 25 30  1  0  0  0  0
 27 29  1  0  0  0  0
 29 31  1  0  0  0  0
M  CHG  1  17  -1
M  END
>  <CHROM.1>
75.26359340,49.70171550,-151.69207840,128.15537523,85.66416021,58.50677712
-83.74050690,-161.44386486,-131.22889395,175.17921539,-55.24757633,-168.92577800
3.93261080,14.56251720,75.01010373,3.00905017,0.80954784,0.23441918

>  <Name>
ligand

>  <RI>
0

>  <Rbt.Current_Directory>
/home/itssahil/PROJECTS/Mol_Feturizer/New_Systems/rnas/2HOO

>  <Rbt.Executable>
rbdock ($Id: //depot/dev/client3/rdock/2013.1/src/exe/rbdock.cxx#4 $)

>  <Rbt.Library>
libRbt.so (2013.1, Build901 2013/11/27)

>  <Rbt.Parameter_File>
/export/apps/rDock/src/rDock_2013.1_src/data/scripts/dock_solv.prm

>  <Rbt.Receptor>
prm/blind_docking_100.prm

>  <SCORE>
-19.9873

>  <SCORE.INTER>
-6.62242

>  <SCORE.INTER.CONST>
1

>  <SCORE.INTER.POLAR>
0

>  <SCORE.INTER.ROT>
12

>  <SCORE.INTER.SOLV>
14.7487

>  <SCORE.INTER.VDW>
-20.9312

>  <SCORE.INTER.norm>
-0.213626

>  <SCORE.INTRA>
-13.3832

>  <SCORE.INTRA.DIHEDRAL>
2.70801

>  <SCORE.INTRA.DIHEDRAL.0>
14.6094

>  <SCORE.INTRA.POLAR>
0

>  <SCORE.INTRA.POLAR.0>
0

>  <SCORE.INTRA.REPUL>
0

>  <SCORE.INTRA.REPUL.0>
0

>  <SCORE.INTRA.SOLV>
3.68099

>  <SCORE.INTRA.SOLV.lig_0>
-65.6478

>  <SCORE.INTRA.VDW>
-16.5777

>  <SCORE.INTRA.VDW.0>
9.35535

>  <SCORE.INTRA.norm>
-0.431716

>  <SCORE.RESTR>
0.0182601

>  <SCORE.RESTR.CAVITY>
0.0182601

>  <SCORE.RESTR.norm>
0.000589037

>  <SCORE.SYSTEM>
0

>  <SCORE.SYSTEM.CONST>
0

>  <SCORE.SYSTEM.DIHEDRAL>
0

>  <SCORE.SYSTEM.SOLV>
0

>  <SCORE.SYSTEM.norm>
0

>  <SCORE.heavy>
31

>  <SCORE.norm>
-0.644753

>  <RMSD>
23.663

$$$$
ligand
 OpenBabel11021811443D
libRbt.so/2013.1/901 2013/11/27
 31 32  0  0  0  0  0  0  0  0999 V2000
    2.6023   14.3937   76.7297 C   0  0  0  0  0  0  0  0  0  0  0  0
    1.3828   14.0090   75.8973 C   0  0  0  0  0  0  0  0  0  0  0  0
    1.1496   12.6375   75.5558 C   0  0  0  0  0  0  0  0  0  0  0  0
    0.0182   12.2873   74.7805 C   0  0  0  0  0  0  0  0  0  0  0  0
   -0.8908   13.2822   74.3447 C   0  0  0  0  0  0  0  0  0  0  0  0
   -0.6804   14.6360   74.6766 C   0  0  0  0  0  0  0  0  0  0  0  0
    0.4388   15.0044   75.4445 C   0  0  0  0  0  0  0  0  0  0  0  0
    2.7047   13.9957   77.8897 O   0  0  0  0  0  0  0  0  0  0  0  0
    7.9831   12.7188   76.1632 C   0  0  0  0  0  0  0  0  0  0  0  0
    2.8466   18.1311   75.2398 C   0  0  0  0  0  0  0  0  0  0  0  0
    5.0118   11.3934   74.9202 P   0  0  1  0  0  0  0  0  0  0  0  0
    7.4115   14.2284   74.3945 N   0  0  0  0  0  0  0  0  0  0  0  0
    6.2723   11.3528   74.1544 O   0  0  0  0  0  0  0  0  0  0  0  0
    3.5995   15.1901   76.1939 S   0  0  0  0  0  0  0  0  0  0  0  0
    4.3801   18.7577   72.8600 C   0  0  0  0  0  0  0  0  0  0  0  0
    7.5670   14.0533   75.7510 C   0  0  0  0  0  0  0  0  0  0  0  0
    3.9828   10.4169   74.4710 O   0  5  0  0  0  0  0  0  0  0  0  0
    4.8527   17.8843   73.7834 N   0  0  0  0  0  0  0  0  0  0  0  0
    7.3674   14.9841   76.6307 N   0  0  0  0  0  0  0  0  0  0  0  0
    5.2930   11.3267   76.3731 O   0  0  0  0  0  0  0  0  0  0  0  0
    3.8232   17.1977   74.5770 C   0  0  2  0  0  0  0  0  0  0  0  0
    6.9664   16.2454   76.2335 C   0  0  0  0  0  0  0  0  0  0  0  0
    6.7659   17.1785   77.1674 N   0  0  0  0  0  0  0  0  0  0  0  0
    3.6604   15.7574   74.7497 C   0  0  1  0  0  0  0  0  0  0  0  0
    6.7718   16.5079   74.8161 C   0  0  0  0  0  0  0  0  0  0  0  0
    4.0224   18.2084   71.8414 O   0  0  0  0  0  0  0  0  0  0  0  0
    3.5602   14.7865   73.6271 C   0  0  0  0  0  0  0  0  0  0  0  0
    7.0193   15.4525   73.9620 C   0  0  0  0  0  0  0  0  0  0  0  0
    4.4867   13.6494   73.5627 C   0  0  0  0  0  0  0  0  0  0  0  0
    6.2929   17.8524   74.3254 C   0  0  0  0  0  0  0  0  0  0  0  0
    4.3056   12.7751   74.6903 O   0  0  0  0  0  0  0  0  0  0  0  0
  1  2  1  0  0  0  0
  1  8  2  0  0  0  0
  1 14  1  0  0  0  0
  2  3  2  0  0  0  0
  2  7  1  0  0  0  0
  3  4  1  0  0  0  0
  4  5  2  0  0  0  0
  5  6  1  0  0  0  0
  6  7  2  0  0  0  0
  9 16  1  0  0  0  0
 10 21  1  0  0  0  0
 11 13  1  6  0  0  0
 11 17  1  0  0  0  0
 11 20  2  0  0  0  0
 11 31  1  0  0  0  0
 12 16  2  0  0  0  0
 12 28  1  0  0  0  0
 15 26  1  0  0  0  0
 15 18  1  0  0  0  0
 16 19  1  0  0  0  0
 18 30  1  0  0  0  0
 19 22  2  0  0  0  0
 21 18  1  6  0  0  0
 21 24  1  0  0  0  0
 22 23  1  0  0  0  0
 22 25  1  0  0  0  0
 24 14  1  1  0  0  0
 24 27  1  0  0  0  0
 25 28  2  0  0  0  0
 25 30  1  0  0  0  0
 27 29  1  0  0  0  0
 29 31  1  0  0  0  0
M  CHG  1  17  -1
M  END
>  <CHROM.1>
-64.58428314,-1.52275955,125.52910987,-81.24057370,-53.18832449,-153.17327556
-55.06657666,-54.63336245,-108.80239257,63.36926469,174.27426606,23.61394606
4.30347673,14.58107162,75.05653436,2.32417277,0.05360498,2.96129948

>  <Name>
ligand

>  <RI>
0

>  <Rbt.Current_Directory>
/home/itssahil/PROJECTS/Mol_Feturizer/New_Systems/rnas/2HOO

>  <Rbt.Executable>
rbdock ($Id: //depot/dev/client3/rdock/2013.1/src/exe/rbdock.cxx#4 $)

>  <Rbt.Library>
libRbt.so (2013.1, Build901 2013/11/27)

>  <Rbt.Parameter_File>
/export/apps/rDock/src/rDock_2013.1_src/data/scripts/dock_solv.prm

>  <Rbt.Receptor>
prm/blind_docking_100.prm

>  <SCORE>
-10.4034

>  <SCORE.INTER>
2.70472

>  <SCORE.INTER.CONST>
1

>  <SCORE.INTER.POLAR>
0

>  <SCORE.INTER.ROT>
12

>  <SCORE.INTER.SOLV>
16.168

>  <SCORE.INTER.VDW>
-15.1862

>  <SCORE.INTER.norm>
0.0872489

>  <SCORE.INTRA>
-13.1199

>  <SCORE.INTRA.DIHEDRAL>
1.61709

>  <SCORE.INTRA.DIHEDRAL.0>
14.6094

>  <SCORE.INTRA.POLAR>
0

>  <SCORE.INTRA.POLAR.0>
0

>  <SCORE.INTRA.REPUL>
0

>  <SCORE.INTRA.REPUL.0>
0

>  <SCORE.INTRA.SOLV>
4.47252

>  <SCORE.INTRA.SOLV.lig_0>
-65.6478

>  <SCORE.INTRA.VDW>
-16.1647

>  <SCORE.INTRA.VDW.0>
9.35535

>  <SCORE.INTRA.norm>
-0.423223

>  <SCORE.RESTR>
0.0117752

>  <SCORE.RESTR.CAVITY>
0.0117752

>  <SCORE.RESTR.norm>
0.000379845

>  <SCORE.SYSTEM>
0

>  <SCORE.SYSTEM.CONST>
0

>  <SCORE.SYSTEM.DIHEDRAL>
0

>  <SCORE.SYSTEM.SOLV>
0

>  <SCORE.SYSTEM.norm>
0

>  <SCORE.heavy>
31

>  <SCORE.norm>
-0.335594

>  <RMSD>
23.714

$$$$
ligand
 OpenBabel11021811443D
libRbt.so/2013.1/901 2013/11/27
 31 32  0  0  0  0  0  0  0  0999 V2000
    4.2332   13.5906   74.8980 C   0  0  0  0  0  0  0  0  0  0  0  0
    2.7714   13.1857   75.0622 C   0  0  0  0  0  0  0  0  0  0  0  0
    1.7290   14.1266   74.7789 C   0  0  0  0  0  0  0  0  0  0  0  0
    0.3747   13.7461   74.9364 C   0  0  0  0  0  0  0  0  0  0  0  0
    0.0404   12.4383   75.3657 C   0  0  0  0  0  0  0  0  0  0  0  0
    1.0530   11.4975   75.6431 C   0  0  0  0  0  0  0  0  0  0  0  0
    2.4045   11.8568   75.4944 C   0  0  0  0  0  0  0  0  0  0  0  0
    5.0011   12.8732   74.2576 O   0  0  0  0  0  0  0  0  0  0  0  0
    9.3363   13.3072   74.0221 C   0  0  0  0  0  0  0  0  0  0  0  0
    2.6781   18.1157   74.8445 C   0  0  0  0  0  0  0  0  0  0  0  0
    4.0171   12.7788   78.6067 P   0  0  1  0  0  0  0  0  0  0  0  0
    7.4361   13.9731   72.7258 N   0  0  0  0  0  0  0  0  0  0  0  0
    4.1579   12.9711   80.0627 O   0  0  0  0  0  0  0  0  0  0  0  0
    4.7092   14.7602   75.4645 S   0  0  0  0  0  0  0  0  0  0  0  0
    2.7730   16.4471   72.3816 C   0  0  0  0  0  0  0  0  0  0  0  0
    8.3256   14.3129   73.7200 C   0  0  0  0  0  0  0  0  0  0  0  0
    5.2978   12.5439   77.8865 O   0  5  0  0  0  0  0  0  0  0  0  0
    3.8409   16.6616   73.1893 N   0  0  0  0  0  0  0  0  0  0  0  0
    8.2990   15.4371   74.3647 N   0  0  0  0  0  0  0  0  0  0  0  0
    2.9850   11.7548   78.3229 O   0  0  0  0  0  0  0  0  0  0  0  0
    3.5165   16.8894   74.6049 C   0  0  2  0  0  0  0  0  0  0  0  0
    7.3339   16.3834   74.0780 C   0  0  0  0  0  0  0  0  0  0  0  0
    7.3339   17.5284   74.7650 N   0  0  0  0  0  0  0  0  0  0  0  0
    3.8992   16.0559   75.7406 C   0  0  1  0  0  0  0  0  0  0  0  0
    6.3513   16.0955   73.0447 C   0  0  0  0  0  0  0  0  0  0  0  0
    2.4686   15.2765   72.3150 O   0  0  0  0  0  0  0  0  0  0  0  0
    3.5525   16.3594   77.1550 C   0  0  0  0  0  0  0  0  0  0  0  0
    6.4725   14.8746   72.4128 C   0  0  0  0  0  0  0  0  0  0  0  0
    3.9620   15.4350   78.2197 C   0  0  0  0  0  0  0  0  0  0  0  0
    5.2474   17.0713   72.7175 C   0  0  0  0  0  0  0  0  0  0  0  0
    3.4877   14.1035   77.9541 O   0  0  0  0  0  0  0  0  0  0  0  0
  1  2  1  0  0  0  0
  1  8  2  0  0  0  0
  1 14  1  0  0  0  0
  2  3  2  0  0  0  0
  2  7  1  0  0  0  0
  3  4  1  0  0  0  0
  4  5  2  0  0  0  0
  5  6  1  0  0  0  0
  6  7  2  0  0  0  0
  9 16  1  0  0  0  0
 10 21  1  0  0  0  0
 11 13  1  1  0  0  0
 11 17  1  0  0  0  0
 11 20  2  0  0  0  0
 11 31  1  0  0  0  0
 12 16  2  0  0  0  0
 12 28  1  0  0  0  0
 15 26  1  0  0  0  0
 15 18  1  0  0  0  0
 16 19  1  0  0  0  0
 18 30  1  0  0  0  0
 19 22  2  0  0  0  0
 21 18  1  6  0  0  0
 21 24  1  0  0  0  0
 22 23  1  0  0  0  0
 22 25  1  0  0  0  0
 24 14  1  6  0  0  0
 24 27  1  0  0  0  0
 25 28  2  0  0  0  0
 25 30  1  0  0  0  0
 27 29  1  0  0  0  0
 29 31  1  0  0  0  0
M  CHG  1  17  -1
M  END
>  <CHROM.1>
-130.17942475,-29.03912204,-72.64549292,-88.94108638,-62.25162045,-118.74038652
177.24376848,-0.83178544,-107.25144419,-55.04232867,162.14807851,45.49331988
4.38685554,14.53357436,75.34226545,2.20209221,0.00957658,2.18159016

>  <Name>
ligand

>  <RI>
0

>  <Rbt.Current_Directory>
/home/itssahil/PROJECTS/Mol_Feturizer/New_Systems/rnas/2HOO

>  <Rbt.Executable>
rbdock ($Id: //depot/dev/client3/rdock/2013.1/src/exe/rbdock.cxx#4 $)

>  <Rbt.Library>
libRbt.so (2013.1, Build901 2013/11/27)

>  <Rbt.Parameter_File>
/export/apps/rDock/src/rDock_2013.1_src/data/scripts/dock_solv.prm

>  <Rbt.Receptor>
prm/blind_docking_100.prm

>  <SCORE>
-10.7677

>  <SCORE.INTER>
0.401446

>  <SCORE.INTER.CONST>
1

>  <SCORE.INTER.POLAR>
0

>  <SCORE.INTER.ROT>
12

>  <SCORE.INTER.SOLV>
7.64542

>  <SCORE.INTER.VDW>
-13.8808

>  <SCORE.INTER.norm>
0.0129499

>  <SCORE.INTRA>
-11.2031

>  <SCORE.INTRA.DIHEDRAL>
1.88634

>  <SCORE.INTRA.DIHEDRAL.0>
14.6094

>  <SCORE.INTRA.POLAR>
0

>  <SCORE.INTRA.POLAR.0>
0

>  <SCORE.INTRA.REPUL>
0

>  <SCORE.INTRA.REPUL.0>
0

>  <SCORE.INTRA.SOLV>
7.49808

>  <SCORE.INTRA.SOLV.lig_0>
-65.6478

>  <SCORE.INTRA.VDW>
-15.8953

>  <SCORE.INTRA.VDW.0>
9.35535

>  <SCORE.INTRA.norm>
-0.361389

>  <SCORE.RESTR>
0.0339464

>  <SCORE.RESTR.CAVITY>
0.0339464

>  <SCORE.RESTR.norm>
0.00109504

>  <SCORE.SYSTEM>
0

>  <SCORE.SYSTEM.CONST>
0

>  <SCORE.SYSTEM.DIHEDRAL>
0

>  <SCORE.SYSTEM.SOLV>
0

>  <SCORE.SYSTEM.norm>
0

>  <SCORE.heavy>
31

>  <SCORE.norm>
-0.347345

>  <RMSD>
23.753

$$$$
ligand
 OpenBabel11021811443D
libRbt.so/2013.1/901 2013/11/27
 31 32  0  0  0  0  0  0  0  0999 V2000
    3.5624   16.0549   75.6906 C   0  0  0  0  0  0  0  0  0  0  0  0
    2.2063   15.6100   75.1511 C   0  0  0  0  0  0  0  0  0  0  0  0
    1.2403   16.5857   74.7425 C   0  0  0  0  0  0  0  0  0  0  0  0
   -0.0174   16.1668   74.2461 C   0  0  0  0  0  0  0  0  0  0  0  0
   -0.3269   14.7885   74.1429 C   0  0  0  0  0  0  0  0  0  0  0  0
    0.6139   13.8144   74.5345 C   0  0  0  0  0  0  0  0  0  0  0  0
    1.8683   14.2104   75.0321 C   0  0  0  0  0  0  0  0  0  0  0  0
    3.6612   17.1173   76.3037 O   0  0  0  0  0  0  0  0  0  0  0  0
    7.1278   16.1443   69.7960 C   0  0  0  0  0  0  0  0  0  0  0  0
    7.8742   14.3729   76.8725 C   0  0  0  0  0  0  0  0  0  0  0  0
    3.2652   10.3773   77.2314 P   0  0  1  0  0  0  0  0  0  0  0  0
    6.3692   14.8533   71.6647 N   0  0  0  0  0  0  0  0  0  0  0  0
    1.9838   10.4328   77.9605 O   0  0  0  0  0  0  0  0  0  0  0  0
    4.6892   15.2749   75.4966 S   0  0  0  0  0  0  0  0  0  0  0  0
    5.9846   11.7417   75.1544 C   0  0  0  0  0  0  0  0  0  0  0  0
    7.4517   15.3252   70.9571 C   0  0  0  0  0  0  0  0  0  0  0  0
    4.1976    9.3157   77.6980 O   0  5  0  0  0  0  0  0  0  0  0  0
    6.9717   12.6591   75.3057 N   0  0  0  0  0  0  0  0  0  0  0  0
    8.6857   15.0805   71.2694 N   0  0  0  0  0  0  0  0  0  0  0  0
    3.0222   10.3478   75.7705 O   0  0  0  0  0  0  0  0  0  0  0  0
    6.6606   13.7647   76.2232 C   0  0  2  0  0  0  0  0  0  0  0  0
    8.9856   14.2975   72.3678 C   0  0  0  0  0  0  0  0  0  0  0  0
   10.2678   14.0626   72.6572 N   0  0  0  0  0  0  0  0  0  0  0  0
    5.3418   14.3126   76.5257 C   0  0  1  0  0  0  0  0  0  0  0  0
    7.8956   13.7537   73.1628 C   0  0  0  0  0  0  0  0  0  0  0  0
    5.2994   11.9534   74.1781 O   0  0  0  0  0  0  0  0  0  0  0  0
    4.5795   14.0189   77.7689 C   0  0  0  0  0  0  0  0  0  0  0  0
    6.6197   14.0807   72.7508 C   0  0  0  0  0  0  0  0  0  0  0  0
    3.5240   12.9984   77.7521 C   0  0  0  0  0  0  0  0  0  0  0  0
    8.1598   12.8565   74.3473 C   0  0  0  0  0  0  0  0  0  0  0  0
    4.0747   11.6944   77.4978 O   0  0  0  0  0  0  0  0  0  0  0  0
  1  2  1  0  0  0  0
  1  8  2  0  0  0  0
  1 14  1  0  0  0  0
  2  3  2  0  0  0  0
  2  7  1  0  0  0  0
  3  4  1  0  0  0  0
  4  5  2  0  0  0  0
  5  6  1  0  0  0  0
  6  7  2  0  0  0  0
  9 16  1  0  0  0  0
 10 21  1  0  0  0  0
 11 13  1  1  0  0  0
 11 17  1  0  0  0  0
 11 20  2  0  0  0  0
 11 31  1  0  0  0  0
 12 16  2  0  0  0  0
 12 28  1  0  0  0  0
 15 26  1  0  0  0  0
 15 18  1  0  0  0  0
 16 19  1  0  0  0  0
 18 30  1  0  0  0  0
 19 22  2  0  0  0  0
 21 18  1  6  0  0  0
 21 24  1  0  0  0  0
 22 23  1  0  0  0  0
 22 25  1  0  0  0  0
 24 14  1  1  0  0  0
 24 27  1  0  0  0  0
 25 28  2  0  0  0  0
 25 30  1  0  0  0  0
 27 29  1  0  0  0  0
 29 31  1  0  0  0  0
M  CHG  1  17  -1
M  END
>  <CHROM.1>
31.05144354,-100.20271313,-168.89182732,96.12078047,152.88794732,85.18770731
100.72462558,81.97726586,164.49974937,65.04937038,-172.08056201,-30.83820467
4.86541470,13.63724450,75.03793027,2.45618410,-0.34133331,2.47054266

>  <Name>
ligand

>  <RI>
0

>  <Rbt.Current_Directory>
/home/itssahil/PROJECTS/Mol_Feturizer/New_Systems/rnas/2HOO

>  <Rbt.Executable>
rbdock ($Id: //depot/dev/client3/rdock/2013.1/src/exe/rbdock.cxx#4 $)

>  <Rbt.Library>
libRbt.so (2013.1, Build901 2013/11/27)

>  <Rbt.Parameter_File>
/export/apps/rDock/src/rDock_2013.1_src/data/scripts/dock_solv.prm

>  <Rbt.Receptor>
prm/blind_docking_100.prm

>  <SCORE>
-12.3642

>  <SCORE.INTER>
-1.9888

>  <SCORE.INTER.CONST>
1

>  <SCORE.INTER.POLAR>
0

>  <SCORE.INTER.ROT>
12

>  <SCORE.INTER.SOLV>
11.6551

>  <SCORE.INTER.VDW>
-16.8109

>  <SCORE.INTER.norm>
-0.0641549

>  <SCORE.INTRA>
-10.9386

>  <SCORE.INTRA.DIHEDRAL>
4.56408

>  <SCORE.INTRA.DIHEDRAL.0>
14.6094

>  <SCORE.INTRA.POLAR>
0

>  <SCORE.INTRA.POLAR.0>
0

>  <SCORE.INTRA.REPUL>
0

>  <SCORE.INTRA.REPUL.0>
0

>  <SCORE.INTRA.SOLV>
1.69565

>  <SCORE.INTRA.SOLV.lig_0>
-65.6478

>  <SCORE.INTRA.VDW>
-14.0685

>  <SCORE.INTRA.VDW.0>
9.35535

>  <SCORE.INTRA.norm>
-0.352859

>  <SCORE.RESTR>
0.563194

>  <SCORE.RESTR.CAVITY>
0.563194

>  <SCORE.RESTR.norm>
0.0181675

>  <SCORE.SYSTEM>
0

>  <SCORE.SYSTEM.CONST>
0

>  <SCORE.SYSTEM.DIHEDRAL>
0

>  <SCORE.SYSTEM.SOLV>
0

>  <SCORE.SYSTEM.norm>
0

>  <SCORE.heavy>
31

>  <SCORE.norm>
-0.398846

>  <RMSD>
23.804

$$$$
ligand
 OpenBabel11021811443D
libRbt.so/2013.1/901 2013/11/27
 31 32  0  0  0  0  0  0  0  0999 V2000
    4.4354   14.3536   78.3052 C   0  0  0  0  0  0  0  0  0  0  0  0
    5.6755   13.9478   77.5143 C   0  0  0  0  0  0  0  0  0  0  0  0
    6.8872   14.7013   77.6416 C   0  0  0  0  0  0  0  0  0  0  0  0
    8.0334   14.3219   76.9026 C   0  0  0  0  0  0  0  0  0  0  0  0
    7.9946   13.1974   76.0422 C   0  0  0  0  0  0  0  0  0  0  0  0
    6.8126   12.4408   75.9093 C   0  0  0  0  0  0  0  0  0  0  0  0
    5.6626   12.8027   76.6336 C   0  0  0  0  0  0  0  0  0  0  0  0
    4.5178   14.5542   79.5165 O   0  0  0  0  0  0  0  0  0  0  0  0
    7.2771   15.4852   69.9235 C   0  0  0  0  0  0  0  0  0  0  0  0
    2.4569   15.2013   73.8580 C   0  0  0  0  0  0  0  0  0  0  0  0
   -1.2826   13.3406   74.6992 P   0  0  1  0  0  0  0  0  0  0  0  0
    6.1885   14.7462   71.9243 N   0  0  0  0  0  0  0  0  0  0  0  0
   -1.7441   11.9677   74.4183 O   0  0  0  0  0  0  0  0  0  0  0  0
    3.2121   14.4982   77.6740 S   0  0  0  0  0  0  0  0  0  0  0  0
    3.2286   17.5327   76.0667 C   0  0  0  0  0  0  0  0  0  0  0  0
    6.8027   15.7887   71.2677 C   0  0  0  0  0  0  0  0  0  0  0  0
   -1.4614   14.2964   73.5728 O   0  5  0  0  0  0  0  0  0  0  0  0
    3.8740   16.5348   75.4137 N   0  0  0  0  0  0  0  0  0  0  0  0
    6.9664   16.9703   71.7748 N   0  0  0  0  0  0  0  0  0  0  0  0
   -1.8559   13.8222   75.9773 O   0  0  0  0  0  0  0  0  0  0  0  0
    3.0894   15.3069   75.2192 C   0  0  2  0  0  0  0  0  0  0  0  0
    6.5203   17.2494   73.0525 C   0  0  0  0  0  0  0  0  0  0  0  0
    6.7098   18.4762   73.5445 N   0  0  0  0  0  0  0  0  0  0  0  0
    2.8999   14.2227   76.1781 C   0  0  1  0  0  0  0  0  0  0  0  0
    5.8677   16.1968   73.8154 C   0  0  0  0  0  0  0  0  0  0  0  0
    3.4230   17.5074   77.2621 O   0  0  0  0  0  0  0  0  0  0  0  0
    2.4358   12.8568   75.8149 C   0  0  0  0  0  0  0  0  0  0  0  0
    5.7353   14.9782   73.1813 C   0  0  0  0  0  0  0  0  0  0  0  0
    1.0030   12.5390   75.8575 C   0  0  0  0  0  0  0  0  0  0  0  0
    5.3986   16.4290   75.2310 C   0  0  0  0  0  0  0  0  0  0  0  0
    0.2720   13.3360   74.9093 O   0  0  0  0  0  0  0  0  0  0  0  0
  1  2  1  0  0  0  0
  1  8  2  0  0  0  0
  1 14  1  0  0  0  0
  2  3  2  0  0  0  0
  2  7  1  0  0  0  0
  3  4  1  0  0  0  0
  4  5  2  0  0  0  0
  5  6  1  0  0  0  0
  6  7  2  0  0  0  0
  9 16  1  0  0  0  0
 10 21  1  0  0  0  0
 11 13  1  6  0  0  0
 11 17  1  0  0  0  0
 11 20  2  0  0  0  0
 11 31  1  0  0  0  0
 12 16  2  0  0  0  0
 12 28  1  0  0  0  0
 15 26  1  0  0  0  0
 15 18  1  0  0  0  0
 16 19  1  0  0  0  0
 18 30  1  0  0  0  0
 19 22  2  0  0  0  0
 21 18  1  6  0  0  0
 21 24  1  0  0  0  0
 22 23  1  0  0  0  0
 22 25  1  0  0  0  0
 24 14  1  6  0  0  0
 24 27  1  0  0  0  0
 25 28  2  0  0  0  0
 25 30  1  0  0  0  0
 27 29  1  0  0  0  0
 29 31  1  0  0  0  0
M  CHG  1  17  -1
M  END
>  <CHROM.1>
-50.15856370,3.13461611,-88.22327737,92.46829994,98.07127892,-129.06776300
-163.55998293,88.36811938,107.61675581,63.14626526,-176.93190241,-55.60269380
3.66927535,14.75915582,75.20388958,-0.24663725,0.25353565,1.81221118

>  <Name>
ligand

>  <RI>
0

>  <Rbt.Current_Directory>
/home/itssahil/PROJECTS/Mol_Feturizer/New_Systems/rnas/2HOO

>  <Rbt.Executable>
rbdock ($Id: //depot/dev/client3/rdock/2013.1/src/exe/rbdock.cxx#4 $)

>  <Rbt.Library>
libRbt.so (2013.1, Build901 2013/11/27)

>  <Rbt.Parameter_File>
/export/apps/rDock/src/rDock_2013.1_src/data/scripts/dock_solv.prm

>  <Rbt.Receptor>
prm/blind_docking_100.prm

>  <SCORE>
-22.566

>  <SCORE.INTER>
-6.77193

>  <SCORE.INTER.CONST>
1

>  <SCORE.INTER.POLAR>
0

>  <SCORE.INTER.ROT>
12

>  <SCORE.INTER.SOLV>
10.5117

>  <SCORE.INTER.VDW>
-19.6185

>  <SCORE.INTER.norm>
-0.218449

>  <SCORE.INTRA>
-15.7941

>  <SCORE.INTRA.DIHEDRAL>
-1.1712

>  <SCORE.INTRA.DIHEDRAL.0>
14.6094

>  <SCORE.INTRA.POLAR>
0

>  <SCORE.INTRA.POLAR.0>
0

>  <SCORE.INTRA.REPUL>
0

>  <SCORE.INTRA.REPUL.0>
0

>  <SCORE.INTRA.SOLV>
1.0034

>  <SCORE.INTRA.SOLV.lig_0>
-65.6478

>  <SCORE.INTRA.VDW>
-15.7102

>  <SCORE.INTRA.VDW.0>
9.35535

>  <SCORE.INTRA.norm>
-0.509486

>  <SCORE.RESTR>
0

>  <SCORE.RESTR.CAVITY>
0

>  <SCORE.RESTR.norm>
0

>  <SCORE.SYSTEM>
0

>  <SCORE.SYSTEM.CONST>
0

>  <SCORE.SYSTEM.DIHEDRAL>
0

>  <SCORE.SYSTEM.SOLV>
0

>  <SCORE.SYSTEM.norm>
0

>  <SCORE.heavy>
31

>  <SCORE.norm>
-0.727935

>  <RMSD>
23.804

$$$$
ligand
 OpenBabel11021811443D
libRbt.so/2013.1/901 2013/11/27
 31 32  0  0  0  0  0  0  0  0999 V2000
   20.9786   23.6579   34.3601 C   0  0  0  0  0  0  0  0  0  0  0  0
   21.1287   24.9954   33.6413 C   0  0  0  0  0  0  0  0  0  0  0  0
   20.7191   25.1268   32.2749 C   0  0  0  0  0  0  0  0  0  0  0  0
   20.8640   26.3693   31.6125 C   0  0  0  0  0  0  0  0  0  0  0  0
   21.4048   27.4880   32.2925 C   0  0  0  0  0  0  0  0  0  0  0  0
   21.8073   27.3786   33.6391 C   0  0  0  0  0  0  0  0  0  0  0  0
   21.6732   26.1521   34.3141 C   0  0  0  0  0  0  0  0  0  0  0  0
   19.9571   22.9891   34.2062 O   0  0  0  0  0  0  0  0  0  0  0  0
   19.8626   18.9071   43.2011 C   0  0  0  0  0  0  0  0  0  0  0  0
   21.4904   19.5432   34.9584 C   0  0  0  0  0  0  0  0  0  0  0  0
   24.8659   25.1339   32.6641 P   0  0  1  0  0  0  0  0  0  0  0  0
   19.8349   20.6179   41.5258 N   0  0  0  0  0  0  0  0  0  0  0  0
   23.7126   25.5222   31.8299 O   0  0  0  0  0  0  0  0  0  0  0  0
   21.9818   23.1857   35.1884 S   0  0  0  0  0  0  0  0  0  0  0  0
   23.0141   20.5878   37.9655 C   0  0  0  0  0  0  0  0  0  0  0  0
   20.0064   19.2797   41.7994 C   0  0  0  0  0  0  0  0  0  0  0  0
   26.0228   24.5868   31.9048 O   0  5  0  0  0  0  0  0  0  0  0  0
   21.8789   20.4882   37.2305 N   0  0  0  0  0  0  0  0  0  0  0  0
   20.2771   18.3842   40.9024 N   0  0  0  0  0  0  0  0  0  0  0  0
   25.2316   26.2400   33.5790 O   0  0  0  0  0  0  0  0  0  0  0  0
   22.0555   20.6684   35.7823 C   0  0  2  0  0  0  0  0  0  0  0  0
   20.4188   18.7453   39.5761 C   0  0  0  0  0  0  0  0  0  0  0  0
   20.7022   17.7971   38.6798 N   0  0  0  0  0  0  0  0  0  0  0  0
   22.6802   21.8013   35.1062 C   0  0  1  0  0  0  0  0  0  0  0  0
   20.2608   20.1434   39.2070 C   0  0  0  0  0  0  0  0  0  0  0  0
   23.0889   19.7350   38.8226 O   0  0  0  0  0  0  0  0  0  0  0  0
   23.9446   21.7166   34.3271 C   0  0  0  0  0  0  0  0  0  0  0  0
   19.9650   21.0148   40.2355 C   0  0  0  0  0  0  0  0  0  0  0  0
   24.1474   22.5970   33.1697 C   0  0  0  0  0  0  0  0  0  0  0  0
   20.4467   20.6048   37.7821 C   0  0  0  0  0  0  0  0  0  0  0  0
   24.4595   23.9360   33.5918 O   0  0  0  0  0  0  0  0  0  0  0  0
  1  2  1  0  0  0  0
  1  8  2  0  0  0  0
  1 14  1  0  0  0  0
  2  3  2  0  0  0  0
  2  7  1  0  0  0  0
  3  4  1  0  0  0  0
  4  5  2  0  0  0  0
  5  6  1  0  0  0  0
  6  7  2  0  0  0  0
  9 16  1  0  0  0  0
 10 21  1  0  0  0  0
 11 13  1  6  0  0  0
 11 17  1  0  0  0  0
 11 20  2  0  0  0  0
 11 31  1  0  0  0  0
 12 16  2  0  0  0  0
 12 28  1  0  0  0  0
 15 26  1  0  0  0  0
 15 18  1  0  0  0  0
 16 19  1  0  0  0  0
 18 30  1  0  0  0  0
 19 22  2  0  0  0  0
 21 18  1  6  0  0  0
 21 24  1  0  0  0  0
 22 23  1  0  0  0  0
 22 25  1  0  0  0  0
 24 14  1  6  0  0  0
 24 27  1  0  0  0  0
 25 28  2  0  0  0  0
 25 30  1  0  0  0  0
 27 29  1  0  0  0  0
 29 31  1  0  0  0  0
M  CHG  1  17  -1
M  END
>  <CHROM.1>
-41.99789104,-126.22486982,-85.72793766,-137.15959470,126.68561957,-30.36967226
112.60071483,-31.16770577,-66.58161662,75.76857824,174.26678762,67.69467291
22.10362539,22.52950463,35.80273049,1.24766203,0.49597533,-0.73823687

>  <Name>
ligand

>  <RI>
0

>  <Rbt.Current_Directory>
/home/itssahil/PROJECTS/Mol_Feturizer/New_Systems/rnas/2HOO

>  <Rbt.Executable>
rbdock ($Id: //depot/dev/client3/rdock/2013.1/src/exe/rbdock.cxx#4 $)

>  <Rbt.Library>
libRbt.so (2013.1, Build901 2013/11/27)

>  <Rbt.Parameter_File>
/export/apps/rDock/src/rDock_2013.1_src/data/scripts/dock_solv.prm

>  <Rbt.Receptor>
prm/blind_docking_80.prm

>  <SCORE>
-21.61

>  <SCORE.INTER>
-9.64414

>  <SCORE.INTER.CONST>
1

>  <SCORE.INTER.POLAR>
0

>  <SCORE.INTER.ROT>
12

>  <SCORE.INTER.SOLV>
12.9734

>  <SCORE.INTER.VDW>
-22.3539

>  <SCORE.INTER.norm>
-0.311101

>  <SCORE.INTRA>
-11.9658

>  <SCORE.INTRA.DIHEDRAL>
2.29445

>  <SCORE.INTRA.DIHEDRAL.0>
14.6094

>  <SCORE.INTRA.POLAR>
0

>  <SCORE.INTRA.POLAR.0>
0

>  <SCORE.INTRA.REPUL>
0

>  <SCORE.INTRA.REPUL.0>
0

>  <SCORE.INTRA.SOLV>
4.52298

>  <SCORE.INTRA.SOLV.lig_0>
-65.6478

>  <SCORE.INTRA.VDW>
-15.3745

>  <SCORE.INTRA.VDW.0>
9.35535

>  <SCORE.INTRA.norm>
-0.385994

>  <SCORE.RESTR>
0

>  <SCORE.RESTR.CAVITY>
0

>  <SCORE.RESTR.norm>
0

>  <SCORE.SYSTEM>
0

>  <SCORE.SYSTEM.CONST>
0

>  <SCORE.SYSTEM.DIHEDRAL>
0

>  <SCORE.SYSTEM.SOLV>
0

>  <SCORE.SYSTEM.norm>
0

>  <SCORE.heavy>
31

>  <SCORE.norm>
-0.697095

>  <RMSD>
23.928

$$$$
ligand
 OpenBabel11021811443D
libRbt.so/2013.1/901 2013/11/27
 31 32  0  0  0  0  0  0  0  0999 V2000
   24.1225   25.0144   35.6868 C   0  0  0  0  0  0  0  0  0  0  0  0
   23.5400   25.7893   34.5085 C   0  0  0  0  0  0  0  0  0  0  0  0
   22.1268   26.0058   34.4191 C   0  0  0  0  0  0  0  0  0  0  0  0
   21.5921   26.7227   33.3218 C   0  0  0  0  0  0  0  0  0  0  0  0
   22.4446   27.2348   32.3133 C   0  0  0  0  0  0  0  0  0  0  0  0
   23.8383   27.0366   32.3882 C   0  0  0  0  0  0  0  0  0  0  0  0
   24.3887   26.3254   33.4696 C   0  0  0  0  0  0  0  0  0  0  0  0
   25.3225   25.1003   35.9457 O   0  0  0  0  0  0  0  0  0  0  0  0
   19.2519   20.2253   41.3418 C   0  0  0  0  0  0  0  0  0  0  0  0
   23.3509   21.3633   34.2796 C   0  0  0  0  0  0  0  0  0  0  0  0
   26.6481   23.3198   40.1130 P   0  0  1  0  0  0  0  0  0  0  0  0
   20.7896   19.9785   39.5227 N   0  0  0  0  0  0  0  0  0  0  0  0
   26.3537   24.7292   40.4353 O   0  0  0  0  0  0  0  0  0  0  0  0
   23.3138   24.2105   36.4714 S   0  0  0  0  0  0  0  0  0  0  0  0
   20.5182   22.6777   34.4048 C   0  0  0  0  0  0  0  0  0  0  0  0
   19.5173   20.3312   39.9126 C   0  0  0  0  0  0  0  0  0  0  0  0
   27.7624   23.1256   39.1463 O   0  5  0  0  0  0  0  0  0  0  0  0
   21.1099   21.8165   35.2691 N   0  0  0  0  0  0  0  0  0  0  0  0
   18.5935   20.7338   39.0974 N   0  0  0  0  0  0  0  0  0  0  0  0
   26.8036   22.5317   41.3576 O   0  0  0  0  0  0  0  0  0  0  0  0
   22.5649   21.9736   35.4083 C   0  0  2  0  0  0  0  0  0  0  0  0
   18.8498   20.8255   37.7426 C   0  0  0  0  0  0  0  0  0  0  0  0
   17.8733   21.2397   36.9316 N   0  0  0  0  0  0  0  0  0  0  0  0
   23.2773   22.6582   36.4829 C   0  0  1  0  0  0  0  0  0  0  0  0
   20.1693   20.4620   37.2501 C   0  0  0  0  0  0  0  0  0  0  0  0
   20.2269   22.1530   33.3526 O   0  0  0  0  0  0  0  0  0  0  0  0
   23.9869   21.9640   37.5907 C   0  0  0  0  0  0  0  0  0  0  0  0
   21.0830   20.0547   38.2009 C   0  0  0  0  0  0  0  0  0  0  0  0
   25.3447   22.3823   37.9612 C   0  0  0  0  0  0  0  0  0  0  0  0
   20.4951   20.5000   35.7769 C   0  0  0  0  0  0  0  0  0  0  0  0
   25.4226   22.6886   39.3643 O   0  0  0  0  0  0  0  0  0  0  0  0
  1  2  1  0  0  0  0
  1  8  2  0  0  0  0
  1 14  1  0  0  0  0
  2  3  2  0  0  0  0
  2  7  1  0  0  0  0
  3  4  1  0  0  0  0
  4  5  2  0  0  0  0
  5  6  1  0  0  0  0
  6  7  2  0  0  0  0
  9 16  1  0  0  0  0
 10 21  1  0  0  0  0
 11 13  1  1  0  0  0
 11 17  1  0  0  0  0
 11 20  2  0  0  0  0
 11 31  1  0  0  0  0
 12 16  2  0  0  0  0
 12 28  1  0  0  0  0
 15 26  1  0  0  0  0
 15 18  1  0  0  0  0
 16 19  1  0  0  0  0
 18 30  1  0  0  0  0
 19 22  2  0  0  0  0
 21 18  1  6  0  0  0
 21 24  1  0  0  0  0
 22 23  1  0  0  0  0
 22 25  1  0  0  0  0
 24 14  1  6  0  0  0
 24 27  1  0  0  0  0
 25 28  2  0  0  0  0
 25 30  1  0  0  0  0
 27 29  1  0  0  0  0
 29 31  1  0  0  0  0
M  CHG  1  17  -1
M  END
>  <CHROM.1>
-162.31596226,106.81719263,-78.21178397,104.10949646,-78.63179469,-113.62472149
101.72461953,-46.20515151,92.73558478,125.93330654,-172.68009732,105.91641760
22.87365245,22.95106104,36.98283330,0.44009360,-0.46465778,-0.99752827

>  <Name>
ligand

>  <RI>
0

>  <Rbt.Current_Directory>
/home/itssahil/PROJECTS/Mol_Feturizer/New_Systems/rnas/2HOO

>  <Rbt.Executable>
rbdock ($Id: //depot/dev/client3/rdock/2013.1/src/exe/rbdock.cxx#4 $)

>  <Rbt.Library>
libRbt.so (2013.1, Build901 2013/11/27)

>  <Rbt.Parameter_File>
/export/apps/rDock/src/rDock_2013.1_src/data/scripts/dock_solv.prm

>  <Rbt.Receptor>
prm/blind_docking_60.prm

>  <SCORE>
-19.0739

>  <SCORE.INTER>
-12.8911

>  <SCORE.INTER.CONST>
1

>  <SCORE.INTER.POLAR>
0

>  <SCORE.INTER.ROT>
12

>  <SCORE.INTER.SOLV>
13.8653

>  <SCORE.INTER.VDW>
-24.8158

>  <SCORE.INTER.norm>
-0.41584

>  <SCORE.INTRA>
-6.81016

>  <SCORE.INTRA.DIHEDRAL>
12.1306

>  <SCORE.INTRA.DIHEDRAL.0>
14.6094

>  <SCORE.INTRA.POLAR>
0

>  <SCORE.INTRA.POLAR.0>
0

>  <SCORE.INTRA.REPUL>
0

>  <SCORE.INTRA.REPUL.0>
0

>  <SCORE.INTRA.SOLV>
0.924161

>  <SCORE.INTRA.SOLV.lig_0>
-65.6478

>  <SCORE.INTRA.VDW>
-13.3375

>  <SCORE.INTRA.VDW.0>
9.35535

>  <SCORE.INTRA.norm>
-0.219683

>  <SCORE.RESTR>
0.627314

>  <SCORE.RESTR.CAVITY>
0.627314

>  <SCORE.RESTR.norm>
0.0202359

>  <SCORE.SYSTEM>
0

>  <SCORE.SYSTEM.CONST>
0

>  <SCORE.SYSTEM.DIHEDRAL>
0

>  <SCORE.SYSTEM.SOLV>
0

>  <SCORE.SYSTEM.norm>
0

>  <SCORE.heavy>
31

>  <SCORE.norm>
-0.615287

>  <RMSD>
23.964

$$$$
ligand
 OpenBabel11021811443D
libRbt.so/2013.1/901 2013/11/27
 31 32  0  0  0  0  0  0  0  0999 V2000
    1.5402   15.3451   73.9303 C   0  0  0  0  0  0  0  0  0  0  0  0
    0.2364   14.8296   74.5324 C   0  0  0  0  0  0  0  0  0  0  0  0
   -0.2905   13.5611   74.1259 C   0  0  0  0  0  0  0  0  0  0  0  0
   -1.5023   13.0897   74.6856 C   0  0  0  0  0  0  0  0  0  0  0  0
   -2.1958   13.8597   75.6512 C   0  0  0  0  0  0  0  0  0  0  0  0
   -1.6888   15.1074   76.0675 C   0  0  0  0  0  0  0  0  0  0  0  0
   -0.4873   15.5940   75.5219 C   0  0  0  0  0  0  0  0  0  0  0  0
    1.5394   15.8599   72.8125 O   0  0  0  0  0  0  0  0  0  0  0  0
    5.0210    9.8881   75.8889 C   0  0  0  0  0  0  0  0  0  0  0  0
    4.5188   17.3502   72.5830 C   0  0  0  0  0  0  0  0  0  0  0  0
    4.7294   14.3818   77.6242 P   0  0  1  0  0  0  0  0  0  0  0  0
    4.4013   11.7504   74.5170 N   0  0  0  0  0  0  0  0  0  0  0  0
    5.2844   14.3099   76.2590 O   0  0  0  0  0  0  0  0  0  0  0  0
    2.7303   15.2392   74.6290 S   0  0  0  0  0  0  0  0  0  0  0  0
    7.0046   16.3794   74.7514 C   0  0  0  0  0  0  0  0  0  0  0  0
    5.4225   11.0784   75.1500 C   0  0  0  0  0  0  0  0  0  0  0  0
    3.4633   13.6246   77.8184 O   0  5  0  0  0  0  0  0  0  0  0  0
    6.1675   15.9226   73.7874 N   0  0  0  0  0  0  0  0  0  0  0  0
    6.6649   11.4464   75.1151 N   0  0  0  0  0  0  0  0  0  0  0  0
    5.7742   14.0483   78.6199 O   0  0  0  0  0  0  0  0  0  0  0  0
    4.8221   16.5150   73.7975 C   0  0  2  0  0  0  0  0  0  0  0  0
    7.0377   12.5799   74.4183 C   0  0  0  0  0  0  0  0  0  0  0  0
    8.3258   12.9316   74.4075 N   0  0  0  0  0  0  0  0  0  0  0  0
    3.7963   16.3515   74.8230 C   0  0  1  0  0  0  0  0  0  0  0  0
    6.0145   13.3503   73.7289 C   0  0  0  0  0  0  0  0  0  0  0  0
    8.1387   15.9774   74.6105 O   0  0  0  0  0  0  0  0  0  0  0  0
    3.6943   17.1929   76.0455 C   0  0  0  0  0  0  0  0  0  0  0  0
    4.7244   12.8686   73.8211 C   0  0  0  0  0  0  0  0  0  0  0  0
    3.2407   16.5934   77.3066 C   0  0  0  0  0  0  0  0  0  0  0  0
    6.3543   14.6206   72.9881 C   0  0  0  0  0  0  0  0  0  0  0  0
    4.3042   15.8589   77.9376 O   0  0  0  0  0  0  0  0  0  0  0  0
  1  2  1  0  0  0  0
  1  8  2  0  0  0  0
  1 14  1  0  0  0  0
  2  3  2  0  0  0  0
  2  7  1  0  0  0  0
  3  4  1  0  0  0  0
  4  5  2  0  0  0  0
  5  6  1  0  0  0  0
  6  7  2  0  0  0  0
  9 16  1  0  0  0  0
 10 21  1  0  0  0  0
 11 13  1  6  0  0  0
 11 17  1  0  0  0  0
 11 20  2  0  0  0  0
 11 31  1  0  0  0  0
 12 16  2  0  0  0  0
 12 28  1  0  0  0  0
 15 26  1  0  0  0  0
 15 18  1  0  0  0  0
 16 19  1  0  0  0  0
 18 30  1  0  0  0  0
 19 22  2  0  0  0  0
 21 18  1  6  0  0  0
 21 24  1  0  0  0  0
 22 23  1  0  0  0  0
 22 25  1  0  0  0  0
 24 14  1  6  0  0  0
 24 27  1  0  0  0  0
 25 28  2  0  0  0  0
 25 30  1  0  0  0  0
 27 29  1  0  0  0  0
 29 31  1  0  0  0  0
M  CHG  1  17  -1
M  END
>  <CHROM.1>
79.39229822,-133.47794559,-86.49108421,-172.19327776,114.24852759,76.21356998
84.53625734,35.68577809,-94.74264897,78.90582744,-83.67882737,66.68143807
3.94937027,14.49932562,75.22161952,-3.00532138,-0.05570966,2.78264070

>  <Name>
ligand

>  <RI>
0

>  <Rbt.Current_Directory>
/home/itssahil/PROJECTS/Mol_Feturizer/New_Systems/rnas/2HOO

>  <Rbt.Executable>
rbdock ($Id: //depot/dev/client3/rdock/2013.1/src/exe/rbdock.cxx#4 $)

>  <Rbt.Library>
libRbt.so (2013.1, Build901 2013/11/27)

>  <Rbt.Parameter_File>
/export/apps/rDock/src/rDock_2013.1_src/data/scripts/dock_solv.prm

>  <Rbt.Receptor>
prm/blind_docking_100.prm

>  <SCORE>
-15.0733

>  <SCORE.INTER>
-2.50481

>  <SCORE.INTER.CONST>
1

>  <SCORE.INTER.POLAR>
0

>  <SCORE.INTER.ROT>
12

>  <SCORE.INTER.SOLV>
10.2749

>  <SCORE.INTER.VDW>
-16.6948

>  <SCORE.INTER.norm>
-0.0808002

>  <SCORE.INTRA>
-12.5717

>  <SCORE.INTRA.DIHEDRAL>
4.25972

>  <SCORE.INTRA.DIHEDRAL.0>
14.6094

>  <SCORE.INTRA.POLAR>
0

>  <SCORE.INTRA.POLAR.0>
0

>  <SCORE.INTRA.REPUL>
0

>  <SCORE.INTRA.REPUL.0>
0

>  <SCORE.INTRA.SOLV>
5.11701

>  <SCORE.INTRA.SOLV.lig_0>
-65.6478

>  <SCORE.INTRA.VDW>
-17.26

>  <SCORE.INTRA.VDW.0>
9.35535

>  <SCORE.INTRA.norm>
-0.405537

>  <SCORE.RESTR>
0.0031531

>  <SCORE.RESTR.CAVITY>
0.0031531

>  <SCORE.RESTR.norm>
0.000101713

>  <SCORE.SYSTEM>
0

>  <SCORE.SYSTEM.CONST>
0

>  <SCORE.SYSTEM.DIHEDRAL>
0

>  <SCORE.SYSTEM.SOLV>
0

>  <SCORE.SYSTEM.norm>
0

>  <SCORE.heavy>
31

>  <SCORE.norm>
-0.486236

>  <RMSD>
23.997

$$$$
ligand
 OpenBabel11021811443D
libRbt.so/2013.1/901 2013/11/27
 31 32  0  0  0  0  0  0  0  0999 V2000
    4.1803   15.7182   76.2808 C   0  0  0  0  0  0  0  0  0  0  0  0
    3.3998   14.6992   77.1057 C   0  0  0  0  0  0  0  0  0  0  0  0
    2.1625   14.1718   76.6124 C   0  0  0  0  0  0  0  0  0  0  0  0
    1.4413   13.2292   77.3839 C   0  0  0  0  0  0  0  0  0  0  0  0
    1.9368   12.7968   78.6383 C   0  0  0  0  0  0  0  0  0  0  0  0
    3.1555   13.3005   79.1365 C   0  0  0  0  0  0  0  0  0  0  0  0
    3.8860   14.2391   78.3859 C   0  0  0  0  0  0  0  0  0  0  0  0
    4.0818   16.9185   76.5340 O   0  0  0  0  0  0  0  0  0  0  0  0
    8.3442   17.2549   77.6166 C   0  0  0  0  0  0  0  0  0  0  0  0
    5.8235   12.6329   72.6431 C   0  0  0  0  0  0  0  0  0  0  0  0
    0.6316   15.3096   71.7653 P   0  0  1  0  0  0  0  0  0  0  0  0
    7.1180   15.2204   77.9184 N   0  0  0  0  0  0  0  0  0  0  0  0
    0.0352   16.0539   70.6396 O   0  0  0  0  0  0  0  0  0  0  0  0
    5.0011   15.3073   75.2449 S   0  0  0  0  0  0  0  0  0  0  0  0
    4.5217   11.0452   74.9857 C   0  0  0  0  0  0  0  0  0  0  0  0
    7.9786   15.9356   77.1167 C   0  0  0  0  0  0  0  0  0  0  0  0
   -0.3175   14.9837   72.8640 O   0  5  0  0  0  0  0  0  0  0  0  0
    5.4011   12.0763   75.0344 N   0  0  0  0  0  0  0  0  0  0  0  0
    8.4520   15.5013   75.9909 N   0  0  0  0  0  0  0  0  0  0  0  0
    1.3779   14.1328   71.2629 O   0  0  0  0  0  0  0  0  0  0  0  0
    5.2533   13.0732   73.9641 C   0  0  2  0  0  0  0  0  0  0  0  0
    8.0960   14.2522   75.5195 C   0  0  0  0  0  0  0  0  0  0  0  0
    8.5993   13.8390   74.3538 N   0  0  0  0  0  0  0  0  0  0  0  0
    4.6110   14.3804   74.0617 C   0  0  1  0  0  0  0  0  0  0  0  0
    7.1827   13.4376   76.3057 C   0  0  0  0  0  0  0  0  0  0  0  0
    3.7519   11.0467   75.9210 O   0  0  0  0  0  0  0  0  0  0  0  0
    3.5905   14.8844   73.1038 C   0  0  0  0  0  0  0  0  0  0  0  0
    6.7435   13.9885   77.4925 C   0  0  0  0  0  0  0  0  0  0  0  0
    2.5570   15.8195   73.5655 C   0  0  0  0  0  0  0  0  0  0  0  0
    6.7235   12.0838   75.8218 C   0  0  0  0  0  0  0  0  0  0  0  0
    1.6975   16.2111   72.4809 O   0  0  0  0  0  0  0  0  0  0  0  0
  1  2  1  0  0  0  0
  1  8  2  0  0  0  0
  1 14  1  0  0  0  0
  2  3  2  0  0  0  0
  2  7  1  0  0  0  0
  3  4  1  0  0  0  0
  4  5  2  0  0  0  0
  5  6  1  0  0  0  0
  6  7  2  0  0  0  0
  9 16  1  0  0  0  0
 10 21  1  0  0  0  0
 11 13  1  6  0  0  0
 11 17  1  0  0  0  0
 11 20  2  0  0  0  0
 11 31  1  0  0  0  0
 12 16  2  0  0  0  0
 12 28  1  0  0  0  0
 15 26  1  0  0  0  0
 15 18  1  0  0  0  0
 16 19  1  0  0  0  0
 18 30  1  0  0  0  0
 19 22  2  0  0  0  0
 21 18  1  6  0  0  0
 21 24  1  0  0  0  0
 22 23  1  0  0  0  0
 22 25  1  0  0  0  0
 24 14  1  1  0  0  0
 24 27  1  0  0  0  0
 25 28  2  0  0  0  0
 25 30  1  0  0  0  0
 27 29  1  0  0  0  0
 29 31  1  0  0  0  0
M  CHG  1  17  -1
M  END
>  <CHROM.1>
98.46872874,52.42494346,-114.52430491,-113.58731895,-77.52178664,-150.70711620
-132.27472156,-29.37304289,-93.13041879,178.37534518,71.13869093,-175.70473862
4.24908567,14.41153953,75.06945216,0.64014892,0.10765174,1.85144433

>  <Name>
ligand

>  <RI>
0

>  <Rbt.Current_Directory>
/home/itssahil/PROJECTS/Mol_Feturizer/New_Systems/rnas/2HOO

>  <Rbt.Executable>
rbdock ($Id: //depot/dev/client3/rdock/2013.1/src/exe/rbdock.cxx#4 $)

>  <Rbt.Library>
libRbt.so (2013.1, Build901 2013/11/27)

>  <Rbt.Parameter_File>
/export/apps/rDock/src/rDock_2013.1_src/data/scripts/dock_solv.prm

>  <Rbt.Receptor>
prm/blind_docking_100.prm

>  <SCORE>
-18.4781

>  <SCORE.INTER>
-5.86606

>  <SCORE.INTER.CONST>
1

>  <SCORE.INTER.POLAR>
0

>  <SCORE.INTER.ROT>
12

>  <SCORE.INTER.SOLV>
16.5165

>  <SCORE.INTER.VDW>
-21.0162

>  <SCORE.INTER.norm>
-0.189228

>  <SCORE.INTRA>
-12.6436

>  <SCORE.INTRA.DIHEDRAL>
1.86631

>  <SCORE.INTRA.DIHEDRAL.0>
14.6094

>  <SCORE.INTRA.POLAR>
0

>  <SCORE.INTRA.POLAR.0>
0

>  <SCORE.INTRA.REPUL>
0

>  <SCORE.INTRA.REPUL.0>
0

>  <SCORE.INTRA.SOLV>
5.7311

>  <SCORE.INTRA.SOLV.lig_0>
-65.6478

>  <SCORE.INTRA.VDW>
-16.4424

>  <SCORE.INTRA.VDW.0>
9.35535

>  <SCORE.INTRA.norm>
-0.40786

>  <SCORE.RESTR>
0.0315984

>  <SCORE.RESTR.CAVITY>
0.0315984

>  <SCORE.RESTR.norm>
0.0010193

>  <SCORE.SYSTEM>
0

>  <SCORE.SYSTEM.CONST>
0

>  <SCORE.SYSTEM.DIHEDRAL>
0

>  <SCORE.SYSTEM.SOLV>
0

>  <SCORE.SYSTEM.norm>
0

>  <SCORE.heavy>
31

>  <SCORE.norm>
-0.596068

>  <RMSD>
24.130

$$$$
ligand
 OpenBabel11021811443D
libRbt.so/2013.1/901 2013/11/27
 31 32  0  0  0  0  0  0  0  0999 V2000
   23.8142   24.6717   36.0558 C   0  0  0  0  0  0  0  0  0  0  0  0
   24.3780   23.8264   37.1941 C   0  0  0  0  0  0  0  0  0  0  0  0
   24.0335   22.4397   37.2980 C   0  0  0  0  0  0  0  0  0  0  0  0
   24.5570   21.6615   38.3582 C   0  0  0  0  0  0  0  0  0  0  0  0
   25.4259   22.2412   39.3149 C   0  0  0  0  0  0  0  0  0  0  0  0
   25.7805   23.6026   39.2246 C   0  0  0  0  0  0  0  0  0  0  0  0
   25.2693   24.3931   38.1797 C   0  0  0  0  0  0  0  0  0  0  0  0
   24.5160   25.5307   35.5228 O   0  0  0  0  0  0  0  0  0  0  0  0
   20.3381   16.6094   39.5432 C   0  0  0  0  0  0  0  0  0  0  0  0
   19.7679   22.7983   33.7141 C   0  0  0  0  0  0  0  0  0  0  0  0
   23.1470   27.9840   32.7027 P   0  0  1  0  0  0  0  0  0  0  0  0
   21.5669   18.4965   38.7289 N   0  0  0  0  0  0  0  0  0  0  0  0
   24.2372   28.6693   33.4229 O   0  0  0  0  0  0  0  0  0  0  0  0
   22.5160   24.4844   35.6140 S   0  0  0  0  0  0  0  0  0  0  0  0
   21.9885   20.5125   34.8726 C   0  0  0  0  0  0  0  0  0  0  0  0
   20.3389   17.8834   38.8354 C   0  0  0  0  0  0  0  0  0  0  0  0
   21.7795   28.4430   33.0678 O   0  5  0  0  0  0  0  0  0  0  0  0
   21.1382   21.4712   35.3164 N   0  0  0  0  0  0  0  0  0  0  0  0
   19.2392   18.3724   38.3542 N   0  0  0  0  0  0  0  0  0  0  0  0
   23.4054   28.0033   31.2443 O   0  0  0  0  0  0  0  0  0  0  0  0
   21.0602   22.6740   34.4748 C   0  0  2  0  0  0  0  0  0  0  0  0
   19.2482   19.5776   37.6783 C   0  0  0  0  0  0  0  0  0  0  0  0
   18.0975   20.0490   37.1921 N   0  0  0  0  0  0  0  0  0  0  0  0
   22.0696   23.7196   34.3385 C   0  0  1  0  0  0  0  0  0  0  0  0
   20.5095   20.2837   37.5160 C   0  0  0  0  0  0  0  0  0  0  0  0
   21.4189   19.4820   34.5879 O   0  0  0  0  0  0  0  0  0  0  0  0
   22.6961   24.1140   33.0483 C   0  0  0  0  0  0  0  0  0  0  0  0
   21.6199   19.6823   38.0729 C   0  0  0  0  0  0  0  0  0  0  0  0
   22.3848   25.4214   32.4570 C   0  0  0  0  0  0  0  0  0  0  0  0
   20.5894   21.5818   36.7501 C   0  0  0  0  0  0  0  0  0  0  0  0
   23.1260   26.4685   33.1073 O   0  0  0  0  0  0  0  0  0  0  0  0
  1  2  1  0  0  0  0
  1  8  2  0  0  0  0
  1 14  1  0  0  0  0
  2  3  2  0  0  0  0
  2  7  1  0  0  0  0
  3  4  1  0  0  0  0
  4  5  2  0  0  0  0
  5  6  1  0  0  0  0
  6  7  2  0  0  0  0
  9 16  1  0  0  0  0
 10 21  1  0  0  0  0
 11 13  1  1  0  0  0
 11 17  1  0  0  0  0
 11 20  2  0  0  0  0
 11 31  1  0  0  0  0
 12 16  2  0  0  0  0
 12 28  1  0  0  0  0
 15 26  1  0  0  0  0
 15 18  1  0  0  0  0
 16 19  1  0  0  0  0
 18 30  1  0  0  0  0
 19 22  2  0  0  0  0
 21 18  1  1  0  0  0
 21 24  1  0  0  0  0
 22 23  1  0  0  0  0
 22 25  1  0  0  0  0
 24 14  1  6  0  0  0
 24 27  1  0  0  0  0
 25 28  2  0  0  0  0
 25 30  1  0  0  0  0
 27 29  1  0  0  0  0
 29 31  1  0  0  0  0
M  CHG  1  17  -1
M  END
>  <CHROM.1>
-142.38402668,-101.80812149,127.74021256,-116.54831456,108.32515296,-26.68442772
120.49978785,-69.05579487,-101.56973778,78.68068815,175.45178222,-167.92860745
22.27320395,23.12340906,35.70627339,-1.24431193,0.63915867,2.40299495

>  <Name>
ligand

>  <RI>
0

>  <Rbt.Current_Directory>
/home/itssahil/PROJECTS/Mol_Feturizer/New_Systems/rnas/2HOO

>  <Rbt.Executable>
rbdock ($Id: //depot/dev/client3/rdock/2013.1/src/exe/rbdock.cxx#4 $)

>  <Rbt.Library>
libRbt.so (2013.1, Build901 2013/11/27)

>  <Rbt.Parameter_File>
/export/apps/rDock/src/rDock_2013.1_src/data/scripts/dock_solv.prm

>  <Rbt.Receptor>
prm/blind_docking_60.prm

>  <SCORE>
-28.4278

>  <SCORE.INTER>
-16.0058

>  <SCORE.INTER.CONST>
1

>  <SCORE.INTER.POLAR>
0

>  <SCORE.INTER.ROT>
12

>  <SCORE.INTER.SOLV>
11.6857

>  <SCORE.INTER.VDW>
-26.1658

>  <SCORE.INTER.norm>
-0.516316

>  <SCORE.INTRA>
-12.4348

>  <SCORE.INTRA.DIHEDRAL>
4.95391

>  <SCORE.INTRA.DIHEDRAL.0>
14.6094

>  <SCORE.INTRA.POLAR>
0

>  <SCORE.INTRA.POLAR.0>
0

>  <SCORE.INTRA.REPUL>
0

>  <SCORE.INTRA.REPUL.0>
0

>  <SCORE.INTRA.SOLV>
1.04495

>  <SCORE.INTRA.SOLV.lig_0>
-65.6478

>  <SCORE.INTRA.VDW>
-15.4343

>  <SCORE.INTRA.VDW.0>
9.35535

>  <SCORE.INTRA.norm>
-0.401123

>  <SCORE.RESTR>
0.0128405

>  <SCORE.RESTR.CAVITY>
0.0128405

>  <SCORE.RESTR.norm>
0.000414211

>  <SCORE.SYSTEM>
0

>  <SCORE.SYSTEM.CONST>
0

>  <SCORE.SYSTEM.DIHEDRAL>
0

>  <SCORE.SYSTEM.SOLV>
0

>  <SCORE.SYSTEM.norm>
0

>  <SCORE.heavy>
31

>  <SCORE.norm>
-0.917025

>  <RMSD>
24.195

$$$$
ligand
 OpenBabel11021811443D
libRbt.so/2013.1/901 2013/11/27
 31 32  0  0  0  0  0  0  0  0999 V2000
   24.3105   23.0803   36.4114 C   0  0  0  0  0  0  0  0  0  0  0  0
   24.7932   22.3216   35.1788 C   0  0  0  0  0  0  0  0  0  0  0  0
   24.5353   22.8407   33.8688 C   0  0  0  0  0  0  0  0  0  0  0  0
   24.9828   22.1305   32.7290 C   0  0  0  0  0  0  0  0  0  0  0  0
   25.6910   20.9124   32.8730 C   0  0  0  0  0  0  0  0  0  0  0  0
   25.9591   20.3898   34.1545 C   0  0  0  0  0  0  0  0  0  0  0  0
   25.5212   21.0795   35.2993 C   0  0  0  0  0  0  0  0  0  0  0  0
   25.0723   23.2567   37.3616 O   0  0  0  0  0  0  0  0  0  0  0  0
   20.4310   19.7026   41.8347 C   0  0  0  0  0  0  0  0  0  0  0  0
   20.5416   22.7683   33.4972 C   0  0  0  0  0  0  0  0  0  0  0  0
   23.0068   27.3959   31.6204 P   0  0  1  0  0  0  0  0  0  0  0  0
   21.1291   19.7868   39.5456 N   0  0  0  0  0  0  0  0  0  0  0  0
   24.3545   26.9007   31.2809 O   0  0  0  0  0  0  0  0  0  0  0  0
   23.0190   23.5740   36.4750 S   0  0  0  0  0  0  0  0  0  0  0  0
   21.9947   20.5895   35.6761 C   0  0  0  0  0  0  0  0  0  0  0  0
   20.1975   20.1828   40.4786 C   0  0  0  0  0  0  0  0  0  0  0  0
   22.9330   28.8584   31.8843 O   0  5  0  0  0  0  0  0  0  0  0  0
   20.9457   21.4419   35.5669 N   0  0  0  0  0  0  0  0  0  0  0  0
   19.1725   20.9291   40.2095 N   0  0  0  0  0  0  0  0  0  0  0  0
   22.0217   26.9275   30.6182 O   0  0  0  0  0  0  0  0  0  0  0  0
   21.2260   22.6854   34.8347 C   0  0  2  0  0  0  0  0  0  0  0  0
   18.9533   21.3754   38.9203 C   0  0  0  0  0  0  0  0  0  0  0  0
   17.8848   22.1387   38.6786 N   0  0  0  0  0  0  0  0  0  0  0  0
   22.0518   23.8029   35.2819 C   0  0  1  0  0  0  0  0  0  0  0  0
   19.8893   20.9926   37.8747 C   0  0  0  0  0  0  0  0  0  0  0  0
   22.2839   20.0713   34.6200 O   0  0  0  0  0  0  0  0  0  0  0  0
   22.0208   25.1609   34.6755 C   0  0  0  0  0  0  0  0  0  0  0  0
   20.9514   20.2037   38.2674 C   0  0  0  0  0  0  0  0  0  0  0  0
   22.6358   25.3861   33.3614 C   0  0  0  0  0  0  0  0  0  0  0  0
   19.6788   21.4130   36.4405 C   0  0  0  0  0  0  0  0  0  0  0  0
   22.5498   26.7716   32.9850 O   0  0  0  0  0  0  0  0  0  0  0  0
  1  2  1  0  0  0  0
  1  8  2  0  0  0  0
  1 14  1  0  0  0  0
  2  3  2  0  0  0  0
  2  7  1  0  0  0  0
  3  4  1  0  0  0  0
  4  5  2  0  0  0  0
  5  6  1  0  0  0  0
  6  7  2  0  0  0  0
  9 16  1  0  0  0  0
 10 21  1  0  0  0  0
 11 13  1  6  0  0  0
 11 17  1  0  0  0  0
 11 20  2  0  0  0  0
 11 31  1  0  0  0  0
 12 16  2  0  0  0  0
 12 28  1  0  0  0  0
 15 26  1  0  0  0  0
 15 18  1  0  0  0  0
 16 19  1  0  0  0  0
 18 30  1  0  0  0  0
 19 22  2  0  0  0  0
 21 18  1  1  0  0  0
 21 24  1  0  0  0  0
 22 23  1  0  0  0  0
 22 25  1  0  0  0  0
 24 14  1  1  0  0  0
 24 27  1  0  0  0  0
 25 28  2  0  0  0  0
 25 30  1  0  0  0  0
 27 29  1  0  0  0  0
 29 31  1  0  0  0  0
M  CHG  1  17  -1
M  END
>  <CHROM.1>
-133.41966006,-18.04739115,86.46416535,-70.39034172,110.26651288,34.25423050
-165.18039245,106.64356490,156.85804189,-177.42800552,-175.83944555,-47.23609917
22.30976158,23.07436735,35.38167857,-1.93420761,0.52600557,-0.68843789

>  <Name>
ligand

>  <RI>
0

>  <Rbt.Current_Directory>
/home/itssahil/PROJECTS/Mol_Feturizer/New_Systems/rnas/2HOO

>  <Rbt.Executable>
rbdock ($Id: //depot/dev/client3/rdock/2013.1/src/exe/rbdock.cxx#4 $)

>  <Rbt.Library>
libRbt.so (2013.1, Build901 2013/11/27)

>  <Rbt.Parameter_File>
/export/apps/rDock/src/rDock_2013.1_src/data/scripts/dock_solv.prm

>  <Rbt.Receptor>
prm/blind_docking_80.prm

>  <SCORE>
-27.5429

>  <SCORE.INTER>
-13.9241

>  <SCORE.INTER.CONST>
1

>  <SCORE.INTER.POLAR>
0

>  <SCORE.INTER.ROT>
12

>  <SCORE.INTER.SOLV>
15.6806

>  <SCORE.INTER.VDW>
-26.1096

>  <SCORE.INTER.norm>
-0.449164

>  <SCORE.INTRA>
-13.6188

>  <SCORE.INTRA.DIHEDRAL>
-0.786284

>  <SCORE.INTRA.DIHEDRAL.0>
14.6094

>  <SCORE.INTRA.POLAR>
0

>  <SCORE.INTRA.POLAR.0>
0

>  <SCORE.INTRA.REPUL>
0

>  <SCORE.INTRA.REPUL.0>
0

>  <SCORE.INTRA.SOLV>
-0.805492

>  <SCORE.INTRA.SOLV.lig_0>
-65.6478

>  <SCORE.INTRA.VDW>
-12.823

>  <SCORE.INTRA.VDW.0>
9.35535

>  <SCORE.INTRA.norm>
-0.439318

>  <SCORE.RESTR>
0

>  <SCORE.RESTR.CAVITY>
0

>  <SCORE.RESTR.norm>
0

>  <SCORE.SYSTEM>
0

>  <SCORE.SYSTEM.CONST>
0

>  <SCORE.SYSTEM.DIHEDRAL>
0

>  <SCORE.SYSTEM.SOLV>
0

>  <SCORE.SYSTEM.norm>
0

>  <SCORE.heavy>
31

>  <SCORE.norm>
-0.888482

>  <RMSD>
24.291

$$$$
ligand
 OpenBabel11021811443D
libRbt.so/2013.1/901 2013/11/27
 31 32  0  0  0  0  0  0  0  0999 V2000
   25.0171   24.3774   35.8028 C   0  0  0  0  0  0  0  0  0  0  0  0
   24.9201   25.0400   34.4319 C   0  0  0  0  0  0  0  0  0  0  0  0
   24.5461   26.4188   34.3251 C   0  0  0  0  0  0  0  0  0  0  0  0
   24.4545   27.0270   33.0502 C   0  0  0  0  0  0  0  0  0  0  0  0
   24.7370   26.2848   31.8774 C   0  0  0  0  0  0  0  0  0  0  0  0
   25.1125   24.9288   31.9639 C   0  0  0  0  0  0  0  0  0  0  0  0
   25.2073   24.3058   33.2212 C   0  0  0  0  0  0  0  0  0  0  0  0
   25.1658   25.0685   36.8101 O   0  0  0  0  0  0  0  0  0  0  0  0
   17.7248   20.8085   40.0971 C   0  0  0  0  0  0  0  0  0  0  0  0
   23.4476   21.6297   33.5915 C   0  0  0  0  0  0  0  0  0  0  0  0
   26.1023   22.7292   39.9793 P   0  0  1  0  0  0  0  0  0  0  0  0
   17.9223   21.4376   37.7950 N   0  0  0  0  0  0  0  0  0  0  0  0
   27.3168   22.0375   39.5066 O   0  0  0  0  0  0  0  0  0  0  0  0
   24.9409   23.0010   35.9281 S   0  0  0  0  0  0  0  0  0  0  0  0
   20.8641   23.1532   34.2178 C   0  0  0  0  0  0  0  0  0  0  0  0
   18.4769   20.7490   38.8501 C   0  0  0  0  0  0  0  0  0  0  0  0
   25.4918   22.1417   41.2026 O   0  5  0  0  0  0  0  0  0  0  0  0
   21.3392   22.0514   34.8498 N   0  0  0  0  0  0  0  0  0  0  0  0
   19.5869   20.0834   38.7794 N   0  0  0  0  0  0  0  0  0  0  0  0
   26.3511   24.1855   40.0861 O   0  0  0  0  0  0  0  0  0  0  0  0
   22.8045   21.9518   34.9132 C   0  0  2  0  0  0  0  0  0  0  0  0
   20.2985   20.0367   37.5959 C   0  0  0  0  0  0  0  0  0  0  0  0
   21.4402   19.3451   37.5606 N   0  0  0  0  0  0  0  0  0  0  0  0
   23.6502   22.1523   36.0860 C   0  0  1  0  0  0  0  0  0  0  0  0
   19.7821   20.7465   36.4360 C   0  0  0  0  0  0  0  0  0  0  0  0
   20.5383   22.9278   33.0731 O   0  0  0  0  0  0  0  0  0  0  0  0
   23.3638   21.5838   37.4305 C   0  0  0  0  0  0  0  0  0  0  0  0
   18.5890   21.4169   36.6142 C   0  0  0  0  0  0  0  0  0  0  0  0
   24.4672   21.3377   38.3674 C   0  0  0  0  0  0  0  0  0  0  0  0
   20.5365   20.7682   35.1290 C   0  0  0  0  0  0  0  0  0  0  0  0
   24.9637   22.5730   38.9116 O   0  0  0  0  0  0  0  0  0  0  0  0
  1  2  1  0  0  0  0
  1  8  2  0  0  0  0
  1 14  1  0  0  0  0
  2  3  2  0  0  0  0
  2  7  1  0  0  0  0
  3  4  1  0  0  0  0
  4  5  2  0  0  0  0
  5  6  1  0  0  0  0
  6  7  2  0  0  0  0
  9 16  1  0  0  0  0
 10 21  1  0  0  0  0
 11 13  1  6  0  0  0
 11 17  1  0  0  0  0
 11 20  2  0  0  0  0
 11 31  1  0  0  0  0
 12 16  2  0  0  0  0
 12 28  1  0  0  0  0
 15 26  1  0  0  0  0
 15 18  1  0  0  0  0
 16 19  1  0  0  0  0
 18 30  1  0  0  0  0
 19 22  2  0  0  0  0
 21 18  1  6  0  0  0
 21 24  1  0  0  0  0
 22 23  1  0  0  0  0
 22 25  1  0  0  0  0
 24 14  1  6  0  0  0
 24 27  1  0  0  0  0
 25 28  2  0  0  0  0
 25 30  1  0  0  0  0
 27 29  1  0  0  0  0
 29 31  1  0  0  0  0
M  CHG  1  17  -1
M  END
>  <CHROM.1>
-21.30839612,-87.57673823,74.48922477,99.18945458,-71.97282528,-89.30971819
43.31791885,-25.28998866,-100.67378843,73.54798375,177.83187714,54.81758689
23.12123058,22.62748873,36.64109801,0.54485571,-0.40661238,-1.16476104

>  <Name>
ligand

>  <RI>
0

>  <Rbt.Current_Directory>
/home/itssahil/PROJECTS/Mol_Feturizer/New_Systems/rnas/2HOO

>  <Rbt.Executable>
rbdock ($Id: //depot/dev/client3/rdock/2013.1/src/exe/rbdock.cxx#4 $)

>  <Rbt.Library>
libRbt.so (2013.1, Build901 2013/11/27)

>  <Rbt.Parameter_File>
/export/apps/rDock/src/rDock_2013.1_src/data/scripts/dock_solv.prm

>  <Rbt.Receptor>
prm/blind_docking_60.prm

>  <SCORE>
-13.2257

>  <SCORE.INTER>
-5.4349

>  <SCORE.INTER.CONST>
1

>  <SCORE.INTER.POLAR>
0

>  <SCORE.INTER.ROT>
12

>  <SCORE.INTER.SOLV>
17.5279

>  <SCORE.INTER.VDW>
-21.0659

>  <SCORE.INTER.norm>
-0.175319

>  <SCORE.INTRA>
-8.03411

>  <SCORE.INTRA.DIHEDRAL>
4.13737

>  <SCORE.INTRA.DIHEDRAL.0>
14.6094

>  <SCORE.INTRA.POLAR>
0

>  <SCORE.INTRA.POLAR.0>
0

>  <SCORE.INTRA.REPUL>
0

>  <SCORE.INTRA.REPUL.0>
0

>  <SCORE.INTRA.SOLV>
4.70233

>  <SCORE.INTRA.SOLV.lig_0>
-65.6478

>  <SCORE.INTRA.VDW>
-12.454

>  <SCORE.INTRA.VDW.0>
9.35535

>  <SCORE.INTRA.norm>
-0.259165

>  <SCORE.RESTR>
0.24326

>  <SCORE.RESTR.CAVITY>
0.24326

>  <SCORE.RESTR.norm>
0.0078471

>  <SCORE.SYSTEM>
0

>  <SCORE.SYSTEM.CONST>
0

>  <SCORE.SYSTEM.DIHEDRAL>
0

>  <SCORE.SYSTEM.SOLV>
0

>  <SCORE.SYSTEM.norm>
0

>  <SCORE.heavy>
31

>  <SCORE.norm>
-0.426637

>  <RMSD>
24.324

$$$$
ligand
 OpenBabel11021811443D
libRbt.so/2013.1/901 2013/11/27
 31 32  0  0  0  0  0  0  0  0999 V2000
   23.5399   22.1461   36.6812 C   0  0  0  0  0  0  0  0  0  0  0  0
   24.4464   21.5702   35.5973 C   0  0  0  0  0  0  0  0  0  0  0  0
   24.6323   22.2776   34.3656 C   0  0  0  0  0  0  0  0  0  0  0  0
   25.4719   21.7366   33.3625 C   0  0  0  0  0  0  0  0  0  0  0  0
   26.1365   20.5030   33.5693 C   0  0  0  0  0  0  0  0  0  0  0  0
   25.9699   19.7963   34.7776 C   0  0  0  0  0  0  0  0  0  0  0  0
   25.1386   20.3162   35.7858 C   0  0  0  0  0  0  0  0  0  0  0  0
   23.7873   21.9307   37.8673 O   0  0  0  0  0  0  0  0  0  0  0  0
   25.5959   29.0693   32.9341 C   0  0  0  0  0  0  0  0  0  0  0  0
   19.6992   22.3536   33.5238 C   0  0  0  0  0  0  0  0  0  0  0  0
   18.3287   21.4023   38.9194 P   0  0  1  0  0  0  0  0  0  0  0  0
   24.7083   27.0608   33.8891 N   0  0  0  0  0  0  0  0  0  0  0  0
   17.9643   21.0277   40.2991 O   0  0  0  0  0  0  0  0  0  0  0  0
   22.4362   22.9107   36.3451 S   0  0  0  0  0  0  0  0  0  0  0  0
   22.3798   23.3520   32.4733 C   0  0  0  0  0  0  0  0  0  0  0  0
   24.4760   28.1475   33.0766 C   0  0  0  0  0  0  0  0  0  0  0  0
   17.2860   21.1031   37.9008 O   0  5  0  0  0  0  0  0  0  0  0  0
   21.6745   23.8716   33.5084 N   0  0  0  0  0  0  0  0  0  0  0  0
   23.3553   28.3701   32.4647 N   0  0  0  0  0  0  0  0  0  0  0  0
   18.8074   22.8035   38.8786 O   0  0  0  0  0  0  0  0  0  0  0  0
   20.8836   22.8983   34.2753 C   0  0  2  0  0  0  0  0  0  0  0  0
   22.2953   27.4956   32.6095 C   0  0  0  0  0  0  0  0  0  0  0  0
   21.1543   27.7586   31.9679 N   0  0  0  0  0  0  0  0  0  0  0  0
   21.1490   22.4200   35.6287 C   0  0  1  0  0  0  0  0  0  0  0  0
   22.4591   26.3263   33.4592 C   0  0  0  0  0  0  0  0  0  0  0  0
   21.7366   23.3100   31.4476 O   0  0  0  0  0  0  0  0  0  0  0  0
   20.2691   21.4769   36.3699 C   0  0  0  0  0  0  0  0  0  0  0  0
   23.6935   26.1771   34.0580 C   0  0  0  0  0  0  0  0  0  0  0  0
   20.6789   20.9837   37.6907 C   0  0  0  0  0  0  0  0  0  0  0  0
   21.3238   25.3591   33.6907 C   0  0  0  0  0  0  0  0  0  0  0  0
   19.5415   20.5282   38.4441 O   0  0  0  0  0  0  0  0  0  0  0  0
  1  2  1  0  0  0  0
  1  8  2  0  0  0  0
  1 14  1  0  0  0  0
  2  3  2  0  0  0  0
  2  7  1  0  0  0  0
  3  4  1  0  0  0  0
  4  5  2  0  0  0  0
  5  6  1  0  0  0  0
  6  7  2  0  0  0  0
  9 16  1  0  0  0  0
 10 21  1  0  0  0  0
 11 13  1  1  0  0  0
 11 17  1  0  0  0  0
 11 20  2  0  0  0  0
 11 31  1  0  0  0  0
 12 16  2  0  0  0  0
 12 28  1  0  0  0  0
 15 26  1  0  0  0  0
 15 18  1  0  0  0  0
 16 19  1  0  0  0  0
 18 30  1  0  0  0  0
 19 22  2  0  0  0  0
 21 18  1  6  0  0  0
 21 24  1  0  0  0  0
 22 23  1  0  0  0  0
 22 25  1  0  0  0  0
 24 14  1  6  0  0  0
 24 27  1  0  0  0  0
 25 28  2  0  0  0  0
 25 30  1  0  0  0  0
 27 29  1  0  0  0  0
 29 31  1  0  0  0  0
M  CHG  1  17  -1
M  END
>  <CHROM.1>
-148.43077408,67.87327059,-112.24292883,87.97088849,-70.15514455,-45.95691919
175.32760348,-3.82589192,131.38261142,158.07726031,-62.91064926,-138.46042453
21.99357158,23.31530781,35.31380329,-2.16497506,0.42963459,-0.53129673

>  <Name>
ligand

>  <RI>
0

>  <Rbt.Current_Directory>
/home/itssahil/PROJECTS/Mol_Feturizer/New_Systems/rnas/2HOO

>  <Rbt.Executable>
rbdock ($Id: //depot/dev/client3/rdock/2013.1/src/exe/rbdock.cxx#4 $)

>  <Rbt.Library>
libRbt.so (2013.1, Build901 2013/11/27)

>  <Rbt.Parameter_File>
/export/apps/rDock/src/rDock_2013.1_src/data/scripts/dock_solv.prm

>  <Rbt.Receptor>
prm/blind_docking_80.prm

>  <SCORE>
-23.6733

>  <SCORE.INTER>
-15.7193

>  <SCORE.INTER.CONST>
1

>  <SCORE.INTER.POLAR>
0

>  <SCORE.INTER.ROT>
12

>  <SCORE.INTER.SOLV>
14.2869

>  <SCORE.INTER.VDW>
-26.8419

>  <SCORE.INTER.norm>
-0.507076

>  <SCORE.INTRA>
-7.954

>  <SCORE.INTRA.DIHEDRAL>
3.516

>  <SCORE.INTRA.DIHEDRAL.0>
14.6094

>  <SCORE.INTRA.POLAR>
0

>  <SCORE.INTRA.POLAR.0>
0

>  <SCORE.INTRA.REPUL>
0

>  <SCORE.INTRA.REPUL.0>
0

>  <SCORE.INTRA.SOLV>
1.90218

>  <SCORE.INTRA.SOLV.lig_0>
-65.6478

>  <SCORE.INTRA.VDW>
-10.6631

>  <SCORE.INTRA.VDW.0>
9.35535

>  <SCORE.INTRA.norm>
-0.256581

>  <SCORE.RESTR>
0

>  <SCORE.RESTR.CAVITY>
0

>  <SCORE.RESTR.norm>
0

>  <SCORE.SYSTEM>
0

>  <SCORE.SYSTEM.CONST>
0

>  <SCORE.SYSTEM.DIHEDRAL>
0

>  <SCORE.SYSTEM.SOLV>
0

>  <SCORE.SYSTEM.norm>
0

>  <SCORE.heavy>
31

>  <SCORE.norm>
-0.763656

>  <RMSD>
24.333

$$$$
ligand
 OpenBabel11021811443D
libRbt.so/2013.1/901 2013/11/27
 31 32  0  0  0  0  0  0  0  0999 V2000
    5.0910   12.8456   75.4175 C   0  0  0  0  0  0  0  0  0  0  0  0
    4.6546   11.4339   75.7981 C   0  0  0  0  0  0  0  0  0  0  0  0
    4.9057   10.9354   77.1174 C   0  0  0  0  0  0  0  0  0  0  0  0
    4.5014    9.6237   77.4634 C   0  0  0  0  0  0  0  0  0  0  0  0
    3.8431    8.8009   76.5170 C   0  0  0  0  0  0  0  0  0  0  0  0
    3.5823    9.2772   75.2160 C   0  0  0  0  0  0  0  0  0  0  0  0
    3.9777   10.5769   74.8523 C   0  0  0  0  0  0  0  0  0  0  0  0
    6.1767   13.2779   75.8031 O   0  0  0  0  0  0  0  0  0  0  0  0
   -2.0370   11.9044   75.1170 C   0  0  0  0  0  0  0  0  0  0  0  0
    3.4859   16.8779   72.6945 C   0  0  0  0  0  0  0  0  0  0  0  0
    8.8181   13.9022   72.7820 P   0  0  1  0  0  0  0  0  0  0  0  0
   -0.4257   13.4565   75.9708 N   0  0  0  0  0  0  0  0  0  0  0  0
    8.9635   14.3749   74.1720 O   0  0  0  0  0  0  0  0  0  0  0  0
    4.2759   13.6507   74.6408 S   0  0  0  0  0  0  0  0  0  0  0  0
    3.1793   16.8883   76.1393 C   0  0  0  0  0  0  0  0  0  0  0  0
   -1.2547   13.1190   74.9249 C   0  0  0  0  0  0  0  0  0  0  0  0
   10.0601   13.9851   71.9668 O   0  5  0  0  0  0  0  0  0  0  0  0
    2.6381   16.4129   74.9904 N   0  0  0  0  0  0  0  0  0  0  0  0
   -1.3601   13.8064   73.8311 N   0  0  0  0  0  0  0  0  0  0  0  0
    8.1872   12.5622   72.7601 O   0  0  0  0  0  0  0  0  0  0  0  0
    3.6081   16.0521   73.9464 C   0  0  2  0  0  0  0  0  0  0  0  0
   -0.6105   14.9534   73.6526 C   0  0  0  0  0  0  0  0  0  0  0  0
   -0.7413   15.6342   72.5114 N   0  0  0  0  0  0  0  0  0  0  0  0
    4.6448   15.0274   74.0247 C   0  0  1  0  0  0  0  0  0  0  0  0
    0.2966   15.3725   74.7097 C   0  0  0  0  0  0  0  0  0  0  0  0
    3.1985   18.0990   76.1775 O   0  0  0  0  0  0  0  0  0  0  0  0
    6.0456   15.2181   73.5617 C   0  0  0  0  0  0  0  0  0  0  0  0
    0.3276   14.5762   75.8364 C   0  0  0  0  0  0  0  0  0  0  0  0
    6.4028   14.9039   72.1726 C   0  0  0  0  0  0  0  0  0  0  0  0
    1.1728   16.5916   74.5545 C   0  0  0  0  0  0  0  0  0  0  0  0
    7.8307   14.8459   72.0103 O   0  0  0  0  0  0  0  0  0  0  0  0
  1  2  1  0  0  0  0
  1  8  2  0  0  0  0
  1 14  1  0  0  0  0
  2  3  2  0  0  0  0
  2  7  1  0  0  0  0
  3  4  1  0  0  0  0
  4  5  2  0  0  0  0
  5  6  1  0  0  0  0
  6  7  2  0  0  0  0
  9 16  1  0  0  0  0
 10 21  1  0  0  0  0
 11 13  1  1  0  0  0
 11 17  1  0  0  0  0
 11 20  2  0  0  0  0
 11 31  1  0  0  0  0
 12 16  2  0  0  0  0
 12 28  1  0  0  0  0
 15 26  1  0  0  0  0
 15 18  1  0  0  0  0
 16 19  1  0  0  0  0
 18 30  1  0  0  0  0
 19 22  2  0  0  0  0
 21 18  1  1  0  0  0
 21 24  1  0  0  0  0
 22 23  1  0  0  0  0
 22 25  1  0  0  0  0
 24 14  1  1  0  0  0
 24 27  1  0  0  0  0
 25 28  2  0  0  0  0
 25 30  1  0  0  0  0
 27 29  1  0  0  0  0
 29 31  1  0  0  0  0
M  CHG  1  17  -1
M  END
>  <CHROM.1>
40.33644974,-171.78031783,-144.28361881,96.48979421,-116.82037904,-104.06577483
-137.43760984,91.10847632,-134.69989112,-166.22712997,58.26454453,-73.23258094
4.00398070,13.93658414,74.42744334,-0.01662704,-0.19617358,2.78344822

>  <Name>
ligand

>  <RI>
0

>  <Rbt.Current_Directory>
/home/itssahil/PROJECTS/Mol_Feturizer/New_Systems/rnas/2HOO

>  <Rbt.Executable>
rbdock ($Id: //depot/dev/client3/rdock/2013.1/src/exe/rbdock.cxx#4 $)

>  <Rbt.Library>
libRbt.so (2013.1, Build901 2013/11/27)

>  <Rbt.Parameter_File>
/export/apps/rDock/src/rDock_2013.1_src/data/scripts/dock_solv.prm

>  <Rbt.Receptor>
prm/blind_docking_100.prm

>  <SCORE>
-14.0419

>  <SCORE.INTER>
-2.94127

>  <SCORE.INTER.CONST>
1

>  <SCORE.INTER.POLAR>
0

>  <SCORE.INTER.ROT>
12

>  <SCORE.INTER.SOLV>
13.983

>  <SCORE.INTER.VDW>
-18.2219

>  <SCORE.INTER.norm>
-0.0948796

>  <SCORE.INTRA>
-11.1039

>  <SCORE.INTRA.DIHEDRAL>
0.277164

>  <SCORE.INTRA.DIHEDRAL.0>
14.6094

>  <SCORE.INTRA.POLAR>
0

>  <SCORE.INTRA.POLAR.0>
0

>  <SCORE.INTRA.REPUL>
0

>  <SCORE.INTRA.REPUL.0>
0

>  <SCORE.INTRA.SOLV>
1.45393

>  <SCORE.INTRA.SOLV.lig_0>
-65.6478

>  <SCORE.INTRA.VDW>
-11.9695

>  <SCORE.INTRA.VDW.0>
9.35535

>  <SCORE.INTRA.norm>
-0.358192

>  <SCORE.RESTR>
0.00329755

>  <SCORE.RESTR.CAVITY>
0.00329755

>  <SCORE.RESTR.norm>
0.000106373

>  <SCORE.SYSTEM>
0

>  <SCORE.SYSTEM.CONST>
0

>  <SCORE.SYSTEM.DIHEDRAL>
0

>  <SCORE.SYSTEM.SOLV>
0

>  <SCORE.SYSTEM.norm>
0

>  <SCORE.heavy>
31

>  <SCORE.norm>
-0.452965

>  <RMSD>
24.334

$$$$
ligand
 OpenBabel11021811443D
libRbt.so/2013.1/901 2013/11/27
 31 32  0  0  0  0  0  0  0  0999 V2000
   21.1528   21.9097   36.9062 C   0  0  0  0  0  0  0  0  0  0  0  0
   19.9436   21.3923   37.6796 C   0  0  0  0  0  0  0  0  0  0  0  0
   19.0351   22.3144   38.2934 C   0  0  0  0  0  0  0  0  0  0  0  0
   17.9169   21.8282   39.0124 C   0  0  0  0  0  0  0  0  0  0  0  0
   17.6841   20.4356   39.1244 C   0  0  0  0  0  0  0  0  0  0  0  0
   18.5642   19.5140   38.5216 C   0  0  0  0  0  0  0  0  0  0  0  0
   19.6819   19.9771   37.8045 C   0  0  0  0  0  0  0  0  0  0  0  0
   21.0447   22.9055   36.1913 O   0  0  0  0  0  0  0  0  0  0  0  0
   20.9845   27.9312   33.4363 C   0  0  0  0  0  0  0  0  0  0  0  0
   25.2012   20.3501   35.2885 C   0  0  0  0  0  0  0  0  0  0  0  0
   27.3369   22.8244   40.3470 P   0  0  1  0  0  0  0  0  0  0  0  0
   21.6508   25.8420   34.3984 N   0  0  0  0  0  0  0  0  0  0  0  0
   28.0046   24.0943   40.0029 O   0  0  0  0  0  0  0  0  0  0  0  0
   22.3760   21.2686   36.9980 S   0  0  0  0  0  0  0  0  0  0  0  0
   23.7280   22.0633   33.2280 C   0  0  0  0  0  0  0  0  0  0  0  0
   22.0386   26.9577   33.6913 C   0  0  0  0  0  0  0  0  0  0  0  0
   28.0479   21.6042   39.8781 O   0  5  0  0  0  0  0  0  0  0  0  0
   24.4537   22.5044   34.2852 N   0  0  0  0  0  0  0  0  0  0  0  0
   23.2454   27.1640   33.2654 N   0  0  0  0  0  0  0  0  0  0  0  0
   27.0051   22.7950   41.7904 O   0  0  0  0  0  0  0  0  0  0  0  0
   24.4300   21.6299   35.4665 C   0  0  2  0  0  0  0  0  0  0  0  0
   24.2386   26.2336   33.5048 C   0  0  0  0  0  0  0  0  0  0  0  0
   25.4693   26.4770   33.0476 N   0  0  0  0  0  0  0  0  0  0  0  0
   23.7744   21.8939   36.7438 C   0  0  1  0  0  0  0  0  0  0  0  0
   23.9061   25.0227   34.2390 C   0  0  0  0  0  0  0  0  0  0  0  0
   22.5348   22.1100   33.4318 O   0  0  0  0  0  0  0  0  0  0  0  0
   24.3542   22.7381   37.8226 C   0  0  0  0  0  0  0  0  0  0  0  0
   22.5957   24.9038   34.6554 C   0  0  0  0  0  0  0  0  0  0  0  0
   25.7715   22.5942   38.1779 C   0  0  0  0  0  0  0  0  0  0  0  0
   24.9376   23.9507   34.4930 C   0  0  0  0  0  0  0  0  0  0  0  0
   25.9623   22.7373   39.5963 O   0  0  0  0  0  0  0  0  0  0  0  0
  1  2  1  0  0  0  0
  1  8  2  0  0  0  0
  1 14  1  0  0  0  0
  2  3  2  0  0  0  0
  2  7  1  0  0  0  0
  3  4  1  0  0  0  0
  4  5  2  0  0  0  0
  5  6  1  0  0  0  0
  6  7  2  0  0  0  0
  9 16  1  0  0  0  0
 10 21  1  0  0  0  0
 11 13  1  6  0  0  0
 11 17  1  0  0  0  0
 11 20  2  0  0  0  0
 11 31  1  0  0  0  0
 12 16  2  0  0  0  0
 12 28  1  0  0  0  0
 15 26  1  0  0  0  0
 15 18  1  0  0  0  0
 16 19  1  0  0  0  0
 18 30  1  0  0  0  0
 19 22  2  0  0  0  0
 21 18  1  1  0  0  0
 21 24  1  0  0  0  0
 22 23  1  0  0  0  0
 22 25  1  0  0  0  0
 24 14  1  6  0  0  0
 24 27  1  0  0  0  0
 25 28  2  0  0  0  0
 25 30  1  0  0  0  0
 27 29  1  0  0  0  0
 29 31  1  0  0  0  0
M  CHG  1  17  -1
M  END
>  <CHROM.1>
-39.55014072,-155.70585753,-101.31466508,69.64423365,71.31995669,45.61003886
-83.04586269,136.78814325,-136.82183605,-142.82655483,-171.99187623,68.19288899
23.43308645,23.02964629,36.69143211,2.35933095,-0.28953152,-0.93458701

>  <Name>
ligand

>  <RI>
0

>  <Rbt.Current_Directory>
/home/itssahil/PROJECTS/Mol_Feturizer/New_Systems/rnas/2HOO

>  <Rbt.Executable>
rbdock ($Id: //depot/dev/client3/rdock/2013.1/src/exe/rbdock.cxx#4 $)

>  <Rbt.Library>
libRbt.so (2013.1, Build901 2013/11/27)

>  <Rbt.Parameter_File>
/export/apps/rDock/src/rDock_2013.1_src/data/scripts/dock_solv.prm

>  <Rbt.Receptor>
prm/blind_docking_80.prm

>  <SCORE>
-24.457

>  <SCORE.INTER>
-12.4111

>  <SCORE.INTER.CONST>
1

>  <SCORE.INTER.POLAR>
0

>  <SCORE.INTER.ROT>
12

>  <SCORE.INTER.SOLV>
15.5909

>  <SCORE.INTER.VDW>
-25.071

>  <SCORE.INTER.norm>
-0.400359

>  <SCORE.INTRA>
-12.4303

>  <SCORE.INTRA.DIHEDRAL>
2.68402

>  <SCORE.INTRA.DIHEDRAL.0>
14.6094

>  <SCORE.INTRA.POLAR>
0

>  <SCORE.INTRA.POLAR.0>
0

>  <SCORE.INTRA.REPUL>
0

>  <SCORE.INTRA.REPUL.0>
0

>  <SCORE.INTRA.SOLV>
-0.00524928

>  <SCORE.INTRA.SOLV.lig_0>
-65.6478

>  <SCORE.INTRA.VDW>
-13.7697

>  <SCORE.INTRA.VDW.0>
9.35535

>  <SCORE.INTRA.norm>
-0.400979

>  <SCORE.RESTR>
0.384532

>  <SCORE.RESTR.CAVITY>
0.384532

>  <SCORE.RESTR.norm>
0.0124043

>  <SCORE.SYSTEM>
0

>  <SCORE.SYSTEM.CONST>
0

>  <SCORE.SYSTEM.DIHEDRAL>
0

>  <SCORE.SYSTEM.SOLV>
0

>  <SCORE.SYSTEM.norm>
0

>  <SCORE.heavy>
31

>  <SCORE.norm>
-0.788934

>  <RMSD>
24.370

$$$$
ligand
 OpenBabel11021811443D
libRbt.so/2013.1/901 2013/11/27
 31 32  0  0  0  0  0  0  0  0999 V2000
    7.2134   12.8662   75.4879 C   0  0  0  0  0  0  0  0  0  0  0  0
    7.6987   14.2268   75.9792 C   0  0  0  0  0  0  0  0  0  0  0  0
    7.2207   14.7541   77.2225 C   0  0  0  0  0  0  0  0  0  0  0  0
    7.6721   16.0185   77.6712 C   0  0  0  0  0  0  0  0  0  0  0  0
    8.5994   16.7650   76.9038 C   0  0  0  0  0  0  0  0  0  0  0  0
    9.0850   16.2589   75.6810 C   0  0  0  0  0  0  0  0  0  0  0  0
    8.6473   15.0055   75.2170 C   0  0  0  0  0  0  0  0  0  0  0  0
    7.9916   11.9137   75.4495 O   0  0  0  0  0  0  0  0  0  0  0  0
   -0.5146   17.2385   69.4297 C   0  0  0  0  0  0  0  0  0  0  0  0
    4.3809   15.7940   76.1909 C   0  0  0  0  0  0  0  0  0  0  0  0
    3.4941    8.5943   76.9240 P   0  0  1  0  0  0  0  0  0  0  0  0
    1.3801   16.9938   70.8734 N   0  0  0  0  0  0  0  0  0  0  0  0
    4.0583    7.8328   78.0548 O   0  0  0  0  0  0  0  0  0  0  0  0
    5.9022   12.6895   75.0815 S   0  0  0  0  0  0  0  0  0  0  0  0
    4.1644   14.6313   72.9158 C   0  0  0  0  0  0  0  0  0  0  0  0
    0.0669   16.6579   70.6334 C   0  0  0  0  0  0  0  0  0  0  0  0
    4.0061    8.1880   75.5873 O   0  5  0  0  0  0  0  0  0  0  0  0
    3.4704   14.9112   74.0467 N   0  0  0  0  0  0  0  0  0  0  0  0
   -0.6360   15.8835   71.3992 N   0  0  0  0  0  0  0  0  0  0  0  0
    2.0153    8.6147   77.0074 O   0  0  0  0  0  0  0  0  0  0  0  0
    4.1700   14.5989   75.3013 C   0  0  2  0  0  0  0  0  0  0  0  0
   -0.0804   15.3418   72.5425 C   0  0  0  0  0  0  0  0  0  0  0  0
   -0.8352   14.5520   73.3103 N   0  0  0  0  0  0  0  0  0  0  0  0
    4.6340   13.2888   75.7475 C   0  0  1  0  0  0  0  0  0  0  0  0
    1.3013   15.6563   72.8704 C   0  0  0  0  0  0  0  0  0  0  0  0
    5.1137   15.3674   72.7592 O   0  0  0  0  0  0  0  0  0  0  0  0
    3.9620   12.4765   76.7971 C   0  0  0  0  0  0  0  0  0  0  0  0
    1.9640   16.4826   71.9856 C   0  0  0  0  0  0  0  0  0  0  0  0
    3.2879   11.2251   76.4293 C   0  0  0  0  0  0  0  0  0  0  0  0
    1.9491   15.1299   74.1279 C   0  0  0  0  0  0  0  0  0  0  0  0
    3.9432   10.0937   77.0287 O   0  0  0  0  0  0  0  0  0  0  0  0
  1  2  1  0  0  0  0
  1  8  2  0  0  0  0
  1 14  1  0  0  0  0
  2  3  2  0  0  0  0
  2  7  1  0  0  0  0
  3  4  1  0  0  0  0
  4  5  2  0  0  0  0
  5  6  1  0  0  0  0
  6  7  2  0  0  0  0
  9 16  1  0  0  0  0
 10 21  1  0  0  0  0
 11 13  1  1  0  0  0
 11 17  1  0  0  0  0
 11 20  2  0  0  0  0
 11 31  1  0  0  0  0
 12 16  2  0  0  0  0
 12 28  1  0  0  0  0
 15 26  1  0  0  0  0
 15 18  1  0  0  0  0
 16 19  1  0  0  0  0
 18 30  1  0  0  0  0
 19 22  2  0  0  0  0
 21 18  1  1  0  0  0
 21 24  1  0  0  0  0
 22 23  1  0  0  0  0
 22 25  1  0  0  0  0
 24 14  1  6  0  0  0
 24 27  1  0  0  0  0
 25 28  2  0  0  0  0
 25 30  1  0  0  0  0
 27 29  1  0  0  0  0
 29 31  1  0  0  0  0
M  CHG  1  17  -1
M  END
>  <CHROM.1>
-111.32913885,-40.05347331,89.35595679,-69.25492075,119.99530176,-27.62704116
-106.17960910,-67.88975596,150.74314531,114.83524578,177.38521890,-157.68965281
4.03210926,13.47478783,74.84553915,-0.97622838,-0.42236565,-0.47537756

>  <Name>
ligand

>  <RI>
0

>  <Rbt.Current_Directory>
/home/itssahil/PROJECTS/Mol_Feturizer/New_Systems/rnas/2HOO

>  <Rbt.Executable>
rbdock ($Id: //depot/dev/client3/rdock/2013.1/src/exe/rbdock.cxx#4 $)

>  <Rbt.Library>
libRbt.so (2013.1, Build901 2013/11/27)

>  <Rbt.Parameter_File>
/export/apps/rDock/src/rDock_2013.1_src/data/scripts/dock_solv.prm

>  <Rbt.Receptor>
prm/blind_docking_80.prm

>  <SCORE>
-12.511

>  <SCORE.INTER>
-2.1764

>  <SCORE.INTER.CONST>
1

>  <SCORE.INTER.POLAR>
0

>  <SCORE.INTER.ROT>
12

>  <SCORE.INTER.SOLV>
14.1171

>  <SCORE.INTER.VDW>
-17.7566

>  <SCORE.INTER.norm>
-0.0702066

>  <SCORE.INTRA>
-10.4591

>  <SCORE.INTRA.DIHEDRAL>
7.53108

>  <SCORE.INTRA.DIHEDRAL.0>
14.6094

>  <SCORE.INTRA.POLAR>
0

>  <SCORE.INTRA.POLAR.0>
0

>  <SCORE.INTRA.REPUL>
0

>  <SCORE.INTRA.REPUL.0>
0

>  <SCORE.INTRA.SOLV>
-0.514929

>  <SCORE.INTRA.SOLV.lig_0>
-65.6478

>  <SCORE.INTRA.VDW>
-13.9671

>  <SCORE.INTRA.VDW.0>
9.35535

>  <SCORE.INTRA.norm>
-0.33739

>  <SCORE.RESTR>
0.124435

>  <SCORE.RESTR.CAVITY>
0.124435

>  <SCORE.RESTR.norm>
0.00401405

>  <SCORE.SYSTEM>
0

>  <SCORE.SYSTEM.CONST>
0

>  <SCORE.SYSTEM.DIHEDRAL>
0

>  <SCORE.SYSTEM.SOLV>
0

>  <SCORE.SYSTEM.norm>
0

>  <SCORE.heavy>
31

>  <SCORE.norm>
-0.403582

>  <RMSD>
24.375

$$$$
ligand
 OpenBabel11021811443D
libRbt.so/2013.1/901 2013/11/27
 31 32  0  0  0  0  0  0  0  0999 V2000
   23.9189   22.7701   36.7526 C   0  0  0  0  0  0  0  0  0  0  0  0
   24.7073   21.9518   35.7344 C   0  0  0  0  0  0  0  0  0  0  0  0
   25.1557   20.6322   36.0655 C   0  0  0  0  0  0  0  0  0  0  0  0
   25.8896   19.8792   35.1177 C   0  0  0  0  0  0  0  0  0  0  0  0
   26.1788   20.4175   33.8399 C   0  0  0  0  0  0  0  0  0  0  0  0
   25.7401   21.7120   33.4947 C   0  0  0  0  0  0  0  0  0  0  0  0
   25.0112   22.4767   34.4232 C   0  0  0  0  0  0  0  0  0  0  0  0
   24.2736   22.7911   37.9309 O   0  0  0  0  0  0  0  0  0  0  0  0
   17.9878   20.4481   40.5097 C   0  0  0  0  0  0  0  0  0  0  0  0
   21.2830   22.9347   32.7472 C   0  0  0  0  0  0  0  0  0  0  0  0
   23.2219   27.4987   32.2352 P   0  0  1  0  0  0  0  0  0  0  0  0
   19.4561   21.4484   38.9041 N   0  0  0  0  0  0  0  0  0  0  0  0
   22.5953   26.8288   31.0796 O   0  0  0  0  0  0  0  0  0  0  0  0
   22.8030   23.4919   36.3658 S   0  0  0  0  0  0  0  0  0  0  0  0
   21.7515   20.6909   35.3502 C   0  0  0  0  0  0  0  0  0  0  0  0
   18.2866   20.7538   39.1163 C   0  0  0  0  0  0  0  0  0  0  0  0
   24.5242   26.9156   32.6575 O   0  5  0  0  0  0  0  0  0  0  0  0
   20.8990   21.5998   34.8153 N   0  0  0  0  0  0  0  0  0  0  0  0
   17.4822   20.3806   38.1710 N   0  0  0  0  0  0  0  0  0  0  0  0
   23.2764   28.9620   32.0112 O   0  0  0  0  0  0  0  0  0  0  0  0
   21.5397   22.7824   34.2221 C   0  0  2  0  0  0  0  0  0  0  0  0
   17.7751   20.6678   36.8515 C   0  0  0  0  0  0  0  0  0  0  0  0
   16.9259   20.2641   35.9034 N   0  0  0  0  0  0  0  0  0  0  0  0
   22.3447   23.7861   34.9116 C   0  0  1  0  0  0  0  0  0  0  0  0
   18.9983   21.3922   36.5439 C   0  0  0  0  0  0  0  0  0  0  0  0
   22.5297   20.2478   34.5345 O   0  0  0  0  0  0  0  0  0  0  0  0
   22.7489   25.0876   34.3156 C   0  0  0  0  0  0  0  0  0  0  0  0
   19.7808   21.7511   37.6227 C   0  0  0  0  0  0  0  0  0  0  0  0
   21.7218   26.0676   33.9410 C   0  0  0  0  0  0  0  0  0  0  0  0
   19.3933   21.6965   35.1194 C   0  0  0  0  0  0  0  0  0  0  0  0
   22.3224   27.2996   33.5049 O   0  0  0  0  0  0  0  0  0  0  0  0
  1  2  1  0  0  0  0
  1  8  2  0  0  0  0
  1 14  1  0  0  0  0
  2  3  2  0  0  0  0
  2  7  1  0  0  0  0
  3  4  1  0  0  0  0
  4  5  2  0  0  0  0
  5  6  1  0  0  0  0
  6  7  2  0  0  0  0
  9 16  1  0  0  0  0
 10 21  1  0  0  0  0
 11 13  1  6  0  0  0
 11 17  1  0  0  0  0
 11 20  2  0  0  0  0
 11 31  1  0  0  0  0
 12 16  2  0  0  0  0
 12 28  1  0  0  0  0
 15 26  1  0  0  0  0
 15 18  1  0  0  0  0
 16 19  1  0  0  0  0
 18 30  1  0  0  0  0
 19 22  2  0  0  0  0
 21 18  1  1  0  0  0
 21 24  1  0  0  0  0
 22 23  1  0  0  0  0
 22 25  1  0  0  0  0
 24 14  1  1  0  0  0
 24 27  1  0  0  0  0
 25 28  2  0  0  0  0
 25 30  1  0  0  0  0
 27 29  1  0  0  0  0
 29 31  1  0  0  0  0
M  CHG  1  17  -1
M  END
>  <CHROM.1>
43.23279178,-11.28916965,84.61887313,-59.84104615,118.13307139,36.47776511
-169.64798295,-116.45066887,-142.23374557,174.52867680,64.64996834,46.09289657
22.01281283,23.09971656,35.17741351,-2.12132724,0.27765780,-0.55263225

>  <Name>
ligand

>  <RI>
0

>  <Rbt.Current_Directory>
/home/itssahil/PROJECTS/Mol_Feturizer/New_Systems/rnas/2HOO

>  <Rbt.Executable>
rbdock ($Id: //depot/dev/client3/rdock/2013.1/src/exe/rbdock.cxx#4 $)

>  <Rbt.Library>
libRbt.so (2013.1, Build901 2013/11/27)

>  <Rbt.Parameter_File>
/export/apps/rDock/src/rDock_2013.1_src/data/scripts/dock_solv.prm

>  <Rbt.Receptor>
prm/blind_docking_60.prm

>  <SCORE>
-27.6452

>  <SCORE.INTER>
-14.1508

>  <SCORE.INTER.CONST>
1

>  <SCORE.INTER.POLAR>
0

>  <SCORE.INTER.ROT>
12

>  <SCORE.INTER.SOLV>
6.97191

>  <SCORE.INTER.VDW>
-23.3578

>  <SCORE.INTER.norm>
-0.456477

>  <SCORE.INTRA>
-13.4944

>  <SCORE.INTRA.DIHEDRAL>
-1.1415

>  <SCORE.INTRA.DIHEDRAL.0>
14.6094

>  <SCORE.INTRA.POLAR>
0

>  <SCORE.INTRA.POLAR.0>
0

>  <SCORE.INTRA.REPUL>
0

>  <SCORE.INTRA.REPUL.0>
0

>  <SCORE.INTRA.SOLV>
0.698793

>  <SCORE.INTRA.SOLV.lig_0>
-65.6478

>  <SCORE.INTRA.VDW>
-13.273

>  <SCORE.INTRA.VDW.0>
9.35535

>  <SCORE.INTRA.norm>
-0.435303

>  <SCORE.RESTR>
0

>  <SCORE.RESTR.CAVITY>
0

>  <SCORE.RESTR.norm>
0

>  <SCORE.SYSTEM>
0

>  <SCORE.SYSTEM.CONST>
0

>  <SCORE.SYSTEM.DIHEDRAL>
0

>  <SCORE.SYSTEM.SOLV>
0

>  <SCORE.SYSTEM.norm>
0

>  <SCORE.heavy>
31

>  <SCORE.norm>
-0.89178

>  <RMSD>
24.383

$$$$
ligand
 OpenBabel11021811443D
libRbt.so/2013.1/901 2013/11/27
 31 32  0  0  0  0  0  0  0  0999 V2000
    5.4425   11.9811   72.9839 C   0  0  0  0  0  0  0  0  0  0  0  0
    5.2423   11.5444   74.4321 C   0  0  0  0  0  0  0  0  0  0  0  0
    5.9966   12.1645   75.4803 C   0  0  0  0  0  0  0  0  0  0  0  0
    5.8088   11.7527   76.8216 C   0  0  0  0  0  0  0  0  0  0  0  0
    4.8748   10.7359   77.1376 C   0  0  0  0  0  0  0  0  0  0  0  0
    4.1195   10.1190   76.1196 C   0  0  0  0  0  0  0  0  0  0  0  0
    4.2929   10.5128   74.7806 C   0  0  0  0  0  0  0  0  0  0  0  0
    5.7796   11.1568   72.1347 O   0  0  0  0  0  0  0  0  0  0  0  0
   -0.4737   10.9172   75.4161 C   0  0  0  0  0  0  0  0  0  0  0  0
    5.2290   17.0075   73.0062 C   0  0  0  0  0  0  0  0  0  0  0  0
    7.9873   16.3148   76.8901 P   0  0  1  0  0  0  0  0  0  0  0  0
    1.5339   12.2190   75.5123 N   0  0  0  0  0  0  0  0  0  0  0  0
    7.4109   15.3706   77.8662 O   0  0  0  0  0  0  0  0  0  0  0  0
    5.2499   13.3003   72.6118 S   0  0  0  0  0  0  0  0  0  0  0  0
    4.3220   15.9860   75.9028 C   0  0  0  0  0  0  0  0  0  0  0  0
    0.2323   12.1444   75.0702 C   0  0  0  0  0  0  0  0  0  0  0  0
    7.4390   17.6960   76.9666 O   0  5  0  0  0  0  0  0  0  0  0  0
    3.9516   15.6349   74.6465 N   0  0  0  0  0  0  0  0  0  0  0  0
   -0.3586   13.0776   74.3920 N   0  0  0  0  0  0  0  0  0  0  0  0
    9.4669   16.2646   76.9412 O   0  0  0  0  0  0  0  0  0  0  0  0
    5.0300   15.6611   73.6478 C   0  0  2  0  0  0  0  0  0  0  0  0
    0.3188   14.2358   74.0616 C   0  0  0  0  0  0  0  0  0  0  0  0
   -0.3199   15.1741   73.3583 N   0  0  0  0  0  0  0  0  0  0  0  0
    5.8982   14.5531   73.2609 C   0  0  1  0  0  0  0  0  0  0  0  0
    1.7020   14.3871   74.4855 C   0  0  0  0  0  0  0  0  0  0  0  0
    4.7521   15.0493   76.5392 O   0  0  0  0  0  0  0  0  0  0  0  0
    7.3724   14.5373   73.4590 C   0  0  0  0  0  0  0  0  0  0  0  0
    2.2347   13.3399   75.2096 C   0  0  0  0  0  0  0  0  0  0  0  0
    7.9257   14.6098   74.8171 C   0  0  0  0  0  0  0  0  0  0  0  0
    2.5065   15.6098   74.1173 C   0  0  0  0  0  0  0  0  0  0  0  0
    7.6000   15.8657   75.4378 O   0  0  0  0  0  0  0  0  0  0  0  0
  1  2  1  0  0  0  0
  1  8  2  0  0  0  0
  1 14  1  0  0  0  0
  2  3  2  0  0  0  0
  2  7  1  0  0  0  0
  3  4  1  0  0  0  0
  4  5  2  0  0  0  0
  5  6  1  0  0  0  0
  6  7  2  0  0  0  0
  9 16  1  0  0  0  0
 10 21  1  0  0  0  0
 11 13  1  1  0  0  0
 11 17  1  0  0  0  0
 11 20  2  0  0  0  0
 11 31  1  0  0  0  0
 12 16  2  0  0  0  0
 12 28  1  0  0  0  0
 15 26  1  0  0  0  0
 15 18  1  0  0  0  0
 16 19  1  0  0  0  0
 18 30  1  0  0  0  0
 19 22  2  0  0  0  0
 21 18  1  1  0  0  0
 21 24  1  0  0  0  0
 22 23  1  0  0  0  0
 22 25  1  0  0  0  0
 24 14  1  1  0  0  0
 24 27  1  0  0  0  0
 25 28  2  0  0  0  0
 25 30  1  0  0  0  0
 27 29  1  0  0  0  0
 29 31  1  0  0  0  0
M  CHG  1  17  -1
M  END
>  <CHROM.1>
122.27828125,52.86012779,-129.73257342,-86.39813333,-86.98145828,-80.65181346
-118.56506030,-117.44704625,179.51033803,-64.17533830,178.91280289,-59.74185765
4.72353150,14.02218679,74.95212622,-2.66001089,-0.19613022,0.08104271

>  <Name>
ligand

>  <RI>
0

>  <Rbt.Current_Directory>
/home/itssahil/PROJECTS/Mol_Feturizer/New_Systems/rnas/2HOO

>  <Rbt.Executable>
rbdock ($Id: //depot/dev/client3/rdock/2013.1/src/exe/rbdock.cxx#4 $)

>  <Rbt.Library>
libRbt.so (2013.1, Build901 2013/11/27)

>  <Rbt.Parameter_File>
/export/apps/rDock/src/rDock_2013.1_src/data/scripts/dock_solv.prm

>  <Rbt.Receptor>
prm/blind_docking_100.prm

>  <SCORE>
-27.1767

>  <SCORE.INTER>
-10.5382

>  <SCORE.INTER.CONST>
1

>  <SCORE.INTER.POLAR>
0

>  <SCORE.INTER.ROT>
12

>  <SCORE.INTER.SOLV>
16.3024

>  <SCORE.INTER.VDW>
-24.0596

>  <SCORE.INTER.norm>
-0.339943

>  <SCORE.INTRA>
-16.6384

>  <SCORE.INTRA.DIHEDRAL>
1.10855

>  <SCORE.INTRA.DIHEDRAL.0>
14.6094

>  <SCORE.INTRA.POLAR>
0

>  <SCORE.INTRA.POLAR.0>
0

>  <SCORE.INTRA.REPUL>
0

>  <SCORE.INTRA.REPUL.0>
0

>  <SCORE.INTRA.SOLV>
1.35383

>  <SCORE.INTRA.SOLV.lig_0>
-65.6478

>  <SCORE.INTRA.VDW>
-17.8696

>  <SCORE.INTRA.VDW.0>
9.35535

>  <SCORE.INTRA.norm>
-0.536724

>  <SCORE.RESTR>
0

>  <SCORE.RESTR.CAVITY>
0

>  <SCORE.RESTR.norm>
0

>  <SCORE.SYSTEM>
0

>  <SCORE.SYSTEM.CONST>
0

>  <SCORE.SYSTEM.DIHEDRAL>
0

>  <SCORE.SYSTEM.SOLV>
0

>  <SCORE.SYSTEM.norm>
0

>  <SCORE.heavy>
31

>  <SCORE.norm>
-0.876667

>  <RMSD>
24.410

$$$$
ligand
 OpenBabel11021811443D
libRbt.so/2013.1/901 2013/11/27
 31 32  0  0  0  0  0  0  0  0999 V2000
   24.2485   21.6350   37.3101 C   0  0  0  0  0  0  0  0  0  0  0  0
   25.0129   22.4467   38.3517 C   0  0  0  0  0  0  0  0  0  0  0  0
   25.2325   23.8480   38.1510 C   0  0  0  0  0  0  0  0  0  0  0  0
   25.9454   24.5950   39.1193 C   0  0  0  0  0  0  0  0  0  0  0  0
   26.4381   23.9693   40.2905 C   0  0  0  0  0  0  0  0  0  0  0  0
   26.2260   22.5926   40.5074 C   0  0  0  0  0  0  0  0  0  0  0  0
   25.5217   21.8327   39.5564 C   0  0  0  0  0  0  0  0  0  0  0  0
   24.3758   20.4117   37.2701 O   0  0  0  0  0  0  0  0  0  0  0  0
   27.4148   25.9103   31.9053 C   0  0  0  0  0  0  0  0  0  0  0  0
   19.9538   22.0733   34.4616 C   0  0  0  0  0  0  0  0  0  0  0  0
   21.1272   18.8493   39.4027 P   0  0  1  0  0  0  0  0  0  0  0  0
   26.0177   24.0444   32.4538 N   0  0  0  0  0  0  0  0  0  0  0  0
   22.5140   19.1303   38.9847 O   0  0  0  0  0  0  0  0  0  0  0  0
   23.4102   22.2611   36.4040 S   0  0  0  0  0  0  0  0  0  0  0  0
   22.0247   24.8297   35.0953 C   0  0  0  0  0  0  0  0  0  0  0  0
   26.0745   25.3771   32.1133 C   0  0  0  0  0  0  0  0  0  0  0  0
   20.7080   17.4305   39.2433 O   0  5  0  0  0  0  0  0  0  0  0  0
   21.7588   23.7806   34.2782 N   0  0  0  0  0  0  0  0  0  0  0  0
   25.0330   26.1367   31.9776 N   0  0  0  0  0  0  0  0  0  0  0  0
   20.8830   19.3868   40.7613 O   0  0  0  0  0  0  0  0  0  0  0  0
   21.2868   22.5652   34.9572 C   0  0  2  0  0  0  0  0  0  0  0  0
   23.7654   25.6263   32.1829 C   0  0  0  0  0  0  0  0  0  0  0  0
   22.7157   26.4388   32.0387 N   0  0  0  0  0  0  0  0  0  0  0  0
   21.9772   21.8171   36.0034 C   0  0  1  0  0  0  0  0  0  0  0  0
   23.6219   24.2273   32.5541 C   0  0  0  0  0  0  0  0  0  0  0  0
   23.2128   25.0099   35.2482 O   0  0  0  0  0  0  0  0  0  0  0  0
   21.4015   20.6410   36.7092 C   0  0  0  0  0  0  0  0  0  0  0  0
   24.7920   23.5035   32.6639 C   0  0  0  0  0  0  0  0  0  0  0  0
   20.3955   20.8425   37.7596 C   0  0  0  0  0  0  0  0  0  0  0  0
   22.2669   23.6244   32.8338 C   0  0  0  0  0  0  0  0  0  0  0  0
   20.1330   19.6148   38.4612 O   0  0  0  0  0  0  0  0  0  0  0  0
  1  2  1  0  0  0  0
  1  8  2  0  0  0  0
  1 14  1  0  0  0  0
  2  3  2  0  0  0  0
  2  7  1  0  0  0  0
  3  4  1  0  0  0  0
  4  5  2  0  0  0  0
  5  6  1  0  0  0  0
  6  7  2  0  0  0  0
  9 16  1  0  0  0  0
 10 21  1  0  0  0  0
 11 13  1  6  0  0  0
 11 17  1  0  0  0  0
 11 20  2  0  0  0  0
 11 31  1  0  0  0  0
 12 16  2  0  0  0  0
 12 28  1  0  0  0  0
 15 26  1  0  0  0  0
 15 18  1  0  0  0  0
 16 19  1  0  0  0  0
 18 30  1  0  0  0  0
 19 22  2  0  0  0  0
 21 18  1  6  0  0  0
 21 24  1  0  0  0  0
 22 23  1  0  0  0  0
 22 25  1  0  0  0  0
 24 14  1  6  0  0  0
 24 27  1  0  0  0  0
 25 28  2  0  0  0  0
 25 30  1  0  0  0  0
 27 29  1  0  0  0  0
 29 31  1  0  0  0  0
M  CHG  1  17  -1
M  END
>  <CHROM.1>
159.38886874,-134.78562899,-175.93119314,105.03218259,123.22570998,32.27592040
174.17495999,103.49808767,-86.35423189,-170.49797021,67.82260719,-28.02334660
23.20591511,22.46213710,36.25514453,-1.94182703,-0.51595703,-1.05065729

>  <Name>
ligand

>  <RI>
0

>  <Rbt.Current_Directory>
/home/itssahil/PROJECTS/Mol_Feturizer/New_Systems/rnas/2HOO

>  <Rbt.Executable>
rbdock ($Id: //depot/dev/client3/rdock/2013.1/src/exe/rbdock.cxx#4 $)

>  <Rbt.Library>
libRbt.so (2013.1, Build901 2013/11/27)

>  <Rbt.Parameter_File>
/export/apps/rDock/src/rDock_2013.1_src/data/scripts/dock_solv.prm

>  <Rbt.Receptor>
prm/blind_docking_80.prm

>  <SCORE>
-26.9738

>  <SCORE.INTER>
-17.8247

>  <SCORE.INTER.CONST>
1

>  <SCORE.INTER.POLAR>
0

>  <SCORE.INTER.ROT>
12

>  <SCORE.INTER.SOLV>
11.3075

>  <SCORE.INTER.VDW>
-27.2523

>  <SCORE.INTER.norm>
-0.574991

>  <SCORE.INTRA>
-9.14909

>  <SCORE.INTRA.DIHEDRAL>
2.81926

>  <SCORE.INTRA.DIHEDRAL.0>
14.6094

>  <SCORE.INTRA.POLAR>
0

>  <SCORE.INTRA.POLAR.0>
0

>  <SCORE.INTRA.REPUL>
0

>  <SCORE.INTRA.REPUL.0>
0

>  <SCORE.INTRA.SOLV>
3.00787

>  <SCORE.INTRA.SOLV.lig_0>
-65.6478

>  <SCORE.INTRA.VDW>
-12.0627

>  <SCORE.INTRA.VDW.0>
9.35535

>  <SCORE.INTRA.norm>
-0.295132

>  <SCORE.RESTR>
0

>  <SCORE.RESTR.CAVITY>
0

>  <SCORE.RESTR.norm>
0

>  <SCORE.SYSTEM>
0

>  <SCORE.SYSTEM.CONST>
0

>  <SCORE.SYSTEM.DIHEDRAL>
0

>  <SCORE.SYSTEM.SOLV>
0

>  <SCORE.SYSTEM.norm>
0

>  <SCORE.heavy>
31

>  <SCORE.norm>
-0.870123

>  <RMSD>
24.504

$$$$
ligand
 OpenBabel11021811443D
libRbt.so/2013.1/901 2013/11/27
 31 32  0  0  0  0  0  0  0  0999 V2000
   22.6862   25.3185   34.5404 C   0  0  0  0  0  0  0  0  0  0  0  0
   23.0927   26.6182   33.8523 C   0  0  0  0  0  0  0  0  0  0  0  0
   24.4780   26.9206   33.6487 C   0  0  0  0  0  0  0  0  0  0  0  0
   24.8489   28.1296   33.0126 C   0  0  0  0  0  0  0  0  0  0  0  0
   23.8601   29.0413   32.5685 C   0  0  0  0  0  0  0  0  0  0  0  0
   22.4920   28.7572   32.7550 C   0  0  0  0  0  0  0  0  0  0  0  0
   22.1032   27.5622   33.3865 C   0  0  0  0  0  0  0  0  0  0  0  0
   23.2495   24.9704   35.5777 O   0  0  0  0  0  0  0  0  0  0  0  0
   17.4511   20.0901   40.6824 C   0  0  0  0  0  0  0  0  0  0  0  0
   19.5526   21.8581   33.4250 C   0  0  0  0  0  0  0  0  0  0  0  0
   25.5721   21.2460   35.0657 P   0  0  1  0  0  0  0  0  0  0  0  0
   17.9845   21.5659   38.8735 N   0  0  0  0  0  0  0  0  0  0  0  0
   25.1821   19.8231   35.0650 O   0  0  0  0  0  0  0  0  0  0  0  0
   21.6874   24.5213   34.0089 S   0  0  0  0  0  0  0  0  0  0  0  0
   21.5128   19.9989   35.1177 C   0  0  0  0  0  0  0  0  0  0  0  0
   18.4035   20.5220   39.6673 C   0  0  0  0  0  0  0  0  0  0  0  0
   25.5581   21.8911   36.4066 O   0  5  0  0  0  0  0  0  0  0  0  0
   21.0391   21.2517   35.3300 N   0  0  0  0  0  0  0  0  0  0  0  0
   19.5551   19.9386   39.5512 N   0  0  0  0  0  0  0  0  0  0  0  0
   26.8495   21.4273   34.3379 O   0  0  0  0  0  0  0  0  0  0  0  0
   20.8709   22.0685   34.1194 C   0  0  2  0  0  0  0  0  0  0  0  0
   20.4561   20.3576   38.5909 C   0  0  0  0  0  0  0  0  0  0  0  0
   21.6348   19.7365   38.5028 N   0  0  0  0  0  0  0  0  0  0  0  0
   21.8167   23.0367   33.5726 C   0  0  1  0  0  0  0  0  0  0  0  0
   20.0907   21.4618   37.7175 C   0  0  0  0  0  0  0  0  0  0  0  0
   20.6452   19.2261   34.7750 O   0  0  0  0  0  0  0  0  0  0  0  0
   22.8974   22.6972   32.6084 C   0  0  0  0  0  0  0  0  0  0  0  0
   18.8390   22.0077   37.9176 C   0  0  0  0  0  0  0  0  0  0  0  0
   23.9400   21.7369   32.9912 C   0  0  0  0  0  0  0  0  0  0  0  0
   21.0495   21.9919   36.6794 C   0  0  0  0  0  0  0  0  0  0  0  0
   24.5096   22.0789   34.2668 O   0  0  0  0  0  0  0  0  0  0  0  0
  1  2  1  0  0  0  0
  1  8  2  0  0  0  0
  1 14  1  0  0  0  0
  2  3  2  0  0  0  0
  2  7  1  0  0  0  0
  3  4  1  0  0  0  0
  4  5  2  0  0  0  0
  5  6  1  0  0  0  0
  6  7  2  0  0  0  0
  9 16  1  0  0  0  0
 10 21  1  0  0  0  0
 11 13  1  1  0  0  0
 11 17  1  0  0  0  0
 11 20  2  0  0  0  0
 11 31  1  0  0  0  0
 12 16  2  0  0  0  0
 12 28  1  0  0  0  0
 15 26  1  0  0  0  0
 15 18  1  0  0  0  0
 16 19  1  0  0  0  0
 18 30  1  0  0  0  0
 19 22  2  0  0  0  0
 21 18  1  1  0  0  0
 21 24  1  0  0  0  0
 22 23  1  0  0  0  0
 22 25  1  0  0  0  0
 24 14  1  6  0  0  0
 24 27  1  0  0  0  0
 25 28  2  0  0  0  0
 25 30  1  0  0  0  0
 27 29  1  0  0  0  0
 29 31  1  0  0  0  0
M  CHG  1  17  -1
M  END
>  <CHROM.1>
46.76043310,121.53294757,126.71942561,-81.53074140,85.41802007,-70.65425742
86.93104030,119.76996104,85.50305779,-50.26183948,175.22595022,-45.48435419
22.22858792,22.69046528,35.38294400,0.96943222,0.48006108,-0.41848995

>  <Name>
ligand

>  <RI>
0

>  <Rbt.Current_Directory>
/home/itssahil/PROJECTS/Mol_Feturizer/New_Systems/rnas/2HOO

>  <Rbt.Executable>
rbdock ($Id: //depot/dev/client3/rdock/2013.1/src/exe/rbdock.cxx#4 $)

>  <Rbt.Library>
libRbt.so (2013.1, Build901 2013/11/27)

>  <Rbt.Parameter_File>
/export/apps/rDock/src/rDock_2013.1_src/data/scripts/dock_solv.prm

>  <Rbt.Receptor>
prm/blind_docking_60.prm

>  <SCORE>
-27.207

>  <SCORE.INTER>
-13.8884

>  <SCORE.INTER.CONST>
1

>  <SCORE.INTER.POLAR>
0

>  <SCORE.INTER.ROT>
12

>  <SCORE.INTER.SOLV>
12.3991

>  <SCORE.INTER.VDW>
-24.9919

>  <SCORE.INTER.norm>
-0.448012

>  <SCORE.INTRA>
-13.3186

>  <SCORE.INTRA.DIHEDRAL>
1.48495

>  <SCORE.INTRA.DIHEDRAL.0>
14.6094

>  <SCORE.INTRA.POLAR>
0

>  <SCORE.INTRA.POLAR.0>
0

>  <SCORE.INTRA.REPUL>
0

>  <SCORE.INTRA.REPUL.0>
0

>  <SCORE.INTRA.SOLV>
2.69354

>  <SCORE.INTRA.SOLV.lig_0>
-65.6478

>  <SCORE.INTRA.VDW>
-15.4079

>  <SCORE.INTRA.VDW.0>
9.35535

>  <SCORE.INTRA.norm>
-0.429632

>  <SCORE.RESTR>
0

>  <SCORE.RESTR.CAVITY>
0

>  <SCORE.RESTR.norm>
0

>  <SCORE.SYSTEM>
0

>  <SCORE.SYSTEM.CONST>
0

>  <SCORE.SYSTEM.DIHEDRAL>
0

>  <SCORE.SYSTEM.SOLV>
0

>  <SCORE.SYSTEM.norm>
0

>  <SCORE.heavy>
31

>  <SCORE.norm>
-0.877645

>  <RMSD>
24.534

$$$$
ligand
 OpenBabel11021811443D
libRbt.so/2013.1/901 2013/11/27
 31 32  0  0  0  0  0  0  0  0999 V2000
   19.7231   23.4292   32.9807 C   0  0  0  0  0  0  0  0  0  0  0  0
   20.4524   24.6852   32.5131 C   0  0  0  0  0  0  0  0  0  0  0  0
   20.6448   24.9255   31.1140 C   0  0  0  0  0  0  0  0  0  0  0  0
   21.3251   26.0908   30.6865 C   0  0  0  0  0  0  0  0  0  0  0  0
   21.8120   27.0268   31.6315 C   0  0  0  0  0  0  0  0  0  0  0  0
   21.6264   26.8096   33.0120 C   0  0  0  0  0  0  0  0  0  0  0  0
   20.9545   25.6569   33.4569 C   0  0  0  0  0  0  0  0  0  0  0  0
   18.4956   23.4285   33.0686 O   0  0  0  0  0  0  0  0  0  0  0  0
   20.3898   19.7577   42.0070 C   0  0  0  0  0  0  0  0  0  0  0  0
   22.2603   22.6945   36.3813 C   0  0  0  0  0  0  0  0  0  0  0  0
   25.5200   25.5092   32.1662 P   0  0  1  0  0  0  0  0  0  0  0  0
   21.4625   19.1103   39.9662 N   0  0  0  0  0  0  0  0  0  0  0  0
   26.6750   25.2396   31.2886 O   0  0  0  0  0  0  0  0  0  0  0  0
   20.4288   22.2851   33.3103 S   0  0  0  0  0  0  0  0  0  0  0  0
   23.2436   19.7454   35.8412 C   0  0  0  0  0  0  0  0  0  0  0  0
   20.4322   19.8115   40.5512 C   0  0  0  0  0  0  0  0  0  0  0  0
   25.8723   25.7899   33.5844 O   0  5  0  0  0  0  0  0  0  0  0  0
   22.0195   20.3110   35.6977 N   0  0  0  0  0  0  0  0  0  0  0  0
   19.5436   20.4837   39.8889 N   0  0  0  0  0  0  0  0  0  0  0  0
   24.6466   26.5412   31.5607 O   0  0  0  0  0  0  0  0  0  0  0  0
   22.0283   21.7152   35.2627 C   0  0  2  0  0  0  0  0  0  0  0  0
   19.5858   20.5250   38.5084 C   0  0  0  0  0  0  0  0  0  0  0  0
   18.6516   21.2237   37.8587 N   0  0  0  0  0  0  0  0  0  0  0  0
   21.8630   22.2158   33.9014 C   0  0  1  0  0  0  0  0  0  0  0  0
   20.6402   19.8019   37.8147 C   0  0  0  0  0  0  0  0  0  0  0  0
   23.6952   19.8919   36.9557 O   0  0  0  0  0  0  0  0  0  0  0  0
   22.9855   22.6562   33.0303 C   0  0  0  0  0  0  0  0  0  0  0  0
   21.5406   19.1253   38.6124 C   0  0  0  0  0  0  0  0  0  0  0  0
   23.5951   23.9755   33.2389 C   0  0  0  0  0  0  0  0  0  0  0  0
   20.7124   19.7740   36.3075 C   0  0  0  0  0  0  0  0  0  0  0  0
   24.6349   24.2187   32.2754 O   0  0  0  0  0  0  0  0  0  0  0  0
  1  2  1  0  0  0  0
  1  8  2  0  0  0  0
  1 14  1  0  0  0  0
  2  3  2  0  0  0  0
  2  7  1  0  0  0  0
  3  4  1  0  0  0  0
  4  5  2  0  0  0  0
  5  6  1  0  0  0  0
  6  7  2  0  0  0  0
  9 16  1  0  0  0  0
 10 21  1  0  0  0  0
 11 13  1  6  0  0  0
 11 17  1  0  0  0  0
 11 20  2  0  0  0  0
 11 31  1  0  0  0  0
 12 16  2  0  0  0  0
 12 28  1  0  0  0  0
 15 26  1  0  0  0  0
 15 18  1  0  0  0  0
 16 19  1  0  0  0  0
 18 30  1  0  0  0  0
 19 22  2  0  0  0  0
 21 18  1  6  0  0  0
 21 24  1  0  0  0  0
 22 23  1  0  0  0  0
 22 25  1  0  0  0  0
 24 14  1  6  0  0  0
 24 27  1  0  0  0  0
 25 28  2  0  0  0  0
 25 30  1  0  0  0  0
 27 29  1  0  0  0  0
 29 31  1  0  0  0  0
M  CHG  1  17  -1
M  END
>  <CHROM.1>
-86.43992661,30.62358707,113.31377846,89.44025307,-81.86697276,65.62482155
-102.38939870,102.65042280,121.90894776,-178.56484702,179.96996599,165.88567938
22.03695051,22.80991048,34.80238409,1.24404476,-0.03594688,-0.90828541

>  <Name>
ligand

>  <RI>
0

>  <Rbt.Current_Directory>
/home/itssahil/PROJECTS/Mol_Feturizer/New_Systems/rnas/2HOO

>  <Rbt.Executable>
rbdock ($Id: //depot/dev/client3/rdock/2013.1/src/exe/rbdock.cxx#4 $)

>  <Rbt.Library>
libRbt.so (2013.1, Build901 2013/11/27)

>  <Rbt.Parameter_File>
/export/apps/rDock/src/rDock_2013.1_src/data/scripts/dock_solv.prm

>  <Rbt.Receptor>
prm/blind_docking_80.prm

>  <SCORE>
-26.7231

>  <SCORE.INTER>
-11.391

>  <SCORE.INTER.CONST>
1

>  <SCORE.INTER.POLAR>
0

>  <SCORE.INTER.ROT>
12

>  <SCORE.INTER.SOLV>
8.52594

>  <SCORE.INTER.VDW>
-22.036

>  <SCORE.INTER.norm>
-0.367451

>  <SCORE.INTRA>
-15.3587

>  <SCORE.INTRA.DIHEDRAL>
-1.25819

>  <SCORE.INTRA.DIHEDRAL.0>
14.6094

>  <SCORE.INTRA.POLAR>
0

>  <SCORE.INTRA.POLAR.0>
0

>  <SCORE.INTRA.REPUL>
0

>  <SCORE.INTRA.REPUL.0>
0

>  <SCORE.INTRA.SOLV>
1.56239

>  <SCORE.INTRA.SOLV.lig_0>
-65.6478

>  <SCORE.INTRA.VDW>
-15.5108

>  <SCORE.INTRA.VDW.0>
9.35535

>  <SCORE.INTRA.norm>
-0.495441

>  <SCORE.RESTR>
0.0265563

>  <SCORE.RESTR.CAVITY>
0.0265563

>  <SCORE.RESTR.norm>
0.000856656

>  <SCORE.SYSTEM>
0

>  <SCORE.SYSTEM.CONST>
0

>  <SCORE.SYSTEM.DIHEDRAL>
0

>  <SCORE.SYSTEM.SOLV>
0

>  <SCORE.SYSTEM.norm>
0

>  <SCORE.heavy>
31

>  <SCORE.norm>
-0.862035

>  <RMSD>
24.543

$$$$
ligand
 OpenBabel11021811443D
libRbt.so/2013.1/901 2013/11/27
 31 32  0  0  0  0  0  0  0  0999 V2000
   21.6774   24.5141   34.6093 C   0  0  0  0  0  0  0  0  0  0  0  0
   21.1879   25.6083   33.6653 C   0  0  0  0  0  0  0  0  0  0  0  0
   21.6603   26.9522   33.8167 C   0  0  0  0  0  0  0  0  0  0  0  0
   21.1999   27.9636   32.9399 C   0  0  0  0  0  0  0  0  0  0  0  0
   20.2798   27.6564   31.9078 C   0  0  0  0  0  0  0  0  0  0  0  0
   19.8090   26.3383   31.7402 C   0  0  0  0  0  0  0  0  0  0  0  0
   20.2531   25.3196   32.6023 C   0  0  0  0  0  0  0  0  0  0  0  0
   22.0543   24.8051   35.7441 O   0  0  0  0  0  0  0  0  0  0  0  0
   20.2063   19.7669   42.0431 C   0  0  0  0  0  0  0  0  0  0  0  0
   23.7993   22.4048   36.7279 C   0  0  0  0  0  0  0  0  0  0  0  0
   24.9883   24.8255   32.4127 P   0  0  1  0  0  0  0  0  0  0  0  0
   21.5890   19.2106   40.1688 N   0  0  0  0  0  0  0  0  0  0  0  0
   23.5299   24.8548   32.1913 O   0  0  0  0  0  0  0  0  0  0  0  0
   21.7044   23.1914   34.2025 S   0  0  0  0  0  0  0  0  0  0  0  0
   23.8747   19.4506   36.3963 C   0  0  0  0  0  0  0  0  0  0  0  0
   20.4556   19.8557   40.6099 C   0  0  0  0  0  0  0  0  0  0  0  0
   25.7926   24.5190   31.1989 O   0  5  0  0  0  0  0  0  0  0  0  0
   22.8068   20.2180   36.0652 N   0  0  0  0  0  0  0  0  0  0  0  0
   19.6433   20.5061   39.8372 N   0  0  0  0  0  0  0  0  0  0  0  0
   25.4246   26.0553   33.1137 O   0  0  0  0  0  0  0  0  0  0  0  0
   23.1294   21.5918   35.6534 C   0  0  2  0  0  0  0  0  0  0  0  0
   19.8820   20.5806   38.4782 C   0  0  0  0  0  0  0  0  0  0  0  0
   19.0217   21.2554   37.7118 N   0  0  0  0  0  0  0  0  0  0  0  0
   22.8892   22.1984   34.3476 C   0  0  1  0  0  0  0  0  0  0  0  0
   21.0560   19.9172   37.9328 C   0  0  0  0  0  0  0  0  0  0  0  0
   24.7285   19.4472   35.5370 O   0  0  0  0  0  0  0  0  0  0  0  0
   23.7016   21.9183   33.1332 C   0  0  0  0  0  0  0  0  0  0  0  0
   21.8606   19.2597   38.8411 C   0  0  0  0  0  0  0  0  0  0  0  0
   25.1339   22.2409   33.1247 C   0  0  0  0  0  0  0  0  0  0  0  0
   21.3457   19.9267   36.4516 C   0  0  0  0  0  0  0  0  0  0  0  0
   25.3463   23.6409   33.3767 O   0  0  0  0  0  0  0  0  0  0  0  0
  1  2  1  0  0  0  0
  1  8  2  0  0  0  0
  1 14  1  0  0  0  0
  2  3  2  0  0  0  0
  2  7  1  0  0  0  0
  3  4  1  0  0  0  0
  4  5  2  0  0  0  0
  5  6  1  0  0  0  0
  6  7  2  0  0  0  0
  9 16  1  0  0  0  0
 10 21  1  0  0  0  0
 11 13  1  6  0  0  0
 11 17  1  0  0  0  0
 11 20  2  0  0  0  0
 11 31  1  0  0  0  0
 12 16  2  0  0  0  0
 12 28  1  0  0  0  0
 15 26  1  0  0  0  0
 15 18  1  0  0  0  0
 16 19  1  0  0  0  0
 18 30  1  0  0  0  0
 19 22  2  0  0  0  0
 21 18  1  6  0  0  0
 21 24  1  0  0  0  0
 22 23  1  0  0  0  0
 22 25  1  0  0  0  0
 24 14  1  6  0  0  0
 24 27  1  0  0  0  0
 25 28  2  0  0  0  0
 25 30  1  0  0  0  0
 27 29  1  0  0  0  0
 29 31  1  0  0  0  0
M  CHG  1  17  -1
M  END
>  <CHROM.1>
26.53835902,131.44498556,77.97533886,-52.12180716,-61.92904552,62.40249025
-77.16877079,119.09816956,135.53991547,-58.58423486,-69.36045442,62.49341266
22.45917438,22.83257525,35.19814424,1.28632298,0.50678397,-0.72821848

>  <Name>
ligand

>  <RI>
0

>  <Rbt.Current_Directory>
/home/itssahil/PROJECTS/Mol_Feturizer/New_Systems/rnas/2HOO

>  <Rbt.Executable>
rbdock ($Id: //depot/dev/client3/rdock/2013.1/src/exe/rbdock.cxx#4 $)

>  <Rbt.Library>
libRbt.so (2013.1, Build901 2013/11/27)

>  <Rbt.Parameter_File>
/export/apps/rDock/src/rDock_2013.1_src/data/scripts/dock_solv.prm

>  <Rbt.Receptor>
prm/blind_docking_80.prm

>  <SCORE>
-27.5673

>  <SCORE.INTER>
-14.3249

>  <SCORE.INTER.CONST>
1

>  <SCORE.INTER.POLAR>
0

>  <SCORE.INTER.ROT>
12

>  <SCORE.INTER.SOLV>
13.9125

>  <SCORE.INTER.VDW>
-25.7874

>  <SCORE.INTER.norm>
-0.462092

>  <SCORE.INTRA>
-13.2424

>  <SCORE.INTRA.DIHEDRAL>
0.124009

>  <SCORE.INTRA.DIHEDRAL.0>
14.6094

>  <SCORE.INTRA.POLAR>
0

>  <SCORE.INTRA.POLAR.0>
0

>  <SCORE.INTRA.REPUL>
0

>  <SCORE.INTRA.REPUL.0>
0

>  <SCORE.INTRA.SOLV>
1.21569

>  <SCORE.INTRA.SOLV.lig_0>
-65.6478

>  <SCORE.INTRA.VDW>
-13.9123

>  <SCORE.INTRA.VDW.0>
9.35535

>  <SCORE.INTRA.norm>
-0.427175

>  <SCORE.RESTR>
0

>  <SCORE.RESTR.CAVITY>
0

>  <SCORE.RESTR.norm>
0

>  <SCORE.SYSTEM>
0

>  <SCORE.SYSTEM.CONST>
0

>  <SCORE.SYSTEM.DIHEDRAL>
0

>  <SCORE.SYSTEM.SOLV>
0

>  <SCORE.SYSTEM.norm>
0

>  <SCORE.heavy>
31

>  <SCORE.norm>
-0.889267

>  <RMSD>
24.547

$$$$
ligand
 OpenBabel11021811443D
libRbt.so/2013.1/901 2013/11/27
 31 32  0  0  0  0  0  0  0  0999 V2000
   23.8964   23.4240   35.8671 C   0  0  0  0  0  0  0  0  0  0  0  0
   24.3891   22.6415   34.6535 C   0  0  0  0  0  0  0  0  0  0  0  0
   25.3091   21.5566   34.8231 C   0  0  0  0  0  0  0  0  0  0  0  0
   25.7652   20.8366   33.6929 C   0  0  0  0  0  0  0  0  0  0  0  0
   25.3134   21.1756   32.3940 C   0  0  0  0  0  0  0  0  0  0  0  0
   24.4034   22.2362   32.2089 C   0  0  0  0  0  0  0  0  0  0  0  0
   23.9400   22.9649   33.3190 C   0  0  0  0  0  0  0  0  0  0  0  0
   24.3578   23.1829   36.9822 O   0  0  0  0  0  0  0  0  0  0  0  0
   16.9419   19.4294   39.5385 C   0  0  0  0  0  0  0  0  0  0  0  0
   19.7861   23.1434   33.6581 C   0  0  0  0  0  0  0  0  0  0  0  0
   24.8234   27.2982   32.9943 P   0  0  1  0  0  0  0  0  0  0  0  0
   17.8225   21.1345   38.1062 N   0  0  0  0  0  0  0  0  0  0  0  0
   25.8149   27.6864   34.0156 O   0  0  0  0  0  0  0  0  0  0  0  0
   22.9308   24.4059   35.7290 S   0  0  0  0  0  0  0  0  0  0  0  0
   21.7165   20.8958   34.4405 C   0  0  0  0  0  0  0  0  0  0  0  0
   18.0873   20.0019   38.8425 C   0  0  0  0  0  0  0  0  0  0  0  0
   24.2723   28.4321   32.2040 O   0  5  0  0  0  0  0  0  0  0  0  0
   21.2287   21.8737   35.2434 N   0  0  0  0  0  0  0  0  0  0  0  0
   19.2581   19.4535   38.9351 N   0  0  0  0  0  0  0  0  0  0  0  0
   25.3554   26.1990   32.1558 O   0  0  0  0  0  0  0  0  0  0  0  0
   20.9771   23.1599   34.5775 C   0  0  2  0  0  0  0  0  0  0  0  0
   20.3413   20.0053   38.2782 C   0  0  0  0  0  0  0  0  0  0  0  0
   21.5334   19.4162   38.3996 N   0  0  0  0  0  0  0  0  0  0  0  0
   21.7323   24.3984   34.7417 C   0  0  1  0  0  0  0  0  0  0  0  0
   20.1447   21.2089   37.4853 C   0  0  0  0  0  0  0  0  0  0  0  0
   21.2462   19.8087   34.6944 O   0  0  0  0  0  0  0  0  0  0  0  0
   21.4217   25.6677   34.0309 C   0  0  0  0  0  0  0  0  0  0  0  0
   18.8585   21.7079   37.4450 C   0  0  0  0  0  0  0  0  0  0  0  0
   22.3723   26.2039   33.0487 C   0  0  0  0  0  0  0  0  0  0  0  0
   21.2975   21.8818   36.7809 C   0  0  0  0  0  0  0  0  0  0  0  0
   23.5500   26.7126   33.6990 O   0  0  0  0  0  0  0  0  0  0  0  0
  1  2  1  0  0  0  0
  1  8  2  0  0  0  0
  1 14  1  0  0  0  0
  2  3  2  0  0  0  0
  2  7  1  0  0  0  0
  3  4  1  0  0  0  0
  4  5  2  0  0  0  0
  5  6  1  0  0  0  0
  6  7  2  0  0  0  0
  9 16  1  0  0  0  0
 10 21  1  0  0  0  0
 11 13  1  1  0  0  0
 11 17  1  0  0  0  0
 11 20  2  0  0  0  0
 11 31  1  0  0  0  0
 12 16  2  0  0  0  0
 12 28  1  0  0  0  0
 15 26  1  0  0  0  0
 15 18  1  0  0  0  0
 16 19  1  0  0  0  0
 18 30  1  0  0  0  0
 19 22  2  0  0  0  0
 21 18  1  1  0  0  0
 21 24  1  0  0  0  0
 22 23  1  0  0  0  0
 22 25  1  0  0  0  0
 24 14  1  1  0  0  0
 24 27  1  0  0  0  0
 25 28  2  0  0  0  0
 25 30  1  0  0  0  0
 27 29  1  0  0  0  0
 29 31  1  0  0  0  0
M  CHG  1  17  -1
M  END
>  <CHROM.1>
4.91515878,35.07639535,43.19683918,-141.11817650,72.01947161,-88.49055422
178.11461146,66.70108642,114.73518820,-71.13418569,176.65676058,-178.94471278
22.35523351,23.18205788,35.16203739,-0.85489511,-0.53255016,2.88079432

>  <Name>
ligand

>  <RI>
0

>  <Rbt.Current_Directory>
/home/itssahil/PROJECTS/Mol_Feturizer/New_Systems/rnas/2HOO

>  <Rbt.Executable>
rbdock ($Id: //depot/dev/client3/rdock/2013.1/src/exe/rbdock.cxx#4 $)

>  <Rbt.Library>
libRbt.so (2013.1, Build901 2013/11/27)

>  <Rbt.Parameter_File>
/export/apps/rDock/src/rDock_2013.1_src/data/scripts/dock_solv.prm

>  <Rbt.Receptor>
prm/blind_docking_80.prm

>  <SCORE>
-24.5816

>  <SCORE.INTER>
-13.2738

>  <SCORE.INTER.CONST>
1

>  <SCORE.INTER.POLAR>
0

>  <SCORE.INTER.ROT>
12

>  <SCORE.INTER.SOLV>
13.0008

>  <SCORE.INTER.VDW>
-24.7828

>  <SCORE.INTER.norm>
-0.428186

>  <SCORE.INTRA>
-11.3078

>  <SCORE.INTRA.DIHEDRAL>
2.56072

>  <SCORE.INTRA.DIHEDRAL.0>
14.6094

>  <SCORE.INTRA.POLAR>
0

>  <SCORE.INTRA.POLAR.0>
0

>  <SCORE.INTRA.REPUL>
0

>  <SCORE.INTRA.REPUL.0>
0

>  <SCORE.INTRA.SOLV>
2.3012

>  <SCORE.INTRA.SOLV.lig_0>
-65.6478

>  <SCORE.INTRA.VDW>
-13.7388

>  <SCORE.INTRA.VDW.0>
9.35535

>  <SCORE.INTRA.norm>
-0.364768

>  <SCORE.RESTR>
0

>  <SCORE.RESTR.CAVITY>
0

>  <SCORE.RESTR.norm>
0

>  <SCORE.SYSTEM>
0

>  <SCORE.SYSTEM.CONST>
0

>  <SCORE.SYSTEM.DIHEDRAL>
0

>  <SCORE.SYSTEM.SOLV>
0

>  <SCORE.SYSTEM.norm>
0

>  <SCORE.heavy>
31

>  <SCORE.norm>
-0.792954

>  <RMSD>
24.577

$$$$
ligand
 OpenBabel11021811443D
libRbt.so/2013.1/901 2013/11/27
 31 32  0  0  0  0  0  0  0  0999 V2000
   24.3384   23.4638   32.1372 C   0  0  0  0  0  0  0  0  0  0  0  0
   23.3604   24.5429   32.5924 C   0  0  0  0  0  0  0  0  0  0  0  0
   21.9520   24.3622   32.4034 C   0  0  0  0  0  0  0  0  0  0  0  0
   21.0499   25.3684   32.8248 C   0  0  0  0  0  0  0  0  0  0  0  0
   21.5283   26.5514   33.4394 C   0  0  0  0  0  0  0  0  0  0  0  0
   22.9105   26.7435   33.6390 C   0  0  0  0  0  0  0  0  0  0  0  0
   23.8230   25.7563   33.2256 C   0  0  0  0  0  0  0  0  0  0  0  0
   25.2804   23.7589   31.4024 O   0  0  0  0  0  0  0  0  0  0  0  0
   19.4122   17.3974   40.2492 C   0  0  0  0  0  0  0  0  0  0  0  0
   22.6626   22.7389   35.3715 C   0  0  0  0  0  0  0  0  0  0  0  0
   25.5129   22.9077   37.5037 P   0  0  1  0  0  0  0  0  0  0  0  0
   20.8862   18.9551   39.1838 N   0  0  0  0  0  0  0  0  0  0  0  0
   24.2819   22.4988   38.2067 O   0  0  0  0  0  0  0  0  0  0  0  0
   24.1774   22.1499   32.5414 S   0  0  0  0  0  0  0  0  0  0  0  0
   23.6390   19.4563   36.1197 C   0  0  0  0  0  0  0  0  0  0  0  0
   19.8203   18.0964   39.0372 C   0  0  0  0  0  0  0  0  0  0  0  0
   25.3334   24.0294   36.5426 O   0  5  0  0  0  0  0  0  0  0  0  0
   22.7561   20.2512   35.4658 N   0  0  0  0  0  0  0  0  0  0  0  0
   19.1976   17.8966   37.9181 N   0  0  0  0  0  0  0  0  0  0  0  0
   26.6068   23.1346   38.4765 O   0  0  0  0  0  0  0  0  0  0  0  0
   23.3278   21.4776   34.8911 C   0  0  2  0  0  0  0  0  0  0  0  0
   19.5939   18.5575   36.7712 C   0  0  0  0  0  0  0  0  0  0  0  0
   18.9323   18.3240   35.6351 N   0  0  0  0  0  0  0  0  0  0  0  0
   24.4463   21.5738   33.9581 C   0  0  1  0  0  0  0  0  0  0  0  0
   20.7191   19.4766   36.8421 C   0  0  0  0  0  0  0  0  0  0  0  0
   23.8672   19.8428   37.2448 O   0  0  0  0  0  0  0  0  0  0  0  0
   25.8353   21.1426   34.2704 C   0  0  0  0  0  0  0  0  0  0  0  0
   21.3070   19.6245   38.0820 C   0  0  0  0  0  0  0  0  0  0  0  0
   26.6109   21.8643   35.2870 C   0  0  0  0  0  0  0  0  0  0  0  0
   21.2253   20.1939   35.6144 C   0  0  0  0  0  0  0  0  0  0  0  0
   26.0029   21.7352   36.5840 O   0  0  0  0  0  0  0  0  0  0  0  0
  1  2  1  0  0  0  0
  1  8  2  0  0  0  0
  1 14  1  0  0  0  0
  2  3  2  0  0  0  0
  2  7  1  0  0  0  0
  3  4  1  0  0  0  0
  4  5  2  0  0  0  0
  5  6  1  0  0  0  0
  6  7  2  0  0  0  0
  9 16  1  0  0  0  0
 10 21  1  0  0  0  0
 11 13  1  1  0  0  0
 11 17  1  0  0  0  0
 11 20  2  0  0  0  0
 11 31  1  0  0  0  0
 12 16  2  0  0  0  0
 12 28  1  0  0  0  0
 15 26  1  0  0  0  0
 15 18  1  0  0  0  0
 16 19  1  0  0  0  0
 18 30  1  0  0  0  0
 19 22  2  0  0  0  0
 21 18  1  1  0  0  0
 21 24  1  0  0  0  0
 22 23  1  0  0  0  0
 22 25  1  0  0  0  0
 24 14  1  6  0  0  0
 24 27  1  0  0  0  0
 25 28  2  0  0  0  0
 25 30  1  0  0  0  0
 27 29  1  0  0  0  0
 29 31  1  0  0  0  0
M  CHG  1  17  -1
M  END
>  <CHROM.1>
127.24869614,-72.79274264,94.40335836,80.42953114,-123.24128738,17.64872174
-64.74958168,113.89475375,-137.06921357,63.93216876,-121.83282577,143.46498780
23.16010224,21.75197468,35.62791339,1.04643924,-0.41827958,-0.92571974

>  <Name>
ligand

>  <RI>
0

>  <Rbt.Current_Directory>
/home/itssahil/PROJECTS/Mol_Feturizer/New_Systems/rnas/2HOO

>  <Rbt.Executable>
rbdock ($Id: //depot/dev/client3/rdock/2013.1/src/exe/rbdock.cxx#4 $)

>  <Rbt.Library>
libRbt.so (2013.1, Build901 2013/11/27)

>  <Rbt.Parameter_File>
/export/apps/rDock/src/rDock_2013.1_src/data/scripts/dock_solv.prm

>  <Rbt.Receptor>
prm/blind_docking_60.prm

>  <SCORE>
-20.2103

>  <SCORE.INTER>
-13.8172

>  <SCORE.INTER.CONST>
1

>  <SCORE.INTER.POLAR>
0

>  <SCORE.INTER.ROT>
12

>  <SCORE.INTER.SOLV>
7.03396

>  <SCORE.INTER.VDW>
-23.1561

>  <SCORE.INTER.norm>
-0.445715

>  <SCORE.INTRA>
-6.39996

>  <SCORE.INTRA.DIHEDRAL>
10.3919

>  <SCORE.INTRA.DIHEDRAL.0>
14.6094

>  <SCORE.INTRA.POLAR>
0

>  <SCORE.INTRA.POLAR.0>
0

>  <SCORE.INTRA.REPUL>
0

>  <SCORE.INTRA.REPUL.0>
0

>  <SCORE.INTRA.SOLV>
3.83229

>  <SCORE.INTRA.SOLV.lig_0>
-65.6478

>  <SCORE.INTRA.VDW>
-13.5121

>  <SCORE.INTRA.VDW.0>
9.35535

>  <SCORE.INTRA.norm>
-0.20645

>  <SCORE.RESTR>
0.00680596

>  <SCORE.RESTR.CAVITY>
0.00680596

>  <SCORE.RESTR.norm>
0.000219547

>  <SCORE.SYSTEM>
0

>  <SCORE.SYSTEM.CONST>
0

>  <SCORE.SYSTEM.DIHEDRAL>
0

>  <SCORE.SYSTEM.SOLV>
0

>  <SCORE.SYSTEM.norm>
0

>  <SCORE.heavy>
31

>  <SCORE.norm>
-0.651946

>  <RMSD>
24.744

$$$$
ligand
 OpenBabel11021811443D
libRbt.so/2013.1/901 2013/11/27
 31 32  0  0  0  0  0  0  0  0999 V2000
    2.6941   12.7052   78.5235 C   0  0  0  0  0  0  0  0  0  0  0  0
    3.2341   11.6808   77.5300 C   0  0  0  0  0  0  0  0  0  0  0  0
    4.4696   11.0057   77.7942 C   0  0  0  0  0  0  0  0  0  0  0  0
    4.9671   10.0587   76.8671 C   0  0  0  0  0  0  0  0  0  0  0  0
    4.2489    9.7672   75.6816 C   0  0  0  0  0  0  0  0  0  0  0  0
    3.0283   10.4175   75.4082 C   0  0  0  0  0  0  0  0  0  0  0  0
    2.5183   11.3628   76.3160 C   0  0  0  0  0  0  0  0  0  0  0  0
    2.5786   12.4069   79.7118 O   0  0  0  0  0  0  0  0  0  0  0  0
   10.5054   13.3410   73.4404 C   0  0  0  0  0  0  0  0  0  0  0  0
    3.7565   16.8058   78.0659 C   0  0  0  0  0  0  0  0  0  0  0  0
   -0.9469   14.8068   75.8630 P   0  0  1  0  0  0  0  0  0  0  0  0
    9.6201   14.9533   74.9737 N   0  0  0  0  0  0  0  0  0  0  0  0
   -2.0121   15.5756   76.5347 O   0  0  0  0  0  0  0  0  0  0  0  0
    2.3294   13.9722   78.1022 S   0  0  0  0  0  0  0  0  0  0  0  0
    5.2903   16.6747   75.3445 C   0  0  0  0  0  0  0  0  0  0  0  0
    9.4452   13.7334   74.3601 C   0  0  0  0  0  0  0  0  0  0  0  0
   -0.3619   13.7122   76.6839 O   0  5  0  0  0  0  0  0  0  0  0  0
    5.2280   15.7636   76.3469 N   0  0  0  0  0  0  0  0  0  0  0  0
    8.4243   12.9601   74.5600 N   0  0  0  0  0  0  0  0  0  0  0  0
   -1.4024   14.3614   74.5257 O   0  0  0  0  0  0  0  0  0  0  0  0
    3.9423   15.7047   77.0573 C   0  0  2  0  0  0  0  0  0  0  0  0
    7.4193   13.3414   75.4282 C   0  0  0  0  0  0  0  0  0  0  0  0
    6.3804   12.5218   75.6065 N   0  0  0  0  0  0  0  0  0  0  0  0
    2.8724   14.7312   76.8612 C   0  0  1  0  0  0  0  0  0  0  0  0
    7.5267   14.6219   76.1098 C   0  0  0  0  0  0  0  0  0  0  0  0
    5.8731   16.2535   74.3696 O   0  0  0  0  0  0  0  0  0  0  0  0
    2.2702   14.4051   75.5406 C   0  0  0  0  0  0  0  0  0  0  0  0
    8.6564   15.3652   75.8343 C   0  0  0  0  0  0  0  0  0  0  0  0
    1.4610   15.4107   74.8407 C   0  0  0  0  0  0  0  0  0  0  0  0
    6.4402   15.1117   77.0358 C   0  0  0  0  0  0  0  0  0  0  0  0
    0.2848   15.7417   75.5993 O   0  0  0  0  0  0  0  0  0  0  0  0
  1  2  1  0  0  0  0
  1  8  2  0  0  0  0
  1 14  1  0  0  0  0
  2  3  2  0  0  0  0
  2  7  1  0  0  0  0
  3  4  1  0  0  0  0
  4  5  2  0  0  0  0
  5  6  1  0  0  0  0
  6  7  2  0  0  0  0
  9 16  1  0  0  0  0
 10 21  1  0  0  0  0
 11 13  1  1  0  0  0
 11 17  1  0  0  0  0
 11 20  2  0  0  0  0
 11 31  1  0  0  0  0
 12 16  2  0  0  0  0
 12 28  1  0  0  0  0
 15 26  1  0  0  0  0
 15 18  1  0  0  0  0
 16 19  1  0  0  0  0
 18 30  1  0  0  0  0
 19 22  2  0  0  0  0
 21 18  1  6  0  0  0
 21 24  1  0  0  0  0
 22 23  1  0  0  0  0
 22 25  1  0  0  0  0
 24 14  1  6  0  0  0
 24 27  1  0  0  0  0
 25 28  2  0  0  0  0
 25 30  1  0  0  0  0
 27 29  1  0  0  0  0
 29 31  1  0  0  0  0
M  CHG  1  17  -1
M  END
>  <CHROM.1>
-51.97584923,-25.70158864,-97.51158651,-139.19485074,-78.77535738,-45.32219169
-53.89698910,112.46137071,-81.15517780,-63.28032636,-69.15594170,-172.81726180
3.82939462,13.98862883,76.21161768,3.13039946,0.16389219,-0.27663373

>  <Name>
ligand

>  <RI>
0

>  <Rbt.Current_Directory>
/home/itssahil/PROJECTS/Mol_Feturizer/New_Systems/rnas/2HOO

>  <Rbt.Executable>
rbdock ($Id: //depot/dev/client3/rdock/2013.1/src/exe/rbdock.cxx#4 $)

>  <Rbt.Library>
libRbt.so (2013.1, Build901 2013/11/27)

>  <Rbt.Parameter_File>
/export/apps/rDock/src/rDock_2013.1_src/data/scripts/dock_solv.prm

>  <Rbt.Receptor>
prm/blind_docking_100.prm

>  <SCORE>
-16.9676

>  <SCORE.INTER>
-4.78516

>  <SCORE.INTER.CONST>
1

>  <SCORE.INTER.POLAR>
0

>  <SCORE.INTER.ROT>
12

>  <SCORE.INTER.SOLV>
6.95253

>  <SCORE.INTER.VDW>
-17.1076

>  <SCORE.INTER.norm>
-0.15436

>  <SCORE.INTRA>
-12.2231

>  <SCORE.INTRA.DIHEDRAL>
-1.62644

>  <SCORE.INTRA.DIHEDRAL.0>
14.6094

>  <SCORE.INTRA.POLAR>
0

>  <SCORE.INTRA.POLAR.0>
0

>  <SCORE.INTRA.REPUL>
0

>  <SCORE.INTRA.REPUL.0>
0

>  <SCORE.INTRA.SOLV>
7.15863

>  <SCORE.INTRA.SOLV.lig_0>
-65.6478

>  <SCORE.INTRA.VDW>
-14.9892

>  <SCORE.INTRA.VDW.0>
9.35535

>  <SCORE.INTRA.norm>
-0.394293

>  <SCORE.RESTR>
0.0406372

>  <SCORE.RESTR.CAVITY>
0.0406372

>  <SCORE.RESTR.norm>
0.00131088

>  <SCORE.SYSTEM>
0

>  <SCORE.SYSTEM.CONST>
0

>  <SCORE.SYSTEM.DIHEDRAL>
0

>  <SCORE.SYSTEM.SOLV>
0

>  <SCORE.SYSTEM.norm>
0

>  <SCORE.heavy>
31

>  <SCORE.norm>
-0.547342

>  <RMSD>
24.752

$$$$
ligand
 OpenBabel11021811443D
libRbt.so/2013.1/901 2013/11/27
 31 32  0  0  0  0  0  0  0  0999 V2000
   24.7771   22.2867   34.0294 C   0  0  0  0  0  0  0  0  0  0  0  0
   24.7825   22.6017   35.5223 C   0  0  0  0  0  0  0  0  0  0  0  0
   24.8898   21.5417   36.4799 C   0  0  0  0  0  0  0  0  0  0  0  0
   24.8908   21.8401   37.8637 C   0  0  0  0  0  0  0  0  0  0  0  0
   24.7939   23.1807   38.3103 C   0  0  0  0  0  0  0  0  0  0  0  0
   24.6938   24.2369   37.3820 C   0  0  0  0  0  0  0  0  0  0  0  0
   24.6892   23.9609   36.0030 C   0  0  0  0  0  0  0  0  0  0  0  0
   25.5126   21.4059   33.5848 O   0  0  0  0  0  0  0  0  0  0  0  0
   20.3683   17.7384   39.6837 C   0  0  0  0  0  0  0  0  0  0  0  0
   20.1575   23.4785   33.2909 C   0  0  0  0  0  0  0  0  0  0  0  0
   24.9646   28.3855   32.5746 P   0  0  1  0  0  0  0  0  0  0  0  0
   21.8244   19.0580   38.3153 N   0  0  0  0  0  0  0  0  0  0  0  0
   24.6054   29.7329   33.0568 O   0  0  0  0  0  0  0  0  0  0  0  0
   23.9519   22.9840   33.1642 S   0  0  0  0  0  0  0  0  0  0  0  0
   21.6381   20.7129   34.2872 C   0  0  0  0  0  0  0  0  0  0  0  0
   20.5636   18.9176   38.8498 C   0  0  0  0  0  0  0  0  0  0  0  0
   24.9033   28.2201   31.0971 O   0  5  0  0  0  0  0  0  0  0  0  0
   21.3605   21.9268   34.8241 N   0  0  0  0  0  0  0  0  0  0  0  0
   19.5929   19.7528   38.6492 N   0  0  0  0  0  0  0  0  0  0  0  0
   26.2555   27.9585   33.1624 O   0  0  0  0  0  0  0  0  0  0  0  0
   21.4708   23.0601   33.8944 C   0  0  2  0  0  0  0  0  0  0  0  0
   19.7829   20.8653   37.8520 C   0  0  0  0  0  0  0  0  0  0  0  0
   18.7595   21.7020   37.6637 N   0  0  0  0  0  0  0  0  0  0  0  0
   22.6822   23.7942   33.5416 C   0  0  1  0  0  0  0  0  0  0  0  0
   21.0864   21.0802   37.2432 C   0  0  0  0  0  0  0  0  0  0  0  0
   20.7439   19.9138   34.4585 O   0  0  0  0  0  0  0  0  0  0  0  0
   22.7875   25.2780   33.5307 C   0  0  0  0  0  0  0  0  0  0  0  0
   22.0535   20.1373   37.5267 C   0  0  0  0  0  0  0  0  0  0  0  0
   23.9570   25.9208   32.9186 C   0  0  0  0  0  0  0  0  0  0  0  0
   21.3416   22.2530   36.3282 C   0  0  0  0  0  0  0  0  0  0  0  0
   23.9046   27.3483   33.0860 O   0  0  0  0  0  0  0  0  0  0  0  0
  1  2  1  0  0  0  0
  1  8  2  0  0  0  0
  1 14  1  0  0  0  0
  2  3  2  0  0  0  0
  2  7  1  0  0  0  0
  3  4  1  0  0  0  0
  4  5  2  0  0  0  0
  5  6  1  0  0  0  0
  6  7  2  0  0  0  0
  9 16  1  0  0  0  0
 10 21  1  0  0  0  0
 11 13  1  1  0  0  0
 11 17  1  0  0  0  0
 11 20  2  0  0  0  0
 11 31  1  0  0  0  0
 12 16  2  0  0  0  0
 12 28  1  0  0  0  0
 15 26  1  0  0  0  0
 15 18  1  0  0  0  0
 16 19  1  0  0  0  0
 18 30  1  0  0  0  0
 19 22  2  0  0  0  0
 21 18  1  1  0  0  0
 21 24  1  0  0  0  0
 22 23  1  0  0  0  0
 22 25  1  0  0  0  0
 24 14  1  1  0  0  0
 24 27  1  0  0  0  0
 25 28  2  0  0  0  0
 25 30  1  0  0  0  0
 27 29  1  0  0  0  0
 29 31  1  0  0  0  0
M  CHG  1  17  -1
M  END
>  <CHROM.1>
-38.92486762,-19.99812878,-74.03634622,-125.92597448,96.78182899,-24.47616555
-133.59246471,12.30643382,-102.36888663,-176.44243739,-179.98794176,-174.81261594
22.95958445,23.25877770,35.10602453,-1.13930965,0.37713762,2.38906630

>  <Name>
ligand

>  <RI>
0

>  <Rbt.Current_Directory>
/home/itssahil/PROJECTS/Mol_Feturizer/New_Systems/rnas/2HOO

>  <Rbt.Executable>
rbdock ($Id: //depot/dev/client3/rdock/2013.1/src/exe/rbdock.cxx#4 $)

>  <Rbt.Library>
libRbt.so (2013.1, Build901 2013/11/27)

>  <Rbt.Parameter_File>
/export/apps/rDock/src/rDock_2013.1_src/data/scripts/dock_solv.prm

>  <Rbt.Receptor>
prm/blind_docking_80.prm

>  <SCORE>
-25.5315

>  <SCORE.INTER>
-10.7774

>  <SCORE.INTER.CONST>
1

>  <SCORE.INTER.POLAR>
0

>  <SCORE.INTER.ROT>
12

>  <SCORE.INTER.SOLV>
13.8984

>  <SCORE.INTER.VDW>
-23.4177

>  <SCORE.INTER.norm>
-0.347658

>  <SCORE.INTRA>
-14.7595

>  <SCORE.INTRA.DIHEDRAL>
-1.54519

>  <SCORE.INTRA.DIHEDRAL.0>
14.6094

>  <SCORE.INTRA.POLAR>
0

>  <SCORE.INTRA.POLAR.0>
0

>  <SCORE.INTRA.REPUL>
0

>  <SCORE.INTRA.REPUL.0>
0

>  <SCORE.INTRA.SOLV>
0.800416

>  <SCORE.INTRA.SOLV.lig_0>
-65.6478

>  <SCORE.INTRA.VDW>
-14.3871

>  <SCORE.INTRA.VDW.0>
9.35535

>  <SCORE.INTRA.norm>
-0.476111

>  <SCORE.RESTR>
0.00533662

>  <SCORE.RESTR.CAVITY>
0.00533662

>  <SCORE.RESTR.norm>
0.000172149

>  <SCORE.SYSTEM>
0

>  <SCORE.SYSTEM.CONST>
0

>  <SCORE.SYSTEM.DIHEDRAL>
0

>  <SCORE.SYSTEM.SOLV>
0

>  <SCORE.SYSTEM.norm>
0

>  <SCORE.heavy>
31

>  <SCORE.norm>
-0.823598

>  <RMSD>
24.945

$$$$
ligand
 OpenBabel11021811443D
libRbt.so/2013.1/901 2013/11/27
 31 32  0  0  0  0  0  0  0  0999 V2000
   25.6149   23.2081   33.5282 C   0  0  0  0  0  0  0  0  0  0  0  0
   25.3680   24.6859   33.2397 C   0  0  0  0  0  0  0  0  0  0  0  0
   25.5192   25.1931   31.9085 C   0  0  0  0  0  0  0  0  0  0  0  0
   25.2920   26.5658   31.6478 C   0  0  0  0  0  0  0  0  0  0  0  0
   24.9088   27.4423   32.6924 C   0  0  0  0  0  0  0  0  0  0  0  0
   24.7493   26.9593   34.0071 C   0  0  0  0  0  0  0  0  0  0  0  0
   24.9722   25.5991   34.2868 C   0  0  0  0  0  0  0  0  0  0  0  0
   26.7068   22.8407   33.9609 O   0  0  0  0  0  0  0  0  0  0  0  0
   17.9060   22.0177   38.5637 C   0  0  0  0  0  0  0  0  0  0  0  0
   25.6570   20.0306   35.2045 C   0  0  0  0  0  0  0  0  0  0  0  0
   21.5384   25.1931   32.9389 P   0  0  1  0  0  0  0  0  0  0  0  0
   19.9831   22.0904   37.3742 N   0  0  0  0  0  0  0  0  0  0  0  0
   22.4428   25.3761   31.7877 O   0  0  0  0  0  0  0  0  0  0  0  0
   24.6212   22.2704   33.3067 S   0  0  0  0  0  0  0  0  0  0  0  0
   24.4301   22.1249   37.5379 C   0  0  0  0  0  0  0  0  0  0  0  0
   19.2138   21.4289   38.3048 C   0  0  0  0  0  0  0  0  0  0  0  0
   21.6482   26.2449   33.9857 O   0  5  0  0  0  0  0  0  0  0  0  0
   24.1079   20.9623   36.9187 N   0  0  0  0  0  0  0  0  0  0  0  0
   19.5904   20.3564   38.9275 N   0  0  0  0  0  0  0  0  0  0  0  0
   20.1510   24.9710   32.4699 O   0  0  0  0  0  0  0  0  0  0  0  0
   24.4604   20.8962   35.4931 C   0  0  2  0  0  0  0  0  0  0  0  0
   20.8344   19.8072   38.6822 C   0  0  0  0  0  0  0  0  0  0  0  0
   21.1909   18.7044   39.3452 N   0  0  0  0  0  0  0  0  0  0  0  0
   23.7690   21.5471   34.3845 C   0  0  1  0  0  0  0  0  0  0  0  0
   21.7107   20.4531   37.7175 C   0  0  0  0  0  0  0  0  0  0  0  0
   25.5123   22.0779   38.0802 O   0  0  0  0  0  0  0  0  0  0  0  0
   22.2906   21.5755   34.2222 C   0  0  0  0  0  0  0  0  0  0  0  0
   21.2116   21.5839   37.1035 C   0  0  0  0  0  0  0  0  0  0  0  0
   21.6778   22.5357   33.2958 C   0  0  0  0  0  0  0  0  0  0  0  0
   23.0971   19.9252   37.4399 C   0  0  0  0  0  0  0  0  0  0  0  0
   21.9361   23.8878   33.7128 O   0  0  0  0  0  0  0  0  0  0  0  0
  1  2  1  0  0  0  0
  1  8  2  0  0  0  0
  1 14  1  0  0  0  0
  2  3  2  0  0  0  0
  2  7  1  0  0  0  0
  3  4  1  0  0  0  0
  4  5  2  0  0  0  0
  5  6  1  0  0  0  0
  6  7  2  0  0  0  0
  9 16  1  0  0  0  0
 10 21  1  0  0  0  0
 11 13  1  6  0  0  0
 11 17  1  0  0  0  0
 11 20  2  0  0  0  0
 11 31  1  0  0  0  0
 12 16  2  0  0  0  0
 12 28  1  0  0  0  0
 15 26  1  0  0  0  0
 15 18  1  0  0  0  0
 16 19  1  0  0  0  0
 18 30  1  0  0  0  0
 19 22  2  0  0  0  0
 21 18  1  6  0  0  0
 21 24  1  0  0  0  0
 22 23  1  0  0  0  0
 22 25  1  0  0  0  0
 24 14  1  1  0  0  0
 24 27  1  0  0  0  0
 25 28  2  0  0  0  0
 25 30  1  0  0  0  0
 27 29  1  0  0  0  0
 29 31  1  0  0  0  0
M  CHG  1  17  -1
M  END
>  <CHROM.1>
96.77639457,-105.87367494,-50.99070587,-93.80154694,105.45813395,55.72164626
-46.06461621,-15.60865755,-154.46922613,-62.91830910,175.46050260,-74.94500861
22.94631925,22.90431938,35.06379830,-1.15907101,-0.22583223,2.38907522

>  <Name>
ligand

>  <RI>
0

>  <Rbt.Current_Directory>
/home/itssahil/PROJECTS/Mol_Feturizer/New_Systems/rnas/2HOO

>  <Rbt.Executable>
rbdock ($Id: //depot/dev/client3/rdock/2013.1/src/exe/rbdock.cxx#4 $)

>  <Rbt.Library>
libRbt.so (2013.1, Build901 2013/11/27)

>  <Rbt.Parameter_File>
/export/apps/rDock/src/rDock_2013.1_src/data/scripts/dock_solv.prm

>  <Rbt.Receptor>
prm/blind_docking_100.prm

>  <SCORE>
-26.7823

>  <SCORE.INTER>
-13.3645

>  <SCORE.INTER.CONST>
1

>  <SCORE.INTER.POLAR>
0

>  <SCORE.INTER.ROT>
12

>  <SCORE.INTER.SOLV>
14.1771

>  <SCORE.INTER.VDW>
-25.2353

>  <SCORE.INTER.norm>
-0.431112

>  <SCORE.INTRA>
-13.4528

>  <SCORE.INTRA.DIHEDRAL>
3.16048

>  <SCORE.INTRA.DIHEDRAL.0>
14.6094

>  <SCORE.INTRA.POLAR>
0

>  <SCORE.INTRA.POLAR.0>
0

>  <SCORE.INTRA.REPUL>
0

>  <SCORE.INTRA.REPUL.0>
0

>  <SCORE.INTRA.SOLV>
0.624308

>  <SCORE.INTRA.SOLV.lig_0>
-65.6478

>  <SCORE.INTRA.VDW>
-15.3452

>  <SCORE.INTRA.VDW.0>
9.35535

>  <SCORE.INTRA.norm>
-0.433963

>  <SCORE.RESTR>
0.0350391

>  <SCORE.RESTR.CAVITY>
0.0350391

>  <SCORE.RESTR.norm>
0.0011303

>  <SCORE.SYSTEM>
0

>  <SCORE.SYSTEM.CONST>
0

>  <SCORE.SYSTEM.DIHEDRAL>
0

>  <SCORE.SYSTEM.SOLV>
0

>  <SCORE.SYSTEM.norm>
0

>  <SCORE.heavy>
31

>  <SCORE.norm>
-0.863944

>  <RMSD>
24.991

$$$$
ligand
 OpenBabel11021811443D
libRbt.so/2013.1/901 2013/11/27
 31 32  0  0  0  0  0  0  0  0999 V2000
    6.4675   13.4634   75.3899 C   0  0  0  0  0  0  0  0  0  0  0  0
    5.6498   13.5137   76.6772 C   0  0  0  0  0  0  0  0  0  0  0  0
    4.8017   12.4154   77.0329 C   0  0  0  0  0  0  0  0  0  0  0  0
    4.0430   12.4693   78.2268 C   0  0  0  0  0  0  0  0  0  0  0  0
    4.1208   13.5989   79.0778 C   0  0  0  0  0  0  0  0  0  0  0  0
    4.9548   14.6861   78.7466 C   0  0  0  0  0  0  0  0  0  0  0  0
    5.7151   14.6523   77.5639 C   0  0  0  0  0  0  0  0  0  0  0  0
    7.2110   12.5075   75.1714 O   0  0  0  0  0  0  0  0  0  0  0  0
   -2.7586   12.9935   74.5799 C   0  0  0  0  0  0  0  0  0  0  0  0
    4.2382   17.5049   73.3599 C   0  0  0  0  0  0  0  0  0  0  0  0
    9.3345   15.9843   76.5217 P   0  0  1  0  0  0  0  0  0  0  0  0
   -0.9758   14.5088   74.0701 N   0  0  0  0  0  0  0  0  0  0  0  0
    8.7331   14.6528   76.7273 O   0  0  0  0  0  0  0  0  0  0  0  0
    6.3839   14.4858   74.4607 S   0  0  0  0  0  0  0  0  0  0  0  0
    3.1968   14.7131   72.5312 C   0  0  0  0  0  0  0  0  0  0  0  0
   -1.3543   13.3567   74.7218 C   0  0  0  0  0  0  0  0  0  0  0  0
    8.9915   16.9866   77.5667 O   0  5  0  0  0  0  0  0  0  0  0  0
    3.3290   15.2240   73.7804 N   0  0  0  0  0  0  0  0  0  0  0  0
   -0.5489   12.6204   75.4213 N   0  0  0  0  0  0  0  0  0  0  0  0
   10.7908   15.8571   76.2826 O   0  0  0  0  0  0  0  0  0  0  0  0
    4.4612   16.1439   73.9616 C   0  0  2  0  0  0  0  0  0  0  0  0
    0.7798   12.9742   75.5573 C   0  0  0  0  0  0  0  0  0  0  0  0
    1.5797   12.1946   76.2889 N   0  0  0  0  0  0  0  0  0  0  0  0
    5.7129   15.8717   74.6616 C   0  0  1  0  0  0  0  0  0  0  0  0
    1.2560   14.1840   74.9050 C   0  0  0  0  0  0  0  0  0  0  0  0
    2.2496   15.1789   71.9368 O   0  0  0  0  0  0  0  0  0  0  0  0
    6.3888   16.8351   75.5715 C   0  0  0  0  0  0  0  0  0  0  0  0
    0.3208   14.8917   74.1775 C   0  0  0  0  0  0  0  0  0  0  0  0
    7.6165   17.5114   75.1344 C   0  0  0  0  0  0  0  0  0  0  0  0
    2.6855   14.6449   75.0530 C   0  0  0  0  0  0  0  0  0  0  0  0
    8.7472   16.6264   75.2164 O   0  0  0  0  0  0  0  0  0  0  0  0
  1  2  1  0  0  0  0
  1  8  2  0  0  0  0
  1 14  1  0  0  0  0
  2  3  2  0  0  0  0
  2  7  1  0  0  0  0
  3  4  1  0  0  0  0
  4  5  2  0  0  0  0
  5  6  1  0  0  0  0
  6  7  2  0  0  0  0
  9 16  1  0  0  0  0
 10 21  1  0  0  0  0
 11 13  1  1  0  0  0
 11 17  1  0  0  0  0
 11 20  2  0  0  0  0
 11 31  1  0  0  0  0
 12 16  2  0  0  0  0
 12 28  1  0  0  0  0
 15 26  1  0  0  0  0
 15 18  1  0  0  0  0
 16 19  1  0  0  0  0
 18 30  1  0  0  0  0
 19 22  2  0  0  0  0
 21 18  1  1  0  0  0
 21 24  1  0  0  0  0
 22 23  1  0  0  0  0
 22 25  1  0  0  0  0
 24 14  1  1  0  0  0
 24 27  1  0  0  0  0
 25 28  2  0  0  0  0
 25 30  1  0  0  0  0
 27 29  1  0  0  0  0
 29 31  1  0  0  0  0
M  CHG  1  17  -1
M  END
>  <CHROM.1>
-53.67243159,11.60878690,-108.80396123,-108.06551864,75.11334841,-42.03606701
-139.93720803,73.62176381,140.72447822,-76.92419453,-63.52345249,93.42182143
4.71028203,14.72700945,75.44044281,0.00269668,0.29698945,2.20798844

>  <Name>
ligand

>  <RI>
0

>  <Rbt.Current_Directory>
/home/itssahil/PROJECTS/Mol_Feturizer/New_Systems/rnas/2HOO

>  <Rbt.Executable>
rbdock ($Id: //depot/dev/client3/rdock/2013.1/src/exe/rbdock.cxx#4 $)

>  <Rbt.Library>
libRbt.so (2013.1, Build901 2013/11/27)

>  <Rbt.Parameter_File>
/export/apps/rDock/src/rDock_2013.1_src/data/scripts/dock_solv.prm

>  <Rbt.Receptor>
prm/blind_docking_100.prm

>  <SCORE>
-13.7526

>  <SCORE.INTER>
-0.581998

>  <SCORE.INTER.CONST>
1

>  <SCORE.INTER.POLAR>
0

>  <SCORE.INTER.ROT>
12

>  <SCORE.INTER.SOLV>
15.588

>  <SCORE.INTER.VDW>
-17.184

>  <SCORE.INTER.norm>
-0.0187741

>  <SCORE.INTRA>
-13.197

>  <SCORE.INTRA.DIHEDRAL>
2.17894

>  <SCORE.INTRA.DIHEDRAL.0>
14.6094

>  <SCORE.INTRA.POLAR>
0

>  <SCORE.INTRA.POLAR.0>
0

>  <SCORE.INTRA.REPUL>
0

>  <SCORE.INTRA.REPUL.0>
0

>  <SCORE.INTRA.SOLV>
2.61094

>  <SCORE.INTRA.SOLV.lig_0>
-65.6478

>  <SCORE.INTRA.VDW>
-15.592

>  <SCORE.INTRA.VDW.0>
9.35535

>  <SCORE.INTRA.norm>
-0.425711

>  <SCORE.RESTR>
0.0263976

>  <SCORE.RESTR.CAVITY>
0.0263976

>  <SCORE.RESTR.norm>
0.000851535

>  <SCORE.SYSTEM>
0

>  <SCORE.SYSTEM.CONST>
0

>  <SCORE.SYSTEM.DIHEDRAL>
0

>  <SCORE.SYSTEM.SOLV>
0

>  <SCORE.SYSTEM.norm>
0

>  <SCORE.heavy>
31

>  <SCORE.norm>
-0.443633

>  <RMSD>
25.053

$$$$
ligand
 OpenBabel11021811443D
libRbt.so/2013.1/901 2013/11/27
 31 32  0  0  0  0  0  0  0  0999 V2000
   26.3355   21.3185   35.0529 C   0  0  0  0  0  0  0  0  0  0  0  0
   25.8417   22.2279   36.1742 C   0  0  0  0  0  0  0  0  0  0  0  0
   25.5662   23.6088   35.9106 C   0  0  0  0  0  0  0  0  0  0  0  0
   25.1116   24.4483   36.9558 C   0  0  0  0  0  0  0  0  0  0  0  0
   24.9195   23.9321   38.2607 C   0  0  0  0  0  0  0  0  0  0  0  0
   25.1797   22.5744   38.5368 C   0  0  0  0  0  0  0  0  0  0  0  0
   25.6338   21.7246   37.5123 C   0  0  0  0  0  0  0  0  0  0  0  0
   27.3406   20.6283   35.2195 O   0  0  0  0  0  0  0  0  0  0  0  0
   17.7543   21.3370   39.2351 C   0  0  0  0  0  0  0  0  0  0  0  0
   22.6447   22.7387   35.3157 C   0  0  0  0  0  0  0  0  0  0  0  0
   24.9521   25.4568   32.2718 P   0  0  1  0  0  0  0  0  0  0  0  0
   19.5342   21.8598   37.7209 N   0  0  0  0  0  0  0  0  0  0  0  0
   25.6941   26.0526   33.3993 O   0  0  0  0  0  0  0  0  0  0  0  0
   25.6642   21.2611   33.8439 S   0  0  0  0  0  0  0  0  0  0  0  0
   23.4841   19.6679   36.1124 C   0  0  0  0  0  0  0  0  0  0  0  0
   18.5989   20.9313   38.1188 C   0  0  0  0  0  0  0  0  0  0  0  0
   24.2699   26.4423   31.3899 O   0  5  0  0  0  0  0  0  0  0  0  0
   22.7035   20.2524   35.1701 N   0  0  0  0  0  0  0  0  0  0  0  0
   18.4491   19.7688   37.5655 N   0  0  0  0  0  0  0  0  0  0  0  0
   25.8167   24.5062   31.5349 O   0  0  0  0  0  0  0  0  0  0  0  0
   23.2152   21.5231   34.6366 C   0  0  2  0  0  0  0  0  0  0  0  0
   19.2577   19.3879   36.5118 C   0  0  0  0  0  0  0  0  0  0  0  0
   19.0782   18.1812   35.9690 N   0  0  0  0  0  0  0  0  0  0  0  0
   24.1991   21.6982   33.5727 C   0  0  1  0  0  0  0  0  0  0  0  0
   20.2771   20.3109   36.0379 C   0  0  0  0  0  0  0  0  0  0  0  0
   23.0181   19.7641   37.2265 O   0  0  0  0  0  0  0  0  0  0  0  0
   23.8939   22.2832   32.2394 C   0  0  0  0  0  0  0  0  0  0  0  0
   20.3484   21.5257   36.6890 C   0  0  0  0  0  0  0  0  0  0  0  0
   23.1013   23.5158   32.1489 C   0  0  0  0  0  0  0  0  0  0  0  0
   21.2185   19.9342   34.9200 C   0  0  0  0  0  0  0  0  0  0  0  0
   23.7601   24.6006   32.8256 O   0  0  0  0  0  0  0  0  0  0  0  0
  1  2  1  0  0  0  0
  1  8  2  0  0  0  0
  1 14  1  0  0  0  0
  2  3  2  0  0  0  0
  2  7  1  0  0  0  0
  3  4  1  0  0  0  0
  4  5  2  0  0  0  0
  5  6  1  0  0  0  0
  6  7  2  0  0  0  0
  9 16  1  0  0  0  0
 10 21  1  0  0  0  0
 11 13  1  1  0  0  0
 11 17  1  0  0  0  0
 11 20  2  0  0  0  0
 11 31  1  0  0  0  0
 12 16  2  0  0  0  0
 12 28  1  0  0  0  0
 15 26  1  0  0  0  0
 15 18  1  0  0  0  0
 16 19  1  0  0  0  0
 18 30  1  0  0  0  0
 19 22  2  0  0  0  0
 21 18  1  1  0  0  0
 21 24  1  0  0  0  0
 22 23  1  0  0  0  0
 22 25  1  0  0  0  0
 24 14  1  1  0  0  0
 24 27  1  0  0  0  0
 25 28  2  0  0  0  0
 25 30  1  0  0  0  0
 27 29  1  0  0  0  0
 29 31  1  0  0  0  0
M  CHG  1  17  -1
M  END
>  <CHROM.1>
129.05184167,-19.46742300,-33.33518380,106.40843439,-95.67653313,66.19904020
110.95279354,-133.23612094,-133.49968224,60.76476754,79.10489547,-156.68348946
23.31289643,22.18837055,35.13973311,-0.80497835,0.06174057,2.27485940

>  <Name>
ligand

>  <RI>
0

>  <Rbt.Current_Directory>
/home/itssahil/PROJECTS/Mol_Feturizer/New_Systems/rnas/2HOO

>  <Rbt.Executable>
rbdock ($Id: //depot/dev/client3/rdock/2013.1/src/exe/rbdock.cxx#4 $)

>  <Rbt.Library>
libRbt.so (2013.1, Build901 2013/11/27)

>  <Rbt.Parameter_File>
/export/apps/rDock/src/rDock_2013.1_src/data/scripts/dock_solv.prm

>  <Rbt.Receptor>
prm/blind_docking_60.prm

>  <SCORE>
-27.8565

>  <SCORE.INTER>
-14.4234

>  <SCORE.INTER.CONST>
1

>  <SCORE.INTER.POLAR>
0

>  <SCORE.INTER.ROT>
12

>  <SCORE.INTER.SOLV>
13.3035

>  <SCORE.INTER.VDW>
-25.6501

>  <SCORE.INTER.norm>
-0.465272

>  <SCORE.INTRA>
-13.433

>  <SCORE.INTRA.DIHEDRAL>
0.74649

>  <SCORE.INTRA.DIHEDRAL.0>
14.6094

>  <SCORE.INTRA.POLAR>
0

>  <SCORE.INTRA.POLAR.0>
0

>  <SCORE.INTRA.REPUL>
0

>  <SCORE.INTRA.REPUL.0>
0

>  <SCORE.INTRA.SOLV>
2.03233

>  <SCORE.INTRA.SOLV.lig_0>
-65.6478

>  <SCORE.INTRA.VDW>
-14.8224

>  <SCORE.INTRA.VDW.0>
9.35535

>  <SCORE.INTRA.norm>
-0.433323

>  <SCORE.RESTR>
0

>  <SCORE.RESTR.CAVITY>
0

>  <SCORE.RESTR.norm>
0

>  <SCORE.SYSTEM>
0

>  <SCORE.SYSTEM.CONST>
0

>  <SCORE.SYSTEM.DIHEDRAL>
0

>  <SCORE.SYSTEM.SOLV>
0

>  <SCORE.SYSTEM.norm>
0

>  <SCORE.heavy>
31

>  <SCORE.norm>
-0.898595

>  <RMSD>
25.150

$$$$
ligand
 OpenBabel11021811443D
libRbt.so/2013.1/901 2013/11/27
 31 32  0  0  0  0  0  0  0  0999 V2000
   24.6892   22.5963   32.5185 C   0  0  0  0  0  0  0  0  0  0  0  0
   25.7086   22.0091   33.4902 C   0  0  0  0  0  0  0  0  0  0  0  0
   25.8535   20.5887   33.6080 C   0  0  0  0  0  0  0  0  0  0  0  0
   26.7986   20.0499   34.5137 C   0  0  0  0  0  0  0  0  0  0  0  0
   27.6087   20.9046   35.3007 C   0  0  0  0  0  0  0  0  0  0  0  0
   27.4839   22.3047   35.1934 C   0  0  0  0  0  0  0  0  0  0  0  0
   26.5494   22.8595   34.3007 C   0  0  0  0  0  0  0  0  0  0  0  0
   25.0703   23.2644   31.5578 O   0  0  0  0  0  0  0  0  0  0  0  0
   19.7061   20.4400   41.0087 C   0  0  0  0  0  0  0  0  0  0  0  0
   19.7036   23.4522   33.1967 C   0  0  0  0  0  0  0  0  0  0  0  0
   22.8176   28.6254   32.2392 P   0  0  1  0  0  0  0  0  0  0  0  0
   18.9148   21.3611   38.9447 N   0  0  0  0  0  0  0  0  0  0  0  0
   21.6004   28.9708   32.9981 O   0  0  0  0  0  0  0  0  0  0  0  0
   23.3340   22.3870   32.7060 S   0  0  0  0  0  0  0  0  0  0  0  0
   21.5821   23.6236   36.0106 C   0  0  0  0  0  0  0  0  0  0  0  0
   19.9095   20.6539   39.5815 C   0  0  0  0  0  0  0  0  0  0  0  0
   22.9164   29.2692   30.9013 O   0  5  0  0  0  0  0  0  0  0  0  0
   21.1352   22.7229   35.1007 N   0  0  0  0  0  0  0  0  0  0  0  0
   20.9667   20.1943   38.9888 N   0  0  0  0  0  0  0  0  0  0  0  0
   24.0201   28.8269   33.0804 O   0  0  0  0  0  0  0  0  0  0  0  0
   21.0954   23.2056   33.7127 C   0  0  2  0  0  0  0  0  0  0  0  0
   21.1567   20.4064   37.6367 C   0  0  0  0  0  0  0  0  0  0  0  0
   22.2596   19.9225   37.0601 N   0  0  0  0  0  0  0  0  0  0  0  0
   22.2354   23.4759   32.8420 C   0  0  1  0  0  0  0  0  0  0  0  0
   20.1535   21.1532   36.8940 C   0  0  0  0  0  0  0  0  0  0  0  0
   22.7268   23.9627   35.8050 O   0  0  0  0  0  0  0  0  0  0  0  0
   22.4242   24.7391   32.0794 C   0  0  0  0  0  0  0  0  0  0  0  0
   19.0620   21.5910   37.6164 C   0  0  0  0  0  0  0  0  0  0  0  0
   22.5164   26.0166   32.7973 C   0  0  0  0  0  0  0  0  0  0  0  0
   20.3268   21.4540   35.4252 C   0  0  0  0  0  0  0  0  0  0  0  0
   22.7986   27.0962   31.8899 O   0  0  0  0  0  0  0  0  0  0  0  0
  1  2  1  0  0  0  0
  1  8  2  0  0  0  0
  1 14  1  0  0  0  0
  2  3  2  0  0  0  0
  2  7  1  0  0  0  0
  3  4  1  0  0  0  0
  4  5  2  0  0  0  0
  5  6  1  0  0  0  0
  6  7  2  0  0  0  0
  9 16  1  0  0  0  0
 10 21  1  0  0  0  0
 11 13  1  1  0  0  0
 11 17  1  0  0  0  0
 11 20  2  0  0  0  0
 11 31  1  0  0  0  0
 12 16  2  0  0  0  0
 12 28  1  0  0  0  0
 15 26  1  0  0  0  0
 15 18  1  0  0  0  0
 16 19  1  0  0  0  0
 18 30  1  0  0  0  0
 19 22  2  0  0  0  0
 21 18  1  1  0  0  0
 21 24  1  0  0  0  0
 22 23  1  0  0  0  0
 22 25  1  0  0  0  0
 24 14  1  1  0  0  0
 24 27  1  0  0  0  0
 25 28  2  0  0  0  0
 25 30  1  0  0  0  0
 27 29  1  0  0  0  0
 29 31  1  0  0  0  0
M  CHG  1  17  -1
M  END
>  <CHROM.1>
-115.33061357,123.62441359,-146.70335181,-62.25785308,-107.93479314,-6.21021966
-131.35774225,-119.54862630,-85.91775050,175.59934030,172.85269715,-47.95071396
22.64893730,23.51316920,34.55726447,-1.27311321,-0.50539728,2.55466977

>  <Name>
ligand

>  <RI>
0

>  <Rbt.Current_Directory>
/home/itssahil/PROJECTS/Mol_Feturizer/New_Systems/rnas/2HOO

>  <Rbt.Executable>
rbdock ($Id: //depot/dev/client3/rdock/2013.1/src/exe/rbdock.cxx#4 $)

>  <Rbt.Library>
libRbt.so (2013.1, Build901 2013/11/27)

>  <Rbt.Parameter_File>
/export/apps/rDock/src/rDock_2013.1_src/data/scripts/dock_solv.prm

>  <Rbt.Receptor>
prm/blind_docking_80.prm

>  <SCORE>
-25.9669

>  <SCORE.INTER>
-14.5674

>  <SCORE.INTER.CONST>
1

>  <SCORE.INTER.POLAR>
0

>  <SCORE.INTER.ROT>
12

>  <SCORE.INTER.SOLV>
13.8197

>  <SCORE.INTER.VDW>
-25.9181

>  <SCORE.INTER.norm>
-0.469915

>  <SCORE.INTRA>
-11.3996

>  <SCORE.INTRA.DIHEDRAL>
0.993847

>  <SCORE.INTRA.DIHEDRAL.0>
14.6094

>  <SCORE.INTRA.POLAR>
0

>  <SCORE.INTRA.POLAR.0>
0

>  <SCORE.INTRA.REPUL>
0

>  <SCORE.INTRA.REPUL.0>
0

>  <SCORE.INTRA.SOLV>
1.08821

>  <SCORE.INTRA.SOLV.lig_0>
-65.6478

>  <SCORE.INTRA.VDW>
-12.4406

>  <SCORE.INTRA.VDW.0>
9.35535

>  <SCORE.INTRA.norm>
-0.367729

>  <SCORE.RESTR>
0

>  <SCORE.RESTR.CAVITY>
0

>  <SCORE.RESTR.norm>
0

>  <SCORE.SYSTEM>
0

>  <SCORE.SYSTEM.CONST>
0

>  <SCORE.SYSTEM.DIHEDRAL>
0

>  <SCORE.SYSTEM.SOLV>
0

>  <SCORE.SYSTEM.norm>
0

>  <SCORE.heavy>
31

>  <SCORE.norm>
-0.837643

>  <RMSD>
25.167

$$$$
ligand
 OpenBabel11021811443D
libRbt.so/2013.1/901 2013/11/27
 31 32  0  0  0  0  0  0  0  0999 V2000
    4.6601   12.0202   75.2059 C   0  0  0  0  0  0  0  0  0  0  0  0
    4.4008   11.2577   76.5018 C   0  0  0  0  0  0  0  0  0  0  0  0
    3.6072   11.8496   77.5372 C   0  0  0  0  0  0  0  0  0  0  0  0
    3.3729   11.1386   78.7386 C   0  0  0  0  0  0  0  0  0  0  0  0
    3.9114    9.8416   78.9233 C   0  0  0  0  0  0  0  0  0  0  0  0
    4.6895    9.2412   77.9127 C   0  0  0  0  0  0  0  0  0  0  0  0
    4.9352    9.9322   76.7126 C   0  0  0  0  0  0  0  0  0  0  0  0
    4.9984   11.4108   74.1917 O   0  0  0  0  0  0  0  0  0  0  0  0
    0.1380   14.3760   75.3787 C   0  0  0  0  0  0  0  0  0  0  0  0
    6.6414   13.6940   77.5399 C   0  0  0  0  0  0  0  0  0  0  0  0
    8.9154   13.3539   73.2991 P   0  0  1  0  0  0  0  0  0  0  0  0
    1.7666   14.3876   77.1342 N   0  0  0  0  0  0  0  0  0  0  0  0
    9.9285   12.4846   73.9275 O   0  0  0  0  0  0  0  0  0  0  0  0
    4.5201   13.3964   75.1570 S   0  0  0  0  0  0  0  0  0  0  0  0
    7.1461   16.9109   76.9746 C   0  0  0  0  0  0  0  0  0  0  0  0
    1.3104   14.9937   75.9855 C   0  0  0  0  0  0  0  0  0  0  0  0
    9.3960   14.1020   72.1060 O   0  5  0  0  0  0  0  0  0  0  0  0
    6.0964   16.1119   77.2889 N   0  0  0  0  0  0  0  0  0  0  0  0
    1.8569   16.0402   75.4506 N   0  0  0  0  0  0  0  0  0  0  0  0
    7.6684   12.5928   73.0544 O   0  0  0  0  0  0  0  0  0  0  0  0
    6.1089   14.7867   76.6529 C   0  0  2  0  0  0  0  0  0  0  0  0
    2.9724   16.6169   76.0274 C   0  0  0  0  0  0  0  0  0  0  0  0
    3.5118   17.6915   75.4467 N   0  0  0  0  0  0  0  0  0  0  0  0
    5.6494   14.4514   75.3086 C   0  0  1  0  0  0  0  0  0  0  0  0
    3.5207   16.0294   77.2398 C   0  0  0  0  0  0  0  0  0  0  0  0
    8.0793   16.7721   77.7345 O   0  0  0  0  0  0  0  0  0  0  0  0
    6.2022   15.0475   74.0628 C   0  0  0  0  0  0  0  0  0  0  0  0
    2.8597   14.9226   77.7327 C   0  0  0  0  0  0  0  0  0  0  0  0
    7.5787   15.5583   74.0484 C   0  0  0  0  0  0  0  0  0  0  0  0
    4.7623   16.5883   77.8908 C   0  0  0  0  0  0  0  0  0  0  0  0
    8.5215   14.5004   74.2945 O   0  0  0  0  0  0  0  0  0  0  0  0
  1  2  1  0  0  0  0
  1  8  2  0  0  0  0
  1 14  1  0  0  0  0
  2  3  2  0  0  0  0
  2  7  1  0  0  0  0
  3  4  1  0  0  0  0
  4  5  2  0  0  0  0
  5  6  1  0  0  0  0
  6  7  2  0  0  0  0
  9 16  1  0  0  0  0
 10 21  1  0  0  0  0
 11 13  1  1  0  0  0
 11 17  1  0  0  0  0
 11 20  2  0  0  0  0
 11 31  1  0  0  0  0
 12 16  2  0  0  0  0
 12 28  1  0  0  0  0
 15 26  1  0  0  0  0
 15 18  1  0  0  0  0
 16 19  1  0  0  0  0
 18 30  1  0  0  0  0
 19 22  2  0  0  0  0
 21 18  1  1  0  0  0
 21 24  1  0  0  0  0
 22 23  1  0  0  0  0
 22 25  1  0  0  0  0
 24 14  1  6  0  0  0
 24 27  1  0  0  0  0
 25 28  2  0  0  0  0
 25 30  1  0  0  0  0
 27 29  1  0  0  0  0
 29 31  1  0  0  0  0
M  CHG  1  17  -1
M  END
>  <CHROM.1>
-159.50945677,96.26152016,-80.17996700,-89.91736194,98.30089248,133.44044429
57.75429631,-153.32714233,-82.71927088,62.73974947,72.62297305,179.20356490
5.40390500,13.95328908,75.75196174,3.13652023,0.47867127,-0.05185083

>  <Name>
ligand

>  <RI>
0

>  <Rbt.Current_Directory>
/home/itssahil/PROJECTS/Mol_Feturizer/New_Systems/rnas/2HOO

>  <Rbt.Executable>
rbdock ($Id: //depot/dev/client3/rdock/2013.1/src/exe/rbdock.cxx#4 $)

>  <Rbt.Library>
libRbt.so (2013.1, Build901 2013/11/27)

>  <Rbt.Parameter_File>
/export/apps/rDock/src/rDock_2013.1_src/data/scripts/dock_solv.prm

>  <Rbt.Receptor>
prm/blind_docking_100.prm

>  <SCORE>
-16.4008

>  <SCORE.INTER>
-5.14334

>  <SCORE.INTER.CONST>
1

>  <SCORE.INTER.POLAR>
0

>  <SCORE.INTER.ROT>
12

>  <SCORE.INTER.SOLV>
15.8615

>  <SCORE.INTER.VDW>
-20.3161

>  <SCORE.INTER.norm>
-0.165914

>  <SCORE.INTRA>
-11.2729

>  <SCORE.INTRA.DIHEDRAL>
5.06977

>  <SCORE.INTRA.DIHEDRAL.0>
14.6094

>  <SCORE.INTRA.POLAR>
0

>  <SCORE.INTRA.POLAR.0>
0

>  <SCORE.INTRA.REPUL>
0

>  <SCORE.INTRA.REPUL.0>
0

>  <SCORE.INTRA.SOLV>
6.80326

>  <SCORE.INTRA.SOLV.lig_0>
-65.6478

>  <SCORE.INTRA.VDW>
-17.2094

>  <SCORE.INTRA.VDW.0>
9.35535

>  <SCORE.INTRA.norm>
-0.363642

>  <SCORE.RESTR>
0.0154598

>  <SCORE.RESTR.CAVITY>
0.0154598

>  <SCORE.RESTR.norm>
0.000498704

>  <SCORE.SYSTEM>
0

>  <SCORE.SYSTEM.CONST>
0

>  <SCORE.SYSTEM.DIHEDRAL>
0

>  <SCORE.SYSTEM.SOLV>
0

>  <SCORE.SYSTEM.norm>
0

>  <SCORE.heavy>
31

>  <SCORE.norm>
-0.529058

>  <RMSD>
25.239

$$$$
ligand
 OpenBabel11021811443D
libRbt.so/2013.1/901 2013/11/27
 31 32  0  0  0  0  0  0  0  0999 V2000
    4.7889   16.5223   77.9696 C   0  0  0  0  0  0  0  0  0  0  0  0
    6.2229   16.2361   77.5341 C   0  0  0  0  0  0  0  0  0  0  0  0
    6.7135   14.8903   77.5165 C   0  0  0  0  0  0  0  0  0  0  0  0
    8.0459   14.6316   77.1147 C   0  0  0  0  0  0  0  0  0  0  0  0
    8.8977   15.6930   76.7222 C   0  0  0  0  0  0  0  0  0  0  0  0
    8.4299   17.0228   76.7275 C   0  0  0  0  0  0  0  0  0  0  0  0
    7.1099   17.3007   77.1252 C   0  0  0  0  0  0  0  0  0  0  0  0
    4.5525   17.4658   78.7236 O   0  0  0  0  0  0  0  0  0  0  0  0
   -0.2471   15.9582   72.7326 C   0  0  0  0  0  0  0  0  0  0  0  0
    4.2653   12.1857   78.3549 C   0  0  0  0  0  0  0  0  0  0  0  0
    5.1223   13.9856   72.4824 P   0  0  1  0  0  0  0  0  0  0  0  0
    1.3117   14.5273   73.8537 N   0  0  0  0  0  0  0  0  0  0  0  0
    6.0679   14.1256   71.3586 O   0  0  0  0  0  0  0  0  0  0  0  0
    3.7452   15.7288   77.5260 S   0  0  0  0  0  0  0  0  0  0  0  0
    1.4030   13.5326   79.1411 C   0  0  0  0  0  0  0  0  0  0  0  0
    0.0248   15.0142   73.8092 C   0  0  0  0  0  0  0  0  0  0  0  0
    3.7327   14.4238   72.1804 O   0  5  0  0  0  0  0  0  0  0  0  0
    1.9012   12.9081   78.0453 N   0  0  0  0  0  0  0  0  0  0  0  0
   -0.9068   14.6812   74.6467 N   0  0  0  0  0  0  0  0  0  0  0  0
    5.1992   12.6192   73.0492 O   0  0  0  0  0  0  0  0  0  0  0  0
    3.3153   13.1878   77.7568 C   0  0  2  0  0  0  0  0  0  0  0  0
   -0.6404   13.7907   75.6692 C   0  0  0  0  0  0  0  0  0  0  0  0
   -1.6228   13.4738   76.5161 N   0  0  0  0  0  0  0  0  0  0  0  0
    3.8499   14.2871   76.9589 C   0  0  1  0  0  0  0  0  0  0  0  0
    0.6996   13.2375   75.7890 C   0  0  0  0  0  0  0  0  0  0  0  0
    0.9891   14.6440   78.8943 O   0  0  0  0  0  0  0  0  0  0  0  0
    4.4825   14.1202   75.6229 C   0  0  0  0  0  0  0  0  0  0  0  0
    1.6152   13.6497   74.8421 C   0  0  0  0  0  0  0  0  0  0  0  0
    4.7568   15.3008   74.7943 C   0  0  0  0  0  0  0  0  0  0  0  0
    1.0621   12.2946   76.9103 C   0  0  0  0  0  0  0  0  0  0  0  0
    5.5470   14.9491   73.6452 O   0  0  0  0  0  0  0  0  0  0  0  0
  1  2  1  0  0  0  0
  1  8  2  0  0  0  0
  1 14  1  0  0  0  0
  2  3  2  0  0  0  0
  2  7  1  0  0  0  0
  3  4  1  0  0  0  0
  4  5  2  0  0  0  0
  5  6  1  0  0  0  0
  6  7  2  0  0  0  0
  9 16  1  0  0  0  0
 10 21  1  0  0  0  0
 11 13  1  6  0  0  0
 11 17  1  0  0  0  0
 11 20  2  0  0  0  0
 11 31  1  0  0  0  0
 12 16  2  0  0  0  0
 12 28  1  0  0  0  0
 15 26  1  0  0  0  0
 15 18  1  0  0  0  0
 16 19  1  0  0  0  0
 18 30  1  0  0  0  0
 19 22  2  0  0  0  0
 21 18  1  6  0  0  0
 21 24  1  0  0  0  0
 22 23  1  0  0  0  0
 22 25  1  0  0  0  0
 24 14  1  6  0  0  0
 24 27  1  0  0  0  0
 25 28  2  0  0  0  0
 25 30  1  0  0  0  0
 27 29  1  0  0  0  0
 29 31  1  0  0  0  0
M  CHG  1  17  -1
M  END
>  <CHROM.1>
136.43408879,20.20980211,110.63672857,86.67230159,93.22210029,88.08962895
-111.70723745,-10.96761598,-104.09563783,171.20539736,63.27901446,167.18579517
3.58523740,14.58704005,75.80539738,0.08306771,0.22409498,1.45223974

>  <Name>
ligand

>  <RI>
0

>  <Rbt.Current_Directory>
/home/itssahil/PROJECTS/Mol_Feturizer/New_Systems/rnas/2HOO

>  <Rbt.Executable>
rbdock ($Id: //depot/dev/client3/rdock/2013.1/src/exe/rbdock.cxx#4 $)

>  <Rbt.Library>
libRbt.so (2013.1, Build901 2013/11/27)

>  <Rbt.Parameter_File>
/export/apps/rDock/src/rDock_2013.1_src/data/scripts/dock_solv.prm

>  <Rbt.Receptor>
prm/blind_docking_100.prm

>  <SCORE>
-22.3108

>  <SCORE.INTER>
-8.95813

>  <SCORE.INTER.CONST>
1

>  <SCORE.INTER.POLAR>
0

>  <SCORE.INTER.ROT>
12

>  <SCORE.INTER.SOLV>
14.0149

>  <SCORE.INTER.VDW>
-22.2437

>  <SCORE.INTER.norm>
-0.288972

>  <SCORE.INTRA>
-13.4748

>  <SCORE.INTRA.DIHEDRAL>
-2.33539

>  <SCORE.INTRA.DIHEDRAL.0>
14.6094

>  <SCORE.INTRA.POLAR>
0

>  <SCORE.INTRA.POLAR.0>
0

>  <SCORE.INTRA.REPUL>
0

>  <SCORE.INTRA.REPUL.0>
0

>  <SCORE.INTRA.SOLV>
3.77144

>  <SCORE.INTRA.SOLV.lig_0>
-65.6478

>  <SCORE.INTRA.VDW>
-14.1928

>  <SCORE.INTRA.VDW.0>
9.35535

>  <SCORE.INTRA.norm>
-0.434671

>  <SCORE.RESTR>
0.12214

>  <SCORE.RESTR.CAVITY>
0.12214

>  <SCORE.RESTR.norm>
0.00394

>  <SCORE.SYSTEM>
0

>  <SCORE.SYSTEM.CONST>
0

>  <SCORE.SYSTEM.DIHEDRAL>
0

>  <SCORE.SYSTEM.SOLV>
0

>  <SCORE.SYSTEM.norm>
0

>  <SCORE.heavy>
31

>  <SCORE.norm>
-0.719703

>  <RMSD>
25.404

$$$$
ligand
 OpenBabel11021811443D
libRbt.so/2013.1/901 2013/11/27
 31 32  0  0  0  0  0  0  0  0999 V2000
   23.0749   25.3864   33.7799 C   0  0  0  0  0  0  0  0  0  0  0  0
   23.9323   26.5233   33.2318 C   0  0  0  0  0  0  0  0  0  0  0  0
   24.9827   27.0805   34.0308 C   0  0  0  0  0  0  0  0  0  0  0  0
   25.7725   28.1375   33.5180 C   0  0  0  0  0  0  0  0  0  0  0  0
   25.5374   28.6450   32.2167 C   0  0  0  0  0  0  0  0  0  0  0  0
   24.5121   28.1046   31.4142 C   0  0  0  0  0  0  0  0  0  0  0  0
   23.7153   27.0553   31.9063 C   0  0  0  0  0  0  0  0  0  0  0  0
   22.3093   25.5929   34.7209 O   0  0  0  0  0  0  0  0  0  0  0  0
   26.8773   22.1057   40.9946 C   0  0  0  0  0  0  0  0  0  0  0  0
   21.1258   21.1197   34.8499 C   0  0  0  0  0  0  0  0  0  0  0  0
   20.3575   26.0364   31.6373 P   0  0  1  0  0  0  0  0  0  0  0  0
   25.1425   21.4425   39.4830 N   0  0  0  0  0  0  0  0  0  0  0  0
   21.3919   25.4733   30.7487 O   0  0  0  0  0  0  0  0  0  0  0  0
   23.1491   24.1185   33.2297 S   0  0  0  0  0  0  0  0  0  0  0  0
   24.3655   21.1604   35.1249 C   0  0  0  0  0  0  0  0  0  0  0  0
   26.0502   22.4157   39.8354 C   0  0  0  0  0  0  0  0  0  0  0  0
   20.7943   27.2230   32.4217 O   0  5  0  0  0  0  0  0  0  0  0  0
   23.3668   22.0053   35.4824 N   0  0  0  0  0  0  0  0  0  0  0  0
   26.1894   23.5405   39.2064 N   0  0  0  0  0  0  0  0  0  0  0  0
   19.1009   26.2575   30.8847 O   0  0  0  0  0  0  0  0  0  0  0  0
   22.2430   22.0780   34.5375 C   0  0  2  0  0  0  0  0  0  0  0  0
   25.3973   23.8309   38.1121 C   0  0  0  0  0  0  0  0  0  0  0  0
   25.5652   25.0010   37.4911 N   0  0  0  0  0  0  0  0  0  0  0  0
   22.1133   22.9730   33.3917 C   0  0  1  0  0  0  0  0  0  0  0  0
   24.4072   22.8561   37.6817 C   0  0  0  0  0  0  0  0  0  0  0  0
   25.2923   21.7342   34.5964 O   0  0  0  0  0  0  0  0  0  0  0  0
   21.0402   22.8692   32.3667 C   0  0  0  0  0  0  0  0  0  0  0  0
   24.3453   21.6876   38.4136 C   0  0  0  0  0  0  0  0  0  0  0  0
   19.7734   23.5849   32.5633 C   0  0  0  0  0  0  0  0  0  0  0  0
   23.4839   23.1351   36.5209 C   0  0  0  0  0  0  0  0  0  0  0  0
   20.0028   24.9921   32.7529 O   0  0  0  0  0  0  0  0  0  0  0  0
  1  2  1  0  0  0  0
  1  8  2  0  0  0  0
  1 14  1  0  0  0  0
  2  3  2  0  0  0  0
  2  7  1  0  0  0  0
  3  4  1  0  0  0  0
  4  5  2  0  0  0  0
  5  6  1  0  0  0  0
  6  7  2  0  0  0  0
  9 16  1  0  0  0  0
 10 21  1  0  0  0  0
 11 13  1  6  0  0  0
 11 17  1  0  0  0  0
 11 20  2  0  0  0  0
 11 31  1  0  0  0  0
 12 16  2  0  0  0  0
 12 28  1  0  0  0  0
 15 26  1  0  0  0  0
 15 18  1  0  0  0  0
 16 19  1  0  0  0  0
 18 30  1  0  0  0  0
 19 22  2  0  0  0  0
 21 18  1  1  0  0  0
 21 24  1  0  0  0  0
 22 23  1  0  0  0  0
 22 25  1  0  0  0  0
 24 14  1  1  0  0  0
 24 27  1  0  0  0  0
 25 28  2  0  0  0  0
 25 30  1  0  0  0  0
 27 29  1  0  0  0  0
 29 31  1  0  0  0  0
M  CHG  1  17  -1
M  END
>  <CHROM.1>
67.57634550,-162.37957811,-87.57374838,98.13394706,92.34736123,-33.77009407
169.38134138,-90.09903851,132.38762610,56.19379156,76.33049399,-44.80070775
23.17367223,24.33980678,34.52767244,-2.20467211,0.66019295,2.48817227

>  <Name>
ligand

>  <RI>
0

>  <Rbt.Current_Directory>
/home/itssahil/PROJECTS/Mol_Feturizer/New_Systems/rnas/2HOO

>  <Rbt.Executable>
rbdock ($Id: //depot/dev/client3/rdock/2013.1/src/exe/rbdock.cxx#4 $)

>  <Rbt.Library>
libRbt.so (2013.1, Build901 2013/11/27)

>  <Rbt.Parameter_File>
/export/apps/rDock/src/rDock_2013.1_src/data/scripts/dock_solv.prm

>  <Rbt.Receptor>
prm/blind_docking_80.prm

>  <SCORE>
-25.4413

>  <SCORE.INTER>
-11.7884

>  <SCORE.INTER.CONST>
1

>  <SCORE.INTER.POLAR>
0

>  <SCORE.INTER.ROT>
12

>  <SCORE.INTER.SOLV>
11.0855

>  <SCORE.INTER.VDW>
-23.1541

>  <SCORE.INTER.norm>
-0.38027

>  <SCORE.INTRA>
-13.6682

>  <SCORE.INTRA.DIHEDRAL>
0.0779279

>  <SCORE.INTRA.DIHEDRAL.0>
14.6094

>  <SCORE.INTRA.POLAR>
0

>  <SCORE.INTRA.POLAR.0>
0

>  <SCORE.INTRA.REPUL>
0

>  <SCORE.INTRA.REPUL.0>
0

>  <SCORE.INTRA.SOLV>
4.76212

>  <SCORE.INTRA.SOLV.lig_0>
-65.6478

>  <SCORE.INTRA.VDW>
-16.0882

>  <SCORE.INTRA.VDW.0>
9.35535

>  <SCORE.INTRA.norm>
-0.44091

>  <SCORE.RESTR>
0.0152605

>  <SCORE.RESTR.CAVITY>
0.0152605

>  <SCORE.RESTR.norm>
0.000492273

>  <SCORE.SYSTEM>
0

>  <SCORE.SYSTEM.CONST>
0

>  <SCORE.SYSTEM.DIHEDRAL>
0

>  <SCORE.SYSTEM.SOLV>
0

>  <SCORE.SYSTEM.norm>
0

>  <SCORE.heavy>
31

>  <SCORE.norm>
-0.820688

>  <RMSD>
25.463

$$$$
ligand
 OpenBabel11021811443D
libRbt.so/2013.1/901 2013/11/27
 31 32  0  0  0  0  0  0  0  0999 V2000
   24.5757   23.1601   36.9238 C   0  0  0  0  0  0  0  0  0  0  0  0
   25.2822   22.0671   36.1274 C   0  0  0  0  0  0  0  0  0  0  0  0
   26.4128   22.3910   35.3095 C   0  0  0  0  0  0  0  0  0  0  0  0
   27.0620   21.3732   34.5703 C   0  0  0  0  0  0  0  0  0  0  0  0
   26.6070   20.0336   34.6381 C   0  0  0  0  0  0  0  0  0  0  0  0
   25.4997   19.6957   35.4425 C   0  0  0  0  0  0  0  0  0  0  0  0
   24.8401   20.6929   36.1830 C   0  0  0  0  0  0  0  0  0  0  0  0
   25.0685   23.5710   37.9739 O   0  0  0  0  0  0  0  0  0  0  0  0
   24.2210   30.4299   30.4794 C   0  0  0  0  0  0  0  0  0  0  0  0
   23.2111   22.6117   32.9865 C   0  0  0  0  0  0  0  0  0  0  0  0
   21.1499   19.8191   38.0528 P   0  0  1  0  0  0  0  0  0  0  0  0
   24.9039   28.4192   31.5862 N   0  0  0  0  0  0  0  0  0  0  0  0
   22.5713   20.0694   38.3590 O   0  0  0  0  0  0  0  0  0  0  0  0
   23.3803   23.6970   36.4781 S   0  0  0  0  0  0  0  0  0  0  0  0
   21.1861   25.0190   32.7930 C   0  0  0  0  0  0  0  0  0  0  0  0
   23.8939   29.3315   31.3798 C   0  0  0  0  0  0  0  0  0  0  0  0
   20.6743   18.4514   38.3953 O   0  5  0  0  0  0  0  0  0  0  0  0
   22.3609   24.9049   33.4607 N   0  0  0  0  0  0  0  0  0  0  0  0
   22.7221   29.2538   31.9284 N   0  0  0  0  0  0  0  0  0  0  0  0
   20.3063   20.8959   38.6214 O   0  0  0  0  0  0  0  0  0  0  0  0
   22.6440   23.5674   34.0011 C   0  0  2  0  0  0  0  0  0  0  0  0
   22.4208   28.2134   32.7864 C   0  0  0  0  0  0  0  0  0  0  0  0
   21.2052   28.1675   33.3370 N   0  0  0  0  0  0  0  0  0  0  0  0
   22.4539   23.1154   35.3760 C   0  0  1  0  0  0  0  0  0  0  0  0
   23.4390   27.2120   33.0627 C   0  0  0  0  0  0  0  0  0  0  0  0
   21.3328   25.0132   31.5906 O   0  0  0  0  0  0  0  0  0  0  0  0
   21.4327   22.1182   35.7948 C   0  0  0  0  0  0  0  0  0  0  0  0
   24.6494   27.3817   32.4216 C   0  0  0  0  0  0  0  0  0  0  0  0
   21.6750   20.6880   35.5674 C   0  0  0  0  0  0  0  0  0  0  0  0
   23.1834   26.0773   34.0245 C   0  0  0  0  0  0  0  0  0  0  0  0
   20.9304   19.8864   36.5010 O   0  0  0  0  0  0  0  0  0  0  0  0
  1  2  1  0  0  0  0
  1  8  2  0  0  0  0
  1 14  1  0  0  0  0
  2  3  2  0  0  0  0
  2  7  1  0  0  0  0
  3  4  1  0  0  0  0
  4  5  2  0  0  0  0
  5  6  1  0  0  0  0
  6  7  2  0  0  0  0
  9 16  1  0  0  0  0
 10 21  1  0  0  0  0
 11 13  1  1  0  0  0
 11 17  1  0  0  0  0
 11 20  2  0  0  0  0
 11 31  1  0  0  0  0
 12 16  2  0  0  0  0
 12 28  1  0  0  0  0
 15 26  1  0  0  0  0
 15 18  1  0  0  0  0
 16 19  1  0  0  0  0
 18 30  1  0  0  0  0
 19 22  2  0  0  0  0
 21 18  1  1  0  0  0
 21 24  1  0  0  0  0
 22 23  1  0  0  0  0
 22 25  1  0  0  0  0
 24 14  1  6  0  0  0
 24 27  1  0  0  0  0
 25 28  2  0  0  0  0
 25 30  1  0  0  0  0
 27 29  1  0  0  0  0
 29 31  1  0  0  0  0
M  CHG  1  17  -1
M  END
>  <CHROM.1>
-78.09304794,14.40630298,-92.17004186,-102.04013723,81.47021492,-49.37553928
109.78355667,-101.05183303,79.33558411,154.94254443,-66.45484508,-30.16529046
23.07942578,23.58499492,34.96408502,-1.66866806,0.15188777,-0.57476716

>  <Name>
ligand

>  <RI>
0

>  <Rbt.Current_Directory>
/home/itssahil/PROJECTS/Mol_Feturizer/New_Systems/rnas/2HOO

>  <Rbt.Executable>
rbdock ($Id: //depot/dev/client3/rdock/2013.1/src/exe/rbdock.cxx#4 $)

>  <Rbt.Library>
libRbt.so (2013.1, Build901 2013/11/27)

>  <Rbt.Parameter_File>
/export/apps/rDock/src/rDock_2013.1_src/data/scripts/dock_solv.prm

>  <Rbt.Receptor>
prm/blind_docking_100.prm

>  <SCORE>
-27.5643

>  <SCORE.INTER>
-14.21

>  <SCORE.INTER.CONST>
1

>  <SCORE.INTER.POLAR>
0

>  <SCORE.INTER.ROT>
12

>  <SCORE.INTER.SOLV>
12.9674

>  <SCORE.INTER.VDW>
-25.3958

>  <SCORE.INTER.norm>
-0.458388

>  <SCORE.INTRA>
-13.3676

>  <SCORE.INTRA.DIHEDRAL>
2.08137

>  <SCORE.INTRA.DIHEDRAL.0>
14.6094

>  <SCORE.INTRA.POLAR>
0

>  <SCORE.INTRA.POLAR.0>
0

>  <SCORE.INTRA.REPUL>
0

>  <SCORE.INTRA.REPUL.0>
0

>  <SCORE.INTRA.SOLV>
2.91859

>  <SCORE.INTRA.SOLV.lig_0>
-65.6478

>  <SCORE.INTRA.VDW>
-15.8676

>  <SCORE.INTRA.VDW.0>
9.35535

>  <SCORE.INTRA.norm>
-0.431214

>  <SCORE.RESTR>
0.0134109

>  <SCORE.RESTR.CAVITY>
0.0134109

>  <SCORE.RESTR.norm>
0.000432609

>  <SCORE.SYSTEM>
0

>  <SCORE.SYSTEM.CONST>
0

>  <SCORE.SYSTEM.DIHEDRAL>
0

>  <SCORE.SYSTEM.SOLV>
0

>  <SCORE.SYSTEM.norm>
0

>  <SCORE.heavy>
31

>  <SCORE.norm>
-0.88917

>  <RMSD>
25.469

$$$$
ligand
 OpenBabel11021811443D
libRbt.so/2013.1/901 2013/11/27
 31 32  0  0  0  0  0  0  0  0999 V2000
   21.6892   21.6540   35.6603 C   0  0  0  0  0  0  0  0  0  0  0  0
   20.7603   22.0305   34.5100 C   0  0  0  0  0  0  0  0  0  0  0  0
   20.2818   23.3749   34.3833 C   0  0  0  0  0  0  0  0  0  0  0  0
   19.4175   23.7173   33.3159 C   0  0  0  0  0  0  0  0  0  0  0  0
   19.0267   22.7420   32.3659 C   0  0  0  0  0  0  0  0  0  0  0  0
   19.4926   21.4158   32.4715 C   0  0  0  0  0  0  0  0  0  0  0  0
   20.3506   21.0553   33.5260 C   0  0  0  0  0  0  0  0  0  0  0  0
   21.7677   20.4823   36.0282 O   0  0  0  0  0  0  0  0  0  0  0  0
   20.5997   25.6123   29.3605 C   0  0  0  0  0  0  0  0  0  0  0  0
   25.2339   24.9361   36.7971 C   0  0  0  0  0  0  0  0  0  0  0  0
   26.5338   22.6560   40.0295 P   0  0  1  0  0  0  0  0  0  0  0  0
   21.3637   24.6132   31.3982 N   0  0  0  0  0  0  0  0  0  0  0  0
   26.6152   24.1260   39.9342 O   0  0  0  0  0  0  0  0  0  0  0  0
   22.4476   22.6193   36.2996 S   0  0  0  0  0  0  0  0  0  0  0  0
   24.9900   23.7547   33.4720 C   0  0  0  0  0  0  0  0  0  0  0  0
   21.3751   25.7270   30.5892 C   0  0  0  0  0  0  0  0  0  0  0  0
   27.8168   21.9470   39.7732 O   0  5  0  0  0  0  0  0  0  0  0  0
   24.5194   24.5835   34.4367 N   0  0  0  0  0  0  0  0  0  0  0  0
   22.0172   26.8185   30.8656 N   0  0  0  0  0  0  0  0  0  0  0  0
   25.8859   22.2603   41.3014 O   0  0  0  0  0  0  0  0  0  0  0  0
   24.5542   24.0364   35.8007 C   0  0  2  0  0  0  0  0  0  0  0  0
   22.7559   26.9181   32.0291 C   0  0  0  0  0  0  0  0  0  0  0  0
   23.4082   28.0560   32.2794 N   0  0  0  0  0  0  0  0  0  0  0  0
   23.9926   22.7678   36.2546 C   0  0  1  0  0  0  0  0  0  0  0  0
   22.8009   25.7797   32.9335 C   0  0  0  0  0  0  0  0  0  0  0  0
   25.7097   24.3239   32.6812 O   0  0  0  0  0  0  0  0  0  0  0  0
   24.8063   21.6020   36.6923 C   0  0  0  0  0  0  0  0  0  0  0  0
   22.0761   24.6693   32.5508 C   0  0  0  0  0  0  0  0  0  0  0  0
   25.9866   21.8143   37.5394 C   0  0  0  0  0  0  0  0  0  0  0  0
   23.6255   25.8133   34.1971 C   0  0  0  0  0  0  0  0  0  0  0  0
   25.6005   22.1101   38.8930 O   0  0  0  0  0  0  0  0  0  0  0  0
  1  2  1  0  0  0  0
  1  8  2  0  0  0  0
  1 14  1  0  0  0  0
  2  3  2  0  0  0  0
  2  7  1  0  0  0  0
  3  4  1  0  0  0  0
  4  5  2  0  0  0  0
  5  6  1  0  0  0  0
  6  7  2  0  0  0  0
  9 16  1  0  0  0  0
 10 21  1  0  0  0  0
 11 13  1  6  0  0  0
 11 17  1  0  0  0  0
 11 20  2  0  0  0  0
 11 31  1  0  0  0  0
 12 16  2  0  0  0  0
 12 28  1  0  0  0  0
 15 26  1  0  0  0  0
 15 18  1  0  0  0  0
 16 19  1  0  0  0  0
 18 30  1  0  0  0  0
 19 22  2  0  0  0  0
 21 18  1  1  0  0  0
 21 24  1  0  0  0  0
 22 23  1  0  0  0  0
 22 25  1  0  0  0  0
 24 14  1  1  0  0  0
 24 27  1  0  0  0  0
 25 28  2  0  0  0  0
 25 30  1  0  0  0  0
 27 29  1  0  0  0  0
 29 31  1  0  0  0  0
M  CHG  1  17  -1
M  END
>  <CHROM.1>
157.16745234,-111.73997583,123.49882700,-136.22202646,127.87834457,24.72341692
109.45007789,-137.52378134,-132.05226501,75.12993158,-167.80054210,84.84186357
23.40712658,23.58325788,35.19224322,2.25859375,-0.60664979,-0.83294904

>  <Name>
ligand

>  <RI>
0

>  <Rbt.Current_Directory>
/home/itssahil/PROJECTS/Mol_Feturizer/New_Systems/rnas/2HOO

>  <Rbt.Executable>
rbdock ($Id: //depot/dev/client3/rdock/2013.1/src/exe/rbdock.cxx#4 $)

>  <Rbt.Library>
libRbt.so (2013.1, Build901 2013/11/27)

>  <Rbt.Parameter_File>
/export/apps/rDock/src/rDock_2013.1_src/data/scripts/dock_solv.prm

>  <Rbt.Receptor>
prm/blind_docking_100.prm

>  <SCORE>
-16.7503

>  <SCORE.INTER>
-5.04502

>  <SCORE.INTER.CONST>
1

>  <SCORE.INTER.POLAR>
0

>  <SCORE.INTER.ROT>
12

>  <SCORE.INTER.SOLV>
14.3383

>  <SCORE.INTER.VDW>
-19.7428

>  <SCORE.INTER.norm>
-0.162742

>  <SCORE.INTRA>
-12.2363

>  <SCORE.INTRA.DIHEDRAL>
4.21359

>  <SCORE.INTRA.DIHEDRAL.0>
14.6094

>  <SCORE.INTRA.POLAR>
0

>  <SCORE.INTRA.POLAR.0>
0

>  <SCORE.INTRA.REPUL>
0

>  <SCORE.INTRA.REPUL.0>
0

>  <SCORE.INTRA.SOLV>
-0.671599

>  <SCORE.INTRA.SOLV.lig_0>
-65.6478

>  <SCORE.INTRA.VDW>
-14.0073

>  <SCORE.INTRA.VDW.0>
9.35535

>  <SCORE.INTRA.norm>
-0.39472

>  <SCORE.RESTR>
0.531071

>  <SCORE.RESTR.CAVITY>
0.531071

>  <SCORE.RESTR.norm>
0.0171313

>  <SCORE.SYSTEM>
0

>  <SCORE.SYSTEM.CONST>
0

>  <SCORE.SYSTEM.DIHEDRAL>
0

>  <SCORE.SYSTEM.SOLV>
0

>  <SCORE.SYSTEM.norm>
0

>  <SCORE.heavy>
31

>  <SCORE.norm>
-0.540331

>  <RMSD>
25.489

$$$$
ligand
 OpenBabel11021811443D
libRbt.so/2013.1/901 2013/11/27
 31 32  0  0  0  0  0  0  0  0999 V2000
   20.9692   26.2132   32.6594 C   0  0  0  0  0  0  0  0  0  0  0  0
   22.1956   27.1155   32.5592 C   0  0  0  0  0  0  0  0  0  0  0  0
   22.3103   28.0553   31.4841 C   0  0  0  0  0  0  0  0  0  0  0  0
   23.4520   28.8872   31.3947 C   0  0  0  0  0  0  0  0  0  0  0  0
   24.4806   28.8035   32.3649 C   0  0  0  0  0  0  0  0  0  0  0  0
   24.3816   27.8888   33.4330 C   0  0  0  0  0  0  0  0  0  0  0  0
   23.2560   27.0522   33.5384 C   0  0  0  0  0  0  0  0  0  0  0  0
   19.9722   26.4540   31.9794 O   0  0  0  0  0  0  0  0  0  0  0  0
   20.1697   17.6938   39.8845 C   0  0  0  0  0  0  0  0  0  0  0  0
   19.6713   21.9098   33.4517 C   0  0  0  0  0  0  0  0  0  0  0  0
   25.4446   24.8417   31.9714 P   0  0  1  0  0  0  0  0  0  0  0  0
   19.7307   18.5175   37.6792 N   0  0  0  0  0  0  0  0  0  0  0  0
   26.7259   24.9863   31.2544 O   0  0  0  0  0  0  0  0  0  0  0  0
   20.9637   25.1223   33.5113 S   0  0  0  0  0  0  0  0  0  0  0  0
   21.2520   22.7452   36.3033 C   0  0  0  0  0  0  0  0  0  0  0  0
   20.6442   18.4027   38.7028 C   0  0  0  0  0  0  0  0  0  0  0  0
   25.5537   24.9088   33.4539 O   0  5  0  0  0  0  0  0  0  0  0  0
   21.4517   21.9938   35.1923 N   0  0  0  0  0  0  0  0  0  0  0  0
   21.8494   18.8775   38.6568 N   0  0  0  0  0  0  0  0  0  0  0  0
   24.4369   25.7722   31.4120 O   0  0  0  0  0  0  0  0  0  0  0  0
   20.9289   22.5719   33.9459 C   0  0  2  0  0  0  0  0  0  0  0  0
   22.2906   19.5544   37.5359 C   0  0  0  0  0  0  0  0  0  0  0  0
   23.5368   20.0338   37.5251 N   0  0  0  0  0  0  0  0  0  0  0  0
   21.4845   23.6940   33.1955 C   0  0  1  0  0  0  0  0  0  0  0  0
   21.3810   19.7251   36.4137 C   0  0  0  0  0  0  0  0  0  0  0  0
   21.8072   23.8202   36.2430 O   0  0  0  0  0  0  0  0  0  0  0  0
   22.5154   23.5599   32.1315 C   0  0  0  0  0  0  0  0  0  0  0  0
   20.1238   19.1747   36.5600 C   0  0  0  0  0  0  0  0  0  0  0  0
   23.7466   22.8068   32.4010 C   0  0  0  0  0  0  0  0  0  0  0  0
   21.7911   20.4926   35.1806 C   0  0  0  0  0  0  0  0  0  0  0  0
   24.8701   23.4022   31.7288 O   0  0  0  0  0  0  0  0  0  0  0  0
  1  2  1  0  0  0  0
  1  8  2  0  0  0  0
  1 14  1  0  0  0  0
  2  3  2  0  0  0  0
  2  7  1  0  0  0  0
  3  4  1  0  0  0  0
  4  5  2  0  0  0  0
  5  6  1  0  0  0  0
  6  7  2  0  0  0  0
  9 16  1  0  0  0  0
 10 21  1  0  0  0  0
 11 13  1  6  0  0  0
 11 17  1  0  0  0  0
 11 20  2  0  0  0  0
 11 31  1  0  0  0  0
 12 16  2  0  0  0  0
 12 28  1  0  0  0  0
 15 26  1  0  0  0  0
 15 18  1  0  0  0  0
 16 19  1  0  0  0  0
 18 30  1  0  0  0  0
 19 22  2  0  0  0  0
 21 18  1  1  0  0  0
 21 24  1  0  0  0  0
 22 23  1  0  0  0  0
 22 25  1  0  0  0  0
 24 14  1  6  0  0  0
 24 27  1  0  0  0  0
 25 28  2  0  0  0  0
 25 30  1  0  0  0  0
 27 29  1  0  0  0  0
 29 31  1  0  0  0  0
M  CHG  1  17  -1
M  END
>  <CHROM.1>
-13.61293030,-86.33549929,-155.10951032,-62.12797565,-105.31863041,23.18888470
86.99199451,129.21404748,-91.70826201,-144.61240232,62.50274306,170.53560608
22.46202208,23.47621020,34.17097451,1.26427816,0.22658849,-0.58626626

>  <Name>
ligand

>  <RI>
0

>  <Rbt.Current_Directory>
/home/itssahil/PROJECTS/Mol_Feturizer/New_Systems/rnas/2HOO

>  <Rbt.Executable>
rbdock ($Id: //depot/dev/client3/rdock/2013.1/src/exe/rbdock.cxx#4 $)

>  <Rbt.Library>
libRbt.so (2013.1, Build901 2013/11/27)

>  <Rbt.Parameter_File>
/export/apps/rDock/src/rDock_2013.1_src/data/scripts/dock_solv.prm

>  <Rbt.Receptor>
prm/blind_docking_60.prm

>  <SCORE>
-20.3092

>  <SCORE.INTER>
-13.0061

>  <SCORE.INTER.CONST>
1

>  <SCORE.INTER.POLAR>
0

>  <SCORE.INTER.ROT>
12

>  <SCORE.INTER.SOLV>
13.851

>  <SCORE.INTER.VDW>
-24.8877

>  <SCORE.INTER.norm>
-0.419551

>  <SCORE.INTRA>
-7.42591

>  <SCORE.INTRA.DIHEDRAL>
6.19823

>  <SCORE.INTRA.DIHEDRAL.0>
14.6094

>  <SCORE.INTRA.POLAR>
0

>  <SCORE.INTRA.POLAR.0>
0

>  <SCORE.INTRA.REPUL>
0

>  <SCORE.INTRA.REPUL.0>
0

>  <SCORE.INTRA.SOLV>
7.15852

>  <SCORE.INTRA.SOLV.lig_0>
-65.6478

>  <SCORE.INTRA.VDW>
-14.1043

>  <SCORE.INTRA.VDW.0>
9.35535

>  <SCORE.INTRA.norm>
-0.239546

>  <SCORE.RESTR>
0.122738

>  <SCORE.RESTR.CAVITY>
0.122738

>  <SCORE.RESTR.norm>
0.0039593

>  <SCORE.SYSTEM>
0

>  <SCORE.SYSTEM.CONST>
0

>  <SCORE.SYSTEM.DIHEDRAL>
0

>  <SCORE.SYSTEM.SOLV>
0

>  <SCORE.SYSTEM.norm>
0

>  <SCORE.heavy>
31

>  <SCORE.norm>
-0.655137

>  <RMSD>
25.504

$$$$
ligand
 OpenBabel11021811443D
libRbt.so/2013.1/901 2013/11/27
 31 32  0  0  0  0  0  0  0  0999 V2000
   25.1181   23.4991   37.1747 C   0  0  0  0  0  0  0  0  0  0  0  0
   25.6925   23.2112   38.5586 C   0  0  0  0  0  0  0  0  0  0  0  0
   25.5480   21.9099   39.1399 C   0  0  0  0  0  0  0  0  0  0  0  0
   26.0802   21.6498   40.4256 C   0  0  0  0  0  0  0  0  0  0  0  0
   26.7618   22.6649   41.1406 C   0  0  0  0  0  0  0  0  0  0  0  0
   26.9187   23.9494   40.5813 C   0  0  0  0  0  0  0  0  0  0  0  0
   26.3955   24.2282   39.3060 C   0  0  0  0  0  0  0  0  0  0  0  0
   25.7118   23.1092   36.1698 O   0  0  0  0  0  0  0  0  0  0  0  0
   19.8536   25.4445   31.0203 C   0  0  0  0  0  0  0  0  0  0  0  0
   20.9930   22.2741   36.7699 C   0  0  0  0  0  0  0  0  0  0  0  0
   23.3098   27.4572   32.2141 P   0  0  1  0  0  0  0  0  0  0  0  0
   21.6880   24.0466   31.6647 N   0  0  0  0  0  0  0  0  0  0  0  0
   23.2742   26.5994   31.0143 O   0  0  0  0  0  0  0  0  0  0  0  0
   23.9318   24.1984   37.0348 S   0  0  0  0  0  0  0  0  0  0  0  0
   23.5917   20.6160   35.9012 C   0  0  0  0  0  0  0  0  0  0  0  0
   20.3378   24.2931   31.7713 C   0  0  0  0  0  0  0  0  0  0  0  0
   24.6774   27.7920   32.6955 O   0  5  0  0  0  0  0  0  0  0  0  0
   22.7391   21.4158   35.2140 N   0  0  0  0  0  0  0  0  0  0  0  0
   19.5226   23.5755   32.4788 N   0  0  0  0  0  0  0  0  0  0  0  0
   22.4461   28.6450   32.0202 O   0  0  0  0  0  0  0  0  0  0  0  0
   22.2279   22.5725   35.9635 C   0  0  2  0  0  0  0  0  0  0  0  0
   19.9895   22.4892   33.1937 C   0  0  0  0  0  0  0  0  0  0  0  0
   19.1220   21.7752   33.9152 N   0  0  0  0  0  0  0  0  0  0  0  0
   22.8009   23.9143   36.0095 C   0  0  1  0  0  0  0  0  0  0  0  0
   21.4071   22.1679   33.1394 C   0  0  0  0  0  0  0  0  0  0  0  0
   23.0278   19.6870   36.4363 O   0  0  0  0  0  0  0  0  0  0  0  0
   22.3630   25.0407   35.1422 C   0  0  0  0  0  0  0  0  0  0  0  0
   22.1875   22.9888   32.3507 C   0  0  0  0  0  0  0  0  0  0  0  0
   23.2347   25.5051   34.0558 C   0  0  0  0  0  0  0  0  0  0  0  0
   21.9829   21.0205   33.9330 C   0  0  0  0  0  0  0  0  0  0  0  0
   22.6925   26.6808   33.4294 O   0  0  0  0  0  0  0  0  0  0  0  0
  1  2  1  0  0  0  0
  1  8  2  0  0  0  0
  1 14  1  0  0  0  0
  2  3  2  0  0  0  0
  2  7  1  0  0  0  0
  3  4  1  0  0  0  0
  4  5  2  0  0  0  0
  5  6  1  0  0  0  0
  6  7  2  0  0  0  0
  9 16  1  0  0  0  0
 10 21  1  0  0  0  0
 11 13  1  6  0  0  0
 11 17  1  0  0  0  0
 11 20  2  0  0  0  0
 11 31  1  0  0  0  0
 12 16  2  0  0  0  0
 12 28  1  0  0  0  0
 15 26  1  0  0  0  0
 15 18  1  0  0  0  0
 16 19  1  0  0  0  0
 18 30  1  0  0  0  0
 19 22  2  0  0  0  0
 21 18  1  1  0  0  0
 21 24  1  0  0  0  0
 22 23  1  0  0  0  0
 22 25  1  0  0  0  0
 24 14  1  1  0  0  0
 24 27  1  0  0  0  0
 25 28  2  0  0  0  0
 25 30  1  0  0  0  0
 27 29  1  0  0  0  0
 29 31  1  0  0  0  0
M  CHG  1  17  -1
M  END
>  <CHROM.1>
-77.82030403,-140.72024293,54.53305651,93.67363627,-87.00142364,-163.50955407
93.62953073,72.60563613,-102.54484631,-174.13071532,-178.58892796,65.92475810
23.07693378,23.93039405,34.98578478,-0.91500709,-0.76875742,-0.64824861

>  <Name>
ligand

>  <RI>
0

>  <Rbt.Current_Directory>
/home/itssahil/PROJECTS/Mol_Feturizer/New_Systems/rnas/2HOO

>  <Rbt.Executable>
rbdock ($Id: //depot/dev/client3/rdock/2013.1/src/exe/rbdock.cxx#4 $)

>  <Rbt.Library>
libRbt.so (2013.1, Build901 2013/11/27)

>  <Rbt.Parameter_File>
/export/apps/rDock/src/rDock_2013.1_src/data/scripts/dock_solv.prm

>  <Rbt.Receptor>
prm/blind_docking_100.prm

>  <SCORE>
-28.7167

>  <SCORE.INTER>
-14.2171

>  <SCORE.INTER.CONST>
1

>  <SCORE.INTER.POLAR>
0

>  <SCORE.INTER.ROT>
12

>  <SCORE.INTER.SOLV>
8.91403

>  <SCORE.INTER.VDW>
-24.0494

>  <SCORE.INTER.norm>
-0.458616

>  <SCORE.INTRA>
-14.4996

>  <SCORE.INTRA.DIHEDRAL>
1.46708

>  <SCORE.INTRA.DIHEDRAL.0>
14.6094

>  <SCORE.INTRA.POLAR>
0

>  <SCORE.INTRA.POLAR.0>
0

>  <SCORE.INTRA.REPUL>
0

>  <SCORE.INTRA.REPUL.0>
0

>  <SCORE.INTRA.SOLV>
3.06233

>  <SCORE.INTRA.SOLV.lig_0>
-65.6478

>  <SCORE.INTRA.VDW>
-16.7643

>  <SCORE.INTRA.VDW.0>
9.35535

>  <SCORE.INTRA.norm>
-0.467729

>  <SCORE.RESTR>
0

>  <SCORE.RESTR.CAVITY>
0

>  <SCORE.RESTR.norm>
0

>  <SCORE.SYSTEM>
0

>  <SCORE.SYSTEM.CONST>
0

>  <SCORE.SYSTEM.DIHEDRAL>
0

>  <SCORE.SYSTEM.SOLV>
0

>  <SCORE.SYSTEM.norm>
0

>  <SCORE.heavy>
31

>  <SCORE.norm>
-0.926345

>  <RMSD>
25.525

$$$$
ligand
 OpenBabel11021811443D
libRbt.so/2013.1/901 2013/11/27
 31 32  0  0  0  0  0  0  0  0999 V2000
   21.6147   27.7678   32.8129 C   0  0  0  0  0  0  0  0  0  0  0  0
   20.8636   27.1486   31.6380 C   0  0  0  0  0  0  0  0  0  0  0  0
   19.5441   26.6231   31.8254 C   0  0  0  0  0  0  0  0  0  0  0  0
   18.8537   26.0468   30.7323 C   0  0  0  0  0  0  0  0  0  0  0  0
   19.4543   25.9917   29.4507 C   0  0  0  0  0  0  0  0  0  0  0  0
   20.7495   26.5095   29.2466 C   0  0  0  0  0  0  0  0  0  0  0  0
   21.4526   27.0844   30.3204 C   0  0  0  0  0  0  0  0  0  0  0  0
   21.6214   28.9892   32.9627 O   0  0  0  0  0  0  0  0  0  0  0  0
   19.4071   19.7151   39.2513 C   0  0  0  0  0  0  0  0  0  0  0  0
   22.8430   24.4960   35.8568 C   0  0  0  0  0  0  0  0  0  0  0  0
   26.2406   27.8649   33.0833 P   0  0  1  0  0  0  0  0  0  0  0  0
   20.0392   21.6092   37.9295 N   0  0  0  0  0  0  0  0  0  0  0  0
   27.5472   27.5031   32.5014 O   0  0  0  0  0  0  0  0  0  0  0  0
   22.2935   26.9685   33.7163 S   0  0  0  0  0  0  0  0  0  0  0  0
   20.2714   23.7412   33.4094 C   0  0  0  0  0  0  0  0  0  0  0  0
   20.0005   20.2365   38.0265 C   0  0  0  0  0  0  0  0  0  0  0  0
   26.0745   27.4892   34.5135 O   0  5  0  0  0  0  0  0  0  0  0  0
   21.3062   23.4132   34.2221 N   0  0  0  0  0  0  0  0  0  0  0  0
   20.4495   19.4314   37.1153 N   0  0  0  0  0  0  0  0  0  0  0  0
   25.9340   29.2879   32.8084 O   0  0  0  0  0  0  0  0  0  0  0  0
   22.2763   24.4912   34.4629 C   0  0  2  0  0  0  0  0  0  0  0  0
   21.0171   19.9325   35.9594 C   0  0  0  0  0  0  0  0  0  0  0  0
   21.4731   19.0737   35.0442 N   0  0  0  0  0  0  0  0  0  0  0  0
   22.7329   25.4942   33.5056 C   0  0  1  0  0  0  0  0  0  0  0  0
   21.1027   21.3741   35.7854 C   0  0  0  0  0  0  0  0  0  0  0  0
   19.2140   23.3000   33.8026 O   0  0  0  0  0  0  0  0  0  0  0  0
   23.5875   25.1956   32.3252 C   0  0  0  0  0  0  0  0  0  0  0  0
   20.5882   22.1424   36.8099 C   0  0  0  0  0  0  0  0  0  0  0  0
   24.9956   25.6115   32.3215 C   0  0  0  0  0  0  0  0  0  0  0  0
   21.7511   21.9802   34.5647 C   0  0  0  0  0  0  0  0  0  0  0  0
   25.1077   27.0445   32.3732 O   0  0  0  0  0  0  0  0  0  0  0  0
  1  2  1  0  0  0  0
  1  8  2  0  0  0  0
  1 14  1  0  0  0  0
  2  3  2  0  0  0  0
  2  7  1  0  0  0  0
  3  4  1  0  0  0  0
  4  5  2  0  0  0  0
  5  6  1  0  0  0  0
  6  7  2  0  0  0  0
  9 16  1  0  0  0  0
 10 21  1  0  0  0  0
 11 13  1  6  0  0  0
 11 17  1  0  0  0  0
 11 20  2  0  0  0  0
 11 31  1  0  0  0  0
 12 16  2  0  0  0  0
 12 28  1  0  0  0  0
 15 26  1  0  0  0  0
 15 18  1  0  0  0  0
 16 19  1  0  0  0  0
 18 30  1  0  0  0  0
 19 22  2  0  0  0  0
 21 18  1  6  0  0  0
 21 24  1  0  0  0  0
 22 23  1  0  0  0  0
 22 25  1  0  0  0  0
 24 14  1  6  0  0  0
 24 27  1  0  0  0  0
 25 28  2  0  0  0  0
 25 30  1  0  0  0  0
 27 29  1  0  0  0  0
 29 31  1  0  0  0  0
M  CHG  1  17  -1
M  END
>  <CHROM.1>
-97.88417025,17.99372688,-123.31255206,-138.58969509,144.04457061,-90.39667190
-70.72346476,72.95598294,156.80245611,-63.59075801,146.62117872,59.33982063
22.24498363,24.89826535,33.82702137,1.08890793,-0.39144425,-0.75582745

>  <Name>
ligand

>  <RI>
0

>  <Rbt.Current_Directory>
/home/itssahil/PROJECTS/Mol_Feturizer/New_Systems/rnas/2HOO

>  <Rbt.Executable>
rbdock ($Id: //depot/dev/client3/rdock/2013.1/src/exe/rbdock.cxx#4 $)

>  <Rbt.Library>
libRbt.so (2013.1, Build901 2013/11/27)

>  <Rbt.Parameter_File>
/export/apps/rDock/src/rDock_2013.1_src/data/scripts/dock_solv.prm

>  <Rbt.Receptor>
prm/blind_docking_80.prm

>  <SCORE>
-14.8813

>  <SCORE.INTER>
-2.90925

>  <SCORE.INTER.CONST>
1

>  <SCORE.INTER.POLAR>
0

>  <SCORE.INTER.ROT>
12

>  <SCORE.INTER.SOLV>
18.8542

>  <SCORE.INTER.VDW>
-19.8242

>  <SCORE.INTER.norm>
-0.0938468

>  <SCORE.INTRA>
-12.2308

>  <SCORE.INTRA.DIHEDRAL>
4.72396

>  <SCORE.INTRA.DIHEDRAL.0>
14.6094

>  <SCORE.INTRA.POLAR>
0

>  <SCORE.INTRA.POLAR.0>
0

>  <SCORE.INTRA.REPUL>
0

>  <SCORE.INTRA.REPUL.0>
0

>  <SCORE.INTRA.SOLV>
0.357181

>  <SCORE.INTRA.SOLV.lig_0>
-65.6478

>  <SCORE.INTRA.VDW>
-14.7713

>  <SCORE.INTRA.VDW.0>
9.35535

>  <SCORE.INTRA.norm>
-0.394541

>  <SCORE.RESTR>
0.258765

>  <SCORE.RESTR.CAVITY>
0.258765

>  <SCORE.RESTR.norm>
0.00834724

>  <SCORE.SYSTEM>
0

>  <SCORE.SYSTEM.CONST>
0

>  <SCORE.SYSTEM.DIHEDRAL>
0

>  <SCORE.SYSTEM.SOLV>
0

>  <SCORE.SYSTEM.norm>
0

>  <SCORE.heavy>
31

>  <SCORE.norm>
-0.480041

>  <RMSD>
25.798

$$$$
ligand
 OpenBabel11021811443D
libRbt.so/2013.1/901 2013/11/27
 31 32  0  0  0  0  0  0  0  0999 V2000
   22.4803   26.7095   33.6025 C   0  0  0  0  0  0  0  0  0  0  0  0
   23.5012   27.7846   33.2420 C   0  0  0  0  0  0  0  0  0  0  0  0
   24.8888   27.5857   33.5374 C   0  0  0  0  0  0  0  0  0  0  0  0
   25.8308   28.5882   33.2035 C   0  0  0  0  0  0  0  0  0  0  0  0
   25.4134   29.7855   32.5722 C   0  0  0  0  0  0  0  0  0  0  0  0
   24.0529   29.9955   32.2685 C   0  0  0  0  0  0  0  0  0  0  0  0
   23.1014   29.0123   32.5939 C   0  0  0  0  0  0  0  0  0  0  0  0
   21.3292   27.0297   33.8975 O   0  0  0  0  0  0  0  0  0  0  0  0
   26.1330   22.3828   40.5405 C   0  0  0  0  0  0  0  0  0  0  0  0
   20.7658   21.9854   33.5741 C   0  0  0  0  0  0  0  0  0  0  0  0
   20.5317   26.4742   29.4542 P   0  0  1  0  0  0  0  0  0  0  0  0
   24.6885   21.2406   39.0099 N   0  0  0  0  0  0  0  0  0  0  0  0
   20.1178   26.5722   28.0415 O   0  0  0  0  0  0  0  0  0  0  0  0
   22.8350   25.3716   33.6033 S   0  0  0  0  0  0  0  0  0  0  0  0
   21.4221   23.2190   36.3630 C   0  0  0  0  0  0  0  0  0  0  0  0
   25.5040   22.3282   39.2269 C   0  0  0  0  0  0  0  0  0  0  0  0
   21.9969   26.3169   29.6605 O   0  5  0  0  0  0  0  0  0  0  0  0
   22.2613   22.8867   35.3510 N   0  0  0  0  0  0  0  0  0  0  0  0
   25.7223   23.2582   38.3508 N   0  0  0  0  0  0  0  0  0  0  0  0
   19.9420   27.5837   30.2388 O   0  0  0  0  0  0  0  0  0  0  0  0
   21.7137   23.0737   33.9996 C   0  0  2  0  0  0  0  0  0  0  0  0
   25.1174   23.2037   37.1097 C   0  0  0  0  0  0  0  0  0  0  0  0
   25.3616   24.1813   36.2335 N   0  0  0  0  0  0  0  0  0  0  0  0
   21.9790   24.1829   33.0884 C   0  0  1  0  0  0  0  0  0  0  0  0
   24.2336   22.0890   36.8061 C   0  0  0  0  0  0  0  0  0  0  0  0
   20.8307   22.2607   36.8096 O   0  0  0  0  0  0  0  0  0  0  0  0
   21.4706   24.2582   31.6924 C   0  0  0  0  0  0  0  0  0  0  0  0
   24.0754   21.1485   37.8037 C   0  0  0  0  0  0  0  0  0  0  0  0
   20.0998   24.7201   31.4404 C   0  0  0  0  0  0  0  0  0  0  0  0
   23.5107   21.9978   35.4844 C   0  0  0  0  0  0  0  0  0  0  0  0
   19.9482   25.1590   30.0791 O   0  0  0  0  0  0  0  0  0  0  0  0
  1  2  1  0  0  0  0
  1  8  2  0  0  0  0
  1 14  1  0  0  0  0
  2  3  2  0  0  0  0
  2  7  1  0  0  0  0
  3  4  1  0  0  0  0
  4  5  2  0  0  0  0
  5  6  1  0  0  0  0
  6  7  2  0  0  0  0
  9 16  1  0  0  0  0
 10 21  1  0  0  0  0
 11 13  1  6  0  0  0
 11 17  1  0  0  0  0
 11 20  2  0  0  0  0
 11 31  1  0  0  0  0
 12 16  2  0  0  0  0
 12 28  1  0  0  0  0
 15 26  1  0  0  0  0
 15 18  1  0  0  0  0
 16 19  1  0  0  0  0
 18 30  1  0  0  0  0
 19 22  2  0  0  0  0
 21 18  1  1  0  0  0
 21 24  1  0  0  0  0
 22 23  1  0  0  0  0
 22 25  1  0  0  0  0
 24 14  1  1  0  0  0
 24 27  1  0  0  0  0
 25 28  2  0  0  0  0
 25 30  1  0  0  0  0
 27 29  1  0  0  0  0
 29 31  1  0  0  0  0
M  CHG  1  17  -1
M  END
>  <CHROM.1>
148.96394929,-139.60199588,-124.96045584,96.52115377,-77.99447800,-32.47435100
173.41145163,-97.61817239,-78.42590427,160.08942834,-72.42343309,-178.38495076
22.71775461,24.94624380,33.88000320,-2.04500188,0.73515996,2.44440491

>  <Name>
ligand

>  <RI>
0

>  <Rbt.Current_Directory>
/home/itssahil/PROJECTS/Mol_Feturizer/New_Systems/rnas/2HOO

>  <Rbt.Executable>
rbdock ($Id: //depot/dev/client3/rdock/2013.1/src/exe/rbdock.cxx#4 $)

>  <Rbt.Library>
libRbt.so (2013.1, Build901 2013/11/27)

>  <Rbt.Parameter_File>
/export/apps/rDock/src/rDock_2013.1_src/data/scripts/dock_solv.prm

>  <Rbt.Receptor>
prm/blind_docking_80.prm

>  <SCORE>
-20.947

>  <SCORE.INTER>
-11.357

>  <SCORE.INTER.CONST>
1

>  <SCORE.INTER.POLAR>
0

>  <SCORE.INTER.ROT>
12

>  <SCORE.INTER.SOLV>
11.4242

>  <SCORE.INTER.VDW>
-22.9794

>  <SCORE.INTER.norm>
-0.366355

>  <SCORE.INTRA>
-9.59

>  <SCORE.INTRA.DIHEDRAL>
1.27882

>  <SCORE.INTRA.DIHEDRAL.0>
14.6094

>  <SCORE.INTRA.POLAR>
0

>  <SCORE.INTRA.POLAR.0>
0

>  <SCORE.INTRA.REPUL>
0

>  <SCORE.INTRA.REPUL.0>
0

>  <SCORE.INTRA.SOLV>
4.87309

>  <SCORE.INTRA.SOLV.lig_0>
-65.6478

>  <SCORE.INTRA.VDW>
-12.6659

>  <SCORE.INTRA.VDW.0>
9.35535

>  <SCORE.INTRA.norm>
-0.309355

>  <SCORE.RESTR>
0

>  <SCORE.RESTR.CAVITY>
0

>  <SCORE.RESTR.norm>
0

>  <SCORE.SYSTEM>
0

>  <SCORE.SYSTEM.CONST>
0

>  <SCORE.SYSTEM.DIHEDRAL>
0

>  <SCORE.SYSTEM.SOLV>
0

>  <SCORE.SYSTEM.norm>
0

>  <SCORE.heavy>
31

>  <SCORE.norm>
-0.67571

>  <RMSD>
25.863

$$$$
ligand
 OpenBabel11021811443D
libRbt.so/2013.1/901 2013/11/27
 31 32  0  0  0  0  0  0  0  0999 V2000
   23.6060   24.2592   35.3293 C   0  0  0  0  0  0  0  0  0  0  0  0
   24.2234   23.7552   36.6304 C   0  0  0  0  0  0  0  0  0  0  0  0
   24.0119   22.4016   37.0489 C   0  0  0  0  0  0  0  0  0  0  0  0
   24.5845   21.9408   38.2587 C   0  0  0  0  0  0  0  0  0  0  0  0
   25.3722   22.8060   39.0568 C   0  0  0  0  0  0  0  0  0  0  0  0
   25.5959   24.1393   38.6574 C   0  0  0  0  0  0  0  0  0  0  0  0
   25.0341   24.6167   37.4597 C   0  0  0  0  0  0  0  0  0  0  0  0
   24.3199   24.4561   34.3464 O   0  0  0  0  0  0  0  0  0  0  0  0
   25.0708   32.3242   31.4505 C   0  0  0  0  0  0  0  0  0  0  0  0
   21.3692   25.0722   31.4851 C   0  0  0  0  0  0  0  0  0  0  0  0
   22.1001   20.1765   35.4435 P   0  0  1  0  0  0  0  0  0  0  0  0
   23.3840   30.6777   31.8725 N   0  0  0  0  0  0  0  0  0  0  0  0
   21.5204   19.0163   34.7400 O   0  0  0  0  0  0  0  0  0  0  0  0
   22.2460   24.5004   35.2408 S   0  0  0  0  0  0  0  0  0  0  0  0
   20.9986   27.6712   33.5708 C   0  0  0  0  0  0  0  0  0  0  0  0
   24.7233   30.9913   31.9268 C   0  0  0  0  0  0  0  0  0  0  0  0
   21.5647   20.4006   36.8136 O   0  5  0  0  0  0  0  0  0  0  0  0
   21.9771   26.8429   33.1287 N   0  0  0  0  0  0  0  0  0  0  0  0
   25.6403   30.1861   32.3637 N   0  0  0  0  0  0  0  0  0  0  0  0
   23.5794   20.1206   35.3907 O   0  0  0  0  0  0  0  0  0  0  0  0
   21.5681   25.4450   32.9292 C   0  0  2  0  0  0  0  0  0  0  0  0
   25.3048   28.9213   32.8075 C   0  0  0  0  0  0  0  0  0  0  0  0
   26.2759   28.1169   33.2466 N   0  0  0  0  0  0  0  0  0  0  0  0
   21.3711   24.4302   33.9598 C   0  0  1  0  0  0  0  0  0  0  0  0
   23.9096   28.5111   32.7741 C   0  0  0  0  0  0  0  0  0  0  0  0
   20.0984   27.7957   32.7698 O   0  0  0  0  0  0  0  0  0  0  0  0
   20.3896   23.3168   33.8603 C   0  0  0  0  0  0  0  0  0  0  0  0
   23.0116   29.4455   32.2994 C   0  0  0  0  0  0  0  0  0  0  0  0
   20.4539   22.2017   34.8132 C   0  0  0  0  0  0  0  0  0  0  0  0
   23.4877   27.1275   33.2046 C   0  0  0  0  0  0  0  0  0  0  0  0
   21.7008   21.4949   34.6930 O   0  0  0  0  0  0  0  0  0  0  0  0
  1  2  1  0  0  0  0
  1  8  2  0  0  0  0
  1 14  1  0  0  0  0
  2  3  2  0  0  0  0
  2  7  1  0  0  0  0
  3  4  1  0  0  0  0
  4  5  2  0  0  0  0
  5  6  1  0  0  0  0
  6  7  2  0  0  0  0
  9 16  1  0  0  0  0
 10 21  1  0  0  0  0
 11 13  1  6  0  0  0
 11 17  1  0  0  0  0
 11 20  2  0  0  0  0
 11 31  1  0  0  0  0
 12 16  2  0  0  0  0
 12 28  1  0  0  0  0
 15 26  1  0  0  0  0
 15 18  1  0  0  0  0
 16 19  1  0  0  0  0
 18 30  1  0  0  0  0
 19 22  2  0  0  0  0
 21 18  1  6  0  0  0
 21 24  1  0  0  0  0
 22 23  1  0  0  0  0
 22 25  1  0  0  0  0
 24 14  1  6  0  0  0
 24 27  1  0  0  0  0
 25 28  2  0  0  0  0
 25 30  1  0  0  0  0
 27 29  1  0  0  0  0
 29 31  1  0  0  0  0
M  CHG  1  17  -1
M  END
>  <CHROM.1>
-107.05118794,-152.50877730,-69.18006781,-64.39088255,103.81575031,-45.67632866
147.20503278,-11.78230682,179.37691384,-62.40580801,-174.35872922,81.52344667
23.01811097,24.96588426,34.44823581,-1.75171103,-0.61761601,-0.51712873

>  <Name>
ligand

>  <RI>
0

>  <Rbt.Current_Directory>
/home/itssahil/PROJECTS/Mol_Feturizer/New_Systems/rnas/2HOO

>  <Rbt.Executable>
rbdock ($Id: //depot/dev/client3/rdock/2013.1/src/exe/rbdock.cxx#4 $)

>  <Rbt.Library>
libRbt.so (2013.1, Build901 2013/11/27)

>  <Rbt.Parameter_File>
/export/apps/rDock/src/rDock_2013.1_src/data/scripts/dock_solv.prm

>  <Rbt.Receptor>
prm/blind_docking_80.prm

>  <SCORE>
-30.498

>  <SCORE.INTER>
-18.4599

>  <SCORE.INTER.CONST>
1

>  <SCORE.INTER.POLAR>
0

>  <SCORE.INTER.ROT>
12

>  <SCORE.INTER.SOLV>
15.14

>  <SCORE.INTER.VDW>
-28.9533

>  <SCORE.INTER.norm>
-0.595481

>  <SCORE.INTRA>
-12.0381

>  <SCORE.INTRA.DIHEDRAL>
-0.66088

>  <SCORE.INTRA.DIHEDRAL.0>
14.6094

>  <SCORE.INTRA.POLAR>
0

>  <SCORE.INTRA.POLAR.0>
0

>  <SCORE.INTRA.REPUL>
0

>  <SCORE.INTRA.REPUL.0>
0

>  <SCORE.INTRA.SOLV>
2.40845

>  <SCORE.INTRA.SOLV.lig_0>
-65.6478

>  <SCORE.INTRA.VDW>
-12.9119

>  <SCORE.INTRA.VDW.0>
9.35535

>  <SCORE.INTRA.norm>
-0.388325

>  <SCORE.RESTR>
0

>  <SCORE.RESTR.CAVITY>
0

>  <SCORE.RESTR.norm>
0

>  <SCORE.SYSTEM>
0

>  <SCORE.SYSTEM.CONST>
0

>  <SCORE.SYSTEM.DIHEDRAL>
0

>  <SCORE.SYSTEM.SOLV>
0

>  <SCORE.SYSTEM.norm>
0

>  <SCORE.heavy>
31

>  <SCORE.norm>
-0.983807

>  <RMSD>
25.968

$$$$
ligand
 OpenBabel11021811443D
libRbt.so/2013.1/901 2013/11/27
 31 32  0  0  0  0  0  0  0  0999 V2000
   23.9568   26.5721   32.2025 C   0  0  0  0  0  0  0  0  0  0  0  0
   24.5415   27.9644   32.4211 C   0  0  0  0  0  0  0  0  0  0  0  0
   25.8281   28.1154   33.0326 C   0  0  0  0  0  0  0  0  0  0  0  0
   26.3638   29.4099   33.2358 C   0  0  0  0  0  0  0  0  0  0  0  0
   25.6404   30.5589   32.8323 C   0  0  0  0  0  0  0  0  0  0  0  0
   24.3757   30.4288   32.2235 C   0  0  0  0  0  0  0  0  0  0  0  0
   23.8255   29.1515   32.0146 C   0  0  0  0  0  0  0  0  0  0  0  0
   23.1879   26.3692   31.2634 O   0  0  0  0  0  0  0  0  0  0  0  0
   17.8496   21.4233   38.8909 C   0  0  0  0  0  0  0  0  0  0  0  0
   22.4751   24.5062   35.3410 C   0  0  0  0  0  0  0  0  0  0  0  0
   25.7321   20.7059   34.9334 P   0  0  1  0  0  0  0  0  0  0  0  0
   18.1085   21.5050   36.5117 N   0  0  0  0  0  0  0  0  0  0  0  0
   26.4127   21.6798   35.8081 O   0  0  0  0  0  0  0  0  0  0  0  0
   24.2812   25.5293   33.0528 S   0  0  0  0  0  0  0  0  0  0  0  0
   20.5264   23.6422   32.5954 C   0  0  0  0  0  0  0  0  0  0  0  0
   18.7368   21.4893   37.7365 C   0  0  0  0  0  0  0  0  0  0  0  0
   26.6419   19.9185   34.0579 O   0  5  0  0  0  0  0  0  0  0  0  0
   21.2469   23.1633   33.6397 N   0  0  0  0  0  0  0  0  0  0  0  0
   20.0228   21.5289   37.8933 N   0  0  0  0  0  0  0  0  0  0  0  0
   24.8046   19.8661   35.7263 O   0  0  0  0  0  0  0  0  0  0  0  0
   22.4670   23.9201   33.9551 C   0  0  2  0  0  0  0  0  0  0  0  0
   20.8581   21.5981   36.7947 C   0  0  0  0  0  0  0  0  0  0  0  0
   22.1777   21.6419   36.9938 N   0  0  0  0  0  0  0  0  0  0  0  0
   23.6254   24.1222   33.0902 C   0  0  1  0  0  0  0  0  0  0  0  0
   20.2700   21.6273   35.4646 C   0  0  0  0  0  0  0  0  0  0  0  0
   20.7161   23.0176   31.5750 O   0  0  0  0  0  0  0  0  0  0  0  0
   24.2179   23.0666   32.2257 C   0  0  0  0  0  0  0  0  0  0  0  0
   18.8921   21.5719   35.4069 C   0  0  0  0  0  0  0  0  0  0  0  0
   25.2854   22.2075   32.7530 C   0  0  0  0  0  0  0  0  0  0  0  0
   21.1287   21.7464   34.2291 C   0  0  0  0  0  0  0  0  0  0  0  0
   24.8313   21.4710   33.9020 O   0  0  0  0  0  0  0  0  0  0  0  0
  1  2  1  0  0  0  0
  1  8  2  0  0  0  0
  1 14  1  0  0  0  0
  2  3  2  0  0  0  0
  2  7  1  0  0  0  0
  3  4  1  0  0  0  0
  4  5  2  0  0  0  0
  5  6  1  0  0  0  0
  6  7  2  0  0  0  0
  9 16  1  0  0  0  0
 10 21  1  0  0  0  0
 11 13  1  1  0  0  0
 11 17  1  0  0  0  0
 11 20  2  0  0  0  0
 11 31  1  0  0  0  0
 12 16  2  0  0  0  0
 12 28  1  0  0  0  0
 15 26  1  0  0  0  0
 15 18  1  0  0  0  0
 16 19  1  0  0  0  0
 18 30  1  0  0  0  0
 19 22  2  0  0  0  0
 21 18  1  1  0  0  0
 21 24  1  0  0  0  0
 22 23  1  0  0  0  0
 22 25  1  0  0  0  0
 24 14  1  6  0  0  0
 24 27  1  0  0  0  0
 25 28  2  0  0  0  0
 25 30  1  0  0  0  0
 27 29  1  0  0  0  0
 29 31  1  0  0  0  0
M  CHG  1  17  -1
M  END
>  <CHROM.1>
-150.74241802,170.68619253,-89.84481082,100.57814661,119.14781557,-98.36053763
-42.71727352,90.23558647,-98.50364880,60.14646276,-165.32262584,74.12629646
23.05324012,23.63978252,34.24650031,1.06569836,0.28664451,-0.37653492

>  <Name>
ligand

>  <RI>
0

>  <Rbt.Current_Directory>
/home/itssahil/PROJECTS/Mol_Feturizer/New_Systems/rnas/2HOO

>  <Rbt.Executable>
rbdock ($Id: //depot/dev/client3/rdock/2013.1/src/exe/rbdock.cxx#4 $)

>  <Rbt.Library>
libRbt.so (2013.1, Build901 2013/11/27)

>  <Rbt.Parameter_File>
/export/apps/rDock/src/rDock_2013.1_src/data/scripts/dock_solv.prm

>  <Rbt.Receptor>
prm/blind_docking_60.prm

>  <SCORE>
-25.6668

>  <SCORE.INTER>
-14.4412

>  <SCORE.INTER.CONST>
1

>  <SCORE.INTER.POLAR>
0

>  <SCORE.INTER.ROT>
12

>  <SCORE.INTER.SOLV>
17.2856

>  <SCORE.INTER.VDW>
-26.9893

>  <SCORE.INTER.norm>
-0.465845

>  <SCORE.INTRA>
-11.2256

>  <SCORE.INTRA.DIHEDRAL>
0.638747

>  <SCORE.INTRA.DIHEDRAL.0>
14.6094

>  <SCORE.INTRA.POLAR>
0

>  <SCORE.INTRA.POLAR.0>
0

>  <SCORE.INTRA.REPUL>
0.0145269

>  <SCORE.INTRA.REPUL.0>
0

>  <SCORE.INTRA.SOLV>
4.58544

>  <SCORE.INTRA.SOLV.lig_0>
-65.6478

>  <SCORE.INTRA.VDW>
-13.9103

>  <SCORE.INTRA.VDW.0>
9.35535

>  <SCORE.INTRA.norm>
-0.362115

>  <SCORE.RESTR>
0

>  <SCORE.RESTR.CAVITY>
0

>  <SCORE.RESTR.norm>
0

>  <SCORE.SYSTEM>
0

>  <SCORE.SYSTEM.CONST>
0

>  <SCORE.SYSTEM.DIHEDRAL>
0

>  <SCORE.SYSTEM.SOLV>
0

>  <SCORE.SYSTEM.norm>
0

>  <SCORE.heavy>
31

>  <SCORE.norm>
-0.82796

>  <RMSD>
26.073

$$$$
ligand
 OpenBabel11021811443D
libRbt.so/2013.1/901 2013/11/27
 31 32  0  0  0  0  0  0  0  0999 V2000
   23.1451   21.2633   36.4886 C   0  0  0  0  0  0  0  0  0  0  0  0
   24.0474   21.9507   37.5091 C   0  0  0  0  0  0  0  0  0  0  0  0
   24.5815   21.2079   38.6115 C   0  0  0  0  0  0  0  0  0  0  0  0
   25.4153   21.8521   39.5568 C   0  0  0  0  0  0  0  0  0  0  0  0
   25.7325   23.2255   39.4180 C   0  0  0  0  0  0  0  0  0  0  0  0
   25.2208   23.9705   38.3362 C   0  0  0  0  0  0  0  0  0  0  0  0
   24.3891   23.3491   37.3873 C   0  0  0  0  0  0  0  0  0  0  0  0
   23.2479   20.0524   36.2949 O   0  0  0  0  0  0  0  0  0  0  0  0
   23.8982   28.9564   32.3656 C   0  0  0  0  0  0  0  0  0  0  0  0
   19.9420   21.3563   33.7996 C   0  0  0  0  0  0  0  0  0  0  0  0
   25.3785   24.7394   32.0188 P   0  0  1  0  0  0  0  0  0  0  0  0
   22.0710   27.6538   31.5298 N   0  0  0  0  0  0  0  0  0  0  0  0
   24.2668   25.5945   31.5611 O   0  0  0  0  0  0  0  0  0  0  0  0
   22.2085   21.9890   35.7732 S   0  0  0  0  0  0  0  0  0  0  0  0
   20.4534   22.8096   31.2360 C   0  0  0  0  0  0  0  0  0  0  0  0
   22.9437   27.8744   32.5713 C   0  0  0  0  0  0  0  0  0  0  0  0
   26.6274   24.8673   31.2200 O   0  5  0  0  0  0  0  0  0  0  0  0
   20.6318   23.3460   32.4686 N   0  0  0  0  0  0  0  0  0  0  0  0
   22.9478   27.1904   33.6723 N   0  0  0  0  0  0  0  0  0  0  0  0
   25.5902   24.9105   33.4749 O   0  0  0  0  0  0  0  0  0  0  0  0
   21.0023   22.3865   33.5189 C   0  0  2  0  0  0  0  0  0  0  0  0
   22.0445   26.1615   33.8581 C   0  0  0  0  0  0  0  0  0  0  0  0
   22.0804   25.4752   35.0029 N   0  0  0  0  0  0  0  0  0  0  0  0
   22.2587   22.3349   34.2603 C   0  0  1  0  0  0  0  0  0  0  0  0
   21.0938   25.8601   32.7992 C   0  0  0  0  0  0  0  0  0  0  0  0
   21.4075   22.9850   30.5105 O   0  0  0  0  0  0  0  0  0  0  0  0
   23.5939   22.6054   33.6629 C   0  0  0  0  0  0  0  0  0  0  0  0
   21.1671   26.6528   31.6717 C   0  0  0  0  0  0  0  0  0  0  0  0
   23.7510   22.6121   32.2031 C   0  0  0  0  0  0  0  0  0  0  0  0
   20.1124   24.7206   32.9263 C   0  0  0  0  0  0  0  0  0  0  0  0
   24.9921   23.2317   31.8231 O   0  0  0  0  0  0  0  0  0  0  0  0
  1  2  1  0  0  0  0
  1  8  2  0  0  0  0
  1 14  1  0  0  0  0
  2  3  2  0  0  0  0
  2  7  1  0  0  0  0
  3  4  1  0  0  0  0
  4  5  2  0  0  0  0
  5  6  1  0  0  0  0
  6  7  2  0  0  0  0
  9 16  1  0  0  0  0
 10 21  1  0  0  0  0
 11 13  1  6  0  0  0
 11 17  1  0  0  0  0
 11 20  2  0  0  0  0
 11 31  1  0  0  0  0
 12 16  2  0  0  0  0
 12 28  1  0  0  0  0
 15 26  1  0  0  0  0
 15 18  1  0  0  0  0
 16 19  1  0  0  0  0
 18 30  1  0  0  0  0
 19 22  2  0  0  0  0
 21 18  1  6  0  0  0
 21 24  1  0  0  0  0
 22 23  1  0  0  0  0
 22 25  1  0  0  0  0
 24 14  1  1  0  0  0
 24 27  1  0  0  0  0
 25 28  2  0  0  0  0
 25 30  1  0  0  0  0
 27 29  1  0  0  0  0
 29 31  1  0  0  0  0
M  CHG  1  17  -1
M  END
>  <CHROM.1>
-26.54356948,109.24130069,145.24916503,-101.11175484,-63.88854663,-94.57607974
-40.00168070,165.07859191,-86.83347505,164.58811041,-66.04607479,-47.14650147
23.16230276,23.92803240,33.95553778,1.36505971,0.62690512,2.31276735

>  <Name>
ligand

>  <RI>
0

>  <Rbt.Current_Directory>
/home/itssahil/PROJECTS/Mol_Feturizer/New_Systems/rnas/2HOO

>  <Rbt.Executable>
rbdock ($Id: //depot/dev/client3/rdock/2013.1/src/exe/rbdock.cxx#4 $)

>  <Rbt.Library>
libRbt.so (2013.1, Build901 2013/11/27)

>  <Rbt.Parameter_File>
/export/apps/rDock/src/rDock_2013.1_src/data/scripts/dock_solv.prm

>  <Rbt.Receptor>
prm/blind_docking_80.prm

>  <SCORE>
-19.6351

>  <SCORE.INTER>
-12.009

>  <SCORE.INTER.CONST>
1

>  <SCORE.INTER.POLAR>
0

>  <SCORE.INTER.ROT>
12

>  <SCORE.INTER.SOLV>
18.2177

>  <SCORE.INTER.VDW>
-25.6786

>  <SCORE.INTER.norm>
-0.387388

>  <SCORE.INTRA>
-7.65593

>  <SCORE.INTRA.DIHEDRAL>
5.85251

>  <SCORE.INTRA.DIHEDRAL.0>
14.6094

>  <SCORE.INTRA.POLAR>
0

>  <SCORE.INTRA.POLAR.0>
0

>  <SCORE.INTRA.REPUL>
0

>  <SCORE.INTRA.REPUL.0>
0

>  <SCORE.INTRA.SOLV>
7.46557

>  <SCORE.INTRA.SOLV.lig_0>
-65.6478

>  <SCORE.INTRA.VDW>
-14.315

>  <SCORE.INTRA.VDW.0>
9.35535

>  <SCORE.INTRA.norm>
-0.246966

>  <SCORE.RESTR>
0.0298975

>  <SCORE.RESTR.CAVITY>
0.0298975

>  <SCORE.RESTR.norm>
0.000964436

>  <SCORE.SYSTEM>
0

>  <SCORE.SYSTEM.CONST>
0

>  <SCORE.SYSTEM.DIHEDRAL>
0

>  <SCORE.SYSTEM.SOLV>
0

>  <SCORE.SYSTEM.norm>
0

>  <SCORE.heavy>
31

>  <SCORE.norm>
-0.633389

>  <RMSD>
26.117

$$$$
ligand
 OpenBabel11021811443D
libRbt.so/2013.1/901 2013/11/27
 31 32  0  0  0  0  0  0  0  0999 V2000
   24.7271   26.9471   33.3720 C   0  0  0  0  0  0  0  0  0  0  0  0
   24.6968   28.4169   32.9637 C   0  0  0  0  0  0  0  0  0  0  0  0
   23.5220   28.9706   32.3591 C   0  0  0  0  0  0  0  0  0  0  0  0
   23.5012   30.3341   31.9794 C   0  0  0  0  0  0  0  0  0  0  0  0
   24.6314   31.1591   32.1990 C   0  0  0  0  0  0  0  0  0  0  0  0
   25.7937   30.6327   32.7983 C   0  0  0  0  0  0  0  0  0  0  0  0
   25.8348   29.2799   33.1809 C   0  0  0  0  0  0  0  0  0  0  0  0
   25.7496   26.2835   33.2029 O   0  0  0  0  0  0  0  0  0  0  0  0
   22.0355   19.3977   38.8408 C   0  0  0  0  0  0  0  0  0  0  0  0
   25.0954   24.9218   36.4366 C   0  0  0  0  0  0  0  0  0  0  0  0
   19.9206   22.8728   31.3020 P   0  0  1  0  0  0  0  0  0  0  0  0
   23.9677   20.8064   38.7130 N   0  0  0  0  0  0  0  0  0  0  0  0
   20.9669   22.6639   30.2829 O   0  0  0  0  0  0  0  0  0  0  0  0
   23.6124   26.3473   33.9318 S   0  0  0  0  0  0  0  0  0  0  0  0
   25.9512   23.2389   33.4564 C   0  0  0  0  0  0  0  0  0  0  0  0
   23.0034   20.1120   38.0180 C   0  0  0  0  0  0  0  0  0  0  0  0
   18.9696   23.9755   30.9958 O   0  5  0  0  0  0  0  0  0  0  0  0
   25.4547   23.1567   34.7157 N   0  0  0  0  0  0  0  0  0  0  0  0
   22.9281   20.0719   36.7246 N   0  0  0  0  0  0  0  0  0  0  0  0
   19.2524   21.5897   31.6204 O   0  0  0  0  0  0  0  0  0  0  0  0
   24.6411   24.3045   35.1417 C   0  0  2  0  0  0  0  0  0  0  0  0
   23.8531   20.7460   35.9505 C   0  0  0  0  0  0  0  0  0  0  0  0
   23.7475   20.6790   34.6211 N   0  0  0  0  0  0  0  0  0  0  0  0
   23.5005   24.8838   34.4387 C   0  0  1  0  0  0  0  0  0  0  0  0
   24.9095   21.4969   36.6108 C   0  0  0  0  0  0  0  0  0  0  0  0
   25.1009   23.0709   32.6100 O   0  0  0  0  0  0  0  0  0  0  0  0
   22.2229   24.1658   34.1835 C   0  0  0  0  0  0  0  0  0  0  0  0
   24.8952   21.4826   37.9908 C   0  0  0  0  0  0  0  0  0  0  0  0
   21.9907   23.5335   32.8789 C   0  0  0  0  0  0  0  0  0  0  0  0
   25.9734   22.2170   35.8188 C   0  0  0  0  0  0  0  0  0  0  0  0
   20.5844   23.3466   32.6421 O   0  0  0  0  0  0  0  0  0  0  0  0
  1  2  1  0  0  0  0
  1  8  2  0  0  0  0
  1 14  1  0  0  0  0
  2  3  2  0  0  0  0
  2  7  1  0  0  0  0
  3  4  1  0  0  0  0
  4  5  2  0  0  0  0
  5  6  1  0  0  0  0
  6  7  2  0  0  0  0
  9 16  1  0  0  0  0
 10 21  1  0  0  0  0
 11 13  1  6  0  0  0
 11 17  1  0  0  0  0
 11 20  2  0  0  0  0
 11 31  1  0  0  0  0
 12 16  2  0  0  0  0
 12 28  1  0  0  0  0
 15 26  1  0  0  0  0
 15 18  1  0  0  0  0
 16 19  1  0  0  0  0
 18 30  1  0  0  0  0
 19 22  2  0  0  0  0
 21 18  1  6  0  0  0
 21 24  1  0  0  0  0
 22 23  1  0  0  0  0
 22 25  1  0  0  0  0
 24 14  1  1  0  0  0
 24 27  1  0  0  0  0
 25 28  2  0  0  0  0
 25 30  1  0  0  0  0
 27 29  1  0  0  0  0
 29 31  1  0  0  0  0
M  CHG  1  17  -1
M  END
>  <CHROM.1>
140.86198131,-177.86676743,39.14368453,-73.29077992,-126.48919242,-135.54283063
62.15088766,82.43833858,51.65570749,-158.30860786,171.85757299,-1.06590012
23.35516297,24.13187490,34.02317777,-1.39223774,0.70501976,2.57362474

>  <Name>
ligand

>  <RI>
0

>  <Rbt.Current_Directory>
/home/itssahil/PROJECTS/Mol_Feturizer/New_Systems/rnas/2HOO

>  <Rbt.Executable>
rbdock ($Id: //depot/dev/client3/rdock/2013.1/src/exe/rbdock.cxx#4 $)

>  <Rbt.Library>
libRbt.so (2013.1, Build901 2013/11/27)

>  <Rbt.Parameter_File>
/export/apps/rDock/src/rDock_2013.1_src/data/scripts/dock_solv.prm

>  <Rbt.Receptor>
prm/blind_docking_100.prm

>  <SCORE>
-21.224

>  <SCORE.INTER>
-14.1203

>  <SCORE.INTER.CONST>
1

>  <SCORE.INTER.POLAR>
0

>  <SCORE.INTER.ROT>
12

>  <SCORE.INTER.SOLV>
10.0397

>  <SCORE.INTER.VDW>
-24.3601

>  <SCORE.INTER.norm>
-0.455492

>  <SCORE.INTRA>
-7.15095

>  <SCORE.INTRA.DIHEDRAL>
3.93746

>  <SCORE.INTRA.DIHEDRAL.0>
14.6094

>  <SCORE.INTRA.POLAR>
0

>  <SCORE.INTRA.POLAR.0>
0

>  <SCORE.INTRA.REPUL>
0

>  <SCORE.INTRA.REPUL.0>
0

>  <SCORE.INTRA.SOLV>
6.32323

>  <SCORE.INTRA.SOLV.lig_0>
-65.6478

>  <SCORE.INTRA.VDW>
-12.2813

>  <SCORE.INTRA.VDW.0>
9.35535

>  <SCORE.INTRA.norm>
-0.230676

>  <SCORE.RESTR>
0.0471955

>  <SCORE.RESTR.CAVITY>
0.0471955

>  <SCORE.RESTR.norm>
0.00152244

>  <SCORE.SYSTEM>
0

>  <SCORE.SYSTEM.CONST>
0

>  <SCORE.SYSTEM.DIHEDRAL>
0

>  <SCORE.SYSTEM.SOLV>
0

>  <SCORE.SYSTEM.norm>
0

>  <SCORE.heavy>
31

>  <SCORE.norm>
-0.684645

>  <RMSD>
26.191

$$$$
ligand
 OpenBabel11021811443D
libRbt.so/2013.1/901 2013/11/27
 31 32  0  0  0  0  0  0  0  0999 V2000
   20.0410   29.0758   33.3528 C   0  0  0  0  0  0  0  0  0  0  0  0
   18.8276   29.4306   34.2071 C   0  0  0  0  0  0  0  0  0  0  0  0
   18.8774   30.5543   35.0943 C   0  0  0  0  0  0  0  0  0  0  0  0
   17.7495   30.8765   35.8868 C   0  0  0  0  0  0  0  0  0  0  0  0
   16.5676   30.1003   35.8047 C   0  0  0  0  0  0  0  0  0  0  0  0
   16.4987   28.9948   34.9327 C   0  0  0  0  0  0  0  0  0  0  0  0
   17.6092   28.6573   34.1384 C   0  0  0  0  0  0  0  0  0  0  0  0
   20.1673   29.5664   32.2313 O   0  0  0  0  0  0  0  0  0  0  0  0
   25.2568   22.9792   38.4538 C   0  0  0  0  0  0  0  0  0  0  0  0
   21.1482   26.0986   31.1392 C   0  0  0  0  0  0  0  0  0  0  0  0
   24.4420   31.0794   31.5619 P   0  0  1  0  0  0  0  0  0  0  0  0
   24.4617   24.5538   36.8342 N   0  0  0  0  0  0  0  0  0  0  0  0
   23.4247   31.7653   32.3813 O   0  0  0  0  0  0  0  0  0  0  0  0
   21.0057   28.2032   33.8256 S   0  0  0  0  0  0  0  0  0  0  0  0
   23.4744   24.4205   32.5168 C   0  0  0  0  0  0  0  0  0  0  0  0
   24.2921   23.3172   37.4149 C   0  0  0  0  0  0  0  0  0  0  0  0
   24.8571   31.8218   30.3410 O   0  5  0  0  0  0  0  0  0  0  0  0
   22.3119   24.9227   33.0018 N   0  0  0  0  0  0  0  0  0  0  0  0
   23.3538   22.4846   37.0887 N   0  0  0  0  0  0  0  0  0  0  0  0
   25.5805   30.6547   32.4090 O   0  0  0  0  0  0  0  0  0  0  0  0
   21.9061   26.2164   32.4338 C   0  0  2  0  0  0  0  0  0  0  0  0
   22.4465   22.8086   36.0982 C   0  0  0  0  0  0  0  0  0  0  0  0
   21.4958   21.9249   35.7850 N   0  0  0  0  0  0  0  0  0  0  0  0
   22.1429   27.5400   33.0019 C   0  0  1  0  0  0  0  0  0  0  0  0
   22.5642   24.0953   35.4299 C   0  0  0  0  0  0  0  0  0  0  0  0
   23.4397   23.2172   32.3810 O   0  0  0  0  0  0  0  0  0  0  0  0
   23.4054   28.3086   32.8339 C   0  0  0  0  0  0  0  0  0  0  0  0
   23.5917   24.9114   35.8573 C   0  0  0  0  0  0  0  0  0  0  0  0
   24.0127   28.4297   31.5027 C   0  0  0  0  0  0  0  0  0  0  0  0
   21.6300   24.4870   34.3111 C   0  0  0  0  0  0  0  0  0  0  0  0
   23.8354   29.7565   30.9764 O   0  0  0  0  0  0  0  0  0  0  0  0
  1  2  1  0  0  0  0
  1  8  2  0  0  0  0
  1 14  1  0  0  0  0
  2  3  2  0  0  0  0
  2  7  1  0  0  0  0
  3  4  1  0  0  0  0
  4  5  2  0  0  0  0
  5  6  1  0  0  0  0
  6  7  2  0  0  0  0
  9 16  1  0  0  0  0
 10 21  1  0  0  0  0
 11 13  1  1  0  0  0
 11 17  1  0  0  0  0
 11 20  2  0  0  0  0
 11 31  1  0  0  0  0
 12 16  2  0  0  0  0
 12 28  1  0  0  0  0
 15 26  1  0  0  0  0
 15 18  1  0  0  0  0
 16 19  1  0  0  0  0
 18 30  1  0  0  0  0
 19 22  2  0  0  0  0
 21 18  1  1  0  0  0
 21 24  1  0  0  0  0
 22 23  1  0  0  0  0
 22 25  1  0  0  0  0
 24 14  1  6  0  0  0
 24 27  1  0  0  0  0
 25 28  2  0  0  0  0
 25 30  1  0  0  0  0
 27 29  1  0  0  0  0
 29 31  1  0  0  0  0
M  CHG  1  17  -1
M  END
>  <CHROM.1>
-89.82587307,167.77607577,-93.37010355,-142.13150118,84.75716522,33.95298835
81.72182168,-132.43819160,-126.02173612,106.92835806,64.74304371,-98.57442949
22.14835560,27.35584641,33.76903799,1.74279323,0.37143118,-0.50840513

>  <Name>
ligand

>  <RI>
0

>  <Rbt.Current_Directory>
/home/itssahil/PROJECTS/Mol_Feturizer/New_Systems/rnas/2HOO

>  <Rbt.Executable>
rbdock ($Id: //depot/dev/client3/rdock/2013.1/src/exe/rbdock.cxx#4 $)

>  <Rbt.Library>
libRbt.so (2013.1, Build901 2013/11/27)

>  <Rbt.Parameter_File>
/export/apps/rDock/src/rDock_2013.1_src/data/scripts/dock_solv.prm

>  <Rbt.Receptor>
prm/blind_docking_80.prm

>  <SCORE>
-25.9925

>  <SCORE.INTER>
-15.8473

>  <SCORE.INTER.CONST>
1

>  <SCORE.INTER.POLAR>
0

>  <SCORE.INTER.ROT>
12

>  <SCORE.INTER.SOLV>
14.592

>  <SCORE.INTER.VDW>
-27.0289

>  <SCORE.INTER.norm>
-0.511205

>  <SCORE.INTRA>
-11.0561

>  <SCORE.INTRA.DIHEDRAL>
5.04882

>  <SCORE.INTRA.DIHEDRAL.0>
14.6094

>  <SCORE.INTRA.POLAR>
0

>  <SCORE.INTRA.POLAR.0>
0

>  <SCORE.INTRA.REPUL>
0

>  <SCORE.INTRA.REPUL.0>
0

>  <SCORE.INTRA.SOLV>
0.805951

>  <SCORE.INTRA.SOLV.lig_0>
-65.6478

>  <SCORE.INTRA.VDW>
-13.9834

>  <SCORE.INTRA.VDW.0>
9.35535

>  <SCORE.INTRA.norm>
-0.356647

>  <SCORE.RESTR>
0.910921

>  <SCORE.RESTR.CAVITY>
0.910921

>  <SCORE.RESTR.norm>
0.0293845

>  <SCORE.SYSTEM>
0

>  <SCORE.SYSTEM.CONST>
0

>  <SCORE.SYSTEM.DIHEDRAL>
0

>  <SCORE.SYSTEM.SOLV>
0

>  <SCORE.SYSTEM.norm>
0

>  <SCORE.heavy>
31

>  <SCORE.norm>
-0.838467

>  <RMSD>
26.228

$$$$
ligand
 OpenBabel11021811443D
libRbt.so/2013.1/901 2013/11/27
 31 32  0  0  0  0  0  0  0  0999 V2000
   20.8832   26.7573   32.8272 C   0  0  0  0  0  0  0  0  0  0  0  0
   20.7025   25.4200   32.1150 C   0  0  0  0  0  0  0  0  0  0  0  0
   20.7558   24.1969   32.8588 C   0  0  0  0  0  0  0  0  0  0  0  0
   20.5908   22.9593   32.1919 C   0  0  0  0  0  0  0  0  0  0  0  0
   20.3658   22.9201   30.7940 C   0  0  0  0  0  0  0  0  0  0  0  0
   20.3042   24.1141   30.0472 C   0  0  0  0  0  0  0  0  0  0  0  0
   20.4676   25.3537   30.6911 C   0  0  0  0  0  0  0  0  0  0  0  0
   19.9544   27.5637   32.8648 O   0  0  0  0  0  0  0  0  0  0  0  0
   26.2343   22.3374   40.0007 C   0  0  0  0  0  0  0  0  0  0  0  0
   25.1576   25.8862   34.9960 C   0  0  0  0  0  0  0  0  0  0  0  0
   24.7454   30.6757   31.9924 P   0  0  1  0  0  0  0  0  0  0  0  0
   25.2380   23.9982   38.5923 N   0  0  0  0  0  0  0  0  0  0  0  0
   23.5600   31.3915   32.5015 O   0  0  0  0  0  0  0  0  0  0  0  0
   22.0857   27.0768   33.4336 S   0  0  0  0  0  0  0  0  0  0  0  0
   24.1041   23.1603   33.5730 C   0  0  0  0  0  0  0  0  0  0  0  0
   25.3307   22.6605   38.9038 C   0  0  0  0  0  0  0  0  0  0  0  0
   24.9182   30.7363   30.5157 O   0  5  0  0  0  0  0  0  0  0  0  0
   23.5365   24.1025   34.3660 N   0  0  0  0  0  0  0  0  0  0  0  0
   24.6771   21.7251   38.2890 N   0  0  0  0  0  0  0  0  0  0  0  0
   25.9537   31.0864   32.7444 O   0  0  0  0  0  0  0  0  0  0  0  0
   23.9977   25.4780   34.1286 C   0  0  2  0  0  0  0  0  0  0  0  0
   23.8271   22.0377   37.2454 C   0  0  0  0  0  0  0  0  0  0  0  0
   23.1733   21.0481   36.6321 N   0  0  0  0  0  0  0  0  0  0  0  0
   23.4685   26.4278   33.1546 C   0  0  1  0  0  0  0  0  0  0  0  0
   23.6810   23.4299   36.8500 C   0  0  0  0  0  0  0  0  0  0  0  0
   25.0410   22.6075   34.1060 O   0  0  0  0  0  0  0  0  0  0  0  0
   24.1640   26.8102   31.8965 C   0  0  0  0  0  0  0  0  0  0  0  0
   24.4138   24.3484   37.5739 C   0  0  0  0  0  0  0  0  0  0  0  0
   24.0122   28.1704   31.3648 C   0  0  0  0  0  0  0  0  0  0  0  0
   22.8013   23.8282   35.6901 C   0  0  0  0  0  0  0  0  0  0  0  0
   24.5829   29.1389   32.2619 O   0  0  0  0  0  0  0  0  0  0  0  0
  1  2  1  0  0  0  0
  1  8  2  0  0  0  0
  1 14  1  0  0  0  0
  2  3  2  0  0  0  0
  2  7  1  0  0  0  0
  3  4  1  0  0  0  0
  4  5  2  0  0  0  0
  5  6  1  0  0  0  0
  6  7  2  0  0  0  0
  9 16  1  0  0  0  0
 10 21  1  0  0  0  0
 11 13  1  1  0  0  0
 11 17  1  0  0  0  0
 11 20  2  0  0  0  0
 11 31  1  0  0  0  0
 12 16  2  0  0  0  0
 12 28  1  0  0  0  0
 15 26  1  0  0  0  0
 15 18  1  0  0  0  0
 16 19  1  0  0  0  0
 18 30  1  0  0  0  0
 19 22  2  0  0  0  0
 21 18  1  6  0  0  0
 21 24  1  0  0  0  0
 22 23  1  0  0  0  0
 22 25  1  0  0  0  0
 24 14  1  6  0  0  0
 24 27  1  0  0  0  0
 25 28  2  0  0  0  0
 25 30  1  0  0  0  0
 27 29  1  0  0  0  0
 29 31  1  0  0  0  0
M  CHG  1  17  -1
M  END
>  <CHROM.1>
-115.38835945,19.49398723,-104.18855274,96.35715631,-92.21802126,72.04973169
-108.04143782,33.46700469,-99.92676148,64.75092491,173.68853357,91.93018752
23.41101351,25.80740305,33.92649283,1.68163872,-0.76913447,-0.59722188

>  <Name>
ligand

>  <RI>
0

>  <Rbt.Current_Directory>
/home/itssahil/PROJECTS/Mol_Feturizer/New_Systems/rnas/2HOO

>  <Rbt.Executable>
rbdock ($Id: //depot/dev/client3/rdock/2013.1/src/exe/rbdock.cxx#4 $)

>  <Rbt.Library>
libRbt.so (2013.1, Build901 2013/11/27)

>  <Rbt.Parameter_File>
/export/apps/rDock/src/rDock_2013.1_src/data/scripts/dock_solv.prm

>  <Rbt.Receptor>
prm/blind_docking_100.prm

>  <SCORE>
-29.1606

>  <SCORE.INTER>
-15.8972

>  <SCORE.INTER.CONST>
1

>  <SCORE.INTER.POLAR>
0

>  <SCORE.INTER.ROT>
12

>  <SCORE.INTER.SOLV>
17.2944

>  <SCORE.INTER.VDW>
-27.9629

>  <SCORE.INTER.norm>
-0.512813

>  <SCORE.INTRA>
-13.2841

>  <SCORE.INTRA.DIHEDRAL>
0.315076

>  <SCORE.INTRA.DIHEDRAL.0>
14.6094

>  <SCORE.INTRA.POLAR>
0

>  <SCORE.INTRA.POLAR.0>
0

>  <SCORE.INTRA.REPUL>
0

>  <SCORE.INTRA.REPUL.0>
0

>  <SCORE.INTRA.SOLV>
1.70499

>  <SCORE.INTRA.SOLV.lig_0>
-65.6478

>  <SCORE.INTRA.VDW>
-14.2941

>  <SCORE.INTRA.VDW.0>
9.35535

>  <SCORE.INTRA.norm>
-0.42852

>  <SCORE.RESTR>
0.020705

>  <SCORE.RESTR.CAVITY>
0.020705

>  <SCORE.RESTR.norm>
0.000667904

>  <SCORE.SYSTEM>
0

>  <SCORE.SYSTEM.CONST>
0

>  <SCORE.SYSTEM.DIHEDRAL>
0

>  <SCORE.SYSTEM.SOLV>
0

>  <SCORE.SYSTEM.norm>
0

>  <SCORE.heavy>
31

>  <SCORE.norm>
-0.940665

>  <RMSD>
26.270

$$$$
ligand
 OpenBabel11021811443D
libRbt.so/2013.1/901 2013/11/27
 31 32  0  0  0  0  0  0  0  0999 V2000
   23.5750   25.7013   33.0987 C   0  0  0  0  0  0  0  0  0  0  0  0
   24.0790   27.0945   32.7340 C   0  0  0  0  0  0  0  0  0  0  0  0
   23.7763   27.6549   31.4508 C   0  0  0  0  0  0  0  0  0  0  0  0
   24.2496   28.9466   31.1170 C   0  0  0  0  0  0  0  0  0  0  0  0
   25.0151   29.6941   32.0451 C   0  0  0  0  0  0  0  0  0  0  0  0
   25.3173   29.1608   33.3146 C   0  0  0  0  0  0  0  0  0  0  0  0
   24.8579   27.8785   33.6645 C   0  0  0  0  0  0  0  0  0  0  0  0
   24.2362   24.7094   32.7932 O   0  0  0  0  0  0  0  0  0  0  0  0
   27.9148   20.4354   35.0401 C   0  0  0  0  0  0  0  0  0  0  0  0
   19.5533   22.7771   33.8879 C   0  0  0  0  0  0  0  0  0  0  0  0
   20.2032   29.0790   32.6584 P   0  0  1  0  0  0  0  0  0  0  0  0
   25.6670   20.2879   35.8525 N   0  0  0  0  0  0  0  0  0  0  0  0
   19.4247   29.5018   31.4785 O   0  0  0  0  0  0  0  0  0  0  0  0
   22.3763   25.5384   33.7712 S   0  0  0  0  0  0  0  0  0  0  0  0
   21.8837   23.1404   36.1775 C   0  0  0  0  0  0  0  0  0  0  0  0
   26.4930   20.6669   34.8185 C   0  0  0  0  0  0  0  0  0  0  0  0
   21.6588   29.3774   32.5790 O   0  5  0  0  0  0  0  0  0  0  0  0
   21.8286   22.6921   34.8989 N   0  0  0  0  0  0  0  0  0  0  0  0
   26.0745   21.1952   33.7114 N   0  0  0  0  0  0  0  0  0  0  0  0
   19.5659   29.5793   33.8985 O   0  0  0  0  0  0  0  0  0  0  0  0
   20.9052   23.4245   34.0203 C   0  0  2  0  0  0  0  0  0  0  0  0
   24.7257   21.4181   33.5105 C   0  0  0  0  0  0  0  0  0  0  0  0
   24.3308   21.9681   32.3597 N   0  0  0  0  0  0  0  0  0  0  0  0
   21.1661   24.6774   33.3182 C   0  0  1  0  0  0  0  0  0  0  0  0
   23.7881   21.0521   34.5607 C   0  0  0  0  0  0  0  0  0  0  0  0
   23.0084   23.1242   36.6274 O   0  0  0  0  0  0  0  0  0  0  0  0
   20.3374   25.1960   32.1970 C   0  0  0  0  0  0  0  0  0  0  0  0
   24.3351   20.4890   35.6958 C   0  0  0  0  0  0  0  0  0  0  0  0
   20.5192   26.5778   31.7353 C   0  0  0  0  0  0  0  0  0  0  0  0
   22.3083   21.3113   34.4170 C   0  0  0  0  0  0  0  0  0  0  0  0
   20.1732   27.5146   32.7703 O   0  0  0  0  0  0  0  0  0  0  0  0
  1  2  1  0  0  0  0
  1  8  2  0  0  0  0
  1 14  1  0  0  0  0
  2  3  2  0  0  0  0
  2  7  1  0  0  0  0
  3  4  1  0  0  0  0
  4  5  2  0  0  0  0
  5  6  1  0  0  0  0
  6  7  2  0  0  0  0
  9 16  1  0  0  0  0
 10 21  1  0  0  0  0
 11 13  1  6  0  0  0
 11 17  1  0  0  0  0
 11 20  2  0  0  0  0
 11 31  1  0  0  0  0
 12 16  2  0  0  0  0
 12 28  1  0  0  0  0
 15 26  1  0  0  0  0
 15 18  1  0  0  0  0
 16 19  1  0  0  0  0
 18 30  1  0  0  0  0
 19 22  2  0  0  0  0
 21 18  1  1  0  0  0
 21 24  1  0  0  0  0
 22 23  1  0  0  0  0
 22 25  1  0  0  0  0
 24 14  1  1  0  0  0
 24 27  1  0  0  0  0
 25 28  2  0  0  0  0
 25 30  1  0  0  0  0
 27 29  1  0  0  0  0
 29 31  1  0  0  0  0
M  CHG  1  17  -1
M  END
>  <CHROM.1>
86.64715494,124.35239665,106.92795257,-140.91104009,-96.29701771,-64.07380494
162.52845089,-11.45053188,-88.34221566,-63.77411953,-178.58859226,52.74022873
22.77635678,25.10415399,33.54221249,-1.99315394,-0.06815658,2.81066452

>  <Name>
ligand

>  <RI>
0

>  <Rbt.Current_Directory>
/home/itssahil/PROJECTS/Mol_Feturizer/New_Systems/rnas/2HOO

>  <Rbt.Executable>
rbdock ($Id: //depot/dev/client3/rdock/2013.1/src/exe/rbdock.cxx#4 $)

>  <Rbt.Library>
libRbt.so (2013.1, Build901 2013/11/27)

>  <Rbt.Parameter_File>
/export/apps/rDock/src/rDock_2013.1_src/data/scripts/dock_solv.prm

>  <Rbt.Receptor>
prm/blind_docking_80.prm

>  <SCORE>
-22.1846

>  <SCORE.INTER>
-11.4197

>  <SCORE.INTER.CONST>
1

>  <SCORE.INTER.POLAR>
0

>  <SCORE.INTER.ROT>
12

>  <SCORE.INTER.SOLV>
16.4227

>  <SCORE.INTER.VDW>
-24.6873

>  <SCORE.INTER.norm>
-0.368377

>  <SCORE.INTRA>
-10.8254

>  <SCORE.INTRA.DIHEDRAL>
0.284494

>  <SCORE.INTRA.DIHEDRAL.0>
14.6094

>  <SCORE.INTRA.POLAR>
0

>  <SCORE.INTRA.POLAR.0>
0

>  <SCORE.INTRA.REPUL>
0

>  <SCORE.INTRA.REPUL.0>
0

>  <SCORE.INTRA.SOLV>
5.83306

>  <SCORE.INTRA.SOLV.lig_0>
-65.6478

>  <SCORE.INTRA.VDW>
-13.8842

>  <SCORE.INTRA.VDW.0>
9.35535

>  <SCORE.INTRA.norm>
-0.349208

>  <SCORE.RESTR>
0.0605126

>  <SCORE.RESTR.CAVITY>
0.0605126

>  <SCORE.RESTR.norm>
0.00195202

>  <SCORE.SYSTEM>
0

>  <SCORE.SYSTEM.CONST>
0

>  <SCORE.SYSTEM.DIHEDRAL>
0

>  <SCORE.SYSTEM.SOLV>
0

>  <SCORE.SYSTEM.norm>
0

>  <SCORE.heavy>
31

>  <SCORE.norm>
-0.715633

>  <RMSD>
26.274

$$$$
ligand
 OpenBabel11021811443D
libRbt.so/2013.1/901 2013/11/27
 31 32  0  0  0  0  0  0  0  0999 V2000
   26.2402   26.2122   32.1096 C   0  0  0  0  0  0  0  0  0  0  0  0
   25.2433   27.3671   32.1321 C   0  0  0  0  0  0  0  0  0  0  0  0
   25.2114   28.3099   31.0540 C   0  0  0  0  0  0  0  0  0  0  0  0
   24.2865   29.3811   31.0823 C   0  0  0  0  0  0  0  0  0  0  0  0
   23.3857   29.5250   32.1658 C   0  0  0  0  0  0  0  0  0  0  0  0
   23.3988   28.6032   33.2322 C   0  0  0  0  0  0  0  0  0  0  0  0
   24.3115   27.5332   33.2236 C   0  0  0  0  0  0  0  0  0  0  0  0
   27.4286   26.4218   32.3511 O   0  0  0  0  0  0  0  0  0  0  0  0
   22.2330   19.2068   39.0548 C   0  0  0  0  0  0  0  0  0  0  0  0
   24.8251   21.6267   32.6399 C   0  0  0  0  0  0  0  0  0  0  0  0
   20.0991   24.9345   31.9811 P   0  0  1  0  0  0  0  0  0  0  0  0
   23.1698   19.3492   36.8556 N   0  0  0  0  0  0  0  0  0  0  0  0
   20.7209   24.5380   30.7032 O   0  0  0  0  0  0  0  0  0  0  0  0
   25.8225   24.9253   31.8181 S   0  0  0  0  0  0  0  0  0  0  0  0
   24.7646   23.9940   35.4308 C   0  0  0  0  0  0  0  0  0  0  0  0
   23.1644   19.8511   38.1375 C   0  0  0  0  0  0  0  0  0  0  0  0
   19.0308   25.9628   31.8569 O   0  5  0  0  0  0  0  0  0  0  0  0
   25.2522   22.9611   34.6998 N   0  0  0  0  0  0  0  0  0  0  0  0
   23.9186   20.8259   38.5386 N   0  0  0  0  0  0  0  0  0  0  0  0
   19.6763   23.7341   32.7391 O   0  0  0  0  0  0  0  0  0  0  0  0
   24.9068   22.9901   33.2712 C   0  0  2  0  0  0  0  0  0  0  0  0
   24.7947   21.4368   37.6618 C   0  0  0  0  0  0  0  0  0  0  0  0
   25.5533   22.4409   38.1084 N   0  0  0  0  0  0  0  0  0  0  0  0
   24.6264   24.1691   32.4574 C   0  0  1  0  0  0  0  0  0  0  0  0
   24.8536   20.9689   36.2858 C   0  0  0  0  0  0  0  0  0  0  0  0
   25.5012   24.9557   35.4250 O   0  0  0  0  0  0  0  0  0  0  0  0
   23.2624   24.7072   32.2068 C   0  0  0  0  0  0  0  0  0  0  0  0
   24.0161   19.9205   35.9631 C   0  0  0  0  0  0  0  0  0  0  0  0
   22.4096   25.0869   33.3401 C   0  0  0  0  0  0  0  0  0  0  0  0
   25.7586   21.6250   35.2717 C   0  0  0  0  0  0  0  0  0  0  0  0
   21.1669   25.6479   32.8820 O   0  0  0  0  0  0  0  0  0  0  0  0
  1  2  1  0  0  0  0
  1  8  2  0  0  0  0
  1 14  1  0  0  0  0
  2  3  2  0  0  0  0
  2  7  1  0  0  0  0
  3  4  1  0  0  0  0
  4  5  2  0  0  0  0
  5  6  1  0  0  0  0
  6  7  2  0  0  0  0
  9 16  1  0  0  0  0
 10 21  1  0  0  0  0
 11 13  1  6  0  0  0
 11 17  1  0  0  0  0
 11 20  2  0  0  0  0
 11 31  1  0  0  0  0
 12 16  2  0  0  0  0
 12 28  1  0  0  0  0
 15 26  1  0  0  0  0
 15 18  1  0  0  0  0
 16 19  1  0  0  0  0
 18 30  1  0  0  0  0
 19 22  2  0  0  0  0
 21 18  1  1  0  0  0
 21 24  1  0  0  0  0
 22 23  1  0  0  0  0
 22 25  1  0  0  0  0
 24 14  1  1  0  0  0
 24 27  1  0  0  0  0
 25 28  2  0  0  0  0
 25 30  1  0  0  0  0
 27 29  1  0  0  0  0
 29 31  1  0  0  0  0
M  CHG  1  17  -1
M  END
>  <CHROM.1>
75.05862394,-49.69479620,-114.40909602,-87.24675540,-151.14256009,47.66811409
-95.88713027,-122.20353889,-77.67725304,176.89024715,59.86760129,-59.01522149
23.70393607,24.18138956,33.84282106,-1.65030607,0.20230366,2.45056867

>  <Name>
ligand

>  <RI>
0

>  <Rbt.Current_Directory>
/home/itssahil/PROJECTS/Mol_Feturizer/New_Systems/rnas/2HOO

>  <Rbt.Executable>
rbdock ($Id: //depot/dev/client3/rdock/2013.1/src/exe/rbdock.cxx#4 $)

>  <Rbt.Library>
libRbt.so (2013.1, Build901 2013/11/27)

>  <Rbt.Parameter_File>
/export/apps/rDock/src/rDock_2013.1_src/data/scripts/dock_solv.prm

>  <Rbt.Receptor>
prm/blind_docking_80.prm

>  <SCORE>
-24.9719

>  <SCORE.INTER>
-16.1265

>  <SCORE.INTER.CONST>
1

>  <SCORE.INTER.POLAR>
0

>  <SCORE.INTER.ROT>
12

>  <SCORE.INTER.SOLV>
10.3149

>  <SCORE.INTER.VDW>
-25.7893

>  <SCORE.INTER.norm>
-0.52021

>  <SCORE.INTRA>
-8.84537

>  <SCORE.INTRA.DIHEDRAL>
0.22743

>  <SCORE.INTRA.DIHEDRAL.0>
14.6094

>  <SCORE.INTRA.POLAR>
0

>  <SCORE.INTRA.POLAR.0>
0

>  <SCORE.INTRA.REPUL>
0

>  <SCORE.INTRA.REPUL.0>
0

>  <SCORE.INTRA.SOLV>
3.2607

>  <SCORE.INTRA.SOLV.lig_0>
-65.6478

>  <SCORE.INTRA.VDW>
-10.5894

>  <SCORE.INTRA.VDW.0>
9.35535

>  <SCORE.INTRA.norm>
-0.285335

>  <SCORE.RESTR>
0

>  <SCORE.RESTR.CAVITY>
0

>  <SCORE.RESTR.norm>
0

>  <SCORE.SYSTEM>
0

>  <SCORE.SYSTEM.CONST>
0

>  <SCORE.SYSTEM.DIHEDRAL>
0

>  <SCORE.SYSTEM.SOLV>
0

>  <SCORE.SYSTEM.norm>
0

>  <SCORE.heavy>
31

>  <SCORE.norm>
-0.805545

>  <RMSD>
26.405

$$$$
ligand
 OpenBabel11021811443D
libRbt.so/2013.1/901 2013/11/27
 31 32  0  0  0  0  0  0  0  0999 V2000
   25.9294   26.5160   32.4728 C   0  0  0  0  0  0  0  0  0  0  0  0
   25.4694   27.9643   32.3355 C   0  0  0  0  0  0  0  0  0  0  0  0
   25.9829   28.9681   33.2192 C   0  0  0  0  0  0  0  0  0  0  0  0
   25.5497   30.3094   33.0890 C   0  0  0  0  0  0  0  0  0  0  0  0
   24.6168   30.6697   32.0859 C   0  0  0  0  0  0  0  0  0  0  0  0
   24.1057   29.6962   31.2037 C   0  0  0  0  0  0  0  0  0  0  0  0
   24.5222   28.3577   31.3181 C   0  0  0  0  0  0  0  0  0  0  0  0
   26.5882   25.9928   31.5746 O   0  0  0  0  0  0  0  0  0  0  0  0
   21.6594   18.9622   39.1865 C   0  0  0  0  0  0  0  0  0  0  0  0
   24.7059   23.2313   31.9414 C   0  0  0  0  0  0  0  0  0  0  0  0
   21.3786   27.4131   32.4437 P   0  0  1  0  0  0  0  0  0  0  0  0
   22.7608   20.7574   38.0470 N   0  0  0  0  0  0  0  0  0  0  0  0
   22.2950   28.2056   33.2856 O   0  0  0  0  0  0  0  0  0  0  0  0
   25.6119   25.7789   33.6005 S   0  0  0  0  0  0  0  0  0  0  0  0
   25.0572   21.7498   34.7834 C   0  0  0  0  0  0  0  0  0  0  0  0
   21.8258   19.7498   37.9716 C   0  0  0  0  0  0  0  0  0  0  0  0
   19.9343   27.6213   32.7350 O   0  5  0  0  0  0  0  0  0  0  0  0
   24.0080   22.3428   34.1617 N   0  0  0  0  0  0  0  0  0  0  0  0
   21.1236   19.4887   36.9138 N   0  0  0  0  0  0  0  0  0  0  0  0
   21.7216   27.5832   31.0128 O   0  0  0  0  0  0  0  0  0  0  0  0
   24.3445   23.5349   33.3702 C   0  0  2  0  0  0  0  0  0  0  0  0
   21.2912   20.2351   35.7631 C   0  0  0  0  0  0  0  0  0  0  0  0
   20.5539   19.9353   34.6910 N   0  0  0  0  0  0  0  0  0  0  0  0
   24.3356   24.9228   33.8224 C   0  0  1  0  0  0  0  0  0  0  0  0
   22.2673   21.3136   35.7600 C   0  0  0  0  0  0  0  0  0  0  0  0
   25.5648   20.8800   34.1101 O   0  0  0  0  0  0  0  0  0  0  0  0
   23.1818   25.5748   34.4980 C   0  0  0  0  0  0  0  0  0  0  0  0
   22.9561   21.5146   36.9389 C   0  0  0  0  0  0  0  0  0  0  0  0
   21.8157   25.2969   34.0372 C   0  0  0  0  0  0  0  0  0  0  0  0
   22.5257   22.1347   34.5203 C   0  0  0  0  0  0  0  0  0  0  0  0
   21.5792   25.8871   32.7470 O   0  0  0  0  0  0  0  0  0  0  0  0
  1  2  1  0  0  0  0
  1  8  2  0  0  0  0
  1 14  1  0  0  0  0
  2  3  2  0  0  0  0
  2  7  1  0  0  0  0
  3  4  1  0  0  0  0
  4  5  2  0  0  0  0
  5  6  1  0  0  0  0
  6  7  2  0  0  0  0
  9 16  1  0  0  0  0
 10 21  1  0  0  0  0
 11 13  1  1  0  0  0
 11 17  1  0  0  0  0
 11 20  2  0  0  0  0
 11 31  1  0  0  0  0
 12 16  2  0  0  0  0
 12 28  1  0  0  0  0
 15 26  1  0  0  0  0
 15 18  1  0  0  0  0
 16 19  1  0  0  0  0
 18 30  1  0  0  0  0
 19 22  2  0  0  0  0
 21 18  1  6  0  0  0
 21 24  1  0  0  0  0
 22 23  1  0  0  0  0
 22 25  1  0  0  0  0
 24 14  1  1  0  0  0
 24 27  1  0  0  0  0
 25 28  2  0  0  0  0
 25 30  1  0  0  0  0
 27 29  1  0  0  0  0
 29 31  1  0  0  0  0
M  CHG  1  17  -1
M  END
>  <CHROM.1>
-114.08247826,88.61454373,87.41979944,-91.66634819,89.33070600,6.77083880
-53.84031224,140.62294610,-132.74593173,-70.02740580,-73.27488822,38.83651428
23.36030106,24.70894834,33.89564598,-1.38345277,-0.13106240,2.66966098

>  <Name>
ligand

>  <RI>
0

>  <Rbt.Current_Directory>
/home/itssahil/PROJECTS/Mol_Feturizer/New_Systems/rnas/2HOO

>  <Rbt.Executable>
rbdock ($Id: //depot/dev/client3/rdock/2013.1/src/exe/rbdock.cxx#4 $)

>  <Rbt.Library>
libRbt.so (2013.1, Build901 2013/11/27)

>  <Rbt.Parameter_File>
/export/apps/rDock/src/rDock_2013.1_src/data/scripts/dock_solv.prm

>  <Rbt.Receptor>
prm/blind_docking_100.prm

>  <SCORE>
-25.463

>  <SCORE.INTER>
-13.8164

>  <SCORE.INTER.CONST>
1

>  <SCORE.INTER.POLAR>
0

>  <SCORE.INTER.ROT>
12

>  <SCORE.INTER.SOLV>
10.8984

>  <SCORE.INTER.VDW>
-24.4437

>  <SCORE.INTER.norm>
-0.445689

>  <SCORE.INTRA>
-11.802

>  <SCORE.INTRA.DIHEDRAL>
5.3592

>  <SCORE.INTRA.DIHEDRAL.0>
14.6094

>  <SCORE.INTRA.POLAR>
0

>  <SCORE.INTRA.POLAR.0>
0

>  <SCORE.INTRA.REPUL>
0

>  <SCORE.INTRA.REPUL.0>
0

>  <SCORE.INTRA.SOLV>
0.838741

>  <SCORE.INTRA.SOLV.lig_0>
-65.6478

>  <SCORE.INTRA.VDW>
-14.901

>  <SCORE.INTRA.VDW.0>
9.35535

>  <SCORE.INTRA.norm>
-0.38071

>  <SCORE.RESTR>
0.155421

>  <SCORE.RESTR.CAVITY>
0.155421

>  <SCORE.RESTR.norm>
0.00501357

>  <SCORE.SYSTEM>
0

>  <SCORE.SYSTEM.CONST>
0

>  <SCORE.SYSTEM.DIHEDRAL>
0

>  <SCORE.SYSTEM.SOLV>
0

>  <SCORE.SYSTEM.norm>
0

>  <SCORE.heavy>
31

>  <SCORE.norm>
-0.821386

>  <RMSD>
26.453

$$$$
ligand
 OpenBabel11021811443D
libRbt.so/2013.1/901 2013/11/27
 31 32  0  0  0  0  0  0  0  0999 V2000
   26.3102   26.2974   32.4710 C   0  0  0  0  0  0  0  0  0  0  0  0
   25.8231   27.7387   32.3542 C   0  0  0  0  0  0  0  0  0  0  0  0
   24.9428   28.1155   31.2888 C   0  0  0  0  0  0  0  0  0  0  0  0
   24.4970   29.4549   31.1838 C   0  0  0  0  0  0  0  0  0  0  0  0
   24.9090   30.4260   32.1289 C   0  0  0  0  0  0  0  0  0  0  0  0
   25.7701   30.0717   33.1874 C   0  0  0  0  0  0  0  0  0  0  0  0
   26.2254   28.7465   33.3079 C   0  0  0  0  0  0  0  0  0  0  0  0
   27.3438   25.9501   31.9005 O   0  0  0  0  0  0  0  0  0  0  0  0
   22.2685   19.1993   39.4778 C   0  0  0  0  0  0  0  0  0  0  0  0
   24.3487   22.5282   31.7425 C   0  0  0  0  0  0  0  0  0  0  0  0
   21.1235   28.3377   32.7491 P   0  0  1  0  0  0  0  0  0  0  0  0
   22.3693   19.3656   37.0911 N   0  0  0  0  0  0  0  0  0  0  0  0
   22.5082   28.7069   33.0999 O   0  0  0  0  0  0  0  0  0  0  0  0
   25.5993   25.3705   33.2135 S   0  0  0  0  0  0  0  0  0  0  0  0
   22.0911   22.6056   34.1720 C   0  0  0  0  0  0  0  0  0  0  0  0
   22.8537   19.8209   38.2965 C   0  0  0  0  0  0  0  0  0  0  0  0
   20.0908   28.8359   33.6975 O   0  5  0  0  0  0  0  0  0  0  0  0
   23.4425   22.5814   34.0625 N   0  0  0  0  0  0  0  0  0  0  0  0
   23.7646   20.7354   38.4141 N   0  0  0  0  0  0  0  0  0  0  0  0
   20.8430   28.6851   31.3367 O   0  0  0  0  0  0  0  0  0  0  0  0
   23.9917   23.3611   32.9438 C   0  0  2  0  0  0  0  0  0  0  0  0
   24.3104   21.3255   37.2901 C   0  0  0  0  0  0  0  0  0  0  0  0
   25.2435   22.2673   37.4489 N   0  0  0  0  0  0  0  0  0  0  0  0
   24.1889   24.8065   32.8916 C   0  0  1  0  0  0  0  0  0  0  0  0
   23.8446   20.9044   35.9780 C   0  0  0  0  0  0  0  0  0  0  0  0
   21.7092   23.3518   35.0464 O   0  0  0  0  0  0  0  0  0  0  0  0
   23.1186   25.7851   32.5602 C   0  0  0  0  0  0  0  0  0  0  0  0
   22.8789   19.9185   35.9625 C   0  0  0  0  0  0  0  0  0  0  0  0
   21.9104   25.8525   33.3917 C   0  0  0  0  0  0  0  0  0  0  0  0
   24.3714   21.5427   34.7160 C   0  0  0  0  0  0  0  0  0  0  0  0
   20.9593   26.7803   32.8410 O   0  0  0  0  0  0  0  0  0  0  0  0
  1  2  1  0  0  0  0
  1  8  2  0  0  0  0
  1 14  1  0  0  0  0
  2  3  2  0  0  0  0
  2  7  1  0  0  0  0
  3  4  1  0  0  0  0
  4  5  2  0  0  0  0
  5  6  1  0  0  0  0
  6  7  2  0  0  0  0
  9 16  1  0  0  0  0
 10 21  1  0  0  0  0
 11 13  1  1  0  0  0
 11 17  1  0  0  0  0
 11 20  2  0  0  0  0
 11 31  1  0  0  0  0
 12 16  2  0  0  0  0
 12 28  1  0  0  0  0
 15 26  1  0  0  0  0
 15 18  1  0  0  0  0
 16 19  1  0  0  0  0
 18 30  1  0  0  0  0
 19 22  2  0  0  0  0
 21 18  1  6  0  0  0
 21 24  1  0  0  0  0
 22 23  1  0  0  0  0
 22 25  1  0  0  0  0
 24 14  1  1  0  0  0
 24 27  1  0  0  0  0
 25 28  2  0  0  0  0
 25 30  1  0  0  0  0
 27 29  1  0  0  0  0
 29 31  1  0  0  0  0
M  CHG  1  17  -1
M  END
>  <CHROM.1>
89.63384245,67.13580896,131.52707070,-102.26594504,-99.71794993,-26.82701710
-83.98789543,-119.95625745,-101.77378737,-175.28774761,-67.67138847,9.82213312
23.55531530,24.97386581,33.97920581,-1.53683739,-0.19800146,2.61454318

>  <Name>
ligand

>  <RI>
0

>  <Rbt.Current_Directory>
/home/itssahil/PROJECTS/Mol_Feturizer/New_Systems/rnas/2HOO

>  <Rbt.Executable>
rbdock ($Id: //depot/dev/client3/rdock/2013.1/src/exe/rbdock.cxx#4 $)

>  <Rbt.Library>
libRbt.so (2013.1, Build901 2013/11/27)

>  <Rbt.Parameter_File>
/export/apps/rDock/src/rDock_2013.1_src/data/scripts/dock_solv.prm

>  <Rbt.Receptor>
prm/blind_docking_80.prm

>  <SCORE>
-29.7133

>  <SCORE.INTER>
-17.1508

>  <SCORE.INTER.CONST>
1

>  <SCORE.INTER.POLAR>
0

>  <SCORE.INTER.ROT>
12

>  <SCORE.INTER.SOLV>
10.805

>  <SCORE.INTER.VDW>
-26.6355

>  <SCORE.INTER.norm>
-0.553252

>  <SCORE.INTRA>
-12.5768

>  <SCORE.INTRA.DIHEDRAL>
3.74851

>  <SCORE.INTRA.DIHEDRAL.0>
14.6094

>  <SCORE.INTRA.POLAR>
0

>  <SCORE.INTRA.POLAR.0>
0

>  <SCORE.INTRA.REPUL>
0

>  <SCORE.INTRA.REPUL.0>
0

>  <SCORE.INTRA.SOLV>
0.244799

>  <SCORE.INTRA.SOLV.lig_0>
-65.6478

>  <SCORE.INTRA.VDW>
-14.5734

>  <SCORE.INTRA.VDW.0>
9.35535

>  <SCORE.INTRA.norm>
-0.405703

>  <SCORE.RESTR>
0.0142729

>  <SCORE.RESTR.CAVITY>
0.0142729

>  <SCORE.RESTR.norm>
0.000460416

>  <SCORE.SYSTEM>
0

>  <SCORE.SYSTEM.CONST>
0

>  <SCORE.SYSTEM.DIHEDRAL>
0

>  <SCORE.SYSTEM.SOLV>
0

>  <SCORE.SYSTEM.norm>
0

>  <SCORE.heavy>
31

>  <SCORE.norm>
-0.958495

>  <RMSD>
26.516

$$$$
ligand
 OpenBabel11021811443D
libRbt.so/2013.1/901 2013/11/27
 31 32  0  0  0  0  0  0  0  0999 V2000
   25.2461   25.0347   34.0808 C   0  0  0  0  0  0  0  0  0  0  0  0
   25.3883   23.5766   33.6545 C   0  0  0  0  0  0  0  0  0  0  0  0
   26.2176   22.6850   34.4092 C   0  0  0  0  0  0  0  0  0  0  0  0
   26.3482   21.3342   34.0068 C   0  0  0  0  0  0  0  0  0  0  0  0
   25.6591   20.8537   32.8665 C   0  0  0  0  0  0  0  0  0  0  0  0
   24.8339   21.7153   32.1155 C   0  0  0  0  0  0  0  0  0  0  0  0
   24.6926   23.0613   32.4980 C   0  0  0  0  0  0  0  0  0  0  0  0
   26.2094   25.7959   33.9971 O   0  0  0  0  0  0  0  0  0  0  0  0
   25.1446   31.7323   31.6235 C   0  0  0  0  0  0  0  0  0  0  0  0
   21.0988   24.0424   32.5959 C   0  0  0  0  0  0  0  0  0  0  0  0
   22.6450   20.1451   36.7953 P   0  0  1  0  0  0  0  0  0  0  0  0
   25.0071   29.3501   31.8254 N   0  0  0  0  0  0  0  0  0  0  0  0
   22.5054   19.3901   35.5354 O   0  0  0  0  0  0  0  0  0  0  0  0
   24.0410   25.5141   34.5642 S   0  0  0  0  0  0  0  0  0  0  0  0
   20.9879   27.3680   33.7118 C   0  0  0  0  0  0  0  0  0  0  0  0
   24.3365   30.5214   31.5541 C   0  0  0  0  0  0  0  0  0  0  0  0
   21.6607   19.7781   37.8491 O   0  5  0  0  0  0  0  0  0  0  0  0
   21.5026   26.4910   32.8147 N   0  0  0  0  0  0  0  0  0  0  0  0
   23.0770   30.5841   31.2545 N   0  0  0  0  0  0  0  0  0  0  0  0
   24.0502   20.1065   37.2624 O   0  0  0  0  0  0  0  0  0  0  0  0
   21.7875   25.1502   33.3460 C   0  0  2  0  0  0  0  0  0  0  0  0
   22.3151   29.4328   31.1971 C   0  0  0  0  0  0  0  0  0  0  0  0
   21.0198   29.5354   30.8896 N   0  0  0  0  0  0  0  0  0  0  0  0
   22.6576   24.8154   34.4692 C   0  0  1  0  0  0  0  0  0  0  0  0
   22.9494   28.1546   31.4795 C   0  0  0  0  0  0  0  0  0  0  0  0
   20.5226   28.3537   33.1832 O   0  0  0  0  0  0  0  0  0  0  0  0
   22.3114   23.8330   35.5313 C   0  0  0  0  0  0  0  0  0  0  0  0
   24.2959   28.1964   31.7793 C   0  0  0  0  0  0  0  0  0  0  0  0
   22.8430   22.4662   35.4607 C   0  0  0  0  0  0  0  0  0  0  0  0
   22.1596   26.8685   31.4750 C   0  0  0  0  0  0  0  0  0  0  0  0
   22.3286   21.6592   36.5343 O   0  0  0  0  0  0  0  0  0  0  0  0
  1  2  1  0  0  0  0
  1  8  2  0  0  0  0
  1 14  1  0  0  0  0
  2  3  2  0  0  0  0
  2  7  1  0  0  0  0
  3  4  1  0  0  0  0
  4  5  2  0  0  0  0
  5  6  1  0  0  0  0
  6  7  2  0  0  0  0
  9 16  1  0  0  0  0
 10 21  1  0  0  0  0
 11 13  1  6  0  0  0
 11 17  1  0  0  0  0
 11 20  2  0  0  0  0
 11 31  1  0  0  0  0
 12 16  2  0  0  0  0
 12 28  1  0  0  0  0
 15 26  1  0  0  0  0
 15 18  1  0  0  0  0
 16 19  1  0  0  0  0
 18 30  1  0  0  0  0
 19 22  2  0  0  0  0
 21 18  1  6  0  0  0
 21 24  1  0  0  0  0
 22 23  1  0  0  0  0
 22 25  1  0  0  0  0
 24 14  1  6  0  0  0
 24 27  1  0  0  0  0
 25 28  2  0  0  0  0
 25 30  1  0  0  0  0
 27 29  1  0  0  0  0
 29 31  1  0  0  0  0
M  CHG  1  17  -1
M  END
>  <CHROM.1>
67.84160656,-13.87916293,-93.69280716,-166.02519032,123.82167468,34.93237352
134.44454154,-80.33154407,-88.13130541,-176.63306333,179.27408563,-47.36029543
23.33618682,24.86869522,33.80880794,-1.55372166,0.23723908,-0.45668056

>  <Name>
ligand

>  <RI>
0

>  <Rbt.Current_Directory>
/home/itssahil/PROJECTS/Mol_Feturizer/New_Systems/rnas/2HOO

>  <Rbt.Executable>
rbdock ($Id: //depot/dev/client3/rdock/2013.1/src/exe/rbdock.cxx#4 $)

>  <Rbt.Library>
libRbt.so (2013.1, Build901 2013/11/27)

>  <Rbt.Parameter_File>
/export/apps/rDock/src/rDock_2013.1_src/data/scripts/dock_solv.prm

>  <Rbt.Receptor>
prm/blind_docking_80.prm

>  <SCORE>
-30.2808

>  <SCORE.INTER>
-16.865

>  <SCORE.INTER.CONST>
1

>  <SCORE.INTER.POLAR>
0

>  <SCORE.INTER.ROT>
12

>  <SCORE.INTER.SOLV>
11.1385

>  <SCORE.INTER.VDW>
-26.5561

>  <SCORE.INTER.norm>
-0.544031

>  <SCORE.INTRA>
-13.6432

>  <SCORE.INTRA.DIHEDRAL>
-0.0200944

>  <SCORE.INTRA.DIHEDRAL.0>
14.6094

>  <SCORE.INTRA.POLAR>
0

>  <SCORE.INTRA.POLAR.0>
0

>  <SCORE.INTRA.REPUL>
0

>  <SCORE.INTRA.REPUL.0>
0

>  <SCORE.INTRA.SOLV>
2.45399

>  <SCORE.INTRA.SOLV.lig_0>
-65.6478

>  <SCORE.INTRA.VDW>
-14.8601

>  <SCORE.INTRA.VDW.0>
9.35535

>  <SCORE.INTRA.norm>
-0.440102

>  <SCORE.RESTR>
0.227287

>  <SCORE.RESTR.CAVITY>
0.227287

>  <SCORE.RESTR.norm>
0.00733183

>  <SCORE.SYSTEM>
0

>  <SCORE.SYSTEM.CONST>
0

>  <SCORE.SYSTEM.DIHEDRAL>
0

>  <SCORE.SYSTEM.SOLV>
0

>  <SCORE.SYSTEM.norm>
0

>  <SCORE.heavy>
31

>  <SCORE.norm>
-0.976801

>  <RMSD>
26.636

$$$$
ligand
 OpenBabel11021811443D
libRbt.so/2013.1/901 2013/11/27
 31 32  0  0  0  0  0  0  0  0999 V2000
   25.0910   23.9989   35.1019 C   0  0  0  0  0  0  0  0  0  0  0  0
   25.3324   22.4923   35.1056 C   0  0  0  0  0  0  0  0  0  0  0  0
   26.4020   21.9341   34.3332 C   0  0  0  0  0  0  0  0  0  0  0  0
   26.6188   20.5353   34.3381 C   0  0  0  0  0  0  0  0  0  0  0  0
   25.7904   19.6818   35.1072 C   0  0  0  0  0  0  0  0  0  0  0  0
   24.7371   20.2143   35.8781 C   0  0  0  0  0  0  0  0  0  0  0  0
   24.5043   21.6013   35.8850 C   0  0  0  0  0  0  0  0  0  0  0  0
   25.0781   24.6216   36.1633 O   0  0  0  0  0  0  0  0  0  0  0  0
   26.3755   33.6239   29.8275 C   0  0  0  0  0  0  0  0  0  0  0  0
   23.6811   26.6016   31.2253 C   0  0  0  0  0  0  0  0  0  0  0  0
   21.1002   23.0271   33.0273 P   0  0  1  0  0  0  0  0  0  0  0  0
   26.1531   32.3186   31.8228 N   0  0  0  0  0  0  0  0  0  0  0  0
   20.0781   21.9770   33.1982 O   0  0  0  0  0  0  0  0  0  0  0  0
   24.8838   24.6772   33.9134 S   0  0  0  0  0  0  0  0  0  0  0  0
   26.1506   27.9888   32.8762 C   0  0  0  0  0  0  0  0  0  0  0  0
   25.7416   32.5112   30.5233 C   0  0  0  0  0  0  0  0  0  0  0  0
   22.3901   22.7536   33.7168 O   0  5  0  0  0  0  0  0  0  0  0  0
   24.7970   28.0660   32.9036 N   0  0  0  0  0  0  0  0  0  0  0  0
   24.8562   31.7768   29.9258 N   0  0  0  0  0  0  0  0  0  0  0  0
   21.2580   23.3594   31.5924 O   0  0  0  0  0  0  0  0  0  0  0  0
   24.0948   26.7980   32.6586 C   0  0  2  0  0  0  0  0  0  0  0  0
   24.2542   30.7275   30.5935 C   0  0  0  0  0  0  0  0  0  0  0  0
   23.3432   29.9949   29.9483 N   0  0  0  0  0  0  0  0  0  0  0  0
   23.7994   25.7530   33.6341 C   0  0  1  0  0  0  0  0  0  0  0  0
   24.6294   30.4642   31.9740 C   0  0  0  0  0  0  0  0  0  0  0  0
   26.6278   27.8084   33.9750 O   0  0  0  0  0  0  0  0  0  0  0  0
   22.5150   25.6404   34.3761 C   0  0  0  0  0  0  0  0  0  0  0  0
   25.5871   31.2984   32.5141 C   0  0  0  0  0  0  0  0  0  0  0  0
   21.2456   25.6374   33.6384 C   0  0  0  0  0  0  0  0  0  0  0  0
   23.9751   29.3603   32.7683 C   0  0  0  0  0  0  0  0  0  0  0  0
   20.6104   24.3492   33.7150 O   0  0  0  0  0  0  0  0  0  0  0  0
  1  2  1  0  0  0  0
  1  8  2  0  0  0  0
  1 14  1  0  0  0  0
  2  3  2  0  0  0  0
  2  7  1  0  0  0  0
  3  4  1  0  0  0  0
  4  5  2  0  0  0  0
  5  6  1  0  0  0  0
  6  7  2  0  0  0  0
  9 16  1  0  0  0  0
 10 21  1  0  0  0  0
 11 13  1  1  0  0  0
 11 17  1  0  0  0  0
 11 20  2  0  0  0  0
 11 31  1  0  0  0  0
 12 16  2  0  0  0  0
 12 28  1  0  0  0  0
 15 26  1  0  0  0  0
 15 18  1  0  0  0  0
 16 19  1  0  0  0  0
 18 30  1  0  0  0  0
 19 22  2  0  0  0  0
 21 18  1  6  0  0  0
 21 24  1  0  0  0  0
 22 23  1  0  0  0  0
 22 25  1  0  0  0  0
 24 14  1  6  0  0  0
 24 27  1  0  0  0  0
 25 28  2  0  0  0  0
 25 30  1  0  0  0  0
 27 29  1  0  0  0  0
 29 31  1  0  0  0  0
M  CHG  1  17  -1
M  END
>  <CHROM.1>
-124.04456261,135.30699339,149.93753689,-93.30152238,-95.32433661,27.88051745
93.08323690,-127.03289580,101.20294222,111.59730144,-69.77808525,-172.30442346
24.06884635,26.02366364,33.10729693,-1.75472707,-0.34796655,-0.40450410

>  <Name>
ligand

>  <RI>
0

>  <Rbt.Current_Directory>
/home/itssahil/PROJECTS/Mol_Feturizer/New_Systems/rnas/2HOO

>  <Rbt.Executable>
rbdock ($Id: //depot/dev/client3/rdock/2013.1/src/exe/rbdock.cxx#4 $)

>  <Rbt.Library>
libRbt.so (2013.1, Build901 2013/11/27)

>  <Rbt.Parameter_File>
/export/apps/rDock/src/rDock_2013.1_src/data/scripts/dock_solv.prm

>  <Rbt.Receptor>
prm/blind_docking_100.prm

>  <SCORE>
-20.4756

>  <SCORE.INTER>
-12.8259

>  <SCORE.INTER.CONST>
1

>  <SCORE.INTER.POLAR>
0

>  <SCORE.INTER.ROT>
12

>  <SCORE.INTER.SOLV>
13.6889

>  <SCORE.INTER.VDW>
-24.7136

>  <SCORE.INTER.norm>
-0.413739

>  <SCORE.INTRA>
-7.74872

>  <SCORE.INTRA.DIHEDRAL>
6.97458

>  <SCORE.INTRA.DIHEDRAL.0>
14.6094

>  <SCORE.INTRA.POLAR>
0

>  <SCORE.INTRA.POLAR.0>
0

>  <SCORE.INTRA.REPUL>
0

>  <SCORE.INTRA.REPUL.0>
0

>  <SCORE.INTRA.SOLV>
7.11121

>  <SCORE.INTRA.SOLV.lig_0>
-65.6478

>  <SCORE.INTRA.VDW>
-14.7916

>  <SCORE.INTRA.VDW.0>
9.35535

>  <SCORE.INTRA.norm>
-0.249959

>  <SCORE.RESTR>
0.0989974

>  <SCORE.RESTR.CAVITY>
0.0989974

>  <SCORE.RESTR.norm>
0.00319346

>  <SCORE.SYSTEM>
0

>  <SCORE.SYSTEM.CONST>
0

>  <SCORE.SYSTEM.DIHEDRAL>
0

>  <SCORE.SYSTEM.SOLV>
0

>  <SCORE.SYSTEM.norm>
0

>  <SCORE.heavy>
31

>  <SCORE.norm>
-0.660504

>  <RMSD>
27.677

$$$$
