@<TRIPOS>MOLECULE
2HOO_rdock.pdb
 1695 1894 0 0 0
SMALL
GASTEIGER

@<TRIPOS>ATOM
      1  C5'       -3.1920   16.7390   79.4220 C.3     9  G9          0.2141
      2  O5'       -4.5990   16.7330   79.1800 O.3     9  G9         -0.2176
      3  C4'       -2.6770   18.0170   80.0450 C.3     9  G9          0.1802
      4  O4'       -2.7840   17.9310   81.4900 O.3     9  G9         -0.3306
      5  C3'       -1.2020   18.2440   79.7810 C.3     9  G9          0.1861
      6  O3'       -1.0140   18.9490   78.5660 O.3     9  G9         -0.3112
      7  C2'       -0.7540   19.0260   81.0030 C.3     9  G9          0.2309
      8  O2'       -1.1030   20.3890   80.9220 O.3     9  G9         -0.2156
      9  C1'       -1.5620   18.3310   82.0960 C.3     9  G9          0.2408
     10  N1         1.8390   16.3300   85.3480 N.ar    9  G9         -0.1709
     11  C2         1.5780   17.6490   85.0720 C.ar    9  G9          0.2606
     12  N2         2.2970   18.5310   85.7650 N.pl3   9  G9         -0.0859
     13  N3         0.6790   18.0680   84.1830 N.ar    9  G9         -0.1918
     14  C4         0.0580   17.0340   83.5770 C.ar    9  G9          0.1723
     15  C5         0.2530   15.6820   83.7720 C.ar    9  G9          0.1748
     16  C6         1.2130   15.2510   84.7400 C.ar    9  G9          0.3023
     17  O6         1.5210   14.0870   85.0700 O.2     9  G9         -0.2633
     18  N7        -0.5730   14.9400   82.9380 N.ar    9  G9         -0.2173
     19  C8        -1.2510   15.8310   82.2760 C.ar    9  G9          0.1817
     20  N9        -0.9320   17.1230   82.6240 N.ar    9  G9         -0.2693
     21  P          0.2800   18.6360   77.6810 P.3    10  C10         0.2141
     22  C5'        1.4810   20.7480   78.7020 C.3    10  C10         0.1812
     23  O5'        1.4610   19.3420   78.4930 O.3    10  C10        -0.3114
     24  C4'        2.5560   21.1020   79.6970 C.3    10  C10         0.1773
     25  O4'        2.2190   20.5320   80.9940 O.3    10  C10        -0.3307
     26  C3'        3.9150   20.5060   79.3790 C.3    10  C10         0.1860
     27  O3'        4.6410   21.3110   78.4820 O.3    10  C10        -0.3112
     28  C2'        4.5760   20.4310   80.7460 C.3    10  C10         0.2309
     29  O2'        5.0860   21.6700   81.1910 O.3    10  C10        -0.2156
     30  C1'        3.3910   20.0010   81.6080 C.3    10  C10         0.2420
     31  N1         3.2620   18.5350   81.6460 N.ar   10  C10        -0.2535
     32  C2         4.1280   17.8070   82.4510 C.ar   10  C10         0.3532
     33  O2         4.9830   18.4230   83.1100 O.2    10  C10        -0.2443
     34  N3         4.0160   16.4560   82.4900 N.ar   10  C10        -0.1739
     35  C4         3.0870   15.8410   81.7480 C.ar   10  C10         0.1759
     36  N4         3.0120   14.5050   81.8000 N.pl3  10  C10        -0.1070
     37  C5         2.1920   16.5650   80.9160 C.ar   10  C10         0.0566
     38  C6         2.3110   17.8950   80.8960 C.ar   10  C10         0.0850
     39  OP1        0.1280   19.2830   76.3440 O.2    10  C10        -0.5172
     40  OP2        0.4700   17.1600   77.7700 O.co2  10  C10        -0.4373
     41  P          5.8550   20.6670   77.6590 P.3    11  G11         0.2141
     42  C5'        7.7050   21.3470   79.3860 C.3    11  G11         0.1812
     43  O5'        6.9170   20.3200   78.7980 O.3    11  G11        -0.3114
     44  C4'        8.7310   20.7560   80.3180 C.3    11  G11         0.1773
     45  O4'        8.0430   20.0390   81.3720 O.3    11  G11        -0.3307
     46  C3'        9.6810   19.7300   79.7200 C.3    11  G11         0.1860
     47  O3'       10.8020   20.3710   79.1390 O.3    11  G11        -0.3112
     48  C2'       10.1070   18.9550   80.9520 C.3    11  G11         0.2309
     49  O2'       11.0570   19.6740   81.7030 O.3    11  G11        -0.2156
     50  C1'        8.7930   18.8950   81.7330 C.3    11  G11         0.2408
     51  N1         8.1610   13.9520   82.5320 N.ar   11  G11        -0.1709
     52  C2         9.0700   14.8250   83.0830 C.ar   11  G11         0.2606
     53  N2         9.9310   14.3180   83.9560 N.pl3  11  G11        -0.0859
     54  N3         9.1270   16.1050   82.7960 N.ar   11  G11        -0.1918
     55  C4         8.1890   16.4630   81.8990 C.ar   11  G11         0.1723
     56  C5         7.2340   15.6820   81.2910 C.ar   11  G11         0.1748
     57  C6         7.1780   14.3010   81.6070 C.ar   11  G11         0.3023
     58  O6         6.3970   13.4420   81.1760 O.2    11  G11        -0.2633
     59  N7         6.4520   16.4410   80.4350 N.ar   11  G11        -0.2173
     60  C8         6.9420   17.6430   80.5390 C.ar   11  G11         0.1817
     61  N9         8.0010   17.7180   81.4050 N.ar   11  G11        -0.2693
     62  OP1        6.4370   21.7260   76.7860 O.2    11  G11        -0.5172
     63  OP2        5.3510   19.4070   77.0410 O.co2  11  G11        -0.4373
     64  P         11.5850   19.6660   77.9350 P.3    12  A12         0.2141
     65  C5'       13.3900   18.9010   79.6770 C.3    12  A12         0.1812
     66  O5'       12.4570   18.5530   78.6640 O.3    12  A12        -0.3114
     67  C4'       13.7650   17.6830   80.4880 C.3    12  A12         0.1773
     68  O4'       12.5790   17.1870   81.1660 O.3    12  A12        -0.3307
     69  C3'       14.2740   16.4740   79.7140 C.3    12  A12         0.1860
     70  O3'       15.6650   16.5670   79.4400 O.3    12  A12        -0.3112
     71  C2'       14.0040   15.3410   80.6960 C.3    12  A12         0.2309
     72  O2'       14.9950   15.2530   81.6970 O.3    12  A12        -0.2156
     73  C1'       12.6710   15.7800   81.3120 C.3    12  A12         0.2408
     74  N1        10.1250   11.4090   80.6590 N.ar   12  A12        -0.2040
     75  C2        11.2040   11.7320   81.3670 C.ar   12  A12         0.2016
     76  N3        11.8080   12.9020   81.4930 N.ar   12  A12        -0.2048
     77  C4        11.1760   13.8410   80.7740 C.ar   12  A12         0.1692
     78  C5        10.0540   13.6690   79.9920 C.ar   12  A12         0.1518
     79  C6         9.5120   12.3660   79.9410 C.ar   12  A12         0.1919
     80  N6         8.4430   12.0210   79.2280 N.pl3  12  A12        -0.1054
     81  N7         9.6890   14.8670   79.3930 N.ar   12  A12        -0.2193
     82  C8        10.5860   15.7170   79.8250 C.ar   12  A12         0.1816
     83  N9        11.5180   15.1610   80.6580 N.ar   12  A12        -0.2693
     84  OP1       12.5250   20.6400   77.3470 O.3    12  A12        -0.4373
     85  OP2       10.5680   19.0210   77.0660 O.co2  12  A12        -0.5172
     86  P         16.2520   15.9400   78.0840 P.3    13  C13         0.2141
     87  C5'       17.3720   13.8930   79.3110 C.3    13  C13         0.1812
     88  O5'       16.3890   14.3830   78.3950 O.3    13  C13        -0.3114
     89  C4'       17.1130   12.4380   79.6220 C.3    13  C13         0.1773
     90  O4'       15.7780   12.3350   80.1830 O.3    13  C13        -0.3307
     91  C3'       17.0870   11.5090   78.4180 C.3    13  C13         0.1860
     92  O3'       18.3780   10.9960   78.1390 O.3    13  C13        -0.3112
     93  C2'       16.1760   10.3870   78.8850 C.3    13  C13         0.2309
     94  O2'       16.8840    9.4700   79.6920 O.3    13  C13        -0.2156
     95  C1'       15.1360   11.1560   79.7090 C.3    13  C13         0.2420
     96  N1        13.9440   11.5760   78.9460 N.ar   13  C13        -0.2535
     97  C2        13.0240   10.6150   78.5000 C.ar   13  C13         0.3532
     98  O2        13.1870    9.4300   78.8090 O.2    13  C13        -0.2443
     99  N3        11.9780   11.0140   77.7400 N.ar   13  C13        -0.1739
    100  C4        11.8280   12.3060   77.4340 C.ar   13  C13         0.1759
    101  N4        10.8070   12.6600   76.6540 N.pl3  13  C13        -0.1070
    102  C5        12.7250   13.2990   77.9090 C.ar   13  C13         0.0566
    103  C6        13.7550   12.8950   78.6550 C.ar   13  C13         0.0850
    104  OP1       17.6130   16.4820   77.8830 O.3    13  C13        -0.4373
    105  OP2       15.2290   16.1280   77.0250 O.co2  13  C13        -0.5172
    106  P         18.7840   10.6710   76.6220 P.3    14  U14         0.2141
    107  C5'       18.5150    8.0770   77.0000 C.3    14  U14         0.1812
    108  O5'       18.1000    9.2580   76.3120 O.3    14  U14        -0.3114
    109  C4'       17.4630    6.9850   76.8990 C.3    14  U14         0.1773
    110  O4'       16.2050    7.4570   77.4600 O.3    14  U14        -0.3307
    111  C3'       17.0830    6.5090   75.5060 C.3    14  U14         0.1860
    112  O3'       18.0080    5.5560   74.9870 O.3    14  U14        -0.3112
    113  C2'       15.7170    5.8780   75.7550 C.3    14  U14         0.2309
    114  O2'       15.7630    4.5730   76.2910 O.3    14  U14        -0.2156
    115  C1'       15.1200    6.8450   76.7800 C.3    14  U14         0.2420
    116  N1        14.3390    7.8870   76.1010 N.ar   14  U14        -0.2534
    117  C2        13.2150    7.4800   75.4090 C.ar   14  U14         0.3546
    118  O2        12.8390    6.3190   75.3840 O.2    14  U14        -0.2443
    119  N3        12.5510    8.4790   74.7420 N.ar   14  U14        -0.1530
    120  C4        12.8850    9.8140   74.7030 C.ar   14  U14         0.2846
    121  O4        12.1970   10.5870   74.0370 O.2    14  U14        -0.2650
    122  C5        14.0450   10.1590   75.4620 C.ar   14  U14         0.0814
    123  C6        14.7140    9.2070   76.1230 C.ar   14  U14         0.0870
    124  OP1       20.2610   10.5190   76.5240 O.3    14  U14        -0.4373
    125  OP2       18.0990   11.7240   75.8270 O.co2  14  U14        -0.5172
    126  P         18.3690    5.5720   73.4150 P.3    15  C15         0.2141
    127  C5'       16.6720    3.5920   73.0570 C.3    15  C15         0.1812
    128  O5'       17.1040    4.9060   72.7060 O.3    15  C15        -0.3114
    129  C4'       15.2580    3.3650   72.5810 C.3    15  C15         0.1773
    130  O4'       14.3880    4.3360   73.2220 O.3    15  C15        -0.3307
    131  C3'       15.0300    3.6230   71.1020 C.3    15  C15         0.1860
    132  O3'       15.3890    2.5320   70.2740 O.3    15  C15        -0.3112
    133  C2'       13.5370    3.9120   71.0350 C.3    15  C15         0.2309
    134  O2'       12.6860    2.7890   70.9220 O.3    15  C15        -0.2156
    135  C1'       13.3190    4.6620   72.3470 C.3    15  C15         0.2420
    136  N1        13.3370    6.0990   72.0790 N.ar   15  C15        -0.2535
    137  C2        12.1490    6.7030   71.6930 C.ar   15  C15         0.3532
    138  O2        11.1290    6.0000   71.6100 O.2    15  C15        -0.2443
    139  N3        12.1390    8.0260   71.4110 N.ar   15  C15        -0.1739
    140  C4        13.2620    8.7370   71.5140 C.ar   15  C15         0.1759
    141  N4        13.2050   10.0360   71.2320 N.pl3  15  C15        -0.1070
    142  C5        14.4900    8.1450   71.9090 C.ar   15  C15         0.0566
    143  C6        14.4830    6.8340   72.1880 C.ar   15  C15         0.0850
    144  OP1       19.5590    4.7060   73.1900 O.3    15  C15        -0.4373
    145  OP2       18.4040    6.9940   72.9840 O.co2  15  C15        -0.5172
    146  P         15.8470    2.8140   68.7550 P.3    16  G16         0.2141
    147  C5'       13.4080    2.6090   67.8330 C.3    16  G16         0.1812
    148  O5'       14.5540    3.4190   68.0360 O.3    16  G16        -0.3114
    149  C4'       12.1890    3.4530   67.5650 C.3    16  G16         0.1773
    150  O4'       12.1070    4.5190   68.5470 O.3    16  G16        -0.3307
    151  C3'       12.1080    4.2460   66.2730 C.3    16  G16         0.1860
    152  O3'       11.7850    3.4230   65.1700 O.3    16  G16        -0.3112
    153  C2'       10.9430    5.1700   66.5930 C.3    16  G16         0.2309
    154  O2'        9.7000    4.5000   66.5950 O.3    16  G16        -0.2156
    155  C1'       11.2740    5.5510   68.0330 C.3    16  G16         0.2408
    156  N1        10.7330   10.5390   67.5070 N.ar   16  G16        -0.1709
    157  C2         9.8390    9.5310   67.2790 C.ar   16  G16         0.2606
    158  N2         8.6150    9.8930   66.8730 N.pl3  16  G16        -0.0859
    159  N3        10.1170    8.2550   67.4390 N.ar   16  G16        -0.1918
    160  C4        11.3830    8.0570   67.8550 C.ar   16  G16         0.1723
    161  C5        12.3570    8.9870   68.1070 C.ar   16  G16         0.1748
    162  C6        12.0410   10.3650   67.9290 C.ar   16  G16         0.3023
    163  O6        12.7590   11.3490   68.1020 O.2    16  G16        -0.2633
    164  N7        13.5390    8.3670   68.5090 N.ar   16  G16        -0.2173
    165  C8        13.2550    7.0920   68.5000 C.ar   16  G16         0.1817
    166  N9        11.9580    6.8380   68.1260 N.ar   16  G16        -0.2693
    167  OP1       16.1630    1.4920   68.1420 O.2    16  G16        -0.5172
    168  OP2       16.8850    3.8860   68.7860 O.co2  16  G16        -0.4373
    169  P         12.0230    3.9630   63.6750 P.3    17  G17         0.2141
    170  C5'        9.4990    4.5470   63.3380 C.3    17  G17         0.1812
    171  O5'       10.8360    5.0000   63.4560 O.3    17  G17        -0.3114
    172  C4'        8.5990    5.6980   62.9990 C.3    17  G17         0.1773
    173  O4'        8.7150    6.6820   64.0540 O.3    17  G17        -0.3307
    174  C3'        8.9860    6.4720   61.7530 C.3    17  G17         0.1860
    175  O3'        8.4540    5.8960   60.5830 O.3    17  G17        -0.3112
    176  C2'        8.3750    7.8340   62.0180 C.3    17  G17         0.2309
    177  O2'        6.9740    7.8370   61.8390 O.3    17  G17        -0.2156
    178  C1'        8.6870    7.9910   63.5000 C.3    17  G17         0.2408
    179  N1        11.1780   12.3710   63.9870 N.ar   17  G17        -0.1709
    180  C2         9.8920   12.1290   63.5420 C.ar   17  G17         0.2606
    181  N2         9.1500   13.1970   63.2450 N.pl3  17  G17        -0.0859
    182  N3         9.3700   10.9260   63.4040 N.ar   17  G17        -0.1918
    183  C4        10.2360    9.9590   63.7570 C.ar   17  G17         0.1723
    184  C5        11.5370   10.0810   64.2020 C.ar   17  G17         0.1748
    185  C6        12.0970   11.3830   64.3480 C.ar   17  G17         0.3023
    186  O6        13.2400   11.6970   64.7410 O.2    17  G17        -0.2633
    187  N7        12.0910    8.8330   64.4460 N.ar   17  G17        -0.2173
    188  C8        11.1290    7.9990   64.1690 C.ar   17  G17         0.1817
    189  N9         9.9700    8.6220   63.7790 N.ar   17  G17        -0.2693
    190  OP1       11.7960    2.7860   62.7930 O.2    17  G17        -0.5172
    191  OP2       13.3220    4.6900   63.6160 O.co2  17  G17        -0.4373
    192  P          9.2500    6.0520   59.2030 P.3    18  G18         0.2141
    193  C5'        7.8830    8.1770   58.5400 C.3    18  G18         0.1812
    194  O5'        9.1450    7.6130   58.8870 O.3    18  G18        -0.3114
    195  C4'        7.9830    9.6700   58.3710 C.3    18  G18         0.1773
    196  O4'        8.4670   10.2660   59.5920 O.3    18  G18        -0.3307
    197  C3'        8.9660   10.1890   57.3460 C.3    18  G18         0.1860
    198  O3'        8.3980   10.0660   56.0530 O.3    18  G18        -0.3112
    199  C2'        9.1180   11.6450   57.7820 C.3    18  G18         0.2309
    200  O2'        8.0280   12.4780   57.4400 O.3    18  G18        -0.2156
    201  C1'        9.1010   11.4940   59.2960 C.3    18  G18         0.2408
    202  N1        12.8410   14.3250   61.1400 N.ar   18  G18        -0.1709
    203  C2        11.6740   14.7040   60.5210 C.ar   18  G18         0.2606
    204  N2        11.4480   16.0160   60.4190 N.pl3  18  G18        -0.0859
    205  N3        10.7870   13.8560   60.0390 N.ar   18  G18        -0.1918
    206  C4        11.1520   12.5760   60.2410 C.ar   18  G18         0.1723
    207  C5        12.2870   12.0880   60.8450 C.ar   18  G18         0.1748
    208  C6        13.2420   13.0080   61.3500 C.ar   18  G18         0.3023
    209  O6        14.3120   12.7740   61.9200 O.2    18  G18        -0.2633
    210  N7        12.2780   10.6970   60.8550 N.ar   18  G18        -0.2173
    211  C8        11.1560   10.3790   60.2690 C.ar   18  G18         0.1817
    212  N9        10.4200   11.4760   59.8970 N.ar   18  G18        -0.2693
    213  OP1        8.4460    5.2800   58.2210 O.2    18  G18        -0.5172
    214  OP2       10.6810    5.7030   59.4240 O.co2  18  G18        -0.4373
    215  P          9.3400   10.1450   54.7580 P.3    19  G19         0.2141
    216  C5'        8.3740   12.4790   54.0760 C.3    19  G19         0.1812
    217  O5'        9.4830   11.7040   54.5180 O.3    19  G19        -0.3114
    218  C4'        8.8340   13.8820   53.8200 C.3    19  G19         0.1773
    219  O4'        9.2810   14.4590   55.0810 O.3    19  G19        -0.3307
    220  C3'       10.0420   13.9360   52.9070 C.3    19  G19         0.1860
    221  O3'        9.5680   13.9610   51.5570 O.3    19  G19        -0.3112
    222  C2'       10.7490   15.2020   53.3890 C.3    19  G19         0.2309
    223  O2'       10.0870   16.3580   52.9270 O.3    19  G19        -0.2156
    224  C1'       10.5100   15.1360   54.9020 C.3    19  G19         0.2408
    225  N1        14.2930   15.5380   58.3080 N.ar   19  G19        -0.1709
    226  C2        13.5540   16.5260   57.7260 C.ar   19  G19         0.2606
    227  N2        13.8380   17.7730   58.1000 N.pl3  19  G19        -0.0859
    228  N3        12.6000   16.3110   56.8410 N.ar   19  G19        -0.1918
    229  C4        12.4310   15.0000   56.5850 C.ar   19  G19         0.1723
    230  C5        13.1110   13.9340   57.1220 C.ar   19  G19         0.1748
    231  C6        14.1380   14.1780   58.0600 C.ar   19  G19         0.3023
    232  O6        14.8610   13.3560   58.6350 O.2    19  G19        -0.2633
    233  N7        12.6280   12.7350   56.6170 N.ar   19  G19        -0.2173
    234  C8        11.6860   13.0870   55.7860 C.ar   19  G19         0.1817
    235  N9        11.5060   14.4430   55.7170 N.ar   19  G19        -0.2693
    236  OP1        8.5430    9.5860   53.6330 O.2    19  G19        -0.5172
    237  OP2       10.6820    9.5880   55.0700 O.co2  19  G19        -0.4373
    238  P         10.5820   13.6910   50.3310 P.3    20  U20         0.2141
    239  C5'       12.7430   15.1330   49.9700 C.3    20  U20         0.1812
    240  O5'       11.3400   15.0810   50.1770 O.3    20  U20        -0.3114
    241  C4'       13.2570   16.5120   50.2930 C.3    20  U20         0.1773
    242  O4'       13.3480   16.6410   51.7430 O.3    20  U20        -0.3307
    243  C3'       14.6780   16.7150   49.8100 C.3    20  U20         0.1860
    244  O3'       15.0320   17.0770   48.5030 O.3    20  U20        -0.3112
    245  C2'       15.6280   16.4860   50.9550 C.3    20  U20         0.2309
    246  O2'       16.6430   17.4670   50.9650 O.3    20  U20        -0.2156
    247  C1'       14.7090   16.6630   52.1590 C.3    20  U20         0.2420
    248  N1        14.9500   15.6000   53.1410 N.ar   20  U20        -0.2534
    249  C2        15.8460   15.8850   54.1390 C.ar   20  U20         0.3546
    250  O2        16.3690   16.9740   54.2640 O.2    20  U20        -0.2443
    251  N3        16.1130   14.8520   54.9920 N.ar   20  U20        -0.1530
    252  C4        15.5770   13.5930   54.9560 C.ar   20  U20         0.2846
    253  O4        15.9290   12.7710   55.8020 O.2    20  U20        -0.2650
    254  C5        14.6310   13.3750   53.9050 C.ar   20  U20         0.0814
    255  C6        14.3520   14.3680   53.0550 C.ar   20  U20         0.0870
    256  OP1        9.7970   13.5000   49.0820 O.2    20  U20        -0.5172
    257  OP2       11.5750   12.6580   50.7400 O.co2  20  U20        -0.4373
    258  P         15.1210   15.9280   47.3950 P.3    21  G21         0.2141
    259  C5'       13.3190   16.5980   45.6540 C.3    21  G21         0.1812
    260  O5'       13.6350   15.8770   46.8290 O.3    21  G21        -0.3114
    261  C4'       12.3090   17.6700   45.9450 C.3    21  G21         0.1773
    262  O4'       12.6270   18.3090   47.2040 O.3    21  G21        -0.3307
    263  C3'       12.3640   18.8290   44.9700 C.3    21  G21         0.1860
    264  O3'       11.7450   18.5730   43.7340 O.3    21  G21        -0.3112
    265  C2'       11.6880   19.9350   45.7520 C.3    21  G21         0.2309
    266  O2'       10.2860   19.7620   45.8010 O.3    21  G21        -0.2156
    267  C1'       12.2770   19.6890   47.1360 C.3    21  G21         0.2408
    268  N1        14.1990   24.3580   47.8280 N.ar   21  G21        -0.1709
    269  C2        12.9720   24.0010   47.3260 C.ar   21  G21         0.2606
    270  N2        12.1470   25.0070   47.0150 N.pl3  21  G21        -0.0859
    271  N3        12.5860   22.7430   47.1420 N.ar   21  G21        -0.1918
    272  C4        13.5500   21.8630   47.4970 C.ar   21  G21         0.1723
    273  C5        14.8090   22.1270   47.9940 C.ar   21  G21         0.1748
    274  C6        15.2020   23.4640   48.1980 C.ar   21  G21         0.3023
    275  O6        16.2750   23.8840   48.6470 O.2    21  G21        -0.2633
    276  N7        15.5040   20.9520   48.2210 N.ar   21  G21        -0.2173
    277  C8        14.6700   20.0100   47.8770 C.ar   21  G21         0.1817
    278  N9        13.4550   20.4890   47.4640 N.ar   21  G21        -0.2693
    279  OP1       15.4480   14.6660   48.1230 O.3    21  G21        -0.4373
    280  OP2       16.0130   16.4000   46.3020 O.co2  21  G21        -0.5172
    281  P         12.5580   18.8890   42.3950 P.3    22  C22         0.2141
    282  C5'       11.4300   21.2050   41.9370 C.3    22  C22         0.1812
    283  O5'       12.5900   20.4770   42.3190 O.3    22  C22        -0.3114
    284  C4'       11.7430   22.6760   41.8690 C.3    22  C22         0.1773
    285  O4'       11.9880   23.1920   43.2090 O.3    22  C22        -0.3307
    286  C3'       13.0110   23.0460   41.1210 C.3    22  C22         0.1860
    287  O3'       12.8400   23.0630   39.7120 O.3    22  C22        -0.3112
    288  C2'       13.2920   24.4360   41.6680 C.3    22  C22         0.2309
    289  O2'       12.4590   25.4230   41.1010 O.3    22  C22        -0.2156
    290  C1'       12.9470   24.2410   43.1430 C.3    22  C22         0.2420
    291  N1        14.1520   23.8240   43.8660 N.ar   22  C22        -0.2535
    292  C2        15.1400   24.7750   44.1210 C.ar   22  C22         0.3532
    293  O2        14.9490   25.9530   43.7710 O.2    22  C22        -0.2443
    294  N3        16.2740   24.3940   44.7370 N.ar   22  C22        -0.1739
    295  C4        16.4380   23.1230   45.0990 C.ar   22  C22         0.1759
    296  N4        17.5830   22.7870   45.6990 N.pl3  22  C22        -0.1070
    297  C5        15.4390   22.1400   44.8640 C.ar   22  C22         0.0566
    298  C6        14.3210   22.5310   44.2570 C.ar   22  C22         0.0850
    299  OP1       11.7590   18.3940   41.2460 O.2    22  C22        -0.5172
    300  OP2       13.9460   18.3960   42.6010 O.co2  22  C22        -0.4373
    301  P         14.0450   22.5650   38.7700 P.3    23  C23         0.2141
    302  C5'       14.7240   25.0770   38.3170 C.3    23  C23         0.1812
    303  O5'       15.0910   23.7740   38.7700 O.3    23  C23        -0.3114
    304  C4'       15.7480   26.1070   38.7610 C.3    23  C23         0.1773
    305  O4'       15.8800   26.0890   40.2130 O.3    23  C23        -0.3307
    306  C3'       17.1910   25.9270   38.3080 C.3    23  C23         0.1860
    307  O3'       17.4040   26.3320   36.9600 O.3    23  C23        -0.3112
    308  C2'       17.9230   26.8530   39.2730 C.3    23  C23         0.2309
    309  O2'       17.8360   28.2220   38.9330 O.3    23  C23        -0.2156
    310  C1'       17.1570   26.6030   40.5710 C.3    23  C23         0.2420
    311  N1        17.8840   25.6120   41.3660 N.ar   23  C23        -0.2535
    312  C2        18.9210   26.0620   42.1860 C.ar   23  C23         0.3532
    313  O2        19.1440   27.2840   42.2570 O.2    23  C23        -0.2443
    314  N3        19.6540   25.1620   42.8780 N.ar   23  C23        -0.1739
    315  C4        19.3810   23.8610   42.7750 C.ar   23  C23         0.1759
    316  N4        20.1410   23.0090   43.4670 N.pl3  23  C23        -0.1070
    317  C5        18.3130   23.3780   41.9600 C.ar   23  C23         0.0566
    318  C6        17.5920   24.2820   41.2860 C.ar   23  C23         0.0850
    319  OP1       13.5160   22.3580   37.3990 O.2    23  C23        -0.5172
    320  OP2       14.6840   21.4310   39.4890 O.co2  23  C23        -0.4373
    321  P         18.6340   25.7100   36.1240 P.3    24  C24         0.2141
    322  C5'       20.1880   27.7390   36.7610 C.3    24  C24         0.1812
    323  O5'       19.9440   26.3340   36.7870 O.3    24  C24        -0.3114
    324  C4'       21.4350   28.0630   37.5480 C.3    24  C24         0.1773
    325  O4'       21.3400   27.4000   38.8320 O.3    24  C24        -0.3307
    326  C3'       22.7430   27.5680   36.9490 C.3    24  C24         0.1860
    327  O3'       23.2130   28.4790   35.9340 O.3    24  C24        -0.3112
    328  C2'       23.6450   27.3140   38.1640 C.3    24  C24         0.2309
    329  O2'       24.5170   28.3450   38.5790 O.3    24  C24        -0.2156
    330  C1'       22.6270   27.0190   39.2730 C.3    24  C24         0.2420
    331  N1        22.5800   25.6140   39.7050 N.ar   24  C24        -0.2535
    332  C2        23.4680   25.1970   40.6980 C.ar   24  C24         0.3532
    333  O2        24.2490   26.0300   41.1920 O.2    24  C24        -0.2443
    334  N3        23.4550   23.9070   41.0940 N.ar   24  C24        -0.1739
    335  C4        22.5990   23.0480   40.5410 C.ar   24  C24         0.1759
    336  N4        22.6330   21.7830   40.9570 N.pl3  24  C24        -0.1070
    337  C5        21.6740   23.4480   39.5360 C.ar   24  C24         0.0566
    338  C6        21.6970   24.7290   39.1510 C.ar   24  C24         0.0850
    339  OP1       18.5310   26.2050   34.7300 O.2    24  C24        -0.5172
    340  OP2       18.6510   24.2480   36.3820 O.co2  24  C24        -0.4373
    341  P         24.0910   29.7870   36.3290 P.3    25  U25         0.2141
    342  C5'       22.1940   31.0410   34.9850 C.3    25  U25         0.1812
    343  O5'       23.5770   30.9260   35.3340 O.3    25  U25        -0.3114
    344  C4'       21.6720   32.4230   35.3210 C.3    25  U25         0.1773
    345  O4'       20.7170   32.3450   36.4100 O.3    25  U25        -0.3307
    346  C3'       22.7090   33.4260   35.7920 C.3    25  U25         0.1860
    347  O3'       23.3630   34.0370   34.6850 O.3    25  U25        -0.3112
    348  C2'       21.8660   34.4180   36.5890 C.3    25  U25         0.2309
    349  O2'       21.1840   35.3480   35.7720 O.3    25  U25        -0.2156
    350  C1'       20.8360   33.4920   37.2370 C.3    25  U25         0.2420
    351  N1        21.1720   33.0420   38.5970 N.ar   25  U25        -0.2534
    352  C2        21.1100   33.9650   39.6310 C.ar   25  U25         0.3546
    353  O2        20.8140   35.1440   39.4610 O.2    25  U25        -0.2443
    354  N3        21.4050   33.4560   40.8730 N.ar   25  U25        -0.1530
    355  C4        21.7530   32.1570   41.1790 C.ar   25  U25         0.2846
    356  O4        21.9850   31.8530   42.3450 O.2    25  U25        -0.2650
    357  C5        21.8060   31.2760   40.0640 C.ar   25  U25         0.0814
    358  C6        21.5240   31.7340   38.8420 C.ar   25  U25         0.0870
    359  OP1       25.5260   29.5260   36.0230 O.2    25  U25        -0.5172
    360  OP2       23.7060   30.2460   37.6890 O.co2  25  U25        -0.4373
    361  P         24.9620   34.1840   34.6950 P.3    26  U26         0.2141
    362  C5'       26.5210   35.7690   33.2850 C.3    26  U26         0.1811
    363  O5'       25.2990   35.0230   33.3810 O.3    26  U26        -0.3114
    364  C4'       26.7450   36.2630   31.8660 C.3    26  U26         0.1752
    365  O4'       25.5790   37.0100   31.4230 O.3    26  U26        -0.3483
    366  C3'       27.9110   37.2350   31.6970 C.3    26  U26         0.1839
    367  O3'       29.1520   36.5460   31.5050 O.3    26  U26        -0.3113
    368  C2'       27.5040   38.0220   30.4540 C.3    26  U26         0.2112
    369  O2'       27.8030   37.3620   29.2400 O.3    26  U26        -0.2177
    370  C1'       25.9870   38.1130   30.6300 C.3    26  U26         0.1776
    371  OP1       25.5630   32.8280   34.5550 O.2    26  U26        -0.5172
    372  OP2       25.3030   35.0190   35.8760 O.co2  26  U26        -0.4373
    373  P         30.5280   37.1870   32.0600 P.3    27  C27         0.2141
    374  C5'       31.7090   35.0390   31.1010 C.3    27  C27         0.1811
    375  O5'       31.6740   36.4620   31.2130 O.3    27  C27        -0.3114
    376  C4'       31.1450   34.6090   29.7650 C.3    27  C27         0.1752
    377  O4'       32.0580   35.0100   28.7080 O.3    27  C27        -0.3483
    378  C3'       30.9760   33.1110   29.5630 C.3    27  C27         0.1839
    379  O3'       29.7310   32.6680   30.1070 O.3    27  C27        -0.3113
    380  C2'       30.9760   33.0030   28.0420 C.3    27  C27         0.2112
    381  O2'       29.7330   33.3590   27.4720 O.3    27  C27        -0.2177
    382  C1'       32.0240   34.0520   27.6630 C.3    27  C27         0.1776
    383  OP1       30.6830   36.7900   33.4880 O.3    27  C27        -0.4373
    384  OP2       30.5280   38.6280   31.6900 O.co2  27  C27        -0.5172
    385  P         29.7030   31.4880   31.2050 P.3    28  U28         0.2141
    386  C5'       27.8590   29.7570   30.4640 C.3    28  U28         0.1811
    387  O5'       28.1990   30.9670   31.1420 O.3    28  U28        -0.3114
    388  C4'       27.8750   29.9680   28.9650 C.3    28  U28         0.1752
    389  O4'       29.2560   30.0700   28.5160 O.3    28  U28        -0.3483
    390  C3'       27.3030   28.8180   28.1490 C.3    28  U28         0.1839
    391  O3'       25.8790   28.9390   28.0530 O.3    28  U28        -0.3113
    392  C2'       28.0140   28.9930   26.8110 C.3    28  U28         0.2112
    393  O2'       27.4660   30.0280   26.0220 O.3    28  U28        -0.2177
    394  C1'       29.4100   29.4130   27.2690 C.3    28  U28         0.1776
    395  OP1       29.9130   32.0870   32.5500 O.3    28  U28        -0.4373
    396  OP2       30.6020   30.3950   30.7420 O.co2  28  U28        -0.5172
    397  P         24.9520   27.6210   27.8890 P.3    29  G29         0.2141
    398  C5'       26.8370   25.9250   28.5160 C.3    29  G29         0.1812
    399  O5'       25.5990   26.5270   28.8460 O.3    29  G29        -0.3114
    400  C4'       26.6830   25.0450   27.3010 C.3    29  G29         0.1773
    401  O4'       28.0030   24.7210   26.8090 O.3    29  G29        -0.3307
    402  C3'       25.9570   23.7280   27.5410 C.3    29  G29         0.1860
    403  O3'       24.5730   23.8720   27.1860 O.3    29  G29        -0.3112
    404  C2'       26.6770   22.7660   26.5960 C.3    29  G29         0.2309
    405  O2'       26.1470   22.8070   25.2840 O.3    29  G29        -0.2156
    406  C1'       28.1020   23.3340   26.5850 C.3    29  G29         0.2408
    407  N1        30.6760   19.2960   28.3610 N.ar   29  G29        -0.1709
    408  C2        29.7630   19.3560   27.3330 C.ar   29  G29         0.2606
    409  N2        29.5150   18.1990   26.6970 N.pl3  29  G29        -0.0859
    410  N3        29.1400   20.4650   26.9580 N.ar   29  G29        -0.1918
    411  C4        29.5090   21.5270   27.7070 C.ar   29  G29         0.1723
    412  C5        30.4110   21.5720   28.7540 C.ar   29  G29         0.1748
    413  C6        31.0710   20.3760   29.1460 C.ar   29  G29         0.3023
    414  O6        31.9040   20.2130   30.0540 O.2    29  G29        -0.2633
    415  N7        30.5110   22.8580   29.2640 N.ar   29  G29        -0.2173
    416  C8        29.6890   23.5590   28.5350 C.ar   29  G29         0.1817
    417  N9        29.0510   22.8180   27.5680 N.ar   29  G29        -0.2693
    418  OP1       25.0420   27.1290   26.4860 O.2    29  G29        -0.5172
    419  OP2       23.6220   27.9460   28.4660 O.co2  29  G29        -0.4373
    420  P         23.4140   23.4180   28.2160 P.3    30  C30         0.2141
    421  C5'       23.6080   20.8440   27.7210 C.3    30  C30         0.1812
    422  O5'       23.8070   21.9290   28.6210 O.3    30  C30        -0.3114
    423  C4'       24.3020   19.6080   28.2420 C.3    30  C30         0.1773
    424  O4'       25.7400   19.8300   28.2520 O.3    30  C30        -0.3307
    425  C3'       23.9840   19.2550   29.6860 C.3    30  C30         0.1860
    426  O3'       22.7590   18.5340   29.8040 O.3    30  C30        -0.3112
    427  C2'       25.1900   18.4090   30.0800 C.3    30  C30         0.2309
    428  O2'       25.0890   17.0640   29.6630 O.3    30  C30        -0.2156
    429  C1'       26.3230   19.1190   29.3360 C.3    30  C30         0.2420
    430  N1        27.0890   20.0610   30.1780 N.ar   30  C30        -0.2535
    431  C2        27.8830   19.5450   31.2140 C.ar   30  C30         0.3532
    432  O2        27.9080   18.3160   31.3970 O.2    30  C30        -0.2443
    433  N3        28.5990   20.3970   31.9880 N.ar   30  C30        -0.1739
    434  C4        28.5460   21.7090   31.7590 C.ar   30  C30         0.1759
    435  N4        29.2730   22.5060   32.5390 N.pl3  30  C30        -0.1070
    436  C5        27.7440   22.2610   30.7170 C.ar   30  C30         0.0566
    437  C6        27.0380   21.4100   29.9580 C.ar   30  C30         0.0850
    438  OP1       22.1190   23.3680   27.4830 O.2    30  C30        -0.5172
    439  OP2       23.5330   24.2590   29.4370 O.co2  30  C30        -0.4373
    440  P         21.7670   18.8360   31.0400 P.3    31  G31         0.2141
    441  C5'       23.7880   18.4900   32.6890 C.3    31  G31         0.1811
    442  O5'       22.4650   18.1340   32.2930 O.3    31  G31        -0.3114
    443  C4'       24.5950   17.2520   33.0130 C.3    31  G31         0.1752
    444  O4'       26.0080   17.5330   32.8390 O.3    31  G31        -0.3483
    445  C3'       24.4720   16.7490   34.4410 C.3    31  G31         0.1839
    446  O3'       23.3430   15.9010   34.6030 O.3    31  G31        -0.3113
    447  C2'       25.7810   15.9920   34.6380 C.3    31  G31         0.2112
    448  O2'       25.7530   14.6770   34.1190 O.3    31  G31        -0.2177
    449  C1'       26.7580   16.8540   33.8330 C.3    31  G31         0.1776
    450  OP1       20.4780   18.1430   30.7710 O.2    31  G31        -0.5172
    451  OP2       21.7700   20.3020   31.2780 O.co2  31  G31        -0.4373
    452  P         22.7240   15.6890   36.0650 P.3    32  U32         0.2141
    453  C5'       23.8980   16.3250   38.3160 C.3    32  U32         0.1811
    454  O5'       23.9980   15.7570   37.0190 O.3    32  U32        -0.3114
    455  C4'       25.2500   16.7960   38.8000 C.3    32  U32         0.1752
    456  O4'       25.8590   17.6670   37.8110 O.3    32  U32        -0.3483
    457  C3'       25.1640   17.6350   40.0650 C.3    32  U32         0.1839
    458  O3'       25.1760   16.7900   41.2130 O.3    32  U32        -0.3113
    459  C2'       26.4020   18.5210   39.9670 C.3    32  U32         0.2112
    460  O2'       27.5860   17.8990   40.4210 O.3    32  U32        -0.2177
    461  C1'       26.4890   18.7620   38.4580 C.3    32  U32         0.1776
    462  OP1       22.1360   14.3230   36.1370 O.2    32  U32        -0.5172
    463  OP2       21.8730   16.8690   36.3530 O.co2  32  U32        -0.4373
    464  P         23.8270   16.0300   41.6540 P.3    33  G33         0.2141
    465  C5'       23.6800   16.9770   44.0960 C.3    33  G33         0.1811
    466  O5'       23.9570   15.8810   43.2320 O.3    33  G33        -0.3114
    467  C4'       24.8510   17.9250   44.1130 C.3    33  G33         0.1752
    468  O4'       24.8910   18.6730   42.8650 O.3    33  G33        -0.3483
    469  C3'       24.8000   18.9990   45.1790 C.3    33  G33         0.1839
    470  O3'       25.2610   18.4500   46.4070 O.3    33  G33        -0.3113
    471  C2'       25.7310   20.0540   44.5920 C.3    33  G33         0.2112
    472  O2'       27.0950   19.7040   44.7130 O.3    33  G33        -0.2177
    473  C1'       25.3450   19.9930   43.1140 C.3    33  G33         0.1776
    474  OP1       23.8330   14.6630   41.0650 O.2    33  G33        -0.5172
    475  OP2       22.7000   16.9530   41.3610 O.co2  33  G33        -0.4373
    476  P         25.7960   19.4240   47.5630 P.3    34  A34         0.2141
    477  C5'       28.3310   18.7500   47.3590 C.3    34  A34         0.1812
    478  O5'       27.3010   19.7100   47.1270 O.3    34  A34        -0.3114
    479  C4'       29.6610   19.4490   47.4680 C.3    34  A34         0.1773
    480  O4'       30.2330   19.6880   46.1550 O.3    34  A34        -0.3307
    481  C3'       29.5500   20.8350   48.0690 C.3    34  A34         0.1860
    482  O3'       29.4430   20.7680   49.4830 O.3    34  A34        -0.3112
    483  C2'       30.8240   21.5080   47.5750 C.3    34  A34         0.2309
    484  O2'       31.9420   21.1510   48.3660 O.3    34  A34        -0.2156
    485  C1'       30.9530   20.9160   46.1640 C.3    34  A34         0.2408
    486  N1        31.0900   25.5060   43.6920 N.ar   34  A34        -0.2040
    487  C2        31.7090   25.0700   44.8000 C.ar   34  A34         0.2016
    488  N3        31.6320   23.8760   45.4050 N.ar   34  A34        -0.2048
    489  C4        30.7950   23.0560   44.7430 C.ar   34  A34         0.1692
    490  C5        30.0860   23.3610   43.5880 C.ar   34  A34         0.1518
    491  C6        30.2550   24.6610   43.0470 C.ar   34  A34         0.1919
    492  N6        29.6380   25.0950   41.9410 N.pl3  34  A34        -0.1054
    493  N7        29.3200   22.2750   43.1840 N.ar   34  A34        -0.2193
    494  C8        29.5740   21.3530   44.0830 C.ar   34  A34         0.1816
    495  N9        30.4630   21.7490   45.0540 N.ar   34  A34        -0.2693
    496  OP1       25.8170   18.6760   48.8490 O.3    34  A34        -0.4373
    497  OP2       25.0260   20.6940   47.4620 O.co2  34  A34        -0.5172
    498  P         28.2260   21.5230   50.2110 P.3    35  A35         0.2141
    499  C5'       29.7150   23.6920   50.1710 C.3    35  A35         0.1812
    500  O5'       28.4750   23.0560   49.8480 O.3    35  A35        -0.3114
    501  C4'       29.8940   24.9600   49.3600 C.3    35  A35         0.1773
    502  O4'       30.1880   24.6510   47.9670 O.3    35  A35        -0.3307
    503  C3'       28.6710   25.8490   49.2660 C.3    35  A35         0.1860
    504  O3'       28.4430   26.6040   50.4440 O.3    35  A35        -0.3112
    505  C2'       28.9980   26.6990   48.0470 C.3    35  A35         0.2309
    506  O2'       29.9410   27.7210   48.3030 O.3    35  A35        -0.2156
    507  C1'       29.6070   25.6440   47.1250 C.3    35  A35         0.2408
    508  N1        26.3170   26.1410   43.1780 N.ar   35  A35        -0.2040
    509  C2        27.2180   26.9800   43.6950 C.ar   35  A35         0.2016
    510  N3        28.0520   26.7960   44.7180 N.ar   35  A35        -0.2048
    511  C4        27.8970   25.5640   45.2420 C.ar   35  A35         0.1692
    512  C5        27.0100   24.5930   44.8130 C.ar   35  A35         0.1518
    513  C6        26.1880   24.9130   43.7290 C.ar   35  A35         0.1919
    514  N6        25.2930   24.0680   43.2200 N.pl3  35  A35        -0.1054
    515  N7        27.1210   23.4460   45.5890 N.ar   35  A35        -0.2193
    516  C8        28.0600   23.7420   46.4570 C.ar   35  A35         0.1816
    517  N9        28.5730   25.0080   46.3100 N.ar   35  A35        -0.2693
    518  OP1       28.3720   21.3360   51.6780 O.3    35  A35        -0.4373
    519  OP2       26.9720   21.0970   49.5420 O.co2  35  A35        -0.5172
    520  P         26.9290   26.8820   50.9110 P.3    36  G36         0.2141
    521  C5'       27.3030   29.0560   49.4880 C.3    36  G36         0.1812
    522  O5'       26.4320   28.0100   49.9020 O.3    36  G36        -0.3114
    523  C4'       26.7920   29.6640   48.2120 C.3    36  G36         0.1773
    524  O4'       26.9090   28.7060   47.1310 O.3    36  G36        -0.3307
    525  C3'       25.3070   29.9530   48.2310 C.3    36  G36         0.1860
    526  O3'       25.0110   31.1540   48.8890 O.3    36  G36        -0.3112
    527  C2'       24.9820   30.0420   46.7560 C.3    36  G36         0.2309
    528  O2'       25.3670   31.2760   46.1920 O.3    36  G36        -0.2156
    529  C1'       25.8360   28.8990   46.2150 C.3    36  G36         0.2408
    530  N1        21.9550   26.5070   43.9810 N.ar   36  G36        -0.1709
    531  C2        22.4100   27.7870   43.7910 C.ar   36  G36         0.2606
    532  N2        21.7420   28.5170   42.8830 N.pl3  36  G36        -0.0859
    533  N3        23.4390   28.3110   44.4440 N.ar   36  G36        -0.1918
    534  C4        23.9800   27.4330   45.3180 C.ar   36  G36         0.1723
    535  C5        23.5960   26.1370   45.5830 C.ar   36  G36         0.1748
    536  C6        22.4980   25.5890   44.8760 C.ar   36  G36         0.3023
    537  O6        22.0120   24.4620   44.9720 O.2    36  G36        -0.2633
    538  N7        24.4050   25.5740   46.5610 N.ar   36  G36        -0.2173
    539  C8        25.2530   26.5190   46.8640 C.ar   36  G36         0.1817
    540  N9        25.0580   27.6690   46.1420 N.ar   36  G36        -0.2693
    541  OP1       26.9420   27.4510   52.2820 O.3    36  G36        -0.4373
    542  OP2       26.1460   25.6430   50.6360 O.co2  36  G36        -0.5172
    543  P         23.7230   31.2220   49.8240 P.3    37  G37         0.2141
    544  C5'       22.5050   32.7850   48.1420 C.3    37  G37         0.1812
    545  O5'       22.5280   31.5510   48.8260 O.3    37  G37        -0.3114
    546  C4'       21.5480   32.7200   46.9910 C.3    37  G37         0.1773
    547  O4'       21.9200   31.6290   46.1060 O.3    37  G37        -0.3307
    548  C3'       20.1260   32.3780   47.3720 C.3    37  G37         0.1860
    549  O3'       19.4320   33.5030   47.8640 O.3    37  G37        -0.3112
    550  C2'       19.5630   31.8770   46.0540 C.3    37  G37         0.2309
    551  O2'       19.2530   32.9330   45.1680 O.3    37  G37        -0.2156
    552  C1'       20.7460   31.0560   45.5380 C.3    37  G37         0.2408
    553  N1        18.1400   26.6850   45.3740 N.ar   37  G37        -0.1709
    554  C2        17.8680   27.8790   44.7620 C.ar   37  G37         0.2606
    555  N2        16.7550   27.9170   44.0110 N.pl3  37  G37        -0.0859
    556  N3        18.6260   28.9590   44.8710 N.ar   37  G37        -0.1918
    557  C4        19.6960   28.7460   45.6610 C.ar   37  G37         0.1723
    558  C5        20.0560   27.5950   46.3200 C.ar   37  G37         0.1748
    559  C6        19.2340   26.4410   46.1890 C.ar   37  G37         0.3023
    560  O6        19.3880   25.3180   46.6980 O.2    37  G37        -0.2633
    561  N7        21.2270   27.7880   47.0440 N.ar   37  G37        -0.2173
    562  C8        21.5520   29.0300   46.8130 C.ar   37  G37         0.1817
    563  N9        20.6680   29.6700   45.9830 N.ar   37  G37        -0.2693
    564  OP1       23.9010   32.3750   50.7480 O.3    37  G37        -0.4373
    565  OP2       23.5750   29.8470   50.3640 O.co2  37  G37        -0.5172
    566  P         18.6240   33.3660   49.2350 P.3    38  C38         0.2141
    567  C5'       16.5090   33.4670   47.6860 C.3    38  C38         0.1812
    568  O5'       17.2000   32.8370   48.7600 O.3    38  C38        -0.3114
    569  C4'       15.2600   32.6870   47.3520 C.3    38  C38         0.1773
    570  O4'       15.6150   31.4800   46.6200 O.3    38  C38        -0.3307
    571  C3'       14.5030   32.1630   48.5660 C.3    38  C38         0.1860
    572  O3'       13.6590   33.1120   49.1800 O.3    38  C38        -0.3112
    573  C2'       13.7220   30.9900   47.9970 C.3    38  C38         0.2309
    574  O2'       12.5090   31.3580   47.3670 O.3    38  C38        -0.2156
    575  C1'       14.7530   30.4110   47.0230 C.3    38  C38         0.2420
    576  N1        15.5660   29.3590   47.6660 N.ar   38  C38        -0.2535
    577  C2        14.9330   28.1860   48.0810 C.ar   38  C38         0.3532
    578  O2        13.7110   28.0740   47.9060 O.2    38  C38        -0.2443
    579  N3        15.6690   27.2100   48.6710 N.ar   38  C38        -0.1739
    580  C4        16.9840   27.3850   48.8610 C.ar   38  C38         0.1759
    581  N4        17.6720   26.4090   49.4590 N.pl3  38  C38        -0.1070
    582  C5        17.6510   28.5730   48.4490 C.ar   38  C38         0.0566
    583  C6        16.9110   29.5230   47.8580 C.ar   38  C38         0.0850
    584  OP1       18.4880   34.7230   49.8440 O.2    38  C38        -0.5172
    585  OP2       19.3010   32.2740   49.9940 O.co2  38  C38        -0.4373
    586  P         13.6670   33.2350   50.7800 P.3    39  U39         0.2141
    587  C5'       11.0830   32.7120   50.8080 C.3    39  U39         0.1812
    588  O5'       12.3980   32.3940   51.2490 O.3    39  U39        -0.3114
    589  C4'       10.1740   31.5030   50.9790 C.3    39  U39         0.1773
    590  O4'       10.6460   30.4010   50.1520 O.3    39  U39        -0.3307
    591  C3'       10.1220   30.8820   52.3660 C.3    39  U39         0.1860
    592  O3'        9.2340   31.5860   53.2150 O.3    39  U39        -0.3112
    593  C2'        9.6030   29.4820   52.0710 C.3    39  U39         0.2309
    594  O2'        8.2070   29.4750   51.8240 O.3    39  U39        -0.2156
    595  C1'       10.3560   29.1640   50.7830 C.3    39  U39         0.2420
    596  N1        11.6250   28.4610   50.9950 N.ar   39  U39        -0.2534
    597  C2        11.6020   27.0830   51.0270 C.ar   39  U39         0.3546
    598  O2        10.5750   26.4350   50.9230 O.2    39  U39        -0.2443
    599  N3        12.8270   26.4860   51.1880 N.ar   39  U39        -0.1530
    600  C4        14.0430   27.1140   51.3280 C.ar   39  U39         0.2846
    601  O4        15.0650   26.4390   51.4750 O.2    39  U39        -0.2650
    602  C5        13.9750   28.5370   51.2990 C.ar   39  U39         0.0814
    603  C6        12.7960   29.1450   51.1380 C.ar   39  U39         0.0870
    604  OP1       13.4520   34.6660   51.1170 O.2    39  U39        -0.5172
    605  OP2       14.8900   32.5270   51.2810 O.co2  39  U39        -0.4373
    606  P          9.4440   31.5040   54.7980 P.3    40  G40         0.2141
    607  C5'        8.4000   29.1550   55.3170 C.3    40  G40         0.1812
    608  O5'        9.5640   29.9390   55.0720 O.3    40  G40        -0.3114
    609  C4'        8.7900   27.7990   55.8370 C.3    40  G40         0.1773
    610  O4'        9.6360   27.1660   54.8420 O.3    40  G40        -0.3307
    611  C3'        9.6320   27.7890   57.1030 C.3    40  G40         0.1860
    612  O3'        8.7990   27.8730   58.2650 O.3    40  G40        -0.3112
    613  C2'       10.3240   26.4330   57.0000 C.3    40  G40         0.2309
    614  O2'        9.5030   25.3810   57.4560 O.3    40  G40        -0.2156
    615  C1'       10.5670   26.3120   55.4840 C.3    40  G40         0.2408
    616  N1        15.4540   24.9410   54.8520 N.ar   40  G40        -0.1709
    617  C2        14.3600   24.1470   55.0800 C.ar   40  G40         0.2606
    618  N2        14.6170   22.8440   55.2180 N.pl3  40  G40        -0.0859
    619  N3        13.1070   24.5990   55.1660 N.ar   40  G40        -0.1918
    620  C4        13.0440   25.9410   55.0040 C.ar   40  G40         0.1723
    621  C5        14.0750   26.8200   54.7650 C.ar   40  G40         0.1748
    622  C6        15.4120   26.3200   54.6800 C.ar   40  G40         0.3023
    623  O6        16.4640   26.9490   54.4890 O.2    40  G40        -0.2633
    624  N7        13.5950   28.1140   54.6500 N.ar   40  G40        -0.2173
    625  C8        12.3090   28.0050   54.8330 C.ar   40  G40         0.1817
    626  N9        11.9110   26.7270   55.0960 N.ar   40  G40        -0.2693
    627  OP1        8.1970   32.0010   55.4490 O.3    40  G40        -0.4373
    628  OP2       10.7580   32.1420   55.1160 O.co2  40  G40        -0.5172
    629  P          9.3560   28.5750   59.6160 P.3    41  A41         0.2141
    630  C5'       11.0280   27.7640   61.4520 C.3    41  A41         0.1812
    631  O5'       10.2380   27.4520   60.3250 O.3    41  A41        -0.3114
    632  C4'       11.7360   26.5310   61.9420 C.3    41  A41         0.1773
    633  O4'       10.7610   25.5960   62.4580 O.3    41  A41        -0.3307
    634  C3'       12.4900   25.7630   60.8720 C.3    41  A41         0.1860
    635  O3'       13.7990   26.3000   60.7160 O.3    41  A41        -0.3112
    636  C2'       12.5100   24.3450   61.4340 C.3    41  A41         0.2309
    637  O2'       13.5480   24.1150   62.3680 O.3    41  A41        -0.2156
    638  C1'       11.1510   24.2790   62.1340 C.3    41  A41         0.2408
    639  N1         9.0990   20.0270   60.0800 N.ar   41  A41        -0.2040
    640  C2        10.2680   20.2420   60.6910 C.ar   41  A41         0.2016
    641  N3        10.7750   21.3780   61.1560 N.ar   41  A41        -0.2048
    642  C4         9.9260   22.3990   60.9460 C.ar   41  A41         0.1692
    643  C5         8.6970   22.3370   60.3250 C.ar   41  A41         0.1518
    644  C6         8.2740   21.0800   59.8750 C.ar   41  A41         0.1919
    645  N6         7.1020   20.8760   59.2540 N.pl3  41  A41        -0.1054
    646  N7         8.1070   23.5900   60.2780 N.ar   41  A41        -0.2193
    647  C8         8.9680   24.3630   60.8820 C.ar   41  A41         0.1816
    648  N9        10.0750   23.7050   61.3380 N.ar   41  A41        -0.2693
    649  OP1        8.2100   28.8900   60.5200 O.3    41  A41        -0.4373
    650  OP2       10.2500   29.6680   59.1450 O.co2  41  A41        -0.5172
    651  P         14.3810   26.5650   59.2410 P.3    42  G42         0.2141
    652  C5'       15.9800   24.5040   59.4020 C.3    42  G42         0.1812
    653  O5'       14.8560   25.1180   58.7700 O.3    42  G42        -0.3114
    654  C4'       15.9540   23.0100   59.2010 C.3    42  G42         0.1773
    655  O4'       14.6990   22.5050   59.7050 O.3    42  G42        -0.3307
    656  C3'       16.0460   22.5180   57.7630 C.3    42  G42         0.1860
    657  O3'       17.4230   22.2750   57.4590 O.3    42  G42        -0.3112
    658  C2'       15.3020   21.1930   57.8310 C.3    42  G42         0.2309
    659  O2'       16.1330   20.2020   58.3950 O.3    42  G42        -0.2156
    660  C1'       14.2060   21.5030   58.8450 C.3    42  G42         0.2408
    661  N1         9.6490   20.1910   57.0200 N.ar   42  G42        -0.1709
    662  C2        10.7380   19.4000   57.2900 C.ar   42  G42         0.2606
    663  N2        10.5640   18.0930   57.0930 N.pl3  42  G42        -0.0859
    664  N3        11.9080   19.8570   57.7200 N.ar   42  G42        -0.1918
    665  C4        11.9000   21.2010   57.8550 C.ar   42  G42         0.1723
    666  C5        10.8690   22.0870   57.6000 C.ar   42  G42         0.1748
    667  C6         9.6140   21.5730   57.1460 C.ar   42  G42         0.3023
    668  O6         8.5670   22.1870   56.8840 O.2    42  G42        -0.2633
    669  N7        11.2680   23.3890   57.8640 N.ar   42  G42        -0.2173
    670  C8        12.5000   23.2730   58.2740 C.ar   42  G42         0.1817
    671  N9        12.9320   21.9720   58.3240 N.ar   42  G42        -0.2693
    672  OP1       15.5950   27.4060   59.4280 O.3    42  G42        -0.4373
    673  OP2       13.2680   27.0670   58.3960 O.co2  42  G42        -0.5172
    674  P         17.9430   22.3090   55.9330 P.3    43  A43         0.2141
    675  C5'       17.4340   20.0370   54.6690 C.3    43  A43         0.1812
    676  O5'       16.9760   21.3050   55.1580 O.3    43  A43        -0.3114
    677  C4'       17.1850   19.9400   53.1810 C.3    43  A43         0.1773
    678  O4'       15.8600   20.4310   52.9110 O.3    43  A43        -0.3307
    679  C3'       18.1090   20.8020   52.3200 C.3    43  A43         0.1860
    680  O3'       19.0770   19.9570   51.7060 O.3    43  A43        -0.3112
    681  C2'       17.2340   21.3200   51.1730 C.3    43  A43         0.2309
    682  O2'       17.5670   20.7910   49.9100 O.3    43  A43        -0.2156
    683  C1'       15.8270   20.8820   51.5850 C.3    43  A43         0.2408
    684  N1        10.9460   21.5770   50.3180 N.ar   43  A43        -0.2040
    685  C2        11.6850   20.4780   50.5010 C.ar   43  A43         0.2016
    686  N3        12.9530   20.3720   50.8670 N.ar   43  A43        -0.2048
    687  C4        13.4880   21.5870   51.0580 C.ar   43  A43         0.1692
    688  C5        12.8590   22.8020   50.9090 C.ar   43  A43         0.1518
    689  C6        11.5180   22.7800   50.5190 C.ar   43  A43         0.1919
    690  N6        10.7790   23.8780   50.3380 N.pl3  43  A43        -0.1054
    691  N7        13.7310   23.8410   51.1910 N.ar   43  A43        -0.2193
    692  C8        14.8510   23.2360   51.4970 C.ar   43  A43         0.1816
    693  N9        14.7780   21.8740   51.4130 N.ar   43  A43        -0.2693
    694  OP1       19.3040   21.7270   55.9480 O.3    43  A43        -0.4373
    695  OP2       17.7290   23.6720   55.3700 O.co2  43  A43        -0.5172
    696  P         20.4500   19.6150   52.4500 P.3    44  A44         0.2141
    697  C5'       20.0090   17.7560   54.2410 C.3    44  A44         0.1812
    698  O5'       20.0260   19.1360   53.9030 O.3    44  A44        -0.3114
    699  C4'       21.2650   17.3910   54.9900 C.3    44  A44         0.1773
    700  O4'       21.0740   16.1180   55.6580 O.3    44  A44        -0.3307
    701  C3'       22.4950   17.2070   54.1260 C.3    44  A44         0.1860
    702  O3'       23.5740   18.1110   54.3100 O.3    44  A44        -0.3112
    703  C2'       22.6690   15.7080   53.8970 C.3    44  A44         0.2309
    704  O2'       24.0010   15.2860   54.1210 O.3    44  A44        -0.2156
    705  C1'       21.8150   15.1000   55.0130 C.3    44  A44         0.2408
    706  N1        17.9430   14.2510   51.7850 N.ar   44  A44        -0.2040
    707  C2        18.6990   15.3240   52.0290 C.ar   44  A44         0.2016
    708  N3        19.7000   15.4680   52.8860 N.ar   44  A44        -0.2048
    709  C4        19.9110   14.3310   53.5620 C.ar   44  A44         0.1692
    710  C5        19.2180   13.1440   53.4300 C.ar   44  A44         0.1518
    711  C6        18.1820   13.1200   52.4820 C.ar   44  A44         0.1919
    712  N6        17.4270   12.0470   52.2350 N.pl3  44  A44        -0.1054
    713  N7        19.7150   12.1820   54.3000 N.ar   44  A44        -0.2193
    714  C8        20.6850   12.8020   54.9290 C.ar   44  A44         0.1816
    715  N9        20.8540   14.1070   54.5320 N.ar   44  A44        -0.2693
    716  OP1       21.2470   20.8580   52.5840 O.3    44  A44        -0.4373
    717  OP2       21.0090   18.4510   51.7180 O.co2  44  A44        -0.5172
    718  P         24.7040   17.7900   55.4050 P.3    45  A45         0.2141
    719  C5'       24.6620   18.8210   57.8260 C.3    45  A45         0.1812
    720  O5'       24.5810   19.0160   56.4170 O.3    45  A45        -0.3114
    721  C4'       23.4020   19.3210   58.4890 C.3    45  A45         0.1773
    722  O4'       22.2750   18.6400   57.9000 O.3    45  A45        -0.3307
    723  C3'       23.2890   19.0590   59.9850 C.3    45  A45         0.1860
    724  O3'       23.7920   20.1870   60.7050 O.3    45  A45        -0.3112
    725  C2'       21.7790   18.9990   60.2110 C.3    45  A45         0.2309
    726  O2'       21.2390   20.2840   60.4380 O.3    45  A45        -0.2156
    727  C1'       21.2580   18.4860   58.8670 C.3    45  A45         0.2408
    728  N1        17.7080   15.3880   56.9180 N.ar   45  A45        -0.2040
    729  C2        17.8900   16.7140   56.8640 C.ar   45  A45         0.2016
    730  N3        18.8390   17.4590   57.4280 N.ar   45  A45        -0.2048
    731  C4        19.6870   16.6890   58.1310 C.ar   45  A45         0.1692
    732  C5        19.6330   15.3180   58.2840 C.ar   45  A45         0.1518
    733  C6        18.5790   14.6440   57.6320 C.ar   45  A45         0.1919
    734  N6        18.3930   13.3260   57.6780 N.pl3  45  A45        -0.1054
    735  N7        20.6750   14.8750   59.0870 N.ar   45  A45        -0.2193
    736  C8        21.3280   15.9740   59.3900 C.ar   45  A45         0.1816
    737  N9        20.7930   17.1040   58.8260 N.ar   45  A45        -0.2693
    738  OP1       26.0110   17.8590   54.6980 O.2    45  A45        -0.5172
    739  OP2       24.3360   16.5550   56.1520 O.co2  45  A45        -0.4373
    740  P         25.2780   20.1630   61.3290 P.3    46  U46         0.2141
    741  C5'       24.6030   18.4350   63.1800 C.3    46  U46         0.1811
    742  O5'       25.4040   18.7460   62.0470 O.3    46  U46        -0.3114
    743  C4'       25.4710   18.1890   64.3940 C.3    46  U46         0.1752
    744  O4'       26.2990   19.3530   64.6550 O.3    46  U46        -0.3483
    745  C3'       24.6730   18.0000   65.6730 C.3    46  U46         0.1839
    746  O3'       24.2470   16.6490   65.8050 O.3    46  U46        -0.3113
    747  C2'       25.6490   18.4270   66.7630 C.3    46  U46         0.2112
    748  O2'       26.5110   17.3890   67.1900 O.3    46  U46        -0.2177
    749  C1'       26.4270   19.5450   66.0580 C.3    46  U46         0.1776
    750  OP1       25.3280   21.2010   62.3950 O.3    46  U46        -0.4373
    751  OP2       26.2490   20.2200   60.2000 O.co2  46  U46        -0.5172
    752  P         22.6800   16.3200   65.7730 P.3    47  A47         0.2141
    753  C5'       20.7150   17.9600   66.3450 C.3    47  A47         0.1812
    754  O5'       22.0680   17.5900   66.5110 O.3    47  A47        -0.3114
    755  C4'       20.6000   19.0540   65.3180 C.3    47  A47         0.1773
    756  O4'       20.9900   18.5520   64.0100 O.3    47  A47        -0.3307
    757  C3'       19.1710   19.5260   65.1650 C.3    47  A47         0.1860
    758  O3'       18.9650   20.5930   66.0710 O.3    47  A47        -0.3112
    759  C2'       19.1010   19.9600   63.7080 C.3    47  A47         0.2309
    760  O2'       19.5620   21.2820   63.5200 O.3    47  A47        -0.2156
    761  C1'       20.0250   18.9340   63.0390 C.3    47  A47         0.2408
    762  N1        16.4590   16.8230   59.9290 N.ar   47  A47        -0.2040
    763  C2        16.8530   18.0880   60.1050 C.ar   47  A47         0.2016
    764  N3        17.7860   18.5770   60.9220 N.ar   47  A47        -0.2048
    765  C4        18.3610   17.5950   61.6330 C.ar   47  A47         0.1692
    766  C5        18.0690   16.2450   61.5600 C.ar   47  A47         0.1518
    767  C6        17.0630   15.8550   60.6550 C.ar   47  A47         0.1919
    768  N6        16.6790   14.5870   60.4790 N.pl3  47  A47        -0.1054
    769  N7        18.8630   15.5230   62.4370 N.ar   47  A47        -0.2193
    770  C8        19.6030   16.4350   63.0140 C.ar   47  A47         0.1816
    771  N9        19.3540   17.7120   62.5780 N.ar   47  A47        -0.2693
    772  OP1       22.4340   15.1130   66.6070 O.3    47  A47        -0.4373
    773  OP2       22.2580   16.3310   64.3450 O.co2  47  A47        -0.5172
    774  P         17.7000   20.5610   67.0550 P.3    48  C48         0.2141
    775  C5'       16.4940   21.8930   65.1350 C.3    48  C48         0.1812
    776  O5'       16.4750   20.8070   66.0640 O.3    48  C48        -0.3114
    777  C4'       15.4430   21.6920   64.0670 C.3    48  C48         0.1773
    778  O4'       15.8930   20.7370   63.0620 O.3    48  C48        -0.3307
    779  C3'       14.1370   21.1110   64.5660 C.3    48  C48         0.1860
    780  O3'       13.3310   22.1130   65.1720 O.3    48  C48        -0.3112
    781  C2'       13.5580   20.5450   63.2760 C.3    48  C48         0.2309
    782  O2'       13.1040   21.5770   62.4210 O.3    48  C48        -0.2156
    783  C1'       14.8030   19.9350   62.6370 C.3    48  C48         0.2420
    784  N1        15.0750   18.5340   63.0170 N.ar   48  C48        -0.2535
    785  C2        14.2840   17.5120   62.4670 C.ar   48  C48         0.3532
    786  O2        13.3600   17.8120   61.7110 O.2    48  C48        -0.2443
    787  N3        14.5510   16.2200   62.7810 N.ar   48  C48        -0.1739
    788  C4        15.5480   15.9340   63.6250 C.ar   48  C48         0.1759
    789  N4        15.7730   14.6520   63.9120 N.pl3  48  C48        -0.1070
    790  C5        16.3610   16.9540   64.2110 C.ar   48  C48         0.0566
    791  C6        16.0910   18.2250   63.8810 C.ar   48  C48         0.0850
    792  OP1       17.7870   21.7170   67.9850 O.3    48  C48        -0.4373
    793  OP2       17.6380   19.1790   67.6060 O.co2  48  C48        -0.5172
    794  P         12.5410   21.7740   66.5350 P.3    49  C49         0.2141
    795  C5'       10.3810   21.5730   65.0990 C.3    49  C49         0.1812
    796  O5'       11.2710   20.9720   66.0160 O.3    49  C49        -0.3114
    797  C4'        9.5770   20.5180   64.4130 C.3    49  C49         0.1773
    798  O4'       10.4760   19.6450   63.6840 O.3    49  C49        -0.3307
    799  C3'        8.8600   19.5490   65.3250 C.3    49  C49         0.1860
    800  O3'        7.6740   20.1190   65.8700 O.3    49  C49        -0.3112
    801  C2'        8.5970   18.3910   64.3650 C.3    49  C49         0.2309
    802  O2'        7.5830   18.6370   63.4100 O.3    49  C49        -0.2156
    803  C1'        9.9170   18.3470   63.6080 C.3    49  C49         0.2420
    804  N1        10.8480   17.3970   64.2070 N.ar   49  C49        -0.2535
    805  C2        10.6780   16.0440   63.9200 C.ar   49  C49         0.3532
    806  O2         9.7500   15.7160   63.1730 O.2    49  C49        -0.2443
    807  N3        11.5220   15.1360   64.4620 N.ar   49  C49        -0.1739
    808  C4        12.5020   15.5490   65.2710 C.ar   49  C49         0.1759
    809  N4        13.3060   14.6320   65.8040 N.pl3  49  C49        -0.1070
    810  C5        12.6990   16.9300   65.5740 C.ar   49  C49         0.0566
    811  C6        11.8560   17.8110   65.0270 C.ar   49  C49         0.0850
    812  OP1       12.0280   23.0060   67.1950 O.2    49  C49        -0.5172
    813  OP2       13.4000   20.8320   67.3050 O.co2  49  C49        -0.4373
    814  P          7.1720   19.6610   67.3240 P.3    50  C50         0.2141
    815  C5'        5.6630   17.9300   66.0960 C.3    50  C50         0.1812
    816  O5'        6.6380   18.1810   67.0920 O.3    50  C50        -0.3114
    817  C4'        5.5330   16.4500   65.8360 C.3    50  C50         0.1773
    818  O4'        6.7160   15.9150   65.1880 O.3    50  C50        -0.3307
    819  C3'        5.3380   15.5550   67.0360 C.3    50  C50         0.1860
    820  O3'        3.9720   15.6640   67.3950 O.3    50  C50        -0.3112
    821  C2'        5.6660   14.2080   66.4090 C.3    50  C50         0.2309
    822  O2'        4.6670   13.8490   65.4810 O.3    50  C50        -0.2156
    823  C1'        6.8900   14.5670   65.5720 C.3    50  C50         0.2420
    824  N1         8.1630   14.4640   66.2970 N.ar   50  C50        -0.2535
    825  C2         8.7540   13.2080   66.4410 C.ar   50  C50         0.3532
    826  O2         8.1670   12.2200   65.9840 O.2    50  C50        -0.2443
    827  N3         9.9460   13.1070   67.0750 N.ar   50  C50        -0.1739
    828  C4        10.5410   14.2050   67.5560 C.ar   50  C50         0.1759
    829  N4        11.7310   14.0680   68.1560 N.pl3  50  C50        -0.1070
    830  C5         9.9480   15.4960   67.4370 C.ar   50  C50         0.0566
    831  C6         8.7710   15.5780   66.8090 C.ar   50  C50         0.0850
    832  OP1        6.0240   20.5090   67.7400 O.2    50  C50        -0.5172
    833  OP2        8.3660   19.5620   68.1910 O.co2  50  C50        -0.4373
    834  P          3.4500   15.0950   68.8000 P.3    51  G51         0.2141
    835  C5'        2.8420   12.6350   68.1730 C.3    51  G51         0.1812
    836  O5'        3.7660   13.5380   68.7590 O.3    51  G51        -0.3114
    837  C4'        3.1710   11.2150   68.5650 C.3    51  G51         0.1773
    838  O4'        4.4610   10.8320   68.0240 O.3    51  G51        -0.3307
    839  C3'        3.2950   10.9490   70.0510 C.3    51  G51         0.1860
    840  O3'        2.0090   10.7040   70.5880 O.3    51  G51        -0.3112
    841  C2'        4.1500    9.6920   70.0750 C.3    51  G51         0.2309
    842  O2'        3.4030    8.5420   69.7400 O.3    51  G51        -0.2156
    843  C1'        5.1200    9.9680   68.9320 C.3    51  G51         0.2408
    844  N1         9.8460    9.3760   70.6110 N.ar   51  G51        -0.1709
    845  C2         8.9120    8.4310   70.2950 C.ar   51  G51         0.2606
    846  N2         9.2920    7.1740   70.4420 N.pl3  51  G51        -0.0859
    847  N3         7.6950    8.7060   69.8650 N.ar   51  G51        -0.1918
    848  C4         7.4840   10.0350   69.7810 C.ar   51  G51         0.1723
    849  C5         8.3500   11.0640   70.0740 C.ar   51  G51         0.1748
    850  C6         9.6570   10.7490   70.5270 C.ar   51  G51         0.3023
    851  O6        10.5830   11.5230   70.8310 O.2    51  G51        -0.2633
    852  N7         7.7440   12.2930   69.8610 N.ar   51  G51        -0.2173
    853  C8         6.5460   11.9890   69.4470 C.ar   51  G51         0.1817
    854  N9         6.3300   10.6370   69.3720 N.ar   51  G51        -0.2693
    855  OP1        1.9820   15.2950   68.7140 O.2    51  G51        -0.5172
    856  OP2        4.2100   15.6810   69.9240 O.co2  51  G51        -0.4373
    857  P          1.7840   10.7860   72.1710 P.3    52  U52         0.2141
    858  C5'       -0.4920   11.8750   71.4340 C.3    52  U52         0.1812
    859  O5'        0.2130   10.9790   72.2920 O.3    52  U52        -0.3114
    860  C4'       -1.6730   11.1680   70.7920 C.3    52  U52         0.1773
    861  O4'       -1.2130   10.4070   69.6550 O.3    52  U52        -0.3307
    862  C3'       -2.4460   10.1760   71.6630 C.3    52  U52         0.1860
    863  O3'       -3.3600   10.8300   72.5790 O.3    52  U52        -0.3112
    864  C2'       -3.0130    9.1610   70.6630 C.3    52  U52         0.2309
    865  O2'       -4.2950    9.4510   70.1470 O.3    52  U52        -0.2156
    866  C1'       -2.0190    9.2550   69.5000 C.3    52  U52         0.2420
    867  N1        -1.1620    8.0940   69.1980 N.ar   52  U52        -0.2534
    868  C2        -1.7800    6.8820   68.9530 C.ar   52  U52         0.3546
    869  O2        -2.9780    6.7290   69.0430 O.2    52  U52        -0.2443
    870  N3        -0.9340    5.8570   68.5910 N.ar   52  U52        -0.1530
    871  C4         0.4430    5.9150   68.4540 C.ar   52  U52         0.2846
    872  O4         1.0590    4.9130   68.0780 O.2    52  U52        -0.2650
    873  C5         1.0170    7.1920   68.7550 C.ar   52  U52         0.0814
    874  C6         0.2180    8.2130   69.1150 C.ar   52  U52         0.0870
    875  OP1        2.4560   11.9980   72.7020 O.2    52  U52        -0.5172
    876  OP2        2.1250    9.4580   72.7370 O.co2  52  U52        -0.4373
    877  P         -4.8690   11.2250   72.1280 P.3    53  A53         0.2141
    878  C5'       -5.4560   11.9640   69.6650 C.3    53  A53         0.1812
    879  O5'       -4.6720   12.1480   70.8410 O.3    53  A53        -0.3114
    880  C4'       -4.7910   12.6530   68.4980 C.3    53  A53         0.1773
    881  O4'       -3.4680   12.1120   68.2840 O.3    53  A53        -0.3307
    882  C3'       -5.4630   12.5280   67.1400 C.3    53  A53         0.1860
    883  O3'       -6.4520   13.5530   67.0670 O.3    53  A53        -0.3112
    884  C2'       -4.3180   12.8290   66.1670 C.3    53  A53         0.2309
    885  O2'       -4.1950   14.2140   65.9300 O.3    53  A53        -0.2156
    886  C1'       -3.0830   12.3820   66.9540 C.3    53  A53         0.2408
    887  N1        -2.8520    7.3590   65.7210 N.ar   53  A53        -0.2040
    888  C2        -3.8670    8.1250   66.1350 C.ar   53  A53         0.2016
    889  N3        -3.8820    9.4250   66.4190 N.ar   53  A53        -0.2048
    890  C4        -2.6650    9.9640   66.2340 C.ar   53  A53         0.1692
    891  C5        -1.5250    9.3020   65.8100 C.ar   53  A53         0.1518
    892  C6        -1.6430    7.9270   65.5480 C.ar   53  A53         0.1919
    893  N6        -0.6290    7.1600   65.1410 N.pl3  53  A53        -0.1054
    894  N7        -0.4510   10.1780   65.7310 N.ar   53  A53        -0.2193
    895  C8        -0.9540   11.3270   66.1100 C.ar   53  A53         0.1816
    896  N9        -2.2850   11.2680   66.4460 N.ar   53  A53        -0.2693
    897  OP1       -5.4350   12.1160   73.1790 O.3    53  A53        -0.4373
    898  OP2       -5.6020    9.9770   71.7630 O.co2  53  A53        -0.5172
    899  P         -7.6770   13.4490   66.0200 P.3    54  U54         0.2141
    900  C5'       -7.3000   16.0020   66.4470 C.3    54  U54         0.1812
    901  O5'       -8.0280   14.9800   65.7660 O.3    54  U54        -0.3114
    902  C4'       -6.7360   16.9800   65.4530 C.3    54  U54         0.1773
    903  O4'       -7.8230   17.4690   64.6350 O.3    54  U54        -0.3307
    904  C3'       -6.0700   18.2180   66.0370 C.3    54  U54         0.1860
    905  O3'       -4.6920   17.9260   66.2850 O.3    54  U54        -0.3112
    906  C2'       -6.2740   19.2550   64.9330 C.3    54  U54         0.2309
    907  O2'       -5.3100   19.1740   63.9030 O.3    54  U54        -0.2156
    908  C1'       -7.6350   18.8430   64.3630 C.3    54  U54         0.2420
    909  N1        -8.8030   19.5720   64.8800 N.ar   54  U54        -0.2534
    910  C2        -8.9950   20.8720   64.4460 C.ar   54  U54         0.3546
    911  O2        -8.2280   21.4370   63.6780 O.2    54  U54        -0.2443
    912  N3       -10.1200   21.4860   64.9410 N.ar   54  U54        -0.1530
    913  C4       -11.0480   20.9490   65.8100 C.ar   54  U54         0.2846
    914  O4       -12.0110   21.6360   66.1650 O.2    54  U54        -0.2650
    915  C5       -10.7740   19.6020   66.2210 C.ar   54  U54         0.0814
    916  C6        -9.6880   18.9770   65.7560 C.ar   54  U54         0.0870
    917  OP1       -8.8350   12.8260   66.7130 O.3    54  U54        -0.4373
    918  OP2       -7.1940   12.8740   64.7370 O.co2  54  U54        -0.5172
    919  P         -3.6970   19.0710   66.8420 P.3    55  C55         0.2141
    920  C5'       -2.7840   18.5970   64.4220 C.3    55  C55         0.1811
    921  O5'       -2.5520   19.1330   65.7270 O.3    55  C55        -0.3114
    922  C4'       -2.0260   19.3810   63.3770 C.3    55  C55         0.1752
    923  O4'       -2.3370   20.7940   63.5060 O.3    55  C55        -0.3483
    924  C3'       -0.5130   19.3010   63.4860 C.3    55  C55         0.1839
    925  O3'       -0.0430   18.1900   62.7370 O.3    55  C55        -0.3113
    926  C2'       -0.0410   20.6070   62.8540 C.3    55  C55         0.2112
    927  O2'        0.1420   20.5200   61.4540 O.3    55  C55        -0.2177
    928  C1'       -1.1830   21.5670   63.2130 C.3    55  C55         0.1776
    929  OP1       -3.1000   18.5560   68.1040 O.3    55  C55        -0.4373
    930  OP2       -4.4230   20.3720   66.8550 O.co2  55  C55        -0.5172
    931  P          1.3920   17.5650   63.0680 P.3    56  A56         0.2141
    932  C5'        3.1570   18.3360   61.3200 C.3    56  A56         0.1812
    933  O5'        2.1040   17.4530   61.6510 O.3    56  A56        -0.3114
    934  C4'        4.4910   17.6660   61.5260 C.3    56  A56         0.1773
    935  O4'        4.3950   16.6530   62.5590 O.3    56  A56        -0.3307
    936  C3'        5.0250   16.8960   60.3500 C.3    56  A56         0.1860
    937  O3'        5.5780   17.8000   59.4240 O.3    56  A56        -0.3112
    938  C2'        6.0560   15.9980   61.0200 C.3    56  A56         0.2309
    939  O2'        7.2500   16.6420   61.4150 O.3    56  A56        -0.2156
    940  C1'        5.2920   15.5920   62.2740 C.3    56  A56         0.2408
    941  N1         5.4670   10.5170   61.5110 N.ar   56  A56        -0.2040
    942  C2         6.4320   11.4470   61.6180 C.ar   56  A56         0.2016
    943  N3         6.3200   12.7600   61.7950 N.ar   56  A56        -0.2048
    944  C4         5.0240   13.1110   61.8650 C.ar   56  A56         0.1692
    945  C5         3.9250   12.2730   61.7700 C.ar   56  A56         0.1518
    946  C6         4.1770   10.9150   61.5880 C.ar   56  A56         0.1919
    947  N6         3.2120   10.0010   61.4950 N.pl3  56  A56        -0.1054
    948  N7         2.7470   12.9860   61.8890 N.ar   56  A56        -0.2193
    949  C8         3.1440   14.2220   62.0610 C.ar   56  A56         0.1816
    950  N9         4.5110   14.3700   62.0700 N.ar   56  A56        -0.2693
    951  OP1        1.2170   16.1870   63.6020 O.2    56  A56        -0.5172
    952  OP2        2.1330   18.5780   63.8640 O.co2  56  A56        -0.4373
    953  P          4.8880   17.9680   57.9900 P.3    57  C57         0.2141
    954  C5'        6.2400   15.8940   57.1550 C.3    57  C57         0.1812
    955  O5'        4.9660   16.4880   57.4030 O.3    57  C57        -0.3114
    956  C4'        6.1340   14.3920   57.0850 C.3    57  C57         0.1773
    957  O4'        5.4880   13.9320   58.2930 O.3    57  C57        -0.3307
    958  C3'        5.2680   13.7960   55.9860 C.3    57  C57         0.1860
    959  O3'        5.9440   13.7040   54.7480 O.3    57  C57        -0.3112
    960  C2'        4.9790   12.4150   56.5470 C.3    57  C57         0.2309
    961  O2'        6.0930   11.5500   56.4380 O.3    57  C57        -0.2156
    962  C1'        4.7420   12.7590   58.0140 C.3    57  C57         0.2420
    963  N1         3.3300   13.0270   58.3150 N.ar   57  C57        -0.2535
    964  C2         2.4740   11.9400   58.4300 C.ar   57  C57         0.3532
    965  O2         2.9280   10.8070   58.2040 O.2    57  C57        -0.2443
    966  N3         1.1780   12.1460   58.7750 N.ar   57  C57        -0.1739
    967  C4         0.7310   13.3930   58.9730 C.ar   57  C57         0.1759
    968  N4        -0.5530   13.5520   59.3200 N.pl3  57  C57        -0.1070
    969  C5         1.5860   14.5310   58.8260 C.ar   57  C57         0.0566
    970  C6         2.8660   14.3020   58.5000 C.ar   57  C57         0.0850
    971  OP1        5.7760   18.8090   57.1370 O.2    57  C57        -0.5172
    972  OP2        3.4740   18.3770   58.2190 O.co2  57  C57        -0.4373
    973  P          5.1380   13.9980   53.3920 P.3    58  C58         0.2141
    974  C5'        5.0030   11.4400   52.8170 C.3    58  C58         0.1812
    975  O5'        4.3180   12.6560   53.1090 O.3    58  C58        -0.3114
    976  C4'        4.0510   10.2590   52.8050 C.3    58  C58         0.1773
    977  O4'        3.4110   10.1020   54.0990 O.3    58  C58        -0.3307
    978  C3'        2.8730   10.2950   51.8520 C.3    58  C58         0.1860
    979  O3'        3.2970    9.9880   50.5320 O.3    58  C58        -0.3112
    980  C2'        1.9960    9.1950   52.4430 C.3    58  C58         0.2309
    981  O2'        2.5260    7.8980   52.2410 O.3    58  C58        -0.2156
    982  C1'        2.1480    9.4800   53.9310 C.3    58  C58         0.2420
    983  N1         1.1140   10.3660   54.4740 N.ar   58  C58        -0.2535
    984  C2        -0.1480    9.8350   54.7450 C.ar   58  C58         0.3532
    985  O2        -0.3670    8.6510   54.4730 O.2    58  C58        -0.2443
    986  N3        -1.0970   10.6240   55.2990 N.ar   58  C58        -0.1739
    987  C4        -0.8230   11.9010   55.5760 C.ar   58  C58         0.1759
    988  N4        -1.7770   12.6330   56.1480 N.pl3  58  C58        -0.1070
    989  C5         0.4490   12.4800   55.2830 C.ar   58  C58         0.0566
    990  C6         1.3790   11.6810   54.7340 C.ar   58  C58         0.0850
    991  OP1        6.1410   14.1630   52.3040 O.2    58  C58        -0.5172
    992  OP2        4.1850   15.0980   53.6850 O.co2  58  C58        -0.4373
    993  P          2.4820   10.5760   49.2810 P.3    59  U59         0.2141
    994  C5'        0.8560    8.5100   49.1610 C.3    59  U59         0.1812
    995  O5'        1.0430    9.9020   49.3970 O.3    59  U59        -0.3114
    996  C4'       -0.5910    8.1580   49.3550 C.3    59  U59         0.1773
    997  O4'       -0.9540    8.4180   50.7350 O.3    59  U59        -0.3307
    998  C3'       -1.5370    9.0230   48.5450 C.3    59  U59         0.1860
    999  O3'       -1.7140    8.4560   47.2620 O.3    59  U59        -0.3112
   1000  C2'       -2.8180    8.9980   49.3700 C.3    59  U59         0.2309
   1001  O2'       -3.6130    7.8540   49.1310 O.3    59  U59        -0.2156
   1002  C1'       -2.2590    8.9770   50.7950 C.3    59  U59         0.2420
   1003  N1        -2.1450   10.3090   51.4030 N.ar   59  U59        -0.2534
   1004  C2        -3.3030   10.9300   51.8300 C.ar   59  U59         0.3546
   1005  O2        -4.4020   10.4210   51.7250 O.2    59  U59        -0.2443
   1006  N3        -3.1210   12.1740   52.3870 N.ar   59  U59        -0.1530
   1007  C4        -1.9250   12.8420   52.5490 C.ar   59  U59         0.2846
   1008  O4        -1.9230   13.9640   53.0550 O.2    59  U59        -0.2650
   1009  C5        -0.7760   12.1300   52.0820 C.ar   59  U59         0.0814
   1010  C6        -0.9210   10.9190   51.5390 C.ar   59  U59         0.0870
   1011  OP1        3.1730   10.0580   48.0800 O.2    59  U59        -0.5172
   1012  OP2        2.2870   12.0360   49.4420 O.co2  59  U59        -0.4373
   1013  P         -1.7480    9.4080   45.9750 P.3    60  G60         0.2141
   1014  C5'       -4.3300    9.3230   45.7390 C.3    60  G60         0.1812
   1015  O5'       -3.1810   10.0780   46.0600 O.3    60  G60        -0.3114
   1016  C4'       -5.5530   10.0480   46.1990 C.3    60  G60         0.1773
   1017  O4'       -5.4240   10.2200   47.6300 O.3    60  G60        -0.3307
   1018  C3'       -5.7110   11.4560   45.6400 C.3    60  G60         0.1860
   1019  O3'       -6.4870   11.4580   44.4420 O.3    60  G60        -0.3112
   1020  C2'       -6.5100   12.1280   46.7450 C.3    60  G60         0.2309
   1021  O2'       -7.8830   11.7930   46.6800 O.3    60  G60        -0.2156
   1022  C1'       -5.8750   11.5100   47.9960 C.3    60  G60         0.2408
   1023  N1        -4.2240   15.2580   51.0080 N.ar   60  G60        -0.1709
   1024  C2        -5.4950   14.7530   50.8820 C.ar   60  G60         0.2606
   1025  N2        -6.4520   15.3340   51.6390 N.pl3  60  G60        -0.0859
   1026  N3        -5.8070   13.7500   50.0730 N.ar   60  G60        -0.1918
   1027  C4        -4.7280   13.2910   49.3970 C.ar   60  G60         0.1723
   1028  C5        -3.4220   13.7300   49.4600 C.ar   60  G60         0.1748
   1029  C6        -3.1010   14.7950   50.3210 C.ar   60  G60         0.3023
   1030  O6        -1.9960   15.3170   50.5100 O.2    60  G60        -0.2633
   1031  N7        -2.6090   12.9920   48.6110 N.ar   60  G60        -0.2173
   1032  C8        -3.4190   12.1350   48.0530 C.ar   60  G60         0.1817
   1033  N9        -4.7220   12.2720   48.4710 N.ar   60  G60        -0.2693
   1034  OP1       -1.7340    8.5230   44.7820 O.2    60  G60        -0.5172
   1035  OP2       -0.7090   10.4620   46.1230 O.co2  60  G60        -0.4373
   1036  P         -5.7680   11.4540   42.9930 P.3    61  A61         0.2141
   1037  C5'       -3.7890   12.8450   41.9430 C.3    61  A61         0.1812
   1038  O5'       -4.4970   12.4180   43.1160 O.3    61  A61        -0.3114
   1039  C4'       -2.4930   13.5440   42.3140 C.3    61  A61         0.1773
   1040  O4'       -2.8030   14.7670   43.0360 O.3    61  A61        -0.3307
   1041  C3'       -1.6280   12.7080   43.2530 C.3    61  A61         0.1860
   1042  O3'       -0.2530   12.5130   42.8910 O.3    61  A61        -0.3112
   1043  C2'       -1.8940   13.2390   44.6630 C.3    61  A61         0.2309
   1044  O2'       -0.7020   13.3900   45.4060 O.3    61  A61        -0.2156
   1045  C1'       -2.4160   14.6520   44.3920 C.3    61  A61         0.2408
   1046  N1        -3.8350   17.4690   48.4480 N.ar   61  A61        -0.2040
   1047  C2        -2.6590   17.2890   47.8470 C.ar   61  A61         0.2016
   1048  N3        -2.3560   16.5440   46.7880 N.ar   61  A61        -0.2048
   1049  C4        -3.4480   15.9220   46.3180 C.ar   61  A61         0.1692
   1050  C5        -4.7270   16.0100   46.8260 C.ar   61  A61         0.1518
   1051  C6        -4.9140   16.8280   47.9540 C.ar   61  A61         0.1919
   1052  N6        -6.0930   17.0000   48.5590 N.pl3  61  A61        -0.1054
   1053  N7        -5.6030   15.2310   46.0810 N.ar   61  A61        -0.2193
   1054  C8        -4.8440   14.6970   45.1570 C.ar   61  A61         0.1816
   1055  N9        -3.5260   15.0680   45.2430 N.ar   61  A61        -0.2693
   1056  OP1       -6.7150   12.0870   42.0340 O.2    61  A61        -0.5172
   1057  OP2       -5.2820   10.0650   42.7380 O.co2  61  A61        -0.4373
   1058  P          0.1510   12.1890   41.3700 P.3    62  U62         0.2141
   1059  C5'        0.5920   14.0560   39.5620 C.3    62  U62         0.1811
   1060  O5'       -0.2470   13.5170   40.5820 O.3    62  U62        -0.3114
   1061  C4'       -0.2310   14.4160   38.3450 C.3    62  U62         0.1752
   1062  O4'       -0.7270   13.1900   37.7510 O.3    62  U62        -0.3483
   1063  C3'       -1.4620   15.2540   38.6590 C.3    62  U62         0.1839
   1064  O3'       -1.5850   16.5140   37.9980 O.3    62  U62        -0.3113
   1065  C2'       -2.6430   14.2880   38.7220 C.3    62  U62         0.2112
   1066  O2'       -3.7690   14.7550   38.0090 O.3    62  U62        -0.2177
   1067  C1'       -2.1180   13.0620   37.9710 C.3    62  U62         0.1776
   1068  OP1       -0.6990   11.0820   40.8690 O.2    62  U62        -0.5172
   1069  OP2        1.6290   12.0520   41.3420 O.co2  62  U62        -0.4373
   1070  P         -2.1430   17.7970   38.8010 P.3    63  C63         0.2141
   1071  C5'       -4.2630   16.9300   40.0820 C.3    63  C63         0.1812
   1072  O5'       -3.7140   17.5440   38.9260 O.3    63  C63        -0.3114
   1073  C4'       -5.7280   17.2630   40.2110 C.3    63  C63         0.1773
   1074  O4'       -6.2010   16.6860   41.4610 O.3    63  C63        -0.3307
   1075  C3'       -6.0360   18.7500   40.3210 C.3    63  C63         0.1860
   1076  O3'       -6.2620   19.3470   39.0470 O.3    63  C63        -0.3112
   1077  C2'       -7.2870   18.7560   41.1870 C.3    63  C63         0.2309
   1078  O2'       -8.4580   18.4490   40.4550 O.3    63  C63        -0.2156
   1079  C1'       -6.9480   17.6470   42.1880 C.3    63  C63         0.2420
   1080  N1        -6.0870   18.1410   43.2840 N.ar   63  C63        -0.2535
   1081  C2        -6.6830   18.7340   44.4320 C.ar   63  C63         0.3532
   1082  O2        -7.9310   18.7790   44.5240 O.2    63  C63        -0.2443
   1083  N3        -5.8760   19.2380   45.4000 N.ar   63  C63        -0.1739
   1084  C4        -4.5440   19.1660   45.2670 C.ar   63  C63         0.1759
   1085  N4        -3.7870   19.6930   46.2350 N.pl3  63  C63        -0.1070
   1086  C5        -3.9250   18.5530   44.1340 C.ar   63  C63         0.0566
   1087  C6        -4.7220   18.0550   43.1840 C.ar   63  C63         0.0850
   1088  OP1       -1.9620   19.0000   37.9440 O.2    63  C63        -0.5172
   1089  OP2       -1.5300   17.7630   40.1550 O.co2  63  C63        -0.4373
   1090  P         -5.9460   20.9100   38.8320 P.3    64  U64         0.2141
   1091  C5'       -8.3130   21.5010   39.8270 C.3    64  U64         0.1812
   1092  O5'       -6.8940   21.6470   39.8770 O.3    64  U64        -0.3114
   1093  C4'       -8.9550   22.3600   40.8930 C.3    64  U64         0.1773
   1094  O4'       -8.5630   21.8630   42.2060 O.3    64  U64        -0.3307
   1095  C3'       -8.5020   23.8140   40.8900 C.3    64  U64         0.1860
   1096  O3'       -9.2550   24.6070   39.9740 O.3    64  U64        -0.3112
   1097  C2'       -8.7260   24.2180   42.3400 C.3    64  U64         0.2309
   1098  O2'      -10.0890   24.4670   42.6240 O.3    64  U64        -0.2156
   1099  C1'       -8.2680   22.9530   43.0690 C.3    64  U64         0.2420
   1100  N1        -6.8210   22.9400   43.3520 N.ar   64  U64        -0.2534
   1101  C2        -6.3590   23.7020   44.4080 C.ar   64  U64         0.3546
   1102  O2        -7.0940   24.3730   45.1150 O.2    64  U64        -0.2443
   1103  N3        -5.0000   23.6520   44.6050 N.ar   64  U64        -0.1530
   1104  C4        -4.0780   22.9350   43.8740 C.ar   64  U64         0.2846
   1105  O4        -2.8860   23.0000   44.1700 O.2    64  U64        -0.2650
   1106  C5        -4.6320   22.1720   42.8070 C.ar   64  U64         0.0814
   1107  C6        -5.9500   22.1980   42.5870 C.ar   64  U64         0.0870
   1108  OP1       -6.3750   21.3000   37.4700 O.2    64  U64        -0.5172
   1109  OP2       -4.5420   21.1460   39.2560 O.co2  64  U64        -0.4373
   1110  P         -8.4930   25.6450   39.0050 P.3    65  G65         0.2141
   1111  C5'       -9.2750   27.8620   40.1840 C.3    65  G65         0.1812
   1112  O5'       -8.2320   26.9250   39.9200 O.3    65  G65        -0.3114
   1113  C4'       -8.8490   28.8580   41.2460 C.3    65  G65         0.1773
   1114  O4'       -8.5960   28.1610   42.5030 O.3    65  G65        -0.3307
   1115  C3'       -7.5490   29.6190   41.0230 C.3    65  G65         0.1860
   1116  O3'       -7.6420   30.7070   40.1130 O.3    65  G65        -0.3112
   1117  C2'       -7.2570   30.1080   42.4310 C.3    65  G65         0.2309
   1118  O2'       -8.0890   31.1850   42.8230 O.3    65  G65        -0.2156
   1119  C1'       -7.5820   28.8490   43.2330 C.3    65  G65         0.2408
   1120  N1        -2.8580   28.4450   44.9960 N.ar   65  G65        -0.1709
   1121  C2        -3.7980   29.4170   45.2340 C.ar   65  G65         0.2606
   1122  N2        -3.4220   30.4320   46.0300 N.pl3  65  G65        -0.0859
   1123  N3        -5.0180   29.3970   44.7290 N.ar   65  G65        -0.1918
   1124  C4        -5.2280   28.3100   43.9560 C.ar   65  G65         0.1723
   1125  C5        -4.3580   27.2850   43.6560 C.ar   65  G65         0.1748
   1126  C6        -3.0530   27.3180   44.2020 C.ar   65  G65         0.3023
   1127  O6        -2.1360   26.5060   44.0480 O.2    65  G65        -0.2633
   1128  N7        -4.9620   26.3530   42.8240 N.ar   65  G65        -0.2173
   1129  C8        -6.1660   26.8220   42.6350 C.ar   65  G65         0.1817
   1130  N9        -6.3860   28.0150   43.2800 N.ar   65  G65        -0.2693
   1131  OP1       -9.4320   26.0220   37.9200 O.2    65  G65        -0.5172
   1132  OP2       -7.1700   25.0560   38.6590 O.co2  65  G65        -0.4373
   1133  P         -6.3050   31.2400   39.3830 P.3    66  G66         0.2141
   1134  C5'       -5.8280   33.1050   41.1780 C.3    66  G66         0.1812
   1135  O5'       -5.4380   31.8790   40.5590 O.3    66  G66        -0.3114
   1136  C4'       -4.7370   33.5920   42.1040 C.3    66  G66         0.1773
   1137  O4'       -4.4770   32.5740   43.1160 O.3    66  G66        -0.3307
   1138  C3'       -3.3750   33.8070   41.4640 C.3    66  G66         0.1860
   1139  O3'       -3.2680   35.0630   40.8050 O.3    66  G66        -0.3112
   1140  C2'       -2.4460   33.7000   42.6660 C.3    66  G66         0.2309
   1141  O2'       -2.4400   34.8580   43.4800 O.3    66  G66        -0.2156
   1142  C1'       -3.0870   32.5340   43.4160 C.3    66  G66         0.2408
   1143  N1         0.6290   29.0980   43.8290 N.ar   66  G66        -0.1709
   1144  C2         0.4630   30.2810   44.4980 C.ar   66  G66         0.2606
   1145  N2         1.4070   30.5840   45.3940 N.pl3  66  G66        -0.0859
   1146  N3        -0.5540   31.1040   44.3060 N.ar   66  G66        -0.1918
   1147  C4        -1.4080   30.6380   43.3740 C.ar   66  G66         0.1723
   1148  C5        -1.3320   29.4700   42.6490 C.ar   66  G66         0.1748
   1149  C6        -0.2380   28.6000   42.8650 C.ar   66  G66         0.3023
   1150  O6         0.0030   27.5180   42.3230 O.2    66  G66        -0.2633
   1151  N7        -2.4140   29.3530   41.7910 N.ar   66  G66        -0.2173
   1152  C8        -3.1160   30.4310   42.0070 C.ar   66  G66         0.1817
   1153  N9        -2.5610   31.2540   42.9540 N.ar   66  G66        -0.2693
   1154  OP1       -6.6740   32.3400   38.4590 O.2    66  G66        -0.5172
   1155  OP2       -5.5770   30.0480   38.8580 O.co2  66  G66        -0.4373
   1156  P         -2.0440   35.3230   39.7880 P.3    67  A67         0.2141
   1157  C5'        0.4710   35.8370   40.3290 C.3    67  A67         0.1812
   1158  O5'       -0.8930   35.9180   40.7170 O.3    67  A67        -0.3114
   1159  C4'        1.3220   35.4480   41.5120 C.3    67  A67         0.1773
   1160  O4'        0.7610   34.2690   42.1450 O.3    67  A67        -0.3307
   1161  C3'        2.7370   35.0500   41.1470 C.3    67  A67         0.1860
   1162  O3'        3.5730   36.1900   41.0910 O.3    67  A67        -0.3112
   1163  C2'        3.1210   34.1170   42.2790 C.3    67  A67         0.2309
   1164  O2'        3.4910   34.8290   43.4350 O.3    67  A67        -0.2156
   1165  C1'        1.8020   33.3840   42.5210 C.3    67  A67         0.2408
   1166  N1         4.0330   29.0200   40.9270 N.ar   67  A67        -0.2040
   1167  C2         4.4600   30.0010   41.7220 C.ar   67  A67         0.2016
   1168  N3         3.8350   31.1120   42.0990 N.ar   67  A67        -0.2048
   1169  C4         2.6040   31.1720   41.5610 C.ar   67  A67         0.1692
   1170  C5         2.0240   30.2390   40.7240 C.ar   67  A67         0.1518
   1171  C6         2.7930   29.1100   40.3970 C.ar   67  A67         0.1919
   1172  N6         2.3660   28.1310   39.5920 N.pl3  67  A67        -0.1054
   1173  N7         0.7390   30.6290   40.3680 N.ar   67  A67        -0.2193
   1174  C8         0.5750   31.7720   40.9860 C.ar   67  A67         0.1816
   1175  N9         1.6640   32.1640   41.7250 N.ar   67  A67        -0.2693
   1176  OP1       -2.4590   36.3770   38.8280 O.2    67  A67        -0.5172
   1177  OP2       -1.5760   34.0060   39.2760 O.co2  67  A67        -0.4373
   1178  P          4.4840   36.4240   39.7980 P.3    68  U68         0.2141
   1179  C5'        6.5720   35.9230   41.2700 C.3    68  U68         0.1812
   1180  O5'        5.8130   35.6200   40.1170 O.3    68  U68        -0.3114
   1181  C4'        7.5940   34.8530   41.4930 C.3    68  U68         0.1773
   1182  O4'        6.8940   33.5900   41.6280 O.3    68  U68        -0.3307
   1183  C3'        8.5350   34.6400   40.3210 C.3    68  U68         0.1860
   1184  O3'        9.6360   35.5560   40.3900 O.3    68  U68        -0.3112
   1185  C2'        8.9580   33.1840   40.5050 C.3    68  U68         0.2309
   1186  O2'       10.0550   33.0450   41.3910 O.3    68  U68        -0.2156
   1187  C1'        7.6830   32.5480   41.0910 C.3    68  U68         0.2420
   1188  N1         6.8570   31.7940   40.1320 N.ar   68  U68        -0.2534
   1189  C2         7.1300   30.4430   39.9480 C.ar   68  U68         0.3546
   1190  O2         7.9920   29.8460   40.5760 O.2    68  U68        -0.2443
   1191  N3         6.3510   29.8150   39.0020 N.ar   68  U68        -0.1530
   1192  C4         5.3430   30.3810   38.2430 C.ar   68  U68         0.2846
   1193  O4         4.7330   29.6880   37.4200 O.2    68  U68        -0.2650
   1194  C5         5.1110   31.7690   38.5070 C.ar   68  U68         0.0814
   1195  C6         5.8540   32.4100   39.4210 C.ar   68  U68         0.0870
   1196  OP1        4.8280   37.8620   39.7120 O.3    68  U68        -0.4373
   1197  OP2        3.8010   35.7540   38.6610 O.co2  68  U68        -0.5172
   1198  P         10.2270   36.2010   39.0340 P.3    69  A69         0.2141
   1199  C5'       11.2920   34.9200   36.9830 C.3    69  A69         0.1812
   1200  O5'       11.0500   34.9990   38.3850 O.3    69  A69        -0.3114
   1201  C4'       12.0180   33.6340   36.6720 C.3    69  A69         0.1773
   1202  O4'       13.2950   33.6540   37.3570 O.3    69  A69        -0.3307
   1203  C3'       11.3160   32.3830   37.1830 C.3    69  A69         0.1860
   1204  O3'       10.4510   31.8640   36.1780 O.3    69  A69        -0.3112
   1205  C2'       12.4690   31.4210   37.4400 C.3    69  A69         0.2309
   1206  O2'       12.8560   30.7420   36.2680 O.3    69  A69        -0.2156
   1207  C1'       13.5880   32.3690   37.8760 C.3    69  A69         0.2408
   1208  N1        15.3760   30.0950   42.1570 N.ar   69  A69        -0.2040
   1209  C2        15.2160   29.6500   40.9000 C.ar   69  A69         0.2016
   1210  N3        14.7170   30.2820   39.8390 N.ar   69  A69        -0.2048
   1211  C4        14.3470   31.5360   40.1600 C.ar   69  A69         0.1692
   1212  C5        14.4430   32.1360   41.4040 C.ar   69  A69         0.1518
   1213  C6        14.9920   31.3600   42.4500 C.ar   69  A69         0.1919
   1214  N6        15.1550   31.8040   43.7050 N.pl3  69  A69        -0.1054
   1215  N7        13.9570   33.4370   41.3600 N.ar   69  A69        -0.2193
   1216  C8        13.5920   33.5950   40.1130 C.ar   69  A69         0.1816
   1217  N9        13.8170   32.4930   39.3230 N.ar   69  A69        -0.2693
   1218  OP1       11.1940   37.2920   39.3580 O.3    69  A69        -0.4373
   1219  OP2        9.0440   36.4930   38.1830 O.co2  69  A69        -0.5172
   1220  P          9.0010   31.3100   36.5790 P.3    70  A70         0.2141
   1221  C5'        9.7580   28.8070   36.4180 C.3    70  A70         0.1812
   1222  O5'        9.3120   29.8890   37.2320 O.3    70  A70        -0.3114
   1223  C4'       10.3880   27.7150   37.2610 C.3    70  A70         0.1773
   1224  O4'       11.5230   28.2510   37.9920 O.3    70  A70        -0.3307
   1225  C3'        9.5120   27.0650   38.3240 C.3    70  A70         0.1860
   1226  O3'        8.7190   26.0120   37.7600 O.3    70  A70        -0.3112
   1227  C2'       10.5540   26.5210   39.3010 C.3    70  A70         0.2309
   1228  O2'       11.1130   25.2900   38.8740 O.3    70  A70        -0.2156
   1229  C1'       11.6170   27.6250   39.2640 C.3    70  A70         0.2408
   1230  N1        12.5630   29.1420   44.1330 N.ar   70  A70        -0.2040
   1231  C2        12.8660   28.0120   43.4790 C.ar   70  A70         0.2016
   1232  N3        12.5880   27.6650   42.2190 N.ar   70  A70        -0.2048
   1233  C4        11.9110   28.6470   41.5900 C.ar   70  A70         0.1692
   1234  C5        11.5290   29.8640   42.1330 C.ar   70  A70         0.1518
   1235  C6        11.8790   30.1080   43.4730 C.ar   70  A70         0.1919
   1236  N6        11.5730   31.2360   44.1160 N.pl3  70  A70        -0.1054
   1237  N7        10.8520   30.6290   41.1980 N.ar   70  A70        -0.2193
   1238  C8        10.8370   29.8750   40.1270 C.ar   70  A70         0.1816
   1239  N9        11.4620   28.6650   40.2880 N.ar   70  A70        -0.2693
   1240  OP1        8.2340   31.0560   35.3360 O.2    70  A70        -0.5172
   1241  OP2        8.4640   32.2660   37.5820 O.co2  70  A70        -0.4373
   1242  P          7.2380   25.7160   38.3360 P.3    71  U71         0.2141
   1243  C5'        7.9930   23.7010   39.8440 C.3    71  U71         0.1812
   1244  O5'        7.5060   25.0350   39.7550 O.3    71  U71        -0.3114
   1245  C4'        8.4390   23.3930   41.2530 C.3    71  U71         0.1773
   1246  O4'        9.4660   24.3430   41.6260 O.3    71  U71        -0.3307
   1247  C3'        7.4060   23.5290   42.3640 C.3    71  U71         0.1860
   1248  O3'        6.6210   22.3410   42.4860 O.3    71  U71        -0.3112
   1249  C2'        8.3030   23.6930   43.5840 C.3    71  U71         0.2309
   1250  O2'        8.8790   22.4650   43.9700 O.3    71  U71        -0.2156
   1251  C1'        9.4210   24.5680   43.0240 C.3    71  U71         0.2420
   1252  N1         9.2010   25.9980   43.2590 N.ar   71  U71        -0.2534
   1253  C2         9.9880   26.6070   44.2050 C.ar   71  U71         0.3546
   1254  O2        10.8450   26.0050   44.8260 O.2    71  U71        -0.2443
   1255  N3         9.7390   27.9460   44.3960 N.ar   71  U71        -0.1530
   1256  C4         8.7950   28.7160   43.7410 C.ar   71  U71         0.2846
   1257  O4         8.6830   29.9110   44.0190 O.2    71  U71        -0.2650
   1258  C5         8.0210   28.0060   42.7710 C.ar   71  U71         0.0814
   1259  C6         8.2450   26.7030   42.5690 C.ar   71  U71         0.0870
   1260  OP1        6.5940   24.7070   37.4480 O.2    71  U71        -0.5172
   1261  OP2        6.5610   27.0280   38.5610 O.co2  71  U71        -0.4373
   1262  P          5.0190   22.4440   42.6320 P.3    72  G72         0.2141
   1263  C5'        4.5830   23.5890   44.9570 C.3    72  G72         0.1812
   1264  O5'        4.7400   22.3870   44.2020 O.3    72  G72        -0.3114
   1265  C4'        4.6130   23.3090   46.4530 C.3    72  G72         0.1773
   1266  O4'        3.3860   22.6710   46.8790 O.3    72  G72        -0.3307
   1267  C3'        5.7220   22.4100   46.9710 C.3    72  G72         0.1860
   1268  O3'        6.9640   23.1240   47.0310 O.3    72  G72        -0.3112
   1269  C2'        5.1510   21.8560   48.2820 C.3    72  G72         0.2309
   1270  O2'        5.3570   22.6010   49.4610 O.3    72  G72        -0.2156
   1271  C1'        3.6480   21.8470   48.0000 C.3    72  G72         0.2408
   1272  N1        -0.2270   18.6790   48.7280 N.ar   72  G72        -0.1709
   1273  C2        -0.0350   19.9440   49.2240 C.ar   72  G72         0.2606
   1274  N2        -1.0200   20.4270   50.0050 N.pl3  72  G72        -0.0859
   1275  N3         1.0400   20.6780   48.9740 N.ar   72  G72        -0.1918
   1276  C4         1.9210   20.0270   48.1760 C.ar   72  G72         0.1723
   1277  C5         1.8230   18.7660   47.6350 C.ar   72  G72         0.1748
   1278  C6         0.6650   17.9940   47.9060 C.ar   72  G72         0.3023
   1279  O6         0.3870   16.8520   47.5130 O.2    72  G72        -0.2633
   1280  N7         2.9460   18.4690   46.8720 N.ar   72  G72        -0.2173
   1281  C8         3.6840   19.5390   46.9570 C.ar   72  G72         0.1817
   1282  N9         3.1150   20.5250   47.7250 N.ar   72  G72        -0.2693
   1283  OP1        4.4150   21.2300   42.0350 O.2    72  G72        -0.5172
   1284  OP2        4.6380   23.7830   42.1140 O.co2  72  G72        -0.4373
   1285  P          7.3040   24.0680   48.2850 P.3    73  C73         0.2141
   1286  C5'        8.3360   26.4590   48.4520 C.3    73  C73         0.1812
   1287  O5'        7.7910   25.4320   47.6320 O.3    73  C73        -0.3114
   1288  C4'        7.4520   27.6870   48.4470 C.3    73  C73         0.1773
   1289  O4'        7.2720   28.1380   47.0790 O.3    73  C73        -0.3307
   1290  C3'        6.0230   27.5770   48.9620 C.3    73  C73         0.1860
   1291  O3'        5.9360   27.5980   50.3920 O.3    73  C73        -0.3112
   1292  C2'        5.4070   28.8400   48.3690 C.3    73  C73         0.2309
   1293  O2'        5.7540   30.0170   49.0770 O.3    73  C73        -0.2156
   1294  C1'        6.0710   28.8810   46.9900 C.3    73  C73         0.2420
   1295  N1         5.2310   28.3150   45.9230 N.ar   73  C73        -0.2535
   1296  C2         3.9520   28.8520   45.7320 C.ar   73  C73         0.3532
   1297  O2         3.5760   29.7790   46.4670 O.2    73  C73        -0.2443
   1298  N3         3.1590   28.3540   44.7600 N.ar   73  C73        -0.1739
   1299  C4         3.5980   27.3590   43.9910 C.ar   73  C73         0.1759
   1300  N4         2.7760   26.9030   43.0400 N.pl3  73  C73        -0.1070
   1301  C5         4.8990   26.7900   44.1610 C.ar   73  C73         0.0566
   1302  C6         5.6740   27.2920   45.1320 C.ar   73  C73         0.0850
   1303  OP1        8.4320   23.4790   49.0530 O.3    73  C73        -0.4373
   1304  OP2        6.0460   24.4360   48.9800 O.co2  73  C73        -0.5172
   1305  P          4.5770   27.1140   51.1220 P.3    74  C74         0.2141
   1306  C5'        3.6180   29.5410   51.2640 C.3    74  C74         0.1812
   1307  O5'        3.5090   28.2270   50.7370 O.3    74  C74        -0.3114
   1308  C4'        2.3530   30.3070   51.0060 C.3    74  C74         0.1773
   1309  O4'        2.2160   30.5370   49.5820 O.3    74  C74        -0.3307
   1310  C3'        1.0820   29.5700   51.3850 C.3    74  C74         0.1860
   1311  O3'        0.7950   29.6800   52.7710 O.3    74  C74        -0.3112
   1312  C2'        0.0500   30.2680   50.5170 C.3    74  C74         0.2309
   1313  O2'       -0.3800   31.5140   51.0330 O.3    74  C74        -0.2156
   1314  C1'        0.8480   30.4570   49.2250 C.3    74  C74         0.2420
   1315  N1         0.6910   29.3110   48.3290 N.ar   74  C74        -0.2535
   1316  C2        -0.5560   29.0770   47.7470 C.ar   74  C74         0.3532
   1317  O2        -1.4970   29.8480   48.0070 O.2    74  C74        -0.2443
   1318  N3        -0.7090   28.0190   46.9220 N.ar   74  C74        -0.1739
   1319  C4         0.3230   27.2160   46.6730 C.ar   74  C74         0.1759
   1320  N4         0.1240   26.1830   45.8540 N.pl3  74  C74        -0.1070
   1321  C5         1.6040   27.4330   47.2520 C.ar   74  C74         0.0566
   1322  C6         1.7420   28.4820   48.0670 C.ar   74  C74         0.0850
   1323  OP1        4.7640   27.1530   52.5940 O.3    74  C74        -0.4373
   1324  OP2        4.1540   25.8520   50.4730 O.co2  74  C74        -0.5172
   1325  P          0.2090   28.4080   53.5570 P.3    75  A75         0.2141
   1326  C5'       -2.0170   29.7730   53.6720 C.3    75  A75         0.1812
   1327  O5'       -1.3670   28.5460   53.3800 O.3    75  A75        -0.3114
   1328  C4'       -3.2430   29.9200   52.8160 C.3    75  A75         0.1773
   1329  O4'       -2.8580   30.0600   51.4210 O.3    75  A75        -0.3307
   1330  C3'       -4.1380   28.6990   52.8120 C.3    75  A75         0.1860
   1331  O3'       -4.9930   28.6360   53.9380 O.3    75  A75        -0.3112
   1332  C2'       -4.9130   28.8750   51.5180 C.3    75  A75         0.2309
   1333  O2'       -5.9910   29.7800   51.6390 O.3    75  A75        -0.2156
   1334  C1'       -3.8140   29.4060   50.5960 C.3    75  A75         0.2408
   1335  N1        -4.2690   25.6940   47.0970 N.ar   75  A75        -0.2040
   1336  C2        -5.0820   26.6970   47.4580 C.ar   75  A75         0.2016
   1337  N3        -4.8920   27.6470   48.3680 N.ar   75  A75        -0.2048
   1338  C4        -3.6920   27.4990   48.9560 C.ar   75  A75         0.1692
   1339  C5        -2.7510   26.5190   48.6920 C.ar   75  A75         0.1518
   1340  C6        -3.0720   25.5770   47.7090 C.ar   75  A75         0.1919
   1341  N6        -2.2640   24.5800   47.3500 N.pl3  75  A75        -0.1054
   1342  N7        -1.6350   26.6820   49.4970 N.ar   75  A75        -0.2193
   1343  C8        -1.9220   27.7400   50.2190 C.ar   75  A75         0.1816
   1344  N9        -3.1570   28.2760   49.9500 N.ar   75  A75        -0.2693
   1345  OP1        0.5240   28.5740   54.9960 O.3    75  A75        -0.4373
   1346  OP2        0.7010   27.2010   52.8230 O.co2  75  A75        -0.5172
   1347  P         -5.6340   27.2250   54.3410 P.3    76  G76         0.2141
   1348  C5'       -7.6950   27.3170   52.7120 C.3    76  G76         0.1812
   1349  O5'       -6.4100   26.7850   53.0220 O.3    76  G76        -0.3114
   1350  C4'       -8.4100   26.3970   51.7500 C.3    76  G76         0.1773
   1351  O4'       -7.6300   26.3130   50.5280 O.3    76  G76        -0.3307
   1352  C3'       -8.5450   24.9510   52.2150 C.3    76  G76         0.1860
   1353  O3'       -9.7120   24.7670   53.0110 O.3    76  G76        -0.3112
   1354  C2'       -8.6430   24.1780   50.9030 C.3    76  G76         0.2309
   1355  O2'       -9.9470   24.0770   50.3760 O.3    76  G76        -0.2156
   1356  C1'       -7.7530   25.0130   49.9810 C.3    76  G76         0.2408
   1357  N1        -5.1010   21.2290   48.0120 N.ar   76  G76        -0.1709
   1358  C2        -6.4400   21.5310   47.8860 C.ar   76  G76         0.2606
   1359  N2        -7.1740   20.7010   47.1270 N.pl3  76  G76        -0.0859
   1360  N3        -7.0140   22.5700   48.4600 N.ar   76  G76        -0.1918
   1361  C4        -6.1320   23.2990   49.1750 C.ar   76  G76         0.1723
   1362  C5        -4.7830   23.0910   49.3640 C.ar   76  G76         0.1748
   1363  C6        -4.1760   21.9690   48.7480 C.ar   76  G76         0.3023
   1364  O6        -2.9940   21.6090   48.7960 O.2    76  G76        -0.2633
   1365  N7        -4.2400   24.0820   50.1710 N.ar   76  G76        -0.2173
   1366  C8        -5.2550   24.8540   50.4500 C.ar   76  G76         0.1817
   1367  N9        -6.4280   24.4260   49.8760 N.ar   76  G76        -0.2693
   1368  OP1       -6.6280   27.4120   55.4300 O.3    76  G76        -0.4373
   1369  OP2       -4.5040   26.2750   54.5270 O.co2  76  G76        -0.5172
   1370  P         -9.7280   23.6360   54.1570 P.3    77  C77         0.2141
   1371  C5'      -10.7270   21.8050   52.5470 C.3    77  C77         0.1812
   1372  O5'       -9.6360   22.2570   53.3560 O.3    77  C77        -0.3114
   1373  C4'      -10.3180   20.5990   51.7310 C.3    77  C77         0.1773
   1374  O4'       -9.1730   20.9560   50.9100 O.3    77  C77        -0.3307
   1375  C3'       -9.8630   19.3820   52.5200 C.3    77  C77         0.1860
   1376  O3'      -10.9920   18.5890   52.8870 O.3    77  C77        -0.3112
   1377  C2'       -8.9480   18.6710   51.5250 C.3    77  C77         0.2309
   1378  O2'       -9.6450   17.8710   50.5900 O.3    77  C77        -0.2156
   1379  C1'       -8.2830   19.8540   50.8140 C.3    77  C77         0.2420
   1380  N1        -6.9880   20.2630   51.3930 N.ar   77  C77        -0.2535
   1381  C2        -5.8080   19.7780   50.8240 C.ar   77  C77         0.3532
   1382  O2        -5.8830   19.0040   49.8720 O.2    77  C77        -0.2443
   1383  N3        -4.6170   20.1680   51.3310 N.ar   77  C77        -0.1739
   1384  C4        -4.5800   21.0010   52.3720 C.ar   77  C77         0.1759
   1385  N4        -3.3850   21.3630   52.8420 N.pl3  77  C77        -0.1070
   1386  C5        -5.7670   21.5010   52.9780 C.ar   77  C77         0.0566
   1387  C6        -6.9370   21.1100   52.4640 C.ar   77  C77         0.0850
   1388  OP1      -11.0500   23.6720   54.8460 O.2    77  C77        -0.5172
   1389  OP2       -8.4810   23.8230   54.9480 O.co2  77  C77        -0.4373
   1390  P        -10.7900   17.2390   53.7520 P.3    78  G78         0.2141
   1391  C5'      -10.4370   18.9010   55.7800 C.3    78  G78         0.1812
   1392  O5'      -10.0430   17.7130   55.0850 O.3    78  G78        -0.3114
   1393  C4'       -9.6370   19.0490   57.0540 C.3    78  G78         0.1773
   1394  O4'       -8.4740   18.1960   56.9500 O.3    78  G78        -0.3307
   1395  C3'       -9.1220   20.4750   57.2110 C.3    78  G78         0.1860
   1396  O3'       -9.2730   21.1720   58.4640 O.3    78  G78        -0.3112
   1397  C2'       -7.6960   20.4540   56.6670 C.3    78  G78         0.2309
   1398  O2'       -6.8030   21.2220   57.4460 O.3    78  G78        -0.2156
   1399  C1'       -7.3100   18.9780   56.8100 C.3    78  G78         0.2408
   1400  N1        -2.6710   18.4690   54.8850 N.ar   78  G78        -0.1709
   1401  C2        -3.0600   18.9920   56.0940 C.ar   78  G78         0.2606
   1402  N2        -2.0860   19.4590   56.8850 N.pl3  78  G78        -0.0859
   1403  N3        -4.3160   19.0490   56.4980 N.ar   78  G78        -0.1918
   1404  C4        -5.1640   18.5270   55.5860 C.ar   78  G78         0.1723
   1405  C5        -4.8750   17.9770   54.3580 C.ar   78  G78         0.1748
   1406  C6        -3.5320   17.9330   53.9320 C.ar   78  G78         0.3023
   1407  O6        -3.0890   17.5070   52.8790 O.2    78  G78        -0.2633
   1408  N7        -6.0310   17.5420   53.7300 N.ar   78  G78        -0.2173
   1409  C8        -6.9830   17.8410   54.5700 C.ar   78  G78         0.1817
   1410  N9        -6.5240   18.4560   55.7040 N.ar   78  G78        -0.2693
   1411  OP1       -9.8920   16.3320   52.9740 O.2    78  G78        -0.5172
   1412  OP2      -12.1370   16.7530   54.1630 O.co2  78  G78        -0.4373
   1413  P        -10.1810   20.5720   59.6620 P.3    79  U79         0.2141
   1414  C5'      -10.4320   17.9780   59.9640 C.3    79  U79         0.1812
   1415  O5'       -9.5880   19.1220   59.9470 O.3    79  U79        -0.3114
   1416  C4'      -10.5580   17.4530   61.3690 C.3    79  U79         0.1773
   1417  O4'      -11.2540   18.4480   62.1470 O.3    79  U79        -0.3307
   1418  C3'      -11.3800   16.1760   61.5400 C.3    79  U79         0.1860
   1419  O3'      -10.5530   14.9950   61.5610 O.3    79  U79        -0.3112
   1420  C2'      -11.9580   16.3060   62.9600 C.3    79  U79         0.2309
   1421  O2'      -11.2110   15.5980   63.9330 O.3    79  U79        -0.2156
   1422  C1'      -11.8410   17.8070   63.2540 C.3    79  U79         0.2420
   1423  N1       -13.0260   18.5540   63.7080 N.ar   79  U79        -0.2534
   1424  C2       -13.6860   18.0890   64.8410 C.ar   79  U79         0.3546
   1425  O2       -13.3650   17.0660   65.4260 O.2    79  U79        -0.2443
   1426  N3       -14.7320   18.8720   65.2660 N.ar   79  U79        -0.1530
   1427  C4       -15.1850   20.0400   64.6880 C.ar   79  U79         0.2846
   1428  O4       -16.1260   20.6420   65.2060 O.2    79  U79        -0.2650
   1429  C5       -14.4720   20.4420   63.5090 C.ar   79  U79         0.0814
   1430  C6       -13.4480   19.7000   63.0660 C.ar   79  U79         0.0870
   1431  OP1      -11.5960   20.4260   59.2320 O.2    79  U79        -0.5172
   1432  OP2       -9.8570   21.3990   60.8560 O.co2  79  U79        -0.4373
   1433  P         -9.5170   14.6700   60.3600 P.3    80  A80         0.2141
   1434  C5'      -11.5960   13.6490   59.0950 C.3    80  A80         0.1812
   1435  O5'      -10.2370   13.5250   59.5150 O.3    80  A80        -0.3114
   1436  C4'      -11.7710   13.0420   57.7240 C.3    80  A80         0.1773
   1437  O4'      -11.2890   13.9550   56.7060 O.3    80  A80        -0.3307
   1438  C3'      -10.9820   11.7630   57.5110 C.3    80  A80         0.1860
   1439  O3'      -11.7240   10.6460   57.9900 O.3    80  A80        -0.3112
   1440  C2'      -10.8080   11.7340   55.9990 C.3    80  A80         0.2309
   1441  O2'      -11.9580   11.2350   55.3530 O.3    80  A80        -0.2156
   1442  C1'      -10.6480   13.2240   55.6780 C.3    80  A80         0.2408
   1443  N1        -5.8750   12.3080   53.9320 N.ar   80  A80        -0.2040
   1444  C2        -7.0020   11.5810   53.8870 C.ar   80  A80         0.2016
   1445  N3        -8.2090   11.8610   54.3770 N.ar   80  A80        -0.2048
   1446  C4        -8.2060   13.0650   54.9740 C.ar   80  A80         0.1692
   1447  C5        -7.1270   13.9250   55.1000 C.ar   80  A80         0.1518
   1448  C6        -5.9090   13.5090   54.5490 C.ar   80  A80         0.1919
   1449  N6        -4.7920   14.2310   54.6020 N.pl3  80  A80        -0.1054
   1450  N7        -7.4920   15.0770   55.7780 N.ar   80  A80        -0.2193
   1451  C8        -8.7650   14.8950   56.0400 C.ar   80  A80         0.1816
   1452  N9        -9.2670   13.7020   55.5740 N.ar   80  A80        -0.2693
   1453  OP1       -8.3090   14.0630   60.9720 O.3    80  A80        -0.4373
   1454  OP2       -9.3580   15.8370   59.4570 O.co2  80  A80        -0.5172
   1455  P        -11.1610    9.7840   59.2300 P.3    81  G81         0.2141
   1456  C5'      -10.9260    7.5870   57.7950 C.3    81  G81         0.1812
   1457  O5'      -10.3000    8.6350   58.5330 O.3    81  G81        -0.3114
   1458  C4'       -9.9060    6.8810   56.9440 C.3    81  G81         0.1773
   1459  O4'       -9.4640    7.7740   55.8880 O.3    81  G81        -0.3307
   1460  C3'       -8.6190    6.5310   57.6590 C.3    81  G81         0.1860
   1461  O3'       -8.7030    5.3370   58.3980 O.3    81  G81        -0.3112
   1462  C2'       -7.6420    6.4020   56.5110 C.3    81  G81         0.2309
   1463  O2'       -7.7770    5.1520   55.8630 O.3    81  G81        -0.2156
   1464  C1'       -8.0830    7.5800   55.6360 C.3    81  G81         0.2408
   1465  N1        -3.6790   10.0950   55.6350 N.ar   81  G81        -0.1709
   1466  C2        -3.9770    8.8610   55.1130 C.ar   81  G81         0.2606
   1467  N2        -2.9680    8.2160   54.5160 N.pl3  81  G81        -0.0859
   1468  N3        -5.1740    8.3060   55.1700 N.ar   81  G81        -0.1918
   1469  C4        -6.0690    9.1010   55.7950 C.ar   81  G81         0.1723
   1470  C5        -5.8720   10.3500   56.3540 C.ar   81  G81         0.1748
   1471  C6        -4.5820   10.9280   56.2890 C.ar   81  G81         0.3023
   1472  O6        -4.2080   12.0200   56.7270 O.2    81  G81        -0.2633
   1473  N7        -7.0500   10.8400   56.9010 N.ar   81  G81        -0.2173
   1474  C8        -7.9270    9.8990   56.6690 C.ar   81  G81         0.1817
   1475  N9        -7.3940    8.8110   56.0090 N.ar   81  G81        -0.2693
   1476  OP1      -12.3160    9.1710   59.9380 O.2    81  G81        -0.5172
   1477  OP2      -10.2250   10.6540   59.9860 O.co2  81  G81        -0.4373
   1478  P         -7.9020    5.2340   59.7780 P.3    82  G82         0.2141
   1479  C5'       -5.9340    3.9440   58.6480 C.3    82  G82         0.1812
   1480  O5'       -6.3820    5.1130   59.3090 O.3    82  G82        -0.3114
   1481  C4'       -4.5920    4.1720   58.0090 C.3    82  G82         0.1773
   1482  O4'       -4.6270    5.4210   57.2690 O.3    82  G82        -0.3307
   1483  C3'       -3.4110    4.3660   58.9370 C.3    82  G82         0.1860
   1484  O3'       -2.9170    3.1210   59.4120 O.3    82  G82        -0.3112
   1485  C2'       -2.4200    5.0310   57.9930 C.3    82  G82         0.2309
   1486  O2'       -1.9130    4.1290   57.0390 O.3    82  G82        -0.2156
   1487  C1'       -3.3320    6.0080   57.2640 C.3    82  G82         0.2408
   1488  N1        -0.7650   10.1260   58.6800 N.ar   82  G82        -0.1709
   1489  C2        -0.3080    8.9930   58.0650 C.ar   82  G82         0.2606
   1490  N2         1.0040    8.9490   57.7570 N.pl3  82  G82        -0.0859
   1491  N3        -1.0790    7.9670   57.7660 N.ar   82  G82        -0.1918
   1492  C4        -2.3570    8.1660   58.1470 C.ar   82  G82         0.1723
   1493  C5        -2.9040    9.2530   58.7770 C.ar   82  G82         0.1748
   1494  C6        -2.0810   10.3470   59.0760 C.ar   82  G82         0.3023
   1495  O6        -2.3970   11.4160   59.6110 O.2    82  G82        -0.2633
   1496  N7        -4.2580    9.0640   59.0010 N.ar   82  G82        -0.2173
   1497  C8        -4.5090    7.8920   58.4940 C.ar   82  G82         0.1817
   1498  N9        -3.4010    7.2970   57.9460 N.ar   82  G82        -0.2693
   1499  OP1       -8.2930    3.9790   60.4830 O.3    82  G82        -0.4373
   1500  OP2       -8.1200    6.5550   60.4440 O.co2  82  G82        -0.5172
   1501  P         -2.4180    2.9860   60.9400 P.3    83  G83         0.2141
   1502  C5'        0.0720    3.7740   60.5210 C.3    83  G83         0.1812
   1503  O5'       -1.2260    4.0470   61.0710 O.3    83  G83        -0.3114
   1504  C4'        0.9950    4.9680   60.6930 C.3    83  G83         0.1773
   1505  O4'        0.4230    6.1410   60.0570 O.3    83  G83        -0.3307
   1506  C3'        1.2630    5.4140   62.1160 C.3    83  G83         0.1860
   1507  O3'        2.3420    4.6660   62.6390 O.3    83  G83        -0.3112
   1508  C2'        1.6620    6.8720   61.9210 C.3    83  G83         0.2309
   1509  O2'        2.9740    7.0380   61.4150 O.3    83  G83        -0.2156
   1510  C1'        0.6760    7.2980   60.8440 C.3    83  G83         0.2408
   1511  N1        -2.0410   11.1820   62.7050 N.ar   83  G83        -0.1709
   1512  C2        -0.7220   11.1560   62.3460 C.ar   83  G83         0.2606
   1513  N2        -0.0640   12.3130   62.4670 N.pl3  83  G83        -0.0859
   1514  N3        -0.1020   10.0780   61.8950 N.ar   83  G83        -0.1918
   1515  C4        -0.9300    9.0150   61.8210 C.ar   83  G83         0.1723
   1516  C5        -2.2650    8.9460   62.1500 C.ar   83  G83         0.1748
   1517  C6        -2.9110   10.1000   62.6380 C.ar   83  G83         0.3023
   1518  O6        -4.0940   10.2330   62.9860 O.2    83  G83        -0.2633
   1519  N7        -2.7620    7.6730   61.9300 N.ar   83  G83        -0.2173
   1520  C8        -1.7430    7.0030   61.4770 C.ar   83  G83         0.1817
   1521  N9        -0.6050    7.7560   61.3710 N.ar   83  G83        -0.2693
   1522  OP1       -1.7920    1.6450   61.1150 O.2    83  G83        -0.5172
   1523  OP2       -3.5950    3.3750   61.7780 O.co2  83  G83        -0.4373
   1524  P          2.0420    3.4170   63.5890 P.3    84  A84         0.2141
   1525  C5'        4.4730    3.1370   64.5560 C.3    84  A84         0.1812
   1526  O5'        3.1210    3.5570   64.7530 O.3    84  A84        -0.3114
   1527  C4'        5.4030    3.9600   65.4180 C.3    84  A84         0.1773
   1528  O4'        5.6050    5.2670   64.8270 O.3    84  A84        -0.3307
   1529  C3'        4.8850    4.2300   66.8180 C.3    84  A84         0.1860
   1530  O3'        5.2330    3.1390   67.6710 O.3    84  A84        -0.3112
   1531  C2'        5.6150    5.5160   67.1940 C.3    84  A84         0.2309
   1532  O2'        6.9210    5.2690   67.6830 O.3    84  A84        -0.2156
   1533  C1'        5.6980    6.2400   65.8460 C.3    84  A84         0.2408
   1534  N1         4.7490   11.2040   64.9780 N.ar   84  A84        -0.2040
   1535  C2         5.8770   10.5340   65.1840 C.ar   84  A84         0.2016
   1536  N3         6.0570    9.2360   65.4100 N.ar   84  A84        -0.2048
   1537  C4         4.8780    8.5910   65.4160 C.ar   84  A84         0.1692
   1538  C5         3.6290    9.1530   65.2200 C.ar   84  A84         0.1518
   1539  C6         3.5840   10.5270   64.9850 C.ar   84  A84         0.1919
   1540  N6         2.4620   11.1930   64.7580 N.pl3  84  A84        -0.1054
   1541  N7         2.6340    8.1850   65.2880 N.ar   84  A84        -0.2193
   1542  C8         3.2970    7.0720   65.5200 C.ar   84  A84         0.1816
   1543  N9         4.6610    7.2460   65.6090 N.ar   84  A84        -0.2693
   1544  OP1        2.3470    2.1770   62.8180 O.2    84  A84        -0.5172
   1545  OP2        0.6720    3.6380   64.1340 O.co2  84  A84        -0.4373
   1546  P          4.2930    2.7560   68.9220 P.3    85  A85         0.2141
   1547  C5'        3.3930    4.1800   70.9250 C.3    85  A85         0.1812
   1548  O5'        4.1140    4.1320   69.7020 O.3    85  A85        -0.3114
   1549  C4'        4.2570    3.6580   72.0400 C.3    85  A85         0.1773
   1550  O4'        5.3910    4.5450   72.2280 O.3    85  A85        -0.3307
   1551  C3'        3.4970    3.6550   73.3590 C.3    85  A85         0.1860
   1552  O3'        3.5840    2.3730   73.9900 O.3    85  A85        -0.3112
   1553  C2'        3.9220    4.9300   74.0940 C.3    85  A85         0.2309
   1554  O2'        4.1030    4.7860   75.4870 O.3    85  A85        -0.2156
   1555  C1'        5.2950    5.1800   73.4790 C.3    85  A85         0.2408
   1556  N1         9.4410    8.0150   74.2230 N.ar   85  A85        -0.2040
   1557  C2         9.1870    6.7120   74.3740 C.ar   85  A85         0.2016
   1558  N3         8.0600    6.0450   74.1590 N.ar   85  A85        -0.2048
   1559  C4         7.0980    6.8720   73.7280 C.ar   85  A85         0.1692
   1560  C5         7.1990    8.2300   73.5240 C.ar   85  A85         0.1518
   1561  C6         8.4490    8.8190   73.7920 C.ar   85  A85         0.1919
   1562  N6         8.7060   10.1190   73.6490 N.pl3  85  A85        -0.1054
   1563  N7         5.9940    8.7480   73.0770 N.ar   85  A85        -0.2193
   1564  C8         5.2030    7.7020   73.0150 C.ar   85  A85         0.1816
   1565  N9         5.8100    6.5410   73.3950 N.ar   85  A85        -0.2693
   1566  OP1        5.0950    1.8520   69.7840 O.3    85  A85        -0.4373
   1567  OP2        2.9530    2.3150   68.4460 O.co2  85  A85        -0.5172
   1568  P          2.7890    2.0700   75.3510 P.3    86  G86         0.2141
   1569  C5'        4.2400    2.5030   77.5230 C.3    86  G86         0.1812
   1570  O5'        3.9610    1.6910   76.3750 O.3    86  G86        -0.3114
   1571  C4'        5.7240    2.4860   77.8430 C.3    86  G86         0.1773
   1572  O4'        6.4780    3.2150   76.8270 O.3    86  G86        -0.3307
   1573  C3'        6.0950    3.2190   79.1150 C.3    86  G86         0.1860
   1574  O3'        5.8580    2.4240   80.2590 O.3    86  G86        -0.3112
   1575  C2'        7.5740    3.5120   78.9000 C.3    86  G86         0.2309
   1576  O2'        8.4150    2.3910   79.0780 O.3    86  G86        -0.2156
   1577  C1'        7.5760    3.9040   77.4290 C.3    86  G86         0.2408
   1578  N1         9.6550    8.5450   77.7160 N.ar   86  G86        -0.1709
   1579  C2        10.2160    7.3410   78.0060 C.ar   86  G86         0.2606
   1580  N2        11.4810    7.3920   78.4280 N.pl3  86  G86        -0.0859
   1581  N3         9.5810    6.1810   77.8970 N.ar   86  G86        -0.1918
   1582  C4         8.3070    6.3430   77.4780 C.ar   86  G86         0.1723
   1583  C5         7.6540    7.5140   77.1760 C.ar   86  G86         0.1748
   1584  C6         8.3550    8.7360   77.2910 C.ar   86  G86         0.3023
   1585  O6         7.9520    9.8710   77.0740 O.2    86  G86        -0.2633
   1586  N7         6.3440    7.2640   76.7940 N.ar   86  G86        -0.2173
   1587  C8         6.2270    5.9680   76.8620 C.ar   86  G86         0.1817
   1588  N9         7.3790    5.3420   77.2640 N.ar   86  G86        -0.2693
   1589  OP1        1.9520    0.8660   75.0750 O.2    86  G86        -0.5172
   1590  OP2        2.1340    3.3270   75.8050 O.co2  86  G86        -0.4373
   1591  P          5.3630    3.1300   81.6000 P.3    87  U87         0.2141
   1592  C5'        7.8490    2.8580   82.3160 C.3    87  U87         0.1812
   1593  O5'        6.7110    3.6900   82.2200 O.3    87  U87        -0.3114
   1594  C4'        9.0570    3.6870   82.6500 C.3    87  U87         0.1773
   1595  O4'        9.5070    4.3990   81.4740 O.3    87  U87        -0.3307
   1596  C3'        8.8300    4.7740   83.6840 C.3    87  U87         0.1860
   1597  O3'        8.8970    4.2400   84.9960 O.3    87  U87        -0.3112
   1598  C2'        9.9920    5.7010   83.3790 C.3    87  U87         0.2309
   1599  O2'       11.2260    5.1820   83.8160 O.3    87  U87        -0.2156
   1600  C1'        9.9800    5.6800   81.8510 C.3    87  U87         0.2420
   1601  N1         9.0700    6.7090   81.3170 N.ar   87  U87        -0.2534
   1602  C2         9.5370    8.0040   81.2820 C.ar   87  U87         0.3546
   1603  O2        10.6630    8.3030   81.6150 O.2    87  U87        -0.2443
   1604  N3         8.6390    8.9380   80.8460 N.ar   87  U87        -0.1530
   1605  C4         7.3560    8.7180   80.4360 C.ar   87  U87         0.2846
   1606  O4         6.6650    9.6700   80.0670 O.2    87  U87        -0.2650
   1607  C5         6.9500    7.3480   80.4760 C.ar   87  U87         0.0814
   1608  C6         7.8020    6.4130   80.9020 C.ar   87  U87         0.0870
   1609  OP1        4.7960    2.1110   82.5160 O.3    87  U87        -0.4373
   1610  OP2        4.5310    4.2830   81.1790 O.co2  87  U87        -0.5172
   1611  P          8.1430    4.9840   86.2050 P.3    88  C88         0.2141
   1612  C5'       10.2990    6.1780   87.1090 C.3    88  C88         0.1812
   1613  O5'        9.0240    6.2800   86.4770 O.3    88  C88        -0.3114
   1614  C4'       10.9860    7.5260   87.1310 C.3    88  C88         0.1773
   1615  O4'       11.1120    8.0110   85.7640 O.3    88  C88        -0.3307
   1616  C3'       10.2480    8.6520   87.8360 C.3    88  C88         0.1860
   1617  O3'       10.5160    8.6400   89.2250 O.3    88  C88        -0.3112
   1618  C2'       10.8800    9.8750   87.1980 C.3    88  C88         0.2309
   1619  O2'       12.1790   10.0850   87.6980 O.3    88  C88        -0.2156
   1620  C1'       10.9940    9.4240   85.7450 C.3    88  C88         0.2420
   1621  N1         9.8070    9.7860   84.9600 N.ar   88  C88        -0.2535
   1622  C2         9.6740   11.0990   84.5320 C.ar   88  C88         0.3532
   1623  O2        10.5630   11.9120   84.8250 O.2    88  C88        -0.2443
   1624  N3         8.5840   11.4550   83.8150 N.ar   88  C88        -0.1739
   1625  C4         7.6540   10.5470   83.5280 C.ar   88  C88         0.1759
   1626  N4         6.5970   10.9370   82.8200 N.pl3  88  C88        -0.1070
   1627  C5         7.7670    9.1980   83.9530 C.ar   88  C88         0.0566
   1628  C6         8.8500    8.8620   84.6590 C.ar   88  C88         0.0850
   1629  OP1        8.2820    4.1160   87.3930 O.3    88  C88        -0.4373
   1630  OP2        6.7910    5.4060   85.7620 O.co2  88  C88        -0.5172
   1631  P          9.4900    9.3500   90.2460 P.3    89  G89         0.2141
   1632  C5'       10.7420   11.6760   90.1560 C.3    89  G89         0.1812
   1633  O5'        9.5600   10.9090   89.8970 O.3    89  G89        -0.3114
   1634  C4'       10.6530   13.0440   89.5010 C.3    89  G89         0.1773
   1635  O4'       10.3710   12.8790   88.0850 O.3    89  G89        -0.3307
   1636  C3'        9.5300   13.9520   89.9730 C.3    89  G89         0.1860
   1637  O3'        9.8560   14.6290   91.1700 O.3    89  G89        -0.3112
   1638  C2'        9.3540   14.9110   88.8030 C.3    89  G89         0.2309
   1639  O2'       10.3030   15.9600   88.7640 O.3    89  G89        -0.2156
   1640  C1'        9.6070   13.9800   87.6230 C.3    89  G89         0.2408
   1641  N1         5.7250   15.1820   84.6310 N.ar   89  G89        -0.1709
   1642  C2         6.6320   15.9950   85.2450 C.ar   89  G89         0.2606
   1643  N2         6.5200   17.3050   84.9840 N.pl3  89  G89        -0.0859
   1644  N3         7.5780   15.5640   86.0560 N.ar   89  G89        -0.1918
   1645  C4         7.5330   14.2280   86.2150 C.ar   89  G89         0.1723
   1646  C5         6.6620   13.3270   85.6570 C.ar   89  G89         0.1748
   1647  C6         5.6610   13.8080   84.7760 C.ar   89  G89         0.3023
   1648  O6         4.8010   13.1740   84.1650 O.2    89  G89        -0.2633
   1649  N7         6.9510   12.0360   86.0800 N.ar   89  G89        -0.2173
   1650  C8         7.9840   12.1780   86.8640 C.ar   89  G89         0.1817
   1651  N9         8.4110   13.4790   86.9540 N.ar   89  G89        -0.2693
   1652  OP1       10.0760    9.1050   91.5920 O.3    89  G89        -0.4373
   1653  OP2        8.1040    8.9000   89.9520 O.co2  89  G89        -0.5172
   1654  P          8.7490   14.7410   92.3180 P.3    90  C90         0.2141
   1655  C5'        9.0670   17.2780   91.7030 C.3    90  C90         0.1812
   1656  O5'        8.2520   16.2560   92.2630 O.3    90  C90        -0.3114
   1657  C4'        8.2580   18.1510   90.7570 C.3    90  C90         0.1773
   1658  O4'        7.8350   17.3870   89.6040 O.3    90  C90        -0.3307
   1659  C3'        6.9600   18.7280   91.2960 C.3    90  C90         0.1860
   1660  O3'        7.2390   19.9030   92.0410 O.3    90  C90        -0.3112
   1661  C2'        6.1640   19.0420   90.0250 C.3    90  C90         0.2309
   1662  O2'        6.4310   20.3030   89.4560 O.3    90  C90        -0.2156
   1663  C1'        6.6710   17.9770   89.0570 C.3    90  C90         0.2420
   1664  N1         5.7250   16.9150   88.6980 N.ar   90  C90        -0.2535
   1665  C2         4.6470   17.2310   87.8750 C.ar   90  C90         0.3532
   1666  O2         4.4640   18.4120   87.5660 O.2    90  C90        -0.2443
   1667  N3         3.8320   16.2450   87.4430 N.ar   90  C90        -0.1739
   1668  C4         4.0570   14.9850   87.8230 C.ar   90  C90         0.1759
   1669  N4         3.2520   14.0340   87.3530 N.pl3  90  C90        -0.1070
   1670  C5         5.1230   14.6430   88.7020 C.ar   90  C90         0.0566
   1671  C6         5.9210   15.6310   89.1170 C.ar   90  C90         0.0850
   1672  OP1        9.3940   14.4550   93.6220 O.3    90  C90        -0.4373
   1673  OP2        7.6220   13.8900   91.8680 O.co2  90  C90        -0.5172
   1674  P          6.3060   20.3010   93.2830 P.3    91  A91         0.2141
   1675  C5'        5.8330   19.0350   95.5460 C.3    91  A91         0.1813
   1676  O5'        6.6960   19.2610   94.4320 O.3    91  A91        -0.3114
   1677  C4'        6.4410   19.6100   96.8030 C.3    91  A91         0.1801
   1678  O4'        7.8260   19.1880   96.8560 O.3    91  A91        -0.3306
   1679  C3'        6.5090   21.1320   96.8990 C.3    91  A91         0.2161
   1680  O3'        5.3150   21.7580   97.4210 O.3    91  A91        -0.2175
   1681  C2'        7.6730   21.3470   97.8540 C.3    91  A91         0.2337
   1682  O2'        7.2840   21.1730   99.2080 O.3    91  A91        -0.2155
   1683  C1'        8.6170   20.2160   97.4320 C.3    91  A91         0.2409
   1684  N1        13.4370   21.9520   96.7630 N.ar   91  A91        -0.2040
   1685  C2        12.6690   21.8320   97.8560 C.ar   91  A91         0.2016
   1686  N3        11.4090   21.4070   97.9620 N.ar   91  A91        -0.2048
   1687  C4        10.9200   21.0730   96.7570 C.ar   91  A91         0.1692
   1688  C5        11.5840   21.1470   95.5430 C.ar   91  A91         0.1518
   1689  C6        12.9140   21.6110   95.5660 C.ar   91  A91         0.1919
   1690  N6        13.6780   21.7290   94.4740 N.pl3  91  A91        -0.1054
   1691  N7        10.7640   20.7280   94.5090 N.ar   91  A91        -0.2193
   1692  C8         9.6430   20.4030   95.1070 C.ar   91  A91         0.1816
   1693  N9         9.6730   20.5650   96.4720 N.ar   91  A91        -0.2693
   1694  OP1        4.8810   20.0790   92.9040 O.2    91  A91        -0.5172
   1695  OP2        6.7560   21.6620   93.6920 O.co2  91  A91        -0.4373
@<TRIPOS>BOND
     1   405   404    1
     2   393   392    1
     3   418   397    2
     4   406   404    1
     5   406   401    1
     6   406   417    1
     7   404   402    1
     8   409   408    1
     9   401   400    1
    10   392   394    1
    11   392   390    1
    12   410   408   ar
    13   410   411   ar
    14   403   402    1
    15   403   420    1
    16   394   389    1
    17   400   402    1
    18   400   398    1
    19   408   407   ar
    20   381   380    1
    21   438   420    2
    22   417   411   ar
    23   417   416   ar
    24   382   380    1
    25   382   377    1
    26   411   412   ar
    27   421   423    1
    28   421   422    1
    29   397   391    1
    30   397   419    1
    31   397   399    1
    32   380   378    1
    33   391   390    1
    34   390   388    1
    35   420   422    1
    36   420   439    1
    37   423   424    1
    38   423   425    1
    39   424   429    1
    40   407   413   ar
    41   389   388    1
    42   398   399    1
    43   416   415   ar
    44   377   376    1
    45   412   413   ar
    46   412   415   ar
    47   388   386    1
    48   413   414    2
    49   369   368    1
    50   429   427    1
    51   429   430    1
    52   378   376    1
    53   378   379    1
    54   428   427    1
    55   425   426    1
    56   425   427    1
    57   376   374    1
    58   426   440    1
    59   437   430   ar
    60   437   436   ar
    61   379   385    1
    62   430   431   ar
    63   368   370    1
    64   368   366    1
    65   386   387    1
    66   370   365    1
    67   436   434   ar
    68   396   385    2
    69   450   440    2
    70   440   451    1
    71   440   442    1
    72   374   375    1
    73   387   385    1
    74   385   395    1
    75   375   373    1
    76   431   432    2
    77   431   433   ar
    78   365   364    1
    79   367   366    1
    80   367   373    1
    81   384   373    2
    82   366   364    1
    83   434   433   ar
    84   434   435    1
    85   364   362    1
    86   373   383    1
    87   442   441    1
    88   441   443    1
    89   444   443    1
    90   444   449    1
    91   443   445    1
    92   362   363    1
    93   363   361    1
    94   449   447    1
    95   448   447    1
    96   445   446    1
    97   445   447    1
    98   371   361    2
    99   446   452    1
   100   347   361    1
   101   347   346    1
   102   361   372    1
   103   339   321    2
   104   342   344    1
   105   342   343    1
   106   344   346    1
   107   344   345    1
   108   343   341    1
   109  1240  1220    2
   110   349   348    1
   111   346   348    1
   112   327   341    1
   113   327   326    1
   114   359   341    2
   115   452   462    2
   116   452   463    1
   117   452   454    1
   118   321   340    1
   119   321   323    1
   120   321   307    1
   121  1204  1220    1
   122  1204  1203    1
   123  1206  1205    1
   124   341   360    1
   125   345   350    1
   126  1221  1222    1
   127  1221  1223    1
   128  1220  1222    1
   129  1220  1241    1
   130   348   350    1
   131  1201  1199    1
   132  1201  1203    1
   133  1201  1202    1
   134   322   323    1
   135   322   324    1
   136   326   324    1
   137   326   328    1
   138   307   306    1
   139  1199  1200    1
   140   454   453    1
   141  1203  1205    1
   142   350   351    1
   143  1223  1224    1
   144  1223  1225    1
   145  1202  1207    1
   146   319   301    2
   147  1193  1192    2
   148  1205  1207    1
   149  1260  1242    2
   150  1108  1090    2
   151   324   325    1
   152  1062  1067    1
   153  1062  1061    1
   154  1226  1225    1
   155  1226  1242    1
   156   456   461    1
   157   456   455    1
   158  1207  1217    1
   159  1131  1110    2
   160  1088  1070    2
   161  1067  1065    1
   162  1224  1229    1
   163  1064  1063    1
   164  1064  1070    1
   165  1066  1065    1
   166   328   329    1
   167   328   330    1
   168  1219  1198    2
   169  1192  1194   ar
   170  1192  1191   ar
   171   306   304    1
   172   306   308    1
   173   453   455    1
   174   302   304    1
   175   302   303    1
   176  1225  1227    1
   177  1242  1261    1
   178  1242  1244    1
   179  1061  1063    1
   180  1061  1059    1
   181  1200  1198    1
   182   461   459    1
   183  1154  1133    2
   184  1194  1195   ar
   185   351   358   ar
   186   351   352   ar
   187  1132  1110    1
   188  1063  1065    1
   189  1197  1178    2
   190   304   305    1
   191   301   303    1
   192   301   320    1
   193   301   287    1
   194   455   457    1
   195  1070  1072    1
   196  1070  1089    1
   197  1176  1156    2
   198   325   330    1
   199  1090  1076    1
   200  1090  1109    1
   201  1090  1092    1
   202   358   357   ar
   203  1155  1133    1
   204  1228  1227    1
   205  1072  1071    1
   206   309   308    1
   207  1191  1189   ar
   208  1110  1112    1
   209  1110  1096    1
   210  1198  1218    1
   211  1198  1184    1
   212  1076  1075    1
   213   338   337   ar
   214   338   331   ar
   215  1229  1227    1
   216  1229  1239    1
   217   330   331    1
   218   308   310    1
   219  1177  1156    1
   220  1217  1216   ar
   221  1217  1211   ar
   222  1133  1116    1
   223  1133  1135    1
   224  1195  1188   ar
   225   353   352    2
   226   337   335   ar
   227  1059  1060    1
   228  1172  1171    1
   229   352   354   ar
   230   331   332   ar
   231   287   286    1
   232  1196  1178    1
   233  1244  1243    1
   234  1156  1158    1
   235  1156  1139    1
   236  1178  1180    1
   237  1178  1162    1
   238  1091  1092    1
   239  1091  1093    1
   240  1210  1211   ar
   241  1210  1209   ar
   242  1243  1245    1
   243  1112  1111    1
   244  1189  1188   ar
   245  1189  1190    2
   246   459   457    1
   247   459   460    1
   248  1096  1095    1
   249   357   355   ar
   250   457   458    1
   251  1071  1073    1
   252  1216  1215   ar
   253  1116  1115    1
   254  1180  1179    1
   255  1238  1239   ar
   256  1238  1237   ar
   257  1188  1187    1
   258  1211  1212   ar
   259  1111  1113    1
   260  1073  1075    1
   261  1073  1074    1
   262   305   310    1
   263  1239  1233   ar
   264  1075  1077    1
   265  1183  1184    1
   266  1183  1185    1
   267  1183  1181    1
   268  1157  1158    1
   269  1157  1159    1
   270  1173  1170   ar
   271  1173  1174   ar
   272  1171  1170   ar
   273  1171  1166   ar
   274  1078  1077    1
   275  1185  1187    1
   276  1185  1186    1
   277   335   336    1
   278   335   334   ar
   279  1135  1134    1
   280   310   311    1
   281  1060  1058    1
   282   332   334   ar
   283   332   333    2
   284  1170  1169   ar
   285  1139  1138    1
   286  1068  1058    2
   287   354   355   ar
   288  1095  1093    1
   289  1095  1097    1
   290  1093  1094    1
   291  1209  1208   ar
   292  1166  1167   ar
   293  1174  1175   ar
   294  1115  1113    1
   295  1115  1117    1
   296   474   464    2
   297  1187  1182    1
   298  1162  1161    1
   299   289   288    1
   300   286   288    1
   301   286   284    1
   302  1161  1159    1
   303  1161  1163    1
   304  1134  1136    1
   305   355   356    2
   306  1077  1079    1
   307  1237  1234   ar
   308   458   464    1
   309  1113  1114    1
   310   299   281    2
   311  1245  1246    1
   312  1245  1247    1
   313  1179  1181    1
   314   318   311   ar
   315   318   317   ar
   316  1069  1058    1
   317  1215  1212   ar
   318   475   464    1
   319   311   312   ar
   320  1058  1042    1
   321  1212  1213   ar
   322  1074  1079    1
   323  1138  1136    1
   324  1138  1140    1
   325  1181  1182    1
   326  1159  1160    1
   327  1169  1175   ar
   328  1169  1168   ar
   329  1233  1234   ar
   330  1233  1232   ar
   331  1246  1251    1
   332   464   466    1
   333   288   290    1
   334  1167  1168   ar
   335  1175  1165    1
   336  1151  1152   ar
   337  1151  1148   ar
   338   284   282    1
   339   284   285    1
   340   282   283    1
   341   492   491    1
   342  1037  1039    1
   343  1037  1038    1
   344   317   315   ar
   345  1152  1153   ar
   346  1056  1036    2
   347  1283  1262    2
   348  1136  1137    1
   349  1284  1262    1
   350  1234  1235   ar
   351  1160  1165    1
   352  1208  1213   ar
   353   312   313    2
   354   312   314   ar
   355  1079  1080    1
   356  1094  1099    1
   357  1232  1231   ar
   358  1163  1165    1
   359  1163  1164    1
   360  1039  1040    1
   361  1039  1041    1
   362   283   281    1
   363  1150  1149    2
   364  1097  1098    1
   365  1097  1099    1
   366  1247  1248    1
   367  1247  1249    1
   368   281   300    1
   369   281   264    1
   370  1117  1118    1
   371  1117  1119    1
   372  1213  1214    1
   373  1248  1262    1
   374  1114  1119    1
   375  1259  1258   ar
   376  1259  1252   ar
   377  1107  1106   ar
   378  1107  1100   ar
   379  1262  1264    1
   380  1129  1128   ar
   381  1129  1130   ar
   382  1148  1149   ar
   383  1148  1147   ar
   384  1140  1142    1
   385  1140  1141    1
   386  1057  1036    1
   387  1258  1256   ar
   388   315   314   ar
   389   315   316    1
   390  1106  1104   ar
   391  1128  1125   ar
   392   468   473    1
   393   468   467    1
   394  1149  1143   ar
   395   532   531    1
   396  1042  1041    1
   397  1153  1147   ar
   398  1153  1142    1
   399  1036  1038    1
   400  1036  1019    1
   401  1251  1252    1
   402  1251  1249    1
   403  1040  1045    1
   404  1300  1299    1
   405   491   490   ar
   406   491   486   ar
   407  1099  1100    1
   408   473   471    1
   409  1137  1142    1
   410   290   285    1
   411   290   291    1
   412   508   509   ar
   413   508   513   ar
   414   493   490   ar
   415   493   494   ar
   416  1087  1080   ar
   417  1087  1086   ar
   418   514   513    1
   419   466   465    1
   420  1119  1130    1
   421  1041  1043    1
   422  1252  1253   ar
   423  1130  1124   ar
   424  1080  1081   ar
   425  1100  1101   ar
   426  1147  1146   ar
   427  1235  1236    1
   428  1235  1230   ar
   429  1231  1230   ar
   430  1249  1250    1
   431   490   489   ar
   432  1125  1124   ar
   433  1125  1126   ar
   434   486   487   ar
   435   509   510   ar
   436   513   512   ar
   437   264   263    1
   438  1256  1257    2
   439  1256  1255   ar
   440   293   292    2
   441   531   530   ar
   442   531   533   ar
   443  1143  1144   ar
   444   291   292   ar
   445   291   298   ar
   446  1104  1105    2
   447  1104  1103   ar
   448  1124  1123   ar
   449   530   536   ar
   450  1299  1301   ar
   451  1299  1298   ar
   452   555   554    1
   453  1127  1126    2
   454   494   495   ar
   455   465   467    1
   456   467   469    1
   457   292   294   ar
   458  1086  1084   ar
   459  1301  1302   ar
   460  1264  1263    1
   461  1126  1120   ar
   462  1253  1255   ar
   463  1253  1254    2
   464   298   297   ar
   465  1146  1144   ar
   466  1045  1043    1
   467  1045  1055    1
   468  1101  1103   ar
   469  1101  1102    2
   470  1081  1082    2
   471  1081  1083   ar
   472  1019  1018    1
   473   533   534   ar
   474  1144  1145    1
   475   471   472    1
   476   471   469    1
   477  1043  1044    1
   478   510   511   ar
   479  1123  1121   ar
   480   294   295   ar
   481   489   495   ar
   482   489   488   ar
   483  1298  1296   ar
   484   554   556   ar
   485   554   553   ar
   486  1034  1013    2
   487   487   488   ar
   488   512   511   ar
   489   512   515   ar
   490   297   295   ar
   491   556   557   ar
   492   536   537    2
   493   536   535   ar
   494  1263  1265    1
   495   263   265    1
   496   263   261    1
   497  1120  1121   ar
   498   495   485    1
   499   295   296    1
   500  1302  1295   ar
   501  1054  1055   ar
   502  1054  1053   ar
   503   551   550    1
   504   469   470    1
   505  1121  1122    1
   506   511   517   ar
   507  1055  1049   ar
   508  1084  1083   ar
   509  1084  1085    1
   510   534   535   ar
   511   534   540   ar
   512   553   559   ar
   513   552   563    1
   514   552   550    1
   515   552   547    1
   516   535   538   ar
   517   515   516   ar
   518  1018  1016    1
   519  1018  1020    1
   520   259   261    1
   521   259   260    1
   522   557   563   ar
   523   557   558   ar
   524  1296  1295   ar
   525  1296  1297    2
   526  1014  1015    1
   527  1014  1016    1
   528   265   266    1
   529   265   267    1
   530  1320  1319    1
   531  1295  1294    1
   532   261   262    1
   533  1013  1015    1
   534  1013  1035    1
   535  1013   999    1
   536   563   562   ar
   537   550   548    1
   538  1053  1050   ar
   539   547   546    1
   540   540   529    1
   541   540   539   ar
   542   480   485    1
   543   480   479    1
   544   485   483    1
   545   559   558   ar
   546   559   560    2
   547   528   527    1
   548  1016  1017    1
   549   529   527    1
   550   529   524    1
   551   280   258    2
   552   517   516   ar
   553   517   507    1
   554  1049  1048   ar
   555  1049  1050   ar
   556   558   561   ar
   557   470   476    1
   558  1265  1266    1
   559  1265  1267    1
   560   538   539   ar
   561   570   575    1
   562   570   569    1
   563  1319  1318   ar
   564  1319  1321   ar
   565  1021  1020    1
   566  1020  1022    1
   567   527   525    1
   568  1048  1047   ar
   569   562   561   ar
   570  1050  1051   ar
   571   260   258    1
   572  1280  1281   ar
   573  1280  1277   ar
   574  1266  1271    1
   575  1318  1316   ar
   576  1281  1282   ar
   577  1267  1268    1
   578  1267  1269    1
   579  1294  1289    1
   580  1294  1292    1
   581   546   548    1
   582   546   544    1
   583   270   269    1
   584   575   576    1
   585   575   573    1
   586  1268  1285    1
   587  1289  1288    1
   588  1335  1336   ar
   589  1335  1340   ar
   590   507   502    1
   591   507   505    1
   592  1359  1358    1
   593   478   477    1
   594   478   476    1
   595   524   523    1
   596   267   262    1
   597   267   278    1
   598   271   269   ar
   599   271   272   ar
   600  1321  1322   ar
   601   999   998    1
   602   269   268   ar
   603  1341  1340    1
   604   569   567    1
   605   569   571    1
   606   477   479    1
   607   574   573    1
   608   548   549    1
   609   258   279    1
   610   258   244    1
   611  1336  1337   ar
   612   497   476    2
   613   278   272   ar
   614   278   277   ar
   615   479   481    1
   616   272   273   ar
   617  1279  1278    2
   618   476   496    1
   619   483   481    1
   620   483   484    1
   621  1017  1022    1
   622  1287  1285    1
   623  1287  1286    1
   624  1277  1278   ar
   625  1277  1276   ar
   626   576   583   ar
   627   576   577   ar
   628   567   568    1
   629  1340  1339   ar
   630  1282  1271    1
   631  1282  1276   ar
   632  1316  1317    2
   633  1316  1315   ar
   634   268   274   ar
   635  1047  1046   ar
   636   583   582   ar
   637   549   566    1
   638   277   276   ar
   639  1358  1357   ar
   640  1358  1360   ar
   641   578   577    2
   642  1278  1272   ar
   643  1051  1046   ar
   644  1051  1052    1
   645   502   501    1
   646   273   274   ar
   647   273   276   ar
   648  1022  1033    1
   649   573   571    1
   650  1271  1269    1
   651  1357  1363   ar
   652   505   506    1
   653   505   503    1
   654  1032  1033   ar
   655  1032  1031   ar
   656  1322  1315   ar
   657   481   482    1
   658  1011   993    2
   659   577   579   ar
   660   544   545    1
   661  1276  1275   ar
   662   274   275    2
   663   523   525    1
   664   523   521    1
   665   525   526    1
   666  1269  1270    1
   667  1285  1304    2
   668  1285  1303    1
   669  1315  1314    1
   670  1337  1338   ar
   671  1292  1290    1
   672  1292  1293    1
   673  1288  1286    1
   674  1288  1290    1
   675   582   580   ar
   676  1360  1361   ar
   677  1033  1027   ar
   678   244   243    1
   679   998   996    1
   680   998  1000    1
   681   571   572    1
   682  1031  1028   ar
   683   579   580   ar
   684  1339  1338   ar
   685  1339  1342   ar
   686  1272  1273   ar
   687  1363  1364    2
   688  1363  1362   ar
   689   568   566    1
   690   545   543    1
   691   580   581    1
   692   526   543    1
   693  1338  1344   ar
   694  1290  1291    1
   695  1275  1273   ar
   696   256   238    2
   697  1001  1000    1
   698   994   996    1
   699   994   995    1
   700  1361  1362   ar
   701  1361  1367   ar
   702   572   586    1
   703  1273  1274    1
   704  1314  1309    1
   705  1314  1312    1
   706   566   584    2
   707   566   585    1
   708   503   501    1
   709   503   504    1
   710   993   995    1
   711   993  1012    1
   712   993   979    1
   713   996   997    1
   714   501   499    1
   715  1362  1365   ar
   716  1000  1002    1
   717  1027  1028   ar
   718  1027  1026   ar
   719  1028  1029   ar
   720   482   498    1
   721   521   522    1
   722  1342  1343   ar
   723   519   498    2
   724  1309  1308    1
   725   243   241    1
   726   243   245    1
   727   543   565    2
   728   543   564    1
   729   500   499    1
   730   500   498    1
   731  1382  1381    2
   732  1367  1356    1
   733  1367  1366   ar
   734   522   520    1
   735   682   681    1
   736  1344  1343   ar
   737  1344  1334    1
   738   239   240    1
   739   239   241    1
   740  1356  1351    1
   741  1356  1354    1
   742  1026  1024   ar
   743   590   595    1
   744   590   589    1
   745  1365  1366   ar
   746   240   238    1
   747   498   518    1
   748   241   242    1
   749   684   685   ar
   750   684   689   ar
   751  1029  1030    2
   752  1029  1023   ar
   753   238   257    1
   754   238   221    1
   755   690   689    1
   756  1355  1354    1
   757  1291  1305    1
   758   504   520    1
   759  1324  1305    2
   760   685   686   ar
   761  1312  1313    1
   762  1312  1310    1
   763   689   688   ar
   764  1351  1350    1
   765   979   978    1
   766  1378  1377    1
   767  1334  1329    1
   768  1334  1332    1
   769   542   520    2
   770   997  1002    1
   771  1307  1305    1
   772  1307  1306    1
   773   586   604    2
   774   586   588    1
   775   586   605    1
   776   595   596    1
   777   595   593    1
   778  1002  1003    1
   779   587   589    1
   780   587   588    1
   781  1379  1374    1
   782  1379  1380    1
   783  1379  1377    1
   784  1381  1383   ar
   785  1381  1380   ar
   786   686   687   ar
   787  1024  1023   ar
   788  1024  1025    1
   789  1354  1352    1
   790   688   687   ar
   791   688   691   ar
   792  1374  1373    1
   793   520   541    1
   794   598   597    2
   795   245   246    1
   796   245   247    1
   797   589   591    1
   798   596   597   ar
   799   596   603   ar
   800  1308  1306    1
   801  1308  1310    1
   802   597   599   ar
   803   687   693   ar
   804  1305  1323    1
   805   603   602   ar
   806   681   683    1
   807   681   679    1
   808   599   600   ar
   809   691   692   ar
   810   602   600   ar
   811   600   601    2
   812  1383  1384   ar
   813  1310  1311    1
   814  1380  1387   ar
   815  1003  1010   ar
   816  1003  1004   ar
   817   693   692   ar
   818   693   683    1
   819  1329  1328    1
   820  1332  1333    1
   821  1332  1330    1
   822  1377  1375    1
   823  1010  1009   ar
   824   221   220    1
   825   683   678    1
   826   680   679    1
   827   680   696    1
   828   717   696    2
   829  1005  1004    2
   830  1373  1375    1
   831  1373  1371    1
   832   242   247    1
   833  1350  1352    1
   834  1350  1348    1
   835   706   707   ar
   836   706   711   ar
   837   594   593    1
   838  1004  1006   ar
   839   978   980    1
   840   978   976    1
   841   707   708   ar
   842   593   591    1
   843  1009  1007   ar
   844   247   248    1
   845  1352  1353    1
   846   712   711    1
   847   981   980    1
   848   991   973    2
   849   679   677    1
   850   591   592    1
   851  1384  1385    1
   852  1384  1386   ar
   853  1006  1007   ar
   854   980   982    1
   855   696   716    1
   856   696   698    1
   857  1387  1386   ar
   858   711   710   ar
   859  1375  1376    1
   860  1371  1372    1
   861  1007  1008    2
   862  1348  1349    1
   863  1311  1325    1
   864   976   974    1
   865   976   977    1
   866  1330  1328    1
   867  1330  1331    1
   868  1328  1326    1
   869   974   975    1
   870  1346  1325    2
   871  1407  1406    2
   872   708   709   ar
   873  1376  1390    1
   874   220   222    1
   875   220   218    1
   876   678   677    1
   877   223   222    1
   878  1411  1390    2
   879  1353  1370    1
   880  1349  1347    1
   881   255   248   ar
   882   255   254   ar
   883   975   973    1
   884   248   249   ar
   885   677   675    1
   886   592   606    1
   887  1372  1370    1
   888  1327  1325    1
   889  1327  1326    1
   890   222   224    1
   891   973   992    1
   892   973   959    1
   893   710   709   ar
   894   710   713   ar
   895  1325  1345    1
   896   709   715   ar
   897   236   215    2
   898  1408  1405   ar
   899  1408  1409   ar
   900  1390  1412    1
   901  1390  1392    1
   902   218   216    1
   903   218   219    1
   904  1444  1443   ar
   905  1444  1445   ar
   906   703   704    1
   907   703   701    1
   908   703   705    1
   909   698   697    1
   910   254   252   ar
   911   982   977    1
   912   982   983    1
   913  1406  1405   ar
   914  1406  1400   ar
   915  1443  1448   ar
   916  1331  1347    1
   917   216   217    1
   918   701   702    1
   919   701   699    1
   920   249   250    2
   921   249   251   ar
   922  1370  1388    2
   923  1370  1389    1
   924   697   699    1
   925   713   714   ar
   926   702   718    1
   927  1347  1369    2
   928  1347  1368    1
   929  1405  1404   ar
   930  1445  1446   ar
   931   985   984    2
   932   983   990   ar
   933   983   984   ar
   934   623   622    2
   935  1467  1466    1
   936   217   215    1
   937   715   714   ar
   938   715   705    1
   939  1448  1449    1
   940  1448  1447   ar
   941  1409  1410   ar
   942   624   621   ar
   943   624   625   ar
   944   675   676    1
   945   622   621   ar
   946   622   616   ar
   947   738   718    2
   948   990   989   ar
   949   984   986   ar
   950   959   958    1
   951   215   237    1
   952   215   198    1
   953   621   620   ar
   954   606   608    1
   955   606   628    2
   956   606   627    1
   957   625   626   ar
   958   610   615    1
   959   610   609    1
   960   616   617   ar
   961  1400  1401   ar
   962   224   219    1
   963   224   235    1
   964   252   251   ar
   965   252   253    2
   966  1446  1447   ar
   967  1446  1452   ar
   968   699   700    1
   969   620   626   ar
   970   620   619   ar
   971   705   700    1
   972   608   607    1
   973   617   619   ar
   974   617   618    1
   975  1392  1391    1
   976   626   615    1
   977  1447  1450   ar
   978  1466  1468   ar
   979  1466  1465   ar
   980   676   674    1
   981  1468  1469   ar
   982   989   987   ar
   983   986   987   ar
   984   607   609    1
   985  1441  1440    1
   986   695   674    2
   987   718   739    1
   988   718   720    1
   989   615   613    1
   990  1452  1442    1
   991  1452  1451   ar
   992   987   988    1
   993  1404  1410   ar
   994  1404  1403   ar
   995  1465  1471   ar
   996  1464  1459    1
   997  1464  1475    1
   998  1464  1462    1
   999  1442  1440    1
  1000  1442  1437    1
  1001  1410  1399    1
  1002   235   234   ar
  1003   235   229   ar
  1004  1450  1451   ar
  1005  1391  1393    1
  1006   234   233   ar
  1007  1469  1475   ar
  1008  1469  1470   ar
  1009   609   611    1
  1010  1463  1462    1
  1011  1459  1458    1
  1012   674   694    1
  1013   674   657    1
  1014   958   960    1
  1015   958   956    1
  1016  1440  1438    1
  1017  1475  1474   ar
  1018   198   197    1
  1019  1401  1403   ar
  1020  1401  1402    1
  1021  1471  1470   ar
  1022  1471  1472    2
  1023  1470  1473   ar
  1024   720   719    1
  1025   961   960    1
  1026  1462  1460    1
  1027   960   962    1
  1028   229   228   ar
  1029   229   230   ar
  1030   233   230   ar
  1031  1397  1399    1
  1032  1397  1395    1
  1033  1397  1398    1
  1034  1474  1473   ar
  1035  1437  1436    1
  1036  1399  1394    1
  1037   228   226   ar
  1038   729   728   ar
  1039   729   730   ar
  1040   668   667    2
  1041   728   733   ar
  1042  1458  1460    1
  1043  1458  1456    1
  1044  1394  1393    1
  1045   613   611    1
  1046   613   614    1
  1047   661   667   ar
  1048   661   662   ar
  1049  1486  1485    1
  1050  1393  1395    1
  1051   956   954    1
  1052   956   957    1
  1053   663   662    1
  1054   611   612    1
  1055   230   231   ar
  1056   971   953    2
  1057   667   666   ar
  1058   954   955    1
  1059  1395  1396    1
  1060  1487  1482    1
  1061  1487  1498    1
  1062  1487  1485    1
  1063  1482  1481    1
  1064   662   664   ar
  1065   197   199    1
  1066   197   195    1
  1067   955   953    1
  1068   730   731   ar
  1069   200   199    1
  1070   657   656    1
  1071  1438  1436    1
  1072  1438  1439    1
  1073   666   665   ar
  1074   666   669   ar
  1075   733   734    1
  1076   733   732   ar
  1077  1460  1461    1
  1078   664   665   ar
  1079  1436  1434    1
  1080   226   227    1
  1081   226   225   ar
  1082  1490  1489    1
  1083   656   658    1
  1084   656   654    1
  1085  1491  1489   ar
  1086  1491  1492   ar
  1087   199   201    1
  1088  1456  1457    1
  1089   719   721    1
  1090   658   659    1
  1091   658   660    1
  1092   665   671   ar
  1093   669   670   ar
  1094   722   721    1
  1095   722   727    1
  1096  1498  1492   ar
  1097  1498  1497   ar
  1098  1439  1455    1
  1099   953   972    1
  1100   953   937    1
  1101  1485  1483    1
  1102  1481  1479    1
  1103  1481  1483    1
  1104   962   957    1
  1105   962   963    1
  1106   231   225   ar
  1107   231   232    2
  1108  1489  1488   ar
  1109   731   732   ar
  1110   731   737   ar
  1111  1492  1493   ar
  1112   965   964    2
  1113   213   192    2
  1114   612   629    1
  1115   670   671   ar
  1116   732   735   ar
  1117   963   964   ar
  1118   963   970   ar
  1119   671   660    1
  1120   195   193    1
  1121   195   196    1
  1122   673   651    2
  1123  1461  1478    1
  1124   964   966   ar
  1125  1396  1413    1
  1126   721   723    1
  1127  1497  1496   ar
  1128   970   969   ar
  1129  1457  1455    1
  1130   193   194    1
  1131  1479  1480    1
  1132  1488  1494   ar
  1133   653   651    1
  1134   653   652    1
  1135   966   967   ar
  1136  1493  1496   ar
  1137  1493  1494   ar
  1138   737   727    1
  1139   737   736   ar
  1140   969   967   ar
  1141   660   655    1
  1142   727   725    1
  1143   194   192    1
  1144  1483  1484    1
  1145   967   968    1
  1146  1494  1495    2
  1147   735   736   ar
  1148  1434  1435    1
  1149   650   629    2
  1150   654   652    1
  1151   654   655    1
  1152   192   214    1
  1153   192   175    1
  1154  1455  1476    2
  1155  1455  1477    1
  1156  1431  1413    2
  1157   651   672    1
  1158   651   635    1
  1159   645   644    1
  1160   201   196    1
  1161   201   212    1
  1162  1480  1478    1
  1163  1484  1501    1
  1164   937   936    1
  1165  1454  1433    2
  1166  1435  1433    1
  1167   629   631    1
  1168   629   649    1
  1169  1413  1415    1
  1170  1413  1432    1
  1171  1478  1500    2
  1172  1478  1499    1
  1173   644   639   ar
  1174   644   643   ar
  1175   212   206   ar
  1176   212   211   ar
  1177   762   763   ar
  1178   762   767   ar
  1179  1415  1414    1
  1180  1414  1416    1
  1181   723   725    1
  1182   723   724    1
  1183   205   206   ar
  1184   205   203   ar
  1185  1505  1504    1
  1186  1505  1510    1
  1187   639   640   ar
  1188   763   764   ar
  1189   751   740    2
  1190   725   726    1
  1191   206   207   ar
  1192   211   210   ar
  1193   646   643   ar
  1194   646   647   ar
  1195   631   630    1
  1196   643   642   ar
  1197   936   938    1
  1198   936   934    1
  1199  1433  1453    1
  1200  1433  1419    1
  1201   204   203    1
  1202   768   767    1
  1203  1502  1504    1
  1204  1502  1503    1
  1205   203   202   ar
  1206   175   174    1
  1207   767   766   ar
  1208   640   641   ar
  1209  1504  1506    1
  1210   724   740    1
  1211   635   634    1
  1212  1510  1521    1
  1213  1510  1508    1
  1214   207   210   ar
  1215   207   208   ar
  1216   634   636    1
  1217   634   632    1
  1218   647   648   ar
  1219   764   765   ar
  1220  1501  1503    1
  1221  1501  1522    2
  1222  1501  1523    1
  1223   642   641   ar
  1224   642   648   ar
  1225   938   939    1
  1226   938   940    1
  1227   202   208   ar
  1228   932   934    1
  1229   932   933    1
  1230   740   742    1
  1231   740   750    1
  1232   648   638    1
  1233   208   209    2
  1234  1416  1418    1
  1235  1416  1417    1
  1236  1521  1520   ar
  1237  1521  1515   ar
  1238  1509  1508    1
  1239   636   638    1
  1240   636   637    1
  1241   630   632    1
  1242   927   926    1
  1243  1520  1519   ar
  1244   947   946    1
  1245   941   946   ar
  1246   941   942   ar
  1247   934   935    1
  1248  1418  1419    1
  1249  1418  1420    1
  1250   766   765   ar
  1251   766   769   ar
  1252   946   945   ar
  1253   942   943   ar
  1254   765   771   ar
  1255   933   931    1
  1256   786   785    2
  1257   174   176    1
  1258   174   172    1
  1259   945   944   ar
  1260   945   948   ar
  1261   943   944   ar
  1262  1515  1514   ar
  1263  1515  1516   ar
  1264   177   176    1
  1265   944   950   ar
  1266   948   949   ar
  1267  1514  1512   ar
  1268  1508  1506    1
  1269  1519  1516   ar
  1270   632   633    1
  1271   176   178    1
  1272   742   741    1
  1273   949   950   ar
  1274   950   940    1
  1275  1506  1507    1
  1276   638   633    1
  1277  1417  1422    1
  1278  1516  1517   ar
  1279   940   935    1
  1280  1512  1513    1
  1281  1512  1511   ar
  1282   782   781    1
  1283   769   770   ar
  1284   785   787   ar
  1285   785   784   ar
  1286   771   770   ar
  1287   771   761    1
  1288   783   784    1
  1289   783   778    1
  1290   783   781    1
  1291  1517  1511   ar
  1292  1517  1518    2
  1293  1507  1524    1
  1294   925   931    1
  1295   925   924    1
  1296   787   788   ar
  1297   190   169    2
  1298  1544  1524    2
  1299   926   928    1
  1300   926   924    1
  1301  1420  1422    1
  1302  1420  1421    1
  1303   172   170    1
  1304   172   173    1
  1305   784   791   ar
  1306   761   759    1
  1307   761   756    1
  1308   778   777    1
  1309  1430  1429   ar
  1310  1430  1423   ar
  1311   931   951    2
  1312   931   952    1
  1313   806   805    2
  1314   741   743    1
  1315   928   923    1
  1316   181   180    1
  1317  1422  1423    1
  1318   781   779    1
  1319   170   171    1
  1320   922   924    1
  1321   922   923    1
  1322   922   920    1
  1323   182   180   ar
  1324   182   183   ar
  1325   802   801    1
  1326   171   169    1
  1327   178   189    1
  1328   178   173    1
  1329  1429  1427   ar
  1330   760   759    1
  1331   180   179   ar
  1332  1524  1545    1
  1333  1524  1526    1
  1334   803   798    1
  1335   803   804    1
  1336   803   801    1
  1337   191   169    1
  1338   788   789    1
  1339   788   790   ar
  1340   169   152    1
  1341   911   910    2
  1342   798   797    1
  1343   759   757    1
  1344  1423  1424   ar
  1345   183   189   ar
  1346   183   184   ar
  1347   189   188   ar
  1348   791   790   ar
  1349   907   906    1
  1350   805   804   ar
  1351   805   807   ar
  1352   179   185   ar
  1353   756   755    1
  1354   777   779    1
  1355   777   775    1
  1356   188   187   ar
  1357   184   185   ar
  1358   184   187   ar
  1359   804   811   ar
  1360   773   752    2
  1361   185   186    2
  1362   908   903    1
  1363   908   909    1
  1364   908   906    1
  1365   801   799    1
  1366   743   744    1
  1367   743   745    1
  1368   797   795    1
  1369   797   799    1
  1370   920   921    1
  1371   910   909   ar
  1372   910   912   ar
  1373   807   808   ar
  1374  1525  1526    1
  1375  1525  1527    1
  1376   779   780    1
  1377   903   902    1
  1378   744   749    1
  1379  1427  1428    2
  1380  1427  1426   ar
  1381   918   899    2
  1382  1540  1539    1
  1383  1528  1527    1
  1384  1528  1533    1
  1385  1424  1426   ar
  1386  1424  1425    2
  1387   909   916   ar
  1388   906   904    1
  1389   912   913   ar
  1390  1534  1539   ar
  1391  1534  1535   ar
  1392  1539  1538   ar
  1393   811   810   ar
  1394   795   796    1
  1395   775   776    1
  1396   893   892    1
  1397   757   755    1
  1398   757   758    1
  1399   152   151    1
  1400   780   794    1
  1401  1535  1536   ar
  1402   818   823    1
  1403   818   817    1
  1404  1538  1541   ar
  1405  1538  1537   ar
  1406   808   810   ar
  1407   808   809    1
  1408  1541  1542   ar
  1409   755   753    1
  1410   799   800    1
  1411  1536  1537   ar
  1412  1537  1543   ar
  1413  1527  1529    1
  1414   902   904    1
  1415   902   900    1
  1416   822   821    1
  1417  1542  1543   ar
  1418   892   887   ar
  1419   892   891   ar
  1420   823   824    1
  1421   823   821    1
  1422  1543  1533    1
  1423   745   746    1
  1424   745   747    1
  1425   887   888   ar
  1426   921   919    1
  1427   894   891   ar
  1428   894   895   ar
  1429   916   915   ar
  1430   901   899    1
  1431   901   900    1
  1432   752   746    1
  1433   752   754    1
  1434   752   772    1
  1435   891   890   ar
  1436   913   914    2
  1437   913   915   ar
  1438   817   815    1
  1439   817   819    1
  1440  1533  1531    1
  1441   800   814    1
  1442   885   884    1
  1443   826   825    2
  1444   796   794    1
  1445   899   917    1
  1446   899   883    1
  1447   904   905    1
  1448   749   747    1
  1449   776   774    1
  1450   758   774    1
  1451   815   816    1
  1452   895   896   ar
  1453   888   889   ar
  1454   884   886    1
  1455   884   882    1
  1456   890   889   ar
  1457   890   896   ar
  1458   151   153    1
  1459   151   149    1
  1460   905   919    1
  1461   824   825   ar
  1462   824   831   ar
  1463   753   754    1
  1464   821   819    1
  1465   825   827   ar
  1466   896   886    1
  1467   794   812    2
  1468   794   813    1
  1469   153   154    1
  1470   153   155    1
  1471   747   748    1
  1472   831   830   ar
  1473  1529  1531    1
  1474  1529  1530    1
  1475   919   930    2
  1476   919   929    1
  1477   158   157    1
  1478   886   881    1
  1479   819   820    1
  1480   774   793    2
  1481   774   792    1
  1482   883   882    1
  1483   827   828   ar
  1484   816   814    1
  1485   882   880    1
  1486  1531  1532    1
  1487   157   159   ar
  1488   157   156   ar
  1489   814   832    2
  1490   814   833    1
  1491   820   834    1
  1492   830   828   ar
  1493   159   160   ar
  1494   156   162   ar
  1495   828   829    1
  1496   149   147    1
  1497   149   150    1
  1498  1530  1546    1
  1499   147   148    1
  1500   160   161   ar
  1501   160   166   ar
  1502   162   163    2
  1503   162   161   ar
  1504   838   837    1
  1505   838   843    1
  1506   155   166    1
  1507   155   150    1
  1508   148   146    1
  1509   872   871    2
  1510   161   164   ar
  1511   166   165   ar
  1512   167   146    2
  1513   835   837    1
  1514   835   836    1
  1515   881   880    1
  1516  1567  1546    2
  1517   871   870   ar
  1518   871   873   ar
  1519   880   878    1
  1520   165   164   ar
  1521   837   839    1
  1522   870   868   ar
  1523   855   834    2
  1524   873   874   ar
  1525   146   168    1
  1526   146   132    1
  1527   836   834    1
  1528   834   856    1
  1529  1546  1548    1
  1530  1546  1566    1
  1531   843   854    1
  1532   843   841    1
  1533   868   869    2
  1534   868   867   ar
  1535   874   867   ar
  1536   867   866    1
  1537   854   853   ar
  1538   854   848   ar
  1539   853   852   ar
  1540   866   861    1
  1541   866   864    1
  1542   861   860    1
  1543   878   879    1
  1544  1548  1547    1
  1545   842   841    1
  1546   848   847   ar
  1547   848   849   ar
  1548   852   849   ar
  1549   847   845   ar
  1550   839   841    1
  1551   839   840    1
  1552   849   850   ar
  1553   865   864    1
  1554   132   131    1
  1555   845   846    1
  1556   845   844   ar
  1557   850   844   ar
  1558   850   851    2
  1559   840   857    1
  1560   864   862    1
  1561   860   858    1
  1562   860   862    1
  1563   879   877    1
  1564   134   133    1
  1565  1547  1549    1
  1566   133   131    1
  1567   133   135    1
  1568   131   129    1
  1569   141   140    1
  1570   139   140   ar
  1571   139   137   ar
  1572   858   859    1
  1573   140   142   ar
  1574   138   137    2
  1575   862   863    1
  1576   137   136   ar
  1577   898   877    2
  1578   142   143   ar
  1579  1549  1550    1
  1580  1549  1551    1
  1581   136   143   ar
  1582   136   135    1
  1583   877   863    1
  1584   877   897    1
  1585   857   859    1
  1586   857   875    2
  1587   857   876    1
  1588  1550  1555    1
  1589   135   130    1
  1590   129   127    1
  1591   129   130    1
  1592   128   127    1
  1593   128   126    1
  1594   145   126    2
  1595  1564  1563   ar
  1596  1564  1565   ar
  1597  1563  1560   ar
  1598   144   126    1
  1599  1551  1552    1
  1600  1551  1553    1
  1601  1565  1555    1
  1602  1565  1559   ar
  1603   126   112    1
  1604  1555  1553    1
  1605  1560  1559   ar
  1606  1560  1561   ar
  1607  1562  1561    1
  1608  1559  1558   ar
  1609  1561  1556   ar
  1610  1552  1568    1
  1611   121   120    2
  1612  1553  1554    1
  1613  1558  1557   ar
  1614  1556  1557   ar
  1615   120   119   ar
  1616   120   122   ar
  1617   119   117   ar
  1618   112   111    1
  1619  1589  1568    2
  1620  1568  1590    1
  1621  1568  1570    1
  1622   118   117    2
  1623   117   116   ar
  1624   122   123   ar
  1625   111   113    1
  1626   111   109    1
  1627   113   114    1
  1628   113   115    1
  1629   125   106    2
  1630   116   123   ar
  1631   116   115    1
  1632   108   106    1
  1633   108   107    1
  1634    39    21    2
  1635  1570  1569    1
  1636   124   106    1
  1637   106    92    1
  1638   101   100    1
  1639   115   110    1
  1640    62    41    2
  1641  1586  1587   ar
  1642  1586  1583   ar
  1643  1572  1577    1
  1644  1572  1571    1
  1645  1587  1588   ar
  1646   109   107    1
  1647   109   110    1
  1648   105    86    2
  1649    63    41    1
  1650    85    64    2
  1651  1585  1584    2
  1652  1583  1584   ar
  1653  1583  1582   ar
  1654  1588  1577    1
  1655  1588  1582   ar
  1656  1584  1578   ar
  1657    84    64    1
  1658  1577  1575    1
  1659   100    99   ar
  1660   100   102   ar
  1661  1582  1581   ar
  1662  1569  1571    1
  1663    41    27    1
  1664    41    43    1
  1665    21    40    1
  1666    21    23    1
  1667    21     6    1
  1668  1578  1579   ar
  1669    99    97   ar
  1670  1571  1573    1
  1671   104    86    1
  1672  1581  1579   ar
  1673   102   103   ar
  1674    64    66    1
  1675    64    47    1
  1676  1579  1580    1
  1677    86    88    1
  1678    86    70    1
  1679    92    91    1
  1680    88    87    1
  1681    91    93    1
  1682    91    89    1
  1683    27    26    1
  1684    23    22    1
  1685    97    98    2
  1686    97    96   ar
  1687     6     5    1
  1688   103    96   ar
  1689    66    65    1
  1690    22    24    1
  1691    43    42    1
  1692    93    94    1
  1693    93    95    1
  1694  1575  1576    1
  1695  1575  1573    1
  1696    96    95    1
  1697  1573  1574    1
  1698    47    46    1
  1699     2     1    1
  1700    80    79    1
  1701    87    89    1
  1702    26    24    1
  1703    26    28    1
  1704    42    44    1
  1705    81    82   ar
  1706    81    78   ar
  1707     1     3    1
  1708    70    69    1
  1709    89    90    1
  1710    65    67    1
  1711    24    25    1
  1712    95    90    1
  1713    69    67    1
  1714    69    71    1
  1715    46    44    1
  1716    46    48    1
  1717     5     3    1
  1718     5     7    1
  1719    82    83   ar
  1720    79    78   ar
  1721    79    74   ar
  1722    78    77   ar
  1723     3     4    1
  1724  1606  1605    2
  1725  1574  1591    1
  1726    44    45    1
  1727    59    60   ar
  1728    59    56   ar
  1729  1605  1607   ar
  1730  1605  1604   ar
  1731  1607  1608   ar
  1732    67    68    1
  1733    60    61   ar
  1734    83    77   ar
  1735    83    73    1
  1736    74    75   ar
  1737    71    73    1
  1738    71    72    1
  1739    28    29    1
  1740    28    30    1
  1741    77    76   ar
  1742  1604  1602   ar
  1743    38    37   ar
  1744    38    31   ar
  1745  1608  1601   ar
  1746    37    35   ar
  1747     8     7    1
  1748    48    49    1
  1749    48    50    1
  1750    25    30    1
  1751     7     9    1
  1752    68    73    1
  1753    58    57    2
  1754  1610  1591    2
  1755  1602  1601   ar
  1756  1602  1603    2
  1757    56    57   ar
  1758    56    55   ar
  1759  1601  1600    1
  1760    75    76   ar
  1761    45    50    1
  1762    61    50    1
  1763    61    55   ar
  1764  1595  1600    1
  1765  1595  1594    1
  1766     4     9    1
  1767  1591  1593    1
  1768  1591  1609    1
  1769    57    51   ar
  1770    30    31    1
  1771    31    32   ar
  1772    35    36    1
  1773    35    34   ar
  1774  1600  1598    1
  1775    55    54   ar
  1776     9    20    1
  1777  1593  1592    1
  1778    19    20   ar
  1779    19    18   ar
  1780  1592  1594    1
  1781    32    34   ar
  1782    32    33    2
  1783    51    52   ar
  1784    20    14   ar
  1785  1594  1596    1
  1786    54    52   ar
  1787  1626  1625    1
  1788    18    15   ar
  1789    52    53    1
  1790  1598  1596    1
  1791  1598  1599    1
  1792  1625  1624   ar
  1793  1625  1627   ar
  1794    14    15   ar
  1795    14    13   ar
  1796  1596  1597    1
  1797    15    16   ar
  1798  1624  1622   ar
  1799  1627  1628   ar
  1800  1648  1647    2
  1801    13    11   ar
  1802  1622  1623    2
  1803  1622  1621   ar
  1804  1641  1647   ar
  1805  1641  1642   ar
  1806  1628  1621   ar
  1807    16    17    2
  1808    16    10   ar
  1809  1647  1646   ar
  1810  1621  1620    1
  1811  1643  1642    1
  1812  1597  1611    1
  1813    11    10   ar
  1814    11    12    1
  1815  1642  1644   ar
  1816  1646  1649   ar
  1817  1646  1645   ar
  1818  1620  1615    1
  1819  1620  1618    1
  1820  1630  1611    2
  1821  1615  1614    1
  1822  1644  1645   ar
  1823  1649  1650   ar
  1824  1611  1613    1
  1825  1611  1629    1
  1826  1645  1651   ar
  1827  1613  1612    1
  1828  1650  1651   ar
  1829  1651  1640    1
  1830  1612  1614    1
  1831  1614  1616    1
  1832  1618  1619    1
  1833  1618  1616    1
  1834  1669  1668    1
  1835  1667  1668   ar
  1836  1667  1665   ar
  1837  1666  1665    2
  1838  1640  1635    1
  1839  1640  1638    1
  1840  1668  1670   ar
  1841  1616  1617    1
  1842  1665  1664   ar
  1843  1635  1634    1
  1844  1664  1663    1
  1845  1664  1671   ar
  1846  1670  1671   ar
  1847  1639  1638    1
  1848  1638  1636    1
  1849  1663  1658    1
  1850  1663  1661    1
  1851  1617  1631    1
  1852  1662  1661    1
  1853  1634  1636    1
  1854  1634  1632    1
  1855  1658  1657    1
  1856  1633  1632    1
  1857  1633  1631    1
  1858  1653  1631    2
  1859  1636  1637    1
  1860  1661  1659    1
  1861  1631  1652    1
  1862  1657  1659    1
  1863  1657  1655    1
  1864  1637  1654    1
  1865  1659  1660    1
  1866  1655  1656    1
  1867  1673  1654    2
  1868  1660  1674    1
  1869  1656  1654    1
  1870  1654  1672    1
  1871  1694  1674    2
  1872  1674  1695    1
  1873  1674  1676    1
  1874  1676  1675    1
  1875  1690  1689    1
  1876  1691  1692   ar
  1877  1691  1688   ar
  1878  1692  1693   ar
  1879  1688  1689   ar
  1880  1688  1687   ar
  1881  1675  1677    1
  1882  1689  1684   ar
  1883  1693  1687   ar
  1884  1693  1683    1
  1885  1687  1686   ar
  1886  1684  1685   ar
  1887  1677  1678    1
  1888  1677  1679    1
  1889  1678  1683    1
  1890  1679  1680    1
  1891  1679  1681    1
  1892  1683  1681    1
  1893  1681  1682    1
  1894  1685  1686   ar
