ligand
 OpenBabel11021811473D
libRbt.so/2013.1/901 2013/11/27
 26 28  0  0  0  0  0  0  0  0999 V2000
  -14.0798    6.2050  -16.9035 N   0  0  0  0  0  0  0  0  0  0  0  0
  -13.9179    7.6642  -16.9072 C   0  0  2  0  0  0  0  0  0  0  0  0
  -15.2168    8.3132  -16.5072 C   0  0  0  0  0  0  0  0  0  0  0  0
  -15.2092    9.3555  -15.8952 O   0  0  0  0  0  0  0  0  0  0  0  0
  -13.5253    8.1292  -18.3105 C   0  0  0  0  0  0  0  0  0  0  0  0
  -13.2900    9.6385  -18.3008 C   0  0  0  0  0  0  0  0  0  0  0  0
  -12.7847   10.4430  -19.7085 S   0  0  0  0  0  0  0  0  0  0  0  0
  -11.3299   10.4794  -20.7871 C   0  0  0  0  0  0  0  0  0  0  0  0
  -11.5345   11.2172  -22.1158 C   0  0  1  0  0  0  0  0  0  0  0  0
  -11.5333   12.6243  -21.9585 O   0  0  0  0  0  0  0  0  0  0  0  0
  -10.3948   10.9804  -23.0784 C   0  0  1  0  0  0  0  0  0  0  0  0
  -10.9422   11.2225  -24.3560 O   0  0  0  0  0  0  0  0  0  0  0  0
   -9.3928   12.0717  -22.7814 C   0  0  1  0  0  0  0  0  0  0  0  0
   -8.8529   12.5627  -23.9889 O   0  0  0  0  0  0  0  0  0  0  0  0
  -10.2301   13.1496  -22.1277 C   0  0  2  0  0  0  0  0  0  0  0  0
  -16.3850    7.7331  -16.8276 O   0  0  0  0  0  0  0  0  0  0  0  0
   -7.4826   16.7014  -19.4726 N   0  0  0  0  0  0  0  0  0  0  0  0
   -7.6679   16.6156  -20.8321 C   0  0  0  0  0  0  0  0  0  0  0  0
   -8.4221   15.5901  -21.3494 N   0  0  0  0  0  0  0  0  0  0  0  0
   -8.9818   14.6710  -20.5389 C   0  0  0  0  0  0  0  0  0  0  0  0
   -8.8090   14.7390  -19.1692 C   0  0  0  0  0  0  0  0  0  0  0  0
   -8.0451   15.7705  -18.6359 C   0  0  0  0  0  0  0  0  0  0  0  0
   -7.8502   15.8714  -17.3269 N   0  0  0  0  0  0  0  0  0  0  0  0
   -9.4712   13.7033  -18.6070 N   0  0  0  0  0  0  0  0  0  0  0  0
  -10.0577   12.9948  -19.5915 C   0  0  0  0  0  0  0  0  0  0  0  0
   -9.7558   13.5738  -20.7977 N   0  0  0  0  0  0  0  0  0  0  0  0
  2  1  1  6  0  0  0
  2  3  1  0  0  0  0
  2  5  1  0  0  0  0
  3  4  1  0  0  0  0
  3 16  1  0  0  0  0
  5  6  1  0  0  0  0
  6  7  1  0  0  0  0
  7  8  1  0  0  0  0
  9  8  1  1  0  0  0
  9 10  1  0  0  0  0
  9 11  1  0  0  0  0
 10 15  1  0  0  0  0
 11 12  1  6  0  0  0
 11 13  1  0  0  0  0
 13 14  1  6  0  0  0
 13 15  1  0  0  0  0
 15 26  1  1  0  0  0
 17 18  2  0  0  0  0
 17 22  1  0  0  0  0
 18 19  1  0  0  0  0
 19 20  2  0  0  0  0
 20 21  1  0  0  0  0
 20 26  1  0  0  0  0
 21 22  2  0  0  0  0
 21 24  1  0  0  0  0
 22 23  1  0  0  0  0
 24 25  2  0  0  0  0
 25 26  1  0  0  0  0
M  END
>  <CHROM.1>
147.69424032,-177.26547746,177.80004414,-65.68572072,168.17182724,75.84853345
-143.56094794,-11.13409663,11.84482562,-19.89198521,-2.99084372,-0.88656109
-1.85879913

>  <Name>
ligand

>  <RI>
0

>  <Rbt.Current_Directory>
/home/itssahil/PROJECTS/Mol_Feturizer/New_Systems/rnas/3E5E

>  <Rbt.Executable>
rbdock ($Id: //depot/dev/client3/rdock/2013.1/src/exe/rbdock.cxx#4 $)

>  <Rbt.Library>
libRbt.so (2013.1, Build901 2013/11/27)

>  <Rbt.Parameter_File>
/export/apps/rDock/src/rDock_2013.1_src/data/scripts/dock_solv.prm

>  <Rbt.Receptor>
prm/pocket_docking_2.prm

>  <SCORE>
-17.8823

>  <SCORE.INTER>
-14.2778

>  <SCORE.INTER.CONST>
1

>  <SCORE.INTER.POLAR>
0

>  <SCORE.INTER.ROT>
7

>  <SCORE.INTER.SOLV>
17.2927

>  <SCORE.INTER.VDW>
-23.5494

>  <SCORE.INTER.norm>
-0.549145

>  <SCORE.INTRA>
-3.60933

>  <SCORE.INTRA.DIHEDRAL>
-6.13146

>  <SCORE.INTRA.DIHEDRAL.0>
10.1225

>  <SCORE.INTRA.POLAR>
0

>  <SCORE.INTRA.POLAR.0>
0

>  <SCORE.INTRA.REPUL>
0

>  <SCORE.INTRA.REPUL.0>
0

>  <SCORE.INTRA.SOLV>
-0.619035

>  <SCORE.INTRA.SOLV.lig_0>
-49.9393

>  <SCORE.INTRA.VDW>
-0.234078

>  <SCORE.INTRA.VDW.0>
-1.75437

>  <SCORE.INTRA.norm>
-0.13882

>  <SCORE.RESTR>
0.00481552

>  <SCORE.RESTR.CAVITY>
0.00481552

>  <SCORE.RESTR.norm>
0.000185212

>  <SCORE.SYSTEM>
0

>  <SCORE.SYSTEM.CONST>
0

>  <SCORE.SYSTEM.DIHEDRAL>
0

>  <SCORE.SYSTEM.SOLV>
0

>  <SCORE.SYSTEM.norm>
0

>  <SCORE.heavy>
26

>  <SCORE.norm>
-0.68778

>  <RMSD>
0.941

$$$$
ligand
 OpenBabel11021811473D
libRbt.so/2013.1/901 2013/11/27
 26 28  0  0  0  0  0  0  0  0999 V2000
  -14.7523    9.5026  -15.9130 N   0  0  0  0  0  0  0  0  0  0  0  0
  -14.7780    9.3269  -17.3704 C   0  0  2  0  0  0  0  0  0  0  0  0
  -15.9682    8.4871  -17.7528 C   0  0  0  0  0  0  0  0  0  0  0  0
  -16.0744    7.3598  -17.3298 O   0  0  0  0  0  0  0  0  0  0  0  0
  -13.4939    8.6289  -17.8217 C   0  0  0  0  0  0  0  0  0  0  0  0
  -13.4559    8.5671  -19.3476 C   0  0  0  0  0  0  0  0  0  0  0  0
  -13.4652    9.9928  -20.2703 S   0  0  0  0  0  0  0  0  0  0  0  0
  -12.5861   11.5762  -20.3065 C   0  0  0  0  0  0  0  0  0  0  0  0
  -12.8190   12.4106  -21.5719 C   0  0  1  0  0  0  0  0  0  0  0  0
  -12.4031   13.7552  -21.4169 O   0  0  0  0  0  0  0  0  0  0  0  0
  -11.9834   11.9267  -22.7334 C   0  0  1  0  0  0  0  0  0  0  0  0
  -12.6667   12.3740  -23.8838 O   0  0  0  0  0  0  0  0  0  0  0  0
  -10.6837   12.6906  -22.6313 C   0  0  1  0  0  0  0  0  0  0  0  0
  -10.2594   13.0809  -23.9191 O   0  0  0  0  0  0  0  0  0  0  0  0
  -11.0594   13.9183  -21.8301 C   0  0  2  0  0  0  0  0  0  0  0  0
  -16.9118    8.9888  -18.5663 O   0  0  0  0  0  0  0  0  0  0  0  0
   -7.1574   16.6259  -19.6721 N   0  0  0  0  0  0  0  0  0  0  0  0
   -7.6222   16.6918  -20.9643 C   0  0  0  0  0  0  0  0  0  0  0  0
   -8.6619   15.8815  -21.3522 N   0  0  0  0  0  0  0  0  0  0  0  0
   -9.2302   15.0264  -20.4798 C   0  0  0  0  0  0  0  0  0  0  0  0
   -8.7791   14.9448  -19.1758 C   0  0  0  0  0  0  0  0  0  0  0  0
   -7.7256   15.7577  -18.7742 C   0  0  0  0  0  0  0  0  0  0  0  0
   -7.2584   15.7088  -17.5329 N   0  0  0  0  0  0  0  0  0  0  0  0
   -9.5191   14.0166  -18.5291 N   0  0  0  0  0  0  0  0  0  0  0  0
  -10.4243   13.5220  -19.3958 C   0  0  0  0  0  0  0  0  0  0  0  0
  -10.2528   14.1285  -20.6139 N   0  0  0  0  0  0  0  0  0  0  0  0
  2  1  1  1  0  0  0
  2  3  1  0  0  0  0
  2  5  1  0  0  0  0
  3  4  1  0  0  0  0
  3 16  1  0  0  0  0
  5  6  1  0  0  0  0
  6  7  1  0  0  0  0
  7  8  1  0  0  0  0
  9  8  1  1  0  0  0
  9 10  1  0  0  0  0
  9 11  1  0  0  0  0
 10 15  1  0  0  0  0
 11 12  1  6  0  0  0
 11 13  1  0  0  0  0
 13 14  1  6  0  0  0
 13 15  1  0  0  0  0
 15 26  1  1  0  0  0
 17 18  2  0  0  0  0
 17 22  1  0  0  0  0
 18 19  1  0  0  0  0
 19 20  2  0  0  0  0
 20 21  1  0  0  0  0
 20 26  1  0  0  0  0
 21 22  2  0  0  0  0
 21 24  1  0  0  0  0
 22 23  1  0  0  0  0
 24 25  2  0  0  0  0
 25 26  1  0  0  0  0
M  END
>  <CHROM.1>
-60.59889386,-174.52745254,60.68842551,48.73410107,167.95863735,164.95142425
-138.92520122,-11.72834075,12.29372746,-20.01073132,-2.80571917,-0.75843919
-1.41883658

>  <Name>
ligand

>  <RI>
0

>  <Rbt.Current_Directory>
/home/itssahil/PROJECTS/Mol_Feturizer/New_Systems/rnas/3E5E

>  <Rbt.Executable>
rbdock ($Id: //depot/dev/client3/rdock/2013.1/src/exe/rbdock.cxx#4 $)

>  <Rbt.Library>
libRbt.so (2013.1, Build901 2013/11/27)

>  <Rbt.Parameter_File>
/export/apps/rDock/src/rDock_2013.1_src/data/scripts/dock_solv.prm

>  <Rbt.Receptor>
prm/pocket_docking_2.prm

>  <SCORE>
-17.7662

>  <SCORE.INTER>
-14.252

>  <SCORE.INTER.CONST>
1

>  <SCORE.INTER.POLAR>
0

>  <SCORE.INTER.ROT>
7

>  <SCORE.INTER.SOLV>
18.9783

>  <SCORE.INTER.VDW>
-24.0941

>  <SCORE.INTER.norm>
-0.548154

>  <SCORE.INTRA>
-3.54534

>  <SCORE.INTRA.DIHEDRAL>
-6.03344

>  <SCORE.INTRA.DIHEDRAL.0>
10.1225

>  <SCORE.INTRA.POLAR>
0

>  <SCORE.INTRA.POLAR.0>
0

>  <SCORE.INTRA.REPUL>
0

>  <SCORE.INTRA.REPUL.0>
0

>  <SCORE.INTRA.SOLV>
-0.56302

>  <SCORE.INTRA.SOLV.lig_0>
-49.9393

>  <SCORE.INTRA.VDW>
-0.247112

>  <SCORE.INTRA.VDW.0>
-1.75437

>  <SCORE.INTRA.norm>
-0.136359

>  <SCORE.RESTR>
0.0311833

>  <SCORE.RESTR.CAVITY>
0.0311833

>  <SCORE.RESTR.norm>
0.00119936

>  <SCORE.SYSTEM>
0

>  <SCORE.SYSTEM.CONST>
0

>  <SCORE.SYSTEM.DIHEDRAL>
0

>  <SCORE.SYSTEM.SOLV>
0

>  <SCORE.SYSTEM.norm>
0

>  <SCORE.heavy>
26

>  <SCORE.norm>
-0.683314

>  <RMSD>
0.999

$$$$
ligand
 OpenBabel11021811473D
libRbt.so/2013.1/901 2013/11/27
 26 28  0  0  0  0  0  0  0  0999 V2000
  -14.7549    7.0177  -18.6055 N   0  0  0  0  0  0  0  0  0  0  0  0
  -14.2483    7.9521  -17.5927 C   0  0  2  0  0  0  0  0  0  0  0  0
  -15.3089    8.1821  -16.5484 C   0  0  0  0  0  0  0  0  0  0  0  0
  -14.9923    8.4184  -15.4061 O   0  0  0  0  0  0  0  0  0  0  0  0
  -13.8913    9.2815  -18.2598 C   0  0  0  0  0  0  0  0  0  0  0  0
  -12.7599    9.0616  -19.2624 C   0  0  0  0  0  0  0  0  0  0  0  0
  -12.1078   10.3684  -20.1291 S   0  0  0  0  0  0  0  0  0  0  0  0
  -10.8361   10.6450  -21.3890 C   0  0  0  0  0  0  0  0  0  0  0  0
  -11.2791   11.5227  -22.5659 C   0  0  1  0  0  0  0  0  0  0  0  0
  -11.5173   12.8641  -22.1802 O   0  0  0  0  0  0  0  0  0  0  0  0
  -10.1992   11.6556  -23.6136 C   0  0  1  0  0  0  0  0  0  0  0  0
  -10.8851   11.9795  -24.8032 O   0  0  0  0  0  0  0  0  0  0  0  0
   -9.3881   12.8599  -23.1954 C   0  0  1  0  0  0  0  0  0  0  0  0
   -9.0470   13.6216  -24.3330 O   0  0  0  0  0  0  0  0  0  0  0  0
  -10.3481   13.6473  -22.3301 C   0  0  2  0  0  0  0  0  0  0  0  0
  -16.6079    8.1223  -16.8847 O   0  0  0  0  0  0  0  0  0  0  0  0
   -7.3195   16.7772  -19.4586 N   0  0  0  0  0  0  0  0  0  0  0  0
   -7.5007   16.7893  -20.8214 C   0  0  0  0  0  0  0  0  0  0  0  0
   -8.3381   15.8672  -21.4015 N   0  0  0  0  0  0  0  0  0  0  0  0
   -8.9834   14.9547  -20.6492 C   0  0  0  0  0  0  0  0  0  0  0  0
   -8.8164   14.9254  -19.2775 C   0  0  0  0  0  0  0  0  0  0  0  0
   -7.9688   15.8516  -18.6810 C   0  0  0  0  0  0  0  0  0  0  0  0
   -7.7764   15.8566  -17.3678 N   0  0  0  0  0  0  0  0  0  0  0  0
   -9.5720   13.9208  -18.7803 N   0  0  0  0  0  0  0  0  0  0  0  0
  -10.2107   13.3270  -19.8073 C   0  0  0  0  0  0  0  0  0  0  0  0
   -9.8491   13.9478  -20.9756 N   0  0  0  0  0  0  0  0  0  0  0  0
  2  1  1  6  0  0  0
  2  3  1  0  0  0  0
  2  5  1  0  0  0  0
  3  4  1  0  0  0  0
  3 16  1  0  0  0  0
  5  6  1  0  0  0  0
  6  7  1  0  0  0  0
  7  8  1  0  0  0  0
  9  8  1  1  0  0  0
  9 10  1  0  0  0  0
  9 11  1  0  0  0  0
 10 15  1  0  0  0  0
 11 12  1  6  0  0  0
 11 13  1  0  0  0  0
 13 14  1  6  0  0  0
 13 15  1  0  0  0  0
 15 26  1  1  0  0  0
 17 18  2  0  0  0  0
 17 22  1  0  0  0  0
 18 19  1  0  0  0  0
 19 20  2  0  0  0  0
 20 21  1  0  0  0  0
 20 26  1  0  0  0  0
 21 22  2  0  0  0  0
 21 24  1  0  0  0  0
 22 23  1  0  0  0  0
 24 25  2  0  0  0  0
 25 26  1  0  0  0  0
M  END
>  <CHROM.1>
149.07095389,-63.25639950,-178.01283451,-179.05550387,132.41766780,67.39417700
-160.86652555,-11.07764776,12.11367534,-20.18443683,2.92378536,0.87233759
1.37313136

>  <Name>
ligand

>  <RI>
0

>  <Rbt.Current_Directory>
/home/itssahil/PROJECTS/Mol_Feturizer/New_Systems/rnas/3E5E

>  <Rbt.Executable>
rbdock ($Id: //depot/dev/client3/rdock/2013.1/src/exe/rbdock.cxx#4 $)

>  <Rbt.Library>
libRbt.so (2013.1, Build901 2013/11/27)

>  <Rbt.Parameter_File>
/export/apps/rDock/src/rDock_2013.1_src/data/scripts/dock_solv.prm

>  <Rbt.Receptor>
prm/pocket_docking_2.prm

>  <SCORE>
-16.8747

>  <SCORE.INTER>
-14.0198

>  <SCORE.INTER.CONST>
1

>  <SCORE.INTER.POLAR>
0

>  <SCORE.INTER.ROT>
7

>  <SCORE.INTER.SOLV>
15.674

>  <SCORE.INTER.VDW>
-22.8378

>  <SCORE.INTER.norm>
-0.539222

>  <SCORE.INTRA>
-2.87648

>  <SCORE.INTRA.DIHEDRAL>
-4.92279

>  <SCORE.INTRA.DIHEDRAL.0>
10.1225

>  <SCORE.INTRA.POLAR>
0

>  <SCORE.INTRA.POLAR.0>
0

>  <SCORE.INTRA.REPUL>
0

>  <SCORE.INTRA.REPUL.0>
0

>  <SCORE.INTRA.SOLV>
0.186911

>  <SCORE.INTRA.SOLV.lig_0>
-49.9393

>  <SCORE.INTRA.VDW>
-0.508544

>  <SCORE.INTRA.VDW.0>
-1.75437

>  <SCORE.INTRA.norm>
-0.110634

>  <SCORE.RESTR>
0.0216035

>  <SCORE.RESTR.CAVITY>
0.0216035

>  <SCORE.RESTR.norm>
0.000830904

>  <SCORE.SYSTEM>
0

>  <SCORE.SYSTEM.CONST>
0

>  <SCORE.SYSTEM.DIHEDRAL>
0

>  <SCORE.SYSTEM.SOLV>
0

>  <SCORE.SYSTEM.norm>
0

>  <SCORE.heavy>
26

>  <SCORE.norm>
-0.649025

>  <RMSD>
1.015

$$$$
ligand
 OpenBabel11021811473D
libRbt.so/2013.1/901 2013/11/27
 26 28  0  0  0  0  0  0  0  0999 V2000
  -14.2365    6.9832  -17.9596 N   0  0  0  0  0  0  0  0  0  0  0  0
  -14.7687    8.2679  -17.4886 C   0  0  2  0  0  0  0  0  0  0  0  0
  -16.0008    8.6200  -18.2798 C   0  0  0  0  0  0  0  0  0  0  0  0
  -16.0763    8.3191  -19.4481 O   0  0  0  0  0  0  0  0  0  0  0  0
  -13.7113    9.3569  -17.6778 C   0  0  0  0  0  0  0  0  0  0  0  0
  -13.2844    9.4045  -19.1437 C   0  0  0  0  0  0  0  0  0  0  0  0
  -11.9953   10.3943  -19.6362 S   0  0  0  0  0  0  0  0  0  0  0  0
  -11.0413   10.7080  -21.1437 C   0  0  0  0  0  0  0  0  0  0  0  0
  -11.7405   11.6078  -22.1700 C   0  0  1  0  0  0  0  0  0  0  0  0
  -12.0288   12.8943  -21.6534 O   0  0  0  0  0  0  0  0  0  0  0  0
  -10.8574   11.9073  -23.3581 C   0  0  1  0  0  0  0  0  0  0  0  0
  -11.7497   12.2341  -24.4009 O   0  0  0  0  0  0  0  0  0  0  0  0
  -10.0966   13.1571  -22.9809 C   0  0  1  0  0  0  0  0  0  0  0  0
  -10.0085   14.0152  -24.0974 O   0  0  0  0  0  0  0  0  0  0  0  0
  -10.9703   13.7945  -21.9222 C   0  0  2  0  0  0  0  0  0  0  0  0
  -17.0161    9.2713  -17.6890 O   0  0  0  0  0  0  0  0  0  0  0  0
   -7.2994   16.6047  -19.5053 N   0  0  0  0  0  0  0  0  0  0  0  0
   -7.6325   16.6126  -20.8392 C   0  0  0  0  0  0  0  0  0  0  0  0
   -8.6295   15.7833  -21.2933 N   0  0  0  0  0  0  0  0  0  0  0  0
   -9.2836   14.9656  -20.4455 C   0  0  0  0  0  0  0  0  0  0  0  0
   -8.9654   14.9424  -19.1006 C   0  0  0  0  0  0  0  0  0  0  0  0
   -7.9561   15.7750  -18.6316 C   0  0  0  0  0  0  0  0  0  0  0  0
   -7.6156   15.7818  -17.3488 N   0  0  0  0  0  0  0  0  0  0  0  0
   -9.7679   14.0414  -18.4912 N   0  0  0  0  0  0  0  0  0  0  0  0
  -10.5827   13.5068  -19.4216 C   0  0  0  0  0  0  0  0  0  0  0  0
  -10.2892   14.0600  -20.6418 N   0  0  0  0  0  0  0  0  0  0  0  0
  2  1  1  6  0  0  0
  2  3  1  0  0  0  0
  2  5  1  0  0  0  0
  3  4  1  0  0  0  0
  3 16  1  0  0  0  0
  5  6  1  0  0  0  0
  6  7  1  0  0  0  0
  7  8  1  0  0  0  0
  9  8  1  1  0  0  0
  9 10  1  0  0  0  0
  9 11  1  0  0  0  0
 10 15  1  0  0  0  0
 11 12  1  6  0  0  0
 11 13  1  0  0  0  0
 13 14  1  6  0  0  0
 13 15  1  0  0  0  0
 15 26  1  1  0  0  0
 17 18  2  0  0  0  0
 17 22  1  0  0  0  0
 18 19  1  0  0  0  0
 19 20  2  0  0  0  0
 20 21  1  0  0  0  0
 20 26  1  0  0  0  0
 21 22  2  0  0  0  0
 21 24  1  0  0  0  0
 22 23  1  0  0  0  0
 24 25  2  0  0  0  0
 25 26  1  0  0  0  0
M  END
>  <CHROM.1>
-34.61887621,56.30720024,-173.08258721,173.85072615,78.58259878,60.50916958
-174.09652906,-11.41562629,12.25318953,-20.19564519,-2.91264987,-0.81102308
-1.55534678

>  <Name>
ligand

>  <RI>
0

>  <Rbt.Current_Directory>
/home/itssahil/PROJECTS/Mol_Feturizer/New_Systems/rnas/3E5E

>  <Rbt.Executable>
rbdock ($Id: //depot/dev/client3/rdock/2013.1/src/exe/rbdock.cxx#4 $)

>  <Rbt.Library>
libRbt.so (2013.1, Build901 2013/11/27)

>  <Rbt.Parameter_File>
/export/apps/rDock/src/rDock_2013.1_src/data/scripts/dock_solv.prm

>  <Rbt.Receptor>
prm/pocket_docking_2.prm

>  <SCORE>
-17.0103

>  <SCORE.INTER>
-13.8881

>  <SCORE.INTER.CONST>
1

>  <SCORE.INTER.POLAR>
0

>  <SCORE.INTER.ROT>
7

>  <SCORE.INTER.SOLV>
17.9015

>  <SCORE.INTER.VDW>
-23.4925

>  <SCORE.INTER.norm>
-0.534157

>  <SCORE.INTRA>
-3.13984

>  <SCORE.INTRA.DIHEDRAL>
-6.59302

>  <SCORE.INTRA.DIHEDRAL.0>
10.1225

>  <SCORE.INTRA.POLAR>
0

>  <SCORE.INTRA.POLAR.0>
0

>  <SCORE.INTRA.REPUL>
0

>  <SCORE.INTRA.REPUL.0>
0

>  <SCORE.INTRA.SOLV>
0.357002

>  <SCORE.INTRA.SOLV.lig_0>
-49.9393

>  <SCORE.INTRA.VDW>
-0.0218335

>  <SCORE.INTRA.VDW.0>
-1.75437

>  <SCORE.INTRA.norm>
-0.120763

>  <SCORE.RESTR>
0.017596

>  <SCORE.RESTR.CAVITY>
0.017596

>  <SCORE.RESTR.norm>
0.000676768

>  <SCORE.SYSTEM>
0

>  <SCORE.SYSTEM.CONST>
0

>  <SCORE.SYSTEM.DIHEDRAL>
0

>  <SCORE.SYSTEM.SOLV>
0

>  <SCORE.SYSTEM.norm>
0

>  <SCORE.heavy>
26

>  <SCORE.norm>
-0.654244

>  <RMSD>
1.024

$$$$
ligand
 OpenBabel11021811473D
libRbt.so/2013.1/901 2013/11/27
 26 28  0  0  0  0  0  0  0  0999 V2000
  -13.8933    9.5287  -17.0898 N   0  0  0  0  0  0  0  0  0  0  0  0
  -14.6125    8.3794  -17.6532 C   0  0  2  0  0  0  0  0  0  0  0  0
  -14.9195    7.3941  -16.5563 C   0  0  0  0  0  0  0  0  0  0  0  0
  -14.7824    7.7147  -15.3990 O   0  0  0  0  0  0  0  0  0  0  0  0
  -13.7428    7.7061  -18.7162 C   0  0  0  0  0  0  0  0  0  0  0  0
  -13.5177    8.6719  -19.8781 C   0  0  0  0  0  0  0  0  0  0  0  0
  -12.3038    9.8566  -19.7938 S   0  0  0  0  0  0  0  0  0  0  0  0
  -11.1823   10.7150  -20.9280 C   0  0  0  0  0  0  0  0  0  0  0  0
  -11.8768   11.6047  -21.9661 C   0  0  1  0  0  0  0  0  0  0  0  0
  -12.1150   12.9142  -21.4830 O   0  0  0  0  0  0  0  0  0  0  0  0
  -11.0115   11.8415  -23.1813 C   0  0  1  0  0  0  0  0  0  0  0  0
  -11.9165   12.1641  -24.2144 O   0  0  0  0  0  0  0  0  0  0  0  0
  -10.2057   13.0782  -22.8585 C   0  0  1  0  0  0  0  0  0  0  0  0
  -10.1167   13.8996  -24.0022 O   0  0  0  0  0  0  0  0  0  0  0  0
  -11.0364   13.7733  -21.8015 C   0  0  2  0  0  0  0  0  0  0  0  0
  -15.3434    6.1570  -16.8629 O   0  0  0  0  0  0  0  0  0  0  0  0
   -7.3219   16.6384  -19.5196 N   0  0  0  0  0  0  0  0  0  0  0  0
   -7.6951   16.6321  -20.8428 C   0  0  0  0  0  0  0  0  0  0  0  0
   -8.6972   15.7895  -21.2598 N   0  0  0  0  0  0  0  0  0  0  0  0
   -9.3175   14.9728  -20.3860 C   0  0  0  0  0  0  0  0  0  0  0  0
   -8.9586   14.9638  -19.0513 C   0  0  0  0  0  0  0  0  0  0  0  0
   -7.9437   15.8099  -18.6197 C   0  0  0  0  0  0  0  0  0  0  0  0
   -7.5647   15.8306  -17.3479 N   0  0  0  0  0  0  0  0  0  0  0  0
   -9.7335   14.0603  -18.4106 N   0  0  0  0  0  0  0  0  0  0  0  0
  -10.5707   13.5103  -19.3115 C   0  0  0  0  0  0  0  0  0  0  0  0
  -10.3195   14.0559  -20.5445 N   0  0  0  0  0  0  0  0  0  0  0  0
  2  1  1  1  0  0  0
  2  3  1  0  0  0  0
  2  5  1  0  0  0  0
  3  4  1  0  0  0  0
  3 16  1  0  0  0  0
  5  6  1  0  0  0  0
  6  7  1  0  0  0  0
  7  8  1  0  0  0  0
  9  8  1  1  0  0  0
  9 10  1  0  0  0  0
  9 11  1  0  0  0  0
 10 15  1  0  0  0  0
 11 12  1  6  0  0  0
 11 13  1  0  0  0  0
 13 14  1  6  0  0  0
 13 15  1  0  0  0  0
 15 26  1  1  0  0  0
 17 18  2  0  0  0  0
 17 22  1  0  0  0  0
 18 19  1  0  0  0  0
 19 20  2  0  0  0  0
 20 21  1  0  0  0  0
 20 26  1  0  0  0  0
 21 22  2  0  0  0  0
 21 24  1  0  0  0  0
 22 23  1  0  0  0  0
 24 25  2  0  0  0  0
 25 26  1  0  0  0  0
M  END
>  <CHROM.1>
12.47217953,-64.22956694,82.56264819,148.04502517,64.39712844,87.31622466
-171.44444490,-11.31280253,12.01327155,-19.92200405,-2.74644008,-0.90900584
-1.48113701

>  <Name>
ligand

>  <RI>
0

>  <Rbt.Current_Directory>
/home/itssahil/PROJECTS/Mol_Feturizer/New_Systems/rnas/3E5E

>  <Rbt.Executable>
rbdock ($Id: //depot/dev/client3/rdock/2013.1/src/exe/rbdock.cxx#4 $)

>  <Rbt.Library>
libRbt.so (2013.1, Build901 2013/11/27)

>  <Rbt.Parameter_File>
/export/apps/rDock/src/rDock_2013.1_src/data/scripts/dock_solv.prm

>  <Rbt.Receptor>
prm/pocket_docking_2.prm

>  <SCORE>
-14.4359

>  <SCORE.INTER>
-13.7939

>  <SCORE.INTER.CONST>
1

>  <SCORE.INTER.POLAR>
0

>  <SCORE.INTER.ROT>
7

>  <SCORE.INTER.SOLV>
19.9076

>  <SCORE.INTER.VDW>
-24.0985

>  <SCORE.INTER.norm>
-0.530536

>  <SCORE.INTRA>
-0.656337

>  <SCORE.INTRA.DIHEDRAL>
-1.99744

>  <SCORE.INTRA.DIHEDRAL.0>
10.1225

>  <SCORE.INTRA.POLAR>
0

>  <SCORE.INTRA.POLAR.0>
0

>  <SCORE.INTRA.REPUL>
0

>  <SCORE.INTRA.REPUL.0>
0

>  <SCORE.INTRA.SOLV>
1.20062

>  <SCORE.INTRA.SOLV.lig_0>
-49.9393

>  <SCORE.INTRA.VDW>
-0.257931

>  <SCORE.INTRA.VDW.0>
-1.75437

>  <SCORE.INTRA.norm>
-0.0252437

>  <SCORE.RESTR>
0.0143334

>  <SCORE.RESTR.CAVITY>
0.0143334

>  <SCORE.RESTR.norm>
0.000551284

>  <SCORE.SYSTEM>
0

>  <SCORE.SYSTEM.CONST>
0

>  <SCORE.SYSTEM.DIHEDRAL>
0

>  <SCORE.SYSTEM.SOLV>
0

>  <SCORE.SYSTEM.norm>
0

>  <SCORE.heavy>
26

>  <SCORE.norm>
-0.555229

>  <RMSD>
1.039

$$$$
ligand
 OpenBabel11021811473D
libRbt.so/2013.1/901 2013/11/27
 26 28  0  0  0  0  0  0  0  0999 V2000
  -15.1601    9.1266  -15.9080 N   0  0  0  0  0  0  0  0  0  0  0  0
  -15.0337    9.5964  -17.2932 C   0  0  2  0  0  0  0  0  0  0  0  0
  -16.1451    9.0108  -18.1240 C   0  0  0  0  0  0  0  0  0  0  0  0
  -15.9086    8.1282  -18.9153 O   0  0  0  0  0  0  0  0  0  0  0  0
  -13.6839    9.1529  -17.8599 C   0  0  0  0  0  0  0  0  0  0  0  0
  -13.2816   10.0805  -19.0050 C   0  0  0  0  0  0  0  0  0  0  0  0
  -11.8685    9.7857  -19.8996 S   0  0  0  0  0  0  0  0  0  0  0  0
  -10.8271   10.6619  -21.0949 C   0  0  0  0  0  0  0  0  0  0  0  0
  -11.5945   11.5292  -22.1001 C   0  0  1  0  0  0  0  0  0  0  0  0
  -11.9423   12.7943  -21.5677 O   0  0  0  0  0  0  0  0  0  0  0  0
  -10.7526   11.8848  -23.3027 C   0  0  1  0  0  0  0  0  0  0  0  0
  -11.6818   12.1695  -24.3254 O   0  0  0  0  0  0  0  0  0  0  0  0
  -10.0540   13.1718  -22.9301 C   0  0  1  0  0  0  0  0  0  0  0  0
  -10.0349   14.0412  -24.0412 O   0  0  0  0  0  0  0  0  0  0  0  0
  -10.9402   13.7529  -21.8497 C   0  0  2  0  0  0  0  0  0  0  0  0
  -17.3998    9.4704  -17.9885 O   0  0  0  0  0  0  0  0  0  0  0  0
   -7.2726   16.6370  -19.5163 N   0  0  0  0  0  0  0  0  0  0  0  0
   -7.6183   16.6192  -20.8469 C   0  0  0  0  0  0  0  0  0  0  0  0
   -8.6119   15.7733  -21.2772 N   0  0  0  0  0  0  0  0  0  0  0  0
   -9.2505   14.9643  -20.4094 C   0  0  0  0  0  0  0  0  0  0  0  0
   -8.9194   14.9670  -19.0675 C   0  0  0  0  0  0  0  0  0  0  0  0
   -7.9133   15.8166  -18.6224 C   0  0  0  0  0  0  0  0  0  0  0  0
   -7.5608   15.8483  -17.3432 N   0  0  0  0  0  0  0  0  0  0  0  0
   -9.7078   14.0693  -18.4351 N   0  0  0  0  0  0  0  0  0  0  0  0
  -10.5264   13.5116  -19.3484 C   0  0  0  0  0  0  0  0  0  0  0  0
  -10.2494   14.0464  -20.5806 N   0  0  0  0  0  0  0  0  0  0  0  0
  2  1  1  1  0  0  0
  2  3  1  0  0  0  0
  2  5  1  0  0  0  0
  3  4  1  0  0  0  0
  3 16  1  0  0  0  0
  5  6  1  0  0  0  0
  6  7  1  0  0  0  0
  7  8  1  0  0  0  0
  9  8  1  1  0  0  0
  9 10  1  0  0  0  0
  9 11  1  0  0  0  0
 10 15  1  0  0  0  0
 11 12  1  6  0  0  0
 11 13  1  0  0  0  0
 13 14  1  6  0  0  0
 13 15  1  0  0  0  0
 15 26  1  1  0  0  0
 17 18  2  0  0  0  0
 17 22  1  0  0  0  0
 18 19  1  0  0  0  0
 19 20  2  0  0  0  0
 20 21  1  0  0  0  0
 20 26  1  0  0  0  0
 21 22  2  0  0  0  0
 21 24  1  0  0  0  0
 22 23  1  0  0  0  0
 24 25  2  0  0  0  0
 25 26  1  0  0  0  0
M  END
>  <CHROM.1>
-106.68668752,-156.17132395,-176.30066014,-167.00797820,-38.00253520,81.99481177
-177.12165893,-11.42289039,12.35198286,-20.09239972,-2.95713852,-0.77371796
-1.67857189

>  <Name>
ligand

>  <RI>
0

>  <Rbt.Current_Directory>
/home/itssahil/PROJECTS/Mol_Feturizer/New_Systems/rnas/3E5E

>  <Rbt.Executable>
rbdock ($Id: //depot/dev/client3/rdock/2013.1/src/exe/rbdock.cxx#4 $)

>  <Rbt.Library>
libRbt.so (2013.1, Build901 2013/11/27)

>  <Rbt.Parameter_File>
/export/apps/rDock/src/rDock_2013.1_src/data/scripts/dock_solv.prm

>  <Rbt.Receptor>
prm/pocket_docking_2.prm

>  <SCORE>
-16.1581

>  <SCORE.INTER>
-14.7344

>  <SCORE.INTER.CONST>
1

>  <SCORE.INTER.POLAR>
0

>  <SCORE.INTER.ROT>
7

>  <SCORE.INTER.SOLV>
19.063

>  <SCORE.INTER.VDW>
-24.4439

>  <SCORE.INTER.norm>
-0.566707

>  <SCORE.INTRA>
-1.43517

>  <SCORE.INTRA.DIHEDRAL>
-2.825

>  <SCORE.INTRA.DIHEDRAL.0>
10.1225

>  <SCORE.INTRA.POLAR>
0

>  <SCORE.INTRA.POLAR.0>
0

>  <SCORE.INTRA.REPUL>
0

>  <SCORE.INTRA.REPUL.0>
0

>  <SCORE.INTRA.SOLV>
-0.535589

>  <SCORE.INTRA.SOLV.lig_0>
-49.9393

>  <SCORE.INTRA.VDW>
0.245129

>  <SCORE.INTRA.VDW.0>
-1.75437

>  <SCORE.INTRA.norm>
-0.0551987

>  <SCORE.RESTR>
0.0114118

>  <SCORE.RESTR.CAVITY>
0.0114118

>  <SCORE.RESTR.norm>
0.000438913

>  <SCORE.SYSTEM>
0

>  <SCORE.SYSTEM.CONST>
0

>  <SCORE.SYSTEM.DIHEDRAL>
0

>  <SCORE.SYSTEM.SOLV>
0

>  <SCORE.SYSTEM.norm>
0

>  <SCORE.heavy>
26

>  <SCORE.norm>
-0.621466

>  <RMSD>
1.062

$$$$
ligand
 OpenBabel11021811473D
libRbt.so/2013.1/901 2013/11/27
 26 28  0  0  0  0  0  0  0  0999 V2000
  -15.0746    9.0184  -15.8957 N   0  0  0  0  0  0  0  0  0  0  0  0
  -15.3695    8.0710  -16.9779 C   0  0  2  0  0  0  0  0  0  0  0  0
  -15.7645    6.7431  -16.3873 C   0  0  0  0  0  0  0  0  0  0  0  0
  -16.7582    6.1778  -16.7797 O   0  0  0  0  0  0  0  0  0  0  0  0
  -14.1261    7.8924  -17.8508 C   0  0  0  0  0  0  0  0  0  0  0  0
  -13.7519    9.2305  -18.4857 C   0  0  0  0  0  0  0  0  0  0  0  0
  -12.4415    9.3401  -19.5604 S   0  0  0  0  0  0  0  0  0  0  0  0
  -11.5076   10.6367  -20.4134 C   0  0  0  0  0  0  0  0  0  0  0  0
  -12.3481   11.5384  -21.3256 C   0  0  1  0  0  0  0  0  0  0  0  0
  -12.3901   12.8786  -20.8708 O   0  0  0  0  0  0  0  0  0  0  0  0
  -11.7496   11.6654  -22.7066 C   0  0  1  0  0  0  0  0  0  0  0  0
  -12.8316   12.0180  -23.5404 O   0  0  0  0  0  0  0  0  0  0  0  0
  -10.8134   12.8485  -22.6250 C   0  0  1  0  0  0  0  0  0  0  0  0
  -10.9175   13.6192  -23.8023 O   0  0  0  0  0  0  0  0  0  0  0  0
  -11.3505   13.6418  -21.4534 C   0  0  2  0  0  0  0  0  0  0  0  0
  -15.0146    6.1867  -15.4218 O   0  0  0  0  0  0  0  0  0  0  0  0
   -7.1866   16.4661  -20.0753 N   0  0  0  0  0  0  0  0  0  0  0  0
   -7.8509   16.4666  -21.2790 C   0  0  0  0  0  0  0  0  0  0  0  0
   -8.9298   15.6346  -21.4573 N   0  0  0  0  0  0  0  0  0  0  0  0
   -9.3430   14.8215  -20.4657 C   0  0  0  0  0  0  0  0  0  0  0  0
   -8.6901   14.8058  -19.2475 C   0  0  0  0  0  0  0  0  0  0  0  0
   -7.5955   15.6412  -19.0579 C   0  0  0  0  0  0  0  0  0  0  0  0
   -6.9370   15.6552  -17.9056 N   0  0  0  0  0  0  0  0  0  0  0  0
   -9.3078   13.9081  -18.4476 N   0  0  0  0  0  0  0  0  0  0  0  0
  -10.3333   13.3682  -19.1347 C   0  0  0  0  0  0  0  0  0  0  0  0
  -10.3638   13.9146  -20.3923 N   0  0  0  0  0  0  0  0  0  0  0  0
  2  1  1  1  0  0  0
  2  3  1  0  0  0  0
  2  5  1  0  0  0  0
  3  4  1  0  0  0  0
  3 16  1  0  0  0  0
  5  6  1  0  0  0  0
  6  7  1  0  0  0  0
  7  8  1  0  0  0  0
  9  8  1  1  0  0  0
  9 10  1  0  0  0  0
  9 11  1  0  0  0  0
 10 15  1  0  0  0  0
 11 12  1  6  0  0  0
 11 13  1  0  0  0  0
 13 14  1  6  0  0  0
 13 15  1  0  0  0  0
 15 26  1  1  0  0  0
 17 18  2  0  0  0  0
 17 22  1  0  0  0  0
 18 19  1  0  0  0  0
 19 20  2  0  0  0  0
 20 21  1  0  0  0  0
 20 26  1  0  0  0  0
 21 22  2  0  0  0  0
 21 24  1  0  0  0  0
 22 23  1  0  0  0  0
 24 25  2  0  0  0  0
 25 26  1  0  0  0  0
M  END
>  <CHROM.1>
131.38312182,-61.86220462,-177.68670031,-172.05589303,-58.40333121,114.73309170
-166.98348346,-11.63062549,11.78376105,-19.67607683,-2.59722848,-0.80062028
-1.31044931

>  <Name>
ligand

>  <RI>
0

>  <Rbt.Current_Directory>
/home/itssahil/PROJECTS/Mol_Feturizer/New_Systems/rnas/3E5E

>  <Rbt.Executable>
rbdock ($Id: //depot/dev/client3/rdock/2013.1/src/exe/rbdock.cxx#4 $)

>  <Rbt.Library>
libRbt.so (2013.1, Build901 2013/11/27)

>  <Rbt.Parameter_File>
/export/apps/rDock/src/rDock_2013.1_src/data/scripts/dock_solv.prm

>  <Rbt.Receptor>
prm/pocket_docking_2.prm

>  <SCORE>
-16.3447

>  <SCORE.INTER>
-15.0333

>  <SCORE.INTER.CONST>
1

>  <SCORE.INTER.POLAR>
0

>  <SCORE.INTER.ROT>
7

>  <SCORE.INTER.SOLV>
16.9868

>  <SCORE.INTER.VDW>
-23.9511

>  <SCORE.INTER.norm>
-0.578203

>  <SCORE.INTRA>
-1.33569

>  <SCORE.INTRA.DIHEDRAL>
-2.13463

>  <SCORE.INTRA.DIHEDRAL.0>
10.1225

>  <SCORE.INTRA.POLAR>
0

>  <SCORE.INTRA.POLAR.0>
0

>  <SCORE.INTRA.REPUL>
0

>  <SCORE.INTRA.REPUL.0>
0

>  <SCORE.INTRA.SOLV>
0.101404

>  <SCORE.INTRA.SOLV.lig_0>
-49.9393

>  <SCORE.INTRA.VDW>
-0.319078

>  <SCORE.INTRA.VDW.0>
-1.75437

>  <SCORE.INTRA.norm>
-0.0513728

>  <SCORE.RESTR>
0.0243117

>  <SCORE.RESTR.CAVITY>
0.0243117

>  <SCORE.RESTR.norm>
0.000935066

>  <SCORE.SYSTEM>
0

>  <SCORE.SYSTEM.CONST>
0

>  <SCORE.SYSTEM.DIHEDRAL>
0

>  <SCORE.SYSTEM.SOLV>
0

>  <SCORE.SYSTEM.norm>
0

>  <SCORE.heavy>
26

>  <SCORE.norm>
-0.628641

>  <RMSD>
1.072

$$$$
ligand
 OpenBabel11021811473D
libRbt.so/2013.1/901 2013/11/27
 26 28  0  0  0  0  0  0  0  0999 V2000
  -14.6584    6.4730  -17.4051 N   0  0  0  0  0  0  0  0  0  0  0  0
  -14.9291    7.8387  -16.9391 C   0  0  2  0  0  0  0  0  0  0  0  0
  -16.2547    8.3005  -17.4845 C   0  0  0  0  0  0  0  0  0  0  0  0
  -16.8348    9.2242  -16.9636 O   0  0  0  0  0  0  0  0  0  0  0  0
  -13.8214    8.7727  -17.4294 C   0  0  0  0  0  0  0  0  0  0  0  0
  -13.7018    8.6689  -18.9488 C   0  0  0  0  0  0  0  0  0  0  0  0
  -12.5011    9.5342  -19.7818 S   0  0  0  0  0  0  0  0  0  0  0  0
  -11.9422   11.2505  -19.9336 C   0  0  0  0  0  0  0  0  0  0  0  0
  -12.6223   12.0503  -21.0515 C   0  0  1  0  0  0  0  0  0  0  0  0
  -12.4433   13.4469  -20.9026 O   0  0  0  0  0  0  0  0  0  0  0  0
  -12.0104   11.7700  -22.4037 C   0  0  1  0  0  0  0  0  0  0  0  0
  -13.0191   12.0979  -23.3339 O   0  0  0  0  0  0  0  0  0  0  0  0
  -10.8921   12.7758  -22.5482 C   0  0  1  0  0  0  0  0  0  0  0  0
  -10.8673   13.2726  -23.8686 O   0  0  0  0  0  0  0  0  0  0  0  0
  -11.2919   13.8849  -21.5992 C   0  0  2  0  0  0  0  0  0  0  0  0
  -16.7953    7.6847  -18.5488 O   0  0  0  0  0  0  0  0  0  0  0  0
   -7.0577   16.7458  -20.5497 N   0  0  0  0  0  0  0  0  0  0  0  0
   -7.7534   16.6631  -21.7326 C   0  0  0  0  0  0  0  0  0  0  0  0
   -8.8471   15.8357  -21.8187 N   0  0  0  0  0  0  0  0  0  0  0  0
   -9.2444   15.1078  -20.7569 C   0  0  0  0  0  0  0  0  0  0  0  0
   -8.5599   15.1766  -19.5580 C   0  0  0  0  0  0  0  0  0  0  0  0
   -7.4502   16.0080  -19.4614 C   0  0  0  0  0  0  0  0  0  0  0  0
   -6.7616   16.1013  -18.3306 N   0  0  0  0  0  0  0  0  0  0  0  0
   -9.1677   14.3525  -18.6755 N   0  0  0  0  0  0  0  0  0  0  0  0
  -10.2177   13.7763  -19.2926 C   0  0  0  0  0  0  0  0  0  0  0  0
  -10.2742   14.2243  -20.5876 N   0  0  0  0  0  0  0  0  0  0  0  0
  2  1  1  6  0  0  0
  2  3  1  0  0  0  0
  2  5  1  0  0  0  0
  3  4  1  0  0  0  0
  3 16  1  0  0  0  0
  5  6  1  0  0  0  0
  6  7  1  0  0  0  0
  7  8  1  0  0  0  0
  9  8  1  1  0  0  0
  9 10  1  0  0  0  0
  9 11  1  0  0  0  0
 10 15  1  0  0  0  0
 11 12  1  6  0  0  0
 11 13  1  0  0  0  0
 13 14  1  6  0  0  0
 13 15  1  0  0  0  0
 15 26  1  1  0  0  0
 17 18  2  0  0  0  0
 17 22  1  0  0  0  0
 18 19  1  0  0  0  0
 19 20  2  0  0  0  0
 20 21  1  0  0  0  0
 20 26  1  0  0  0  0
 21 22  2  0  0  0  0
 21 24  1  0  0  0  0
 22 23  1  0  0  0  0
 24 25  2  0  0  0  0
 25 26  1  0  0  0  0
M  END
>  <CHROM.1>
160.51502133,55.41833672,-176.96193572,-54.61748663,-89.92840350,163.54147069
-154.69432689,-11.68831492,12.13068018,-20.00216644,-2.69162823,-0.75907449
-1.30790826

>  <Name>
ligand

>  <RI>
0

>  <Rbt.Current_Directory>
/home/itssahil/PROJECTS/Mol_Feturizer/New_Systems/rnas/3E5E

>  <Rbt.Executable>
rbdock ($Id: //depot/dev/client3/rdock/2013.1/src/exe/rbdock.cxx#4 $)

>  <Rbt.Library>
libRbt.so (2013.1, Build901 2013/11/27)

>  <Rbt.Parameter_File>
/export/apps/rDock/src/rDock_2013.1_src/data/scripts/dock_solv.prm

>  <Rbt.Receptor>
prm/pocket_docking_2.prm

>  <SCORE>
-16.8359

>  <SCORE.INTER>
-14.6694

>  <SCORE.INTER.CONST>
1

>  <SCORE.INTER.POLAR>
0

>  <SCORE.INTER.ROT>
7

>  <SCORE.INTER.SOLV>
15.7278

>  <SCORE.INTER.VDW>
-23.2889

>  <SCORE.INTER.norm>
-0.564208

>  <SCORE.INTRA>
-2.16646

>  <SCORE.INTRA.DIHEDRAL>
-5.0772

>  <SCORE.INTRA.DIHEDRAL.0>
10.1225

>  <SCORE.INTRA.POLAR>
0

>  <SCORE.INTRA.POLAR.0>
0

>  <SCORE.INTRA.REPUL>
0

>  <SCORE.INTRA.REPUL.0>
0

>  <SCORE.INTRA.SOLV>
0.240698

>  <SCORE.INTRA.SOLV.lig_0>
-49.9393

>  <SCORE.INTRA.VDW>
0.251787

>  <SCORE.INTRA.VDW.0>
-1.75437

>  <SCORE.INTRA.norm>
-0.0833255

>  <SCORE.RESTR>
0

>  <SCORE.RESTR.CAVITY>
0

>  <SCORE.RESTR.norm>
0

>  <SCORE.SYSTEM>
0

>  <SCORE.SYSTEM.CONST>
0

>  <SCORE.SYSTEM.DIHEDRAL>
0

>  <SCORE.SYSTEM.SOLV>
0

>  <SCORE.SYSTEM.norm>
0

>  <SCORE.heavy>
26

>  <SCORE.norm>
-0.647534

>  <RMSD>
1.073

$$$$
ligand
 OpenBabel11021811473D
libRbt.so/2013.1/901 2013/11/27
 26 28  0  0  0  0  0  0  0  0999 V2000
  -14.7257    6.8296  -18.6799 N   0  0  0  0  0  0  0  0  0  0  0  0
  -14.9580    8.1922  -18.1849 C   0  0  2  0  0  0  0  0  0  0  0  0
  -16.2346    8.2242  -17.3865 C   0  0  0  0  0  0  0  0  0  0  0  0
  -16.3578    9.0065  -16.4733 O   0  0  0  0  0  0  0  0  0  0  0  0
  -15.0725    9.1518  -19.3705 C   0  0  0  0  0  0  0  0  0  0  0  0
  -13.7300    9.2305  -20.0950 C   0  0  0  0  0  0  0  0  0  0  0  0
  -13.3458   10.5753  -21.0584 S   0  0  0  0  0  0  0  0  0  0  0  0
  -12.8403   12.2984  -20.8209 C   0  0  0  0  0  0  0  0  0  0  0  0
  -12.7766   13.1314  -22.1069 C   0  0  1  0  0  0  0  0  0  0  0  0
  -12.0738   14.3476  -21.9288 O   0  0  0  0  0  0  0  0  0  0  0  0
  -11.9898   12.4386  -23.1942 C   0  0  1  0  0  0  0  0  0  0  0  0
  -12.4613   13.0017  -24.3988 O   0  0  0  0  0  0  0  0  0  0  0  0
  -10.5602   12.8851  -22.9941 C   0  0  1  0  0  0  0  0  0  0  0  0
   -9.9602   13.1342  -24.2465 O   0  0  0  0  0  0  0  0  0  0  0  0
  -10.7013   14.1863  -22.2343 C   0  0  2  0  0  0  0  0  0  0  0  0
  -17.2367    7.3818  -17.6866 O   0  0  0  0  0  0  0  0  0  0  0  0
   -6.8828   16.5325  -19.5645 N   0  0  0  0  0  0  0  0  0  0  0  0
   -7.2706   16.7571  -20.8642 C   0  0  0  0  0  0  0  0  0  0  0  0
   -8.3005   16.0224  -21.4003 N   0  0  0  0  0  0  0  0  0  0  0  0
   -8.9338   15.0874  -20.6655 C   0  0  0  0  0  0  0  0  0  0  0  0
   -8.5607   14.8461  -19.3567 C   0  0  0  0  0  0  0  0  0  0  0  0
   -7.5177   15.5815  -18.8059 C   0  0  0  0  0  0  0  0  0  0  0  0
   -7.1243   15.3795  -17.5545 N   0  0  0  0  0  0  0  0  0  0  0  0
   -9.3536   13.8686  -18.8637 N   0  0  0  0  0  0  0  0  0  0  0  0
  -10.2158   13.4988  -19.8307 C   0  0  0  0  0  0  0  0  0  0  0  0
   -9.9630   14.2362  -20.9591 N   0  0  0  0  0  0  0  0  0  0  0  0
  2  1  1  6  0  0  0
  2  3  1  0  0  0  0
  2  5  1  0  0  0  0
  3  4  1  0  0  0  0
  3 16  1  0  0  0  0
  5  6  1  0  0  0  0
  6  7  1  0  0  0  0
  7  8  1  0  0  0  0
  9  8  1  1  0  0  0
  9 10  1  0  0  0  0
  9 11  1  0  0  0  0
 10 15  1  0  0  0  0
 11 12  1  6  0  0  0
 11 13  1  0  0  0  0
 13 14  1  6  0  0  0
 13 15  1  0  0  0  0
 15 26  1  1  0  0  0
 17 18  2  0  0  0  0
 17 22  1  0  0  0  0
 18 19  1  0  0  0  0
 19 20  2  0  0  0  0
 20 21  1  0  0  0  0
 20 26  1  0  0  0  0
 21 22  2  0  0  0  0
 21 24  1  0  0  0  0
 22 23  1  0  0  0  0
 24 25  2  0  0  0  0
 25 26  1  0  0  0  0
M  END
>  <CHROM.1>
149.71680469,-65.94589245,-157.47708601,75.42072695,-173.35037202,-165.40394989
-124.58202720,-11.69632076,12.36452380,-20.39513168,-2.79346609,-0.73138558
-1.37484835

>  <Name>
ligand

>  <RI>
0

>  <Rbt.Current_Directory>
/home/itssahil/PROJECTS/Mol_Feturizer/New_Systems/rnas/3E5E

>  <Rbt.Executable>
rbdock ($Id: //depot/dev/client3/rdock/2013.1/src/exe/rbdock.cxx#4 $)

>  <Rbt.Library>
libRbt.so (2013.1, Build901 2013/11/27)

>  <Rbt.Parameter_File>
/export/apps/rDock/src/rDock_2013.1_src/data/scripts/dock_solv.prm

>  <Rbt.Receptor>
prm/pocket_docking_2.prm

>  <SCORE>
-15.8663

>  <SCORE.INTER>
-13.8116

>  <SCORE.INTER.CONST>
1

>  <SCORE.INTER.POLAR>
0

>  <SCORE.INTER.ROT>
7

>  <SCORE.INTER.SOLV>
17.6709

>  <SCORE.INTER.VDW>
-23.3647

>  <SCORE.INTER.norm>
-0.531215

>  <SCORE.INTRA>
-2.29478

>  <SCORE.INTRA.DIHEDRAL>
-4.36122

>  <SCORE.INTRA.DIHEDRAL.0>
10.1225

>  <SCORE.INTRA.POLAR>
0

>  <SCORE.INTRA.POLAR.0>
0

>  <SCORE.INTRA.REPUL>
0

>  <SCORE.INTRA.REPUL.0>
0

>  <SCORE.INTRA.SOLV>
0.127479

>  <SCORE.INTRA.SOLV.lig_0>
-49.9393

>  <SCORE.INTRA.VDW>
-0.177907

>  <SCORE.INTRA.VDW.0>
-1.75437

>  <SCORE.INTRA.norm>
-0.0882606

>  <SCORE.RESTR>
0.24011

>  <SCORE.RESTR.CAVITY>
0.24011

>  <SCORE.RESTR.norm>
0.00923502

>  <SCORE.SYSTEM>
0

>  <SCORE.SYSTEM.CONST>
0

>  <SCORE.SYSTEM.DIHEDRAL>
0

>  <SCORE.SYSTEM.SOLV>
0

>  <SCORE.SYSTEM.norm>
0

>  <SCORE.heavy>
26

>  <SCORE.norm>
-0.610241

>  <RMSD>
1.079

$$$$
ligand
 OpenBabel11021811473D
libRbt.so/2013.1/901 2013/11/27
 26 28  0  0  0  0  0  0  0  0999 V2000
  -14.6319    6.6047  -17.6139 N   0  0  0  0  0  0  0  0  0  0  0  0
  -14.2521    8.0047  -17.8401 C   0  0  2  0  0  0  0  0  0  0  0  0
  -15.0168    8.8906  -16.8922 C   0  0  0  0  0  0  0  0  0  0  0  0
  -14.4275    9.5289  -16.0518 O   0  0  0  0  0  0  0  0  0  0  0  0
  -14.5813    8.3947  -19.2821 C   0  0  0  0  0  0  0  0  0  0  0  0
  -13.7978    9.6496  -19.6630 C   0  0  0  0  0  0  0  0  0  0  0  0
  -12.1144    9.5849  -19.8774 S   0  0  0  0  0  0  0  0  0  0  0  0
  -10.8495   10.4416  -20.8506 C   0  0  0  0  0  0  0  0  0  0  0  0
  -11.3898   11.2454  -22.0396 C   0  0  1  0  0  0  0  0  0  0  0  0
  -11.6477   12.5970  -21.7059 O   0  0  0  0  0  0  0  0  0  0  0  0
  -10.3791   11.3565  -23.1565 C   0  0  1  0  0  0  0  0  0  0  0  0
  -11.1446   11.5996  -24.3164 O   0  0  0  0  0  0  0  0  0  0  0  0
   -9.5836   12.6036  -22.8478 C   0  0  1  0  0  0  0  0  0  0  0  0
   -9.3356   13.3164  -24.0399 O   0  0  0  0  0  0  0  0  0  0  0  0
  -10.5153   13.4054  -21.9649 C   0  0  2  0  0  0  0  0  0  0  0  0
  -16.3548    8.9705  -16.9779 O   0  0  0  0  0  0  0  0  0  0  0  0
   -7.3595   16.7137  -19.4530 N   0  0  0  0  0  0  0  0  0  0  0  0
   -7.6136   16.6434  -20.8023 C   0  0  0  0  0  0  0  0  0  0  0  0
   -8.4744   15.6850  -21.2803 N   0  0  0  0  0  0  0  0  0  0  0  0
   -9.0718   14.8166  -20.4412 C   0  0  0  0  0  0  0  0  0  0  0  0
   -8.8311   14.8702  -19.0811 C   0  0  0  0  0  0  0  0  0  0  0  0
   -7.9594   15.8339  -18.5876 C   0  0  0  0  0  0  0  0  0  0  0  0
   -7.6968   15.9183  -17.2894 N   0  0  0  0  0  0  0  0  0  0  0  0
   -9.5517   13.8942  -18.4849 N   0  0  0  0  0  0  0  0  0  0  0  0
  -10.2403   13.2374  -19.4386 C   0  0  0  0  0  0  0  0  0  0  0  0
   -9.9465   13.7885  -20.6597 N   0  0  0  0  0  0  0  0  0  0  0  0
  2  1  1  6  0  0  0
  2  3  1  0  0  0  0
  2  5  1  0  0  0  0
  3  4  1  0  0  0  0
  3 16  1  0  0  0  0
  5  6  1  0  0  0  0
  6  7  1  0  0  0  0
  7  8  1  0  0  0  0
  9  8  1  1  0  0  0
  9 10  1  0  0  0  0
  9 11  1  0  0  0  0
 10 15  1  0  0  0  0
 11 12  1  6  0  0  0
 11 13  1  0  0  0  0
 13 14  1  6  0  0  0
 13 15  1  0  0  0  0
 15 26  1  1  0  0  0
 17 18  2  0  0  0  0
 17 22  1  0  0  0  0
 18 19  1  0  0  0  0
 19 20  2  0  0  0  0
 20 21  1  0  0  0  0
 20 26  1  0  0  0  0
 21 22  2  0  0  0  0
 21 24  1  0  0  0  0
 22 23  1  0  0  0  0
 24 25  2  0  0  0  0
 25 26  1  0  0  0  0
M  END
>  <CHROM.1>
115.85394650,-161.57452524,70.27318672,150.67882708,-17.14602850,92.59183850
-162.46232761,-11.16025776,12.01460792,-20.03895486,-3.04431094,-0.86390035
-1.81939770

>  <Name>
ligand

>  <RI>
0

>  <Rbt.Current_Directory>
/home/itssahil/PROJECTS/Mol_Feturizer/New_Systems/rnas/3E5E

>  <Rbt.Executable>
rbdock ($Id: //depot/dev/client3/rdock/2013.1/src/exe/rbdock.cxx#4 $)

>  <Rbt.Library>
libRbt.so (2013.1, Build901 2013/11/27)

>  <Rbt.Parameter_File>
/export/apps/rDock/src/rDock_2013.1_src/data/scripts/dock_solv.prm

>  <Rbt.Receptor>
prm/pocket_docking_2.prm

>  <SCORE>
-15.0333

>  <SCORE.INTER>
-14.1886

>  <SCORE.INTER.CONST>
1

>  <SCORE.INTER.POLAR>
0

>  <SCORE.INTER.ROT>
7

>  <SCORE.INTER.SOLV>
16.3428

>  <SCORE.INTER.VDW>
-23.1734

>  <SCORE.INTER.norm>
-0.545717

>  <SCORE.INTRA>
-0.844693

>  <SCORE.INTRA.DIHEDRAL>
0.379057

>  <SCORE.INTRA.DIHEDRAL.0>
10.1225

>  <SCORE.INTRA.POLAR>
0

>  <SCORE.INTRA.POLAR.0>
0

>  <SCORE.INTRA.REPUL>
0

>  <SCORE.INTRA.REPUL.0>
0

>  <SCORE.INTRA.SOLV>
-0.474001

>  <SCORE.INTRA.SOLV.lig_0>
-49.9393

>  <SCORE.INTRA.VDW>
-0.797221

>  <SCORE.INTRA.VDW.0>
-1.75437

>  <SCORE.INTRA.norm>
-0.0324882

>  <SCORE.RESTR>
0

>  <SCORE.RESTR.CAVITY>
0

>  <SCORE.RESTR.norm>
0

>  <SCORE.SYSTEM>
0

>  <SCORE.SYSTEM.CONST>
0

>  <SCORE.SYSTEM.DIHEDRAL>
0

>  <SCORE.SYSTEM.SOLV>
0

>  <SCORE.SYSTEM.norm>
0

>  <SCORE.heavy>
26

>  <SCORE.norm>
-0.578205

>  <RMSD>
1.086

$$$$
ligand
 OpenBabel11021811473D
libRbt.so/2013.1/901 2013/11/27
 26 28  0  0  0  0  0  0  0  0999 V2000
  -15.0607    8.3514  -15.4934 N   0  0  0  0  0  0  0  0  0  0  0  0
  -15.3048    8.1394  -16.9255 C   0  0  2  0  0  0  0  0  0  0  0  0
  -15.9455    6.7919  -17.1304 C   0  0  0  0  0  0  0  0  0  0  0  0
  -15.6837    5.8777  -16.3843 O   0  0  0  0  0  0  0  0  0  0  0  0
  -13.9763    8.1939  -17.6817 C   0  0  0  0  0  0  0  0  0  0  0  0
  -13.4036    9.6081  -17.6059 C   0  0  0  0  0  0  0  0  0  0  0  0
  -13.3344   10.5874  -18.9916 S   0  0  0  0  0  0  0  0  0  0  0  0
  -12.3430   10.7103  -20.5025 C   0  0  0  0  0  0  0  0  0  0  0  0
  -12.9009   11.6710  -21.5597 C   0  0  1  0  0  0  0  0  0  0  0  0
  -12.7501   13.0293  -21.1891 O   0  0  0  0  0  0  0  0  0  0  0  0
  -12.1406   11.5862  -22.8621 C   0  0  1  0  0  0  0  0  0  0  0  0
  -13.0424   12.0556  -23.8403 O   0  0  0  0  0  0  0  0  0  0  0  0
  -11.0209   12.5925  -22.7330 C   0  0  1  0  0  0  0  0  0  0  0  0
  -10.8535   13.2769  -23.9554 O   0  0  0  0  0  0  0  0  0  0  0  0
  -11.5318   13.5543  -21.6821 C   0  0  2  0  0  0  0  0  0  0  0  0
  -16.8064    6.6038  -18.1440 O   0  0  0  0  0  0  0  0  0  0  0  0
   -7.4605   16.1917  -19.7633 N   0  0  0  0  0  0  0  0  0  0  0  0
   -8.0198   16.2888  -21.0154 C   0  0  0  0  0  0  0  0  0  0  0  0
   -9.0914   15.4931  -21.3420 N   0  0  0  0  0  0  0  0  0  0  0  0
   -9.5992   14.6220  -20.4484 C   0  0  0  0  0  0  0  0  0  0  0  0
   -9.0527   14.5090  -19.1839 C   0  0  0  0  0  0  0  0  0  0  0  0
   -7.9664   15.3069  -18.8445 C   0  0  0  0  0  0  0  0  0  0  0  0
   -7.4084   15.2280  -17.6428 N   0  0  0  0  0  0  0  0  0  0  0  0
   -9.7491   13.5708  -18.5040 N   0  0  0  0  0  0  0  0  0  0  0  0
  -10.7199   13.1006  -19.3112 C   0  0  0  0  0  0  0  0  0  0  0  0
  -10.6353   13.7330  -20.5253 N   0  0  0  0  0  0  0  0  0  0  0  0
  2  1  1  1  0  0  0
  2  3  1  0  0  0  0
  2  5  1  0  0  0  0
  3  4  1  0  0  0  0
  3 16  1  0  0  0  0
  5  6  1  0  0  0  0
  6  7  1  0  0  0  0
  7  8  1  0  0  0  0
  9  8  1  1  0  0  0
  9 10  1  0  0  0  0
  9 11  1  0  0  0  0
 10 15  1  0  0  0  0
 11 12  1  6  0  0  0
 11 13  1  0  0  0  0
 13 14  1  6  0  0  0
 13 15  1  0  0  0  0
 15 26  1  1  0  0  0
 17 18  2  0  0  0  0
 17 22  1  0  0  0  0
 18 19  1  0  0  0  0
 19 20  2  0  0  0  0
 20 21  1  0  0  0  0
 20 26  1  0  0  0  0
 21 22  2  0  0  0  0
 21 24  1  0  0  0  0
 22 23  1  0  0  0  0
 24 25  2  0  0  0  0
 25 26  1  0  0  0  0
M  END
>  <CHROM.1>
-31.58454419,-66.42006599,-110.89146597,-74.85633712,169.39535162,72.33969458
-154.74297992,-11.93081473,11.79418070,-19.72492662,-2.60618933,-0.77678312
-1.29268539

>  <Name>
ligand

>  <RI>
0

>  <Rbt.Current_Directory>
/home/itssahil/PROJECTS/Mol_Feturizer/New_Systems/rnas/3E5E

>  <Rbt.Executable>
rbdock ($Id: //depot/dev/client3/rdock/2013.1/src/exe/rbdock.cxx#4 $)

>  <Rbt.Library>
libRbt.so (2013.1, Build901 2013/11/27)

>  <Rbt.Parameter_File>
/export/apps/rDock/src/rDock_2013.1_src/data/scripts/dock_solv.prm

>  <Rbt.Receptor>
prm/pocket_docking_2.prm

>  <SCORE>
-14.4797

>  <SCORE.INTER>
-13.5296

>  <SCORE.INTER.CONST>
1

>  <SCORE.INTER.POLAR>
0

>  <SCORE.INTER.ROT>
7

>  <SCORE.INTER.SOLV>
17.0205

>  <SCORE.INTER.VDW>
-22.9599

>  <SCORE.INTER.norm>
-0.520368

>  <SCORE.INTRA>
-0.958165

>  <SCORE.INTRA.DIHEDRAL>
-0.890729

>  <SCORE.INTRA.DIHEDRAL.0>
10.1225

>  <SCORE.INTRA.POLAR>
0

>  <SCORE.INTRA.POLAR.0>
0

>  <SCORE.INTRA.REPUL>
0

>  <SCORE.INTRA.REPUL.0>
0

>  <SCORE.INTRA.SOLV>
0.143377

>  <SCORE.INTRA.SOLV.lig_0>
-49.9393

>  <SCORE.INTRA.VDW>
-0.584488

>  <SCORE.INTRA.VDW.0>
-1.75437

>  <SCORE.INTRA.norm>
-0.0368525

>  <SCORE.RESTR>
0.00806808

>  <SCORE.RESTR.CAVITY>
0.00806808

>  <SCORE.RESTR.norm>
0.000310311

>  <SCORE.SYSTEM>
0

>  <SCORE.SYSTEM.CONST>
0

>  <SCORE.SYSTEM.DIHEDRAL>
0

>  <SCORE.SYSTEM.SOLV>
0

>  <SCORE.SYSTEM.norm>
0

>  <SCORE.heavy>
26

>  <SCORE.norm>
-0.55691

>  <RMSD>
1.092

$$$$
ligand
 OpenBabel11021811473D
libRbt.so/2013.1/901 2013/11/27
 26 28  0  0  0  0  0  0  0  0999 V2000
  -14.8849    9.2807  -15.9880 N   0  0  0  0  0  0  0  0  0  0  0  0
  -15.6028    8.8578  -17.1968 C   0  0  2  0  0  0  0  0  0  0  0  0
  -15.6107    7.3537  -17.2743 C   0  0  0  0  0  0  0  0  0  0  0  0
  -16.4278    6.7874  -17.9617 O   0  0  0  0  0  0  0  0  0  0  0  0
  -14.9026    9.4293  -18.4308 C   0  0  0  0  0  0  0  0  0  0  0  0
  -13.4695    8.9041  -18.4935 C   0  0  0  0  0  0  0  0  0  0  0  0
  -12.3989    9.4561  -19.6906 S   0  0  0  0  0  0  0  0  0  0  0  0
  -11.6185   11.0157  -20.1803 C   0  0  0  0  0  0  0  0  0  0  0  0
  -12.4321   11.8570  -21.1712 C   0  0  1  0  0  0  0  0  0  0  0  0
  -12.3893   13.2396  -20.8691 O   0  0  0  0  0  0  0  0  0  0  0  0
  -11.8637   11.7954  -22.5693 C   0  0  1  0  0  0  0  0  0  0  0  0
  -12.9463   12.1145  -23.4159 O   0  0  0  0  0  0  0  0  0  0  0  0
  -10.8627   12.9250  -22.6397 C   0  0  1  0  0  0  0  0  0  0  0  0
  -10.9552   13.5648  -23.8938 O   0  0  0  0  0  0  0  0  0  0  0  0
  -11.3251   13.8729  -21.5542 C   0  0  2  0  0  0  0  0  0  0  0  0
  -14.7113    6.6398  -16.5774 O   0  0  0  0  0  0  0  0  0  0  0  0
   -7.0690   16.7111  -20.5327 N   0  0  0  0  0  0  0  0  0  0  0  0
   -7.7746   16.6345  -21.7101 C   0  0  0  0  0  0  0  0  0  0  0  0
   -8.8729   15.8125  -21.7891 N   0  0  0  0  0  0  0  0  0  0  0  0
   -9.2650   15.0840  -20.7258 C   0  0  0  0  0  0  0  0  0  0  0  0
   -8.5706   15.1469  -19.5323 C   0  0  0  0  0  0  0  0  0  0  0  0
   -7.4562   15.9727  -19.4428 C   0  0  0  0  0  0  0  0  0  0  0  0
   -6.7579   16.0601  -18.3175 N   0  0  0  0  0  0  0  0  0  0  0  0
   -9.1751   14.3236  -18.6469 N   0  0  0  0  0  0  0  0  0  0  0  0
  -10.2328   13.7538  -19.2567 C   0  0  0  0  0  0  0  0  0  0  0  0
  -10.2977   14.2050  -20.5502 N   0  0  0  0  0  0  0  0  0  0  0  0
  2  1  1  1  0  0  0
  2  3  1  0  0  0  0
  2  5  1  0  0  0  0
  3  4  1  0  0  0  0
  3 16  1  0  0  0  0
  5  6  1  0  0  0  0
  6  7  1  0  0  0  0
  7  8  1  0  0  0  0
  9  8  1  1  0  0  0
  9 10  1  0  0  0  0
  9 11  1  0  0  0  0
 10 15  1  0  0  0  0
 11 12  1  6  0  0  0
 11 13  1  0  0  0  0
 13 14  1  6  0  0  0
 13 15  1  0  0  0  0
 15 26  1  1  0  0  0
 17 18  2  0  0  0  0
 17 22  1  0  0  0  0
 18 19  1  0  0  0  0
 19 20  2  0  0  0  0
 20 21  1  0  0  0  0
 20 26  1  0  0  0  0
 21 22  2  0  0  0  0
 21 24  1  0  0  0  0
 22 23  1  0  0  0  0
 24 25  2  0  0  0  0
 25 26  1  0  0  0  0
M  END
>  <CHROM.1>
160.03334597,60.54832593,-175.30791514,63.43139847,-88.95142721,139.29439698
-163.89483048,-11.59579264,12.10326923,-19.93752433,-2.65163249,-0.78642836
-1.30876002

>  <Name>
ligand

>  <RI>
0

>  <Rbt.Current_Directory>
/home/itssahil/PROJECTS/Mol_Feturizer/New_Systems/rnas/3E5E

>  <Rbt.Executable>
rbdock ($Id: //depot/dev/client3/rdock/2013.1/src/exe/rbdock.cxx#4 $)

>  <Rbt.Library>
libRbt.so (2013.1, Build901 2013/11/27)

>  <Rbt.Parameter_File>
/export/apps/rDock/src/rDock_2013.1_src/data/scripts/dock_solv.prm

>  <Rbt.Receptor>
prm/pocket_docking_2.prm

>  <SCORE>
-15.0765

>  <SCORE.INTER>
-14.3355

>  <SCORE.INTER.CONST>
1

>  <SCORE.INTER.POLAR>
0

>  <SCORE.INTER.ROT>
7

>  <SCORE.INTER.SOLV>
17.143

>  <SCORE.INTER.VDW>
-23.538

>  <SCORE.INTER.norm>
-0.551364

>  <SCORE.INTRA>
-0.756907

>  <SCORE.INTRA.DIHEDRAL>
-2.16852

>  <SCORE.INTRA.DIHEDRAL.0>
10.1225

>  <SCORE.INTRA.POLAR>
0

>  <SCORE.INTRA.POLAR.0>
0

>  <SCORE.INTRA.REPUL>
0

>  <SCORE.INTRA.REPUL.0>
0

>  <SCORE.INTRA.SOLV>
0.153748

>  <SCORE.INTRA.SOLV.lig_0>
-49.9393

>  <SCORE.INTRA.VDW>
0.250481

>  <SCORE.INTRA.VDW.0>
-1.75437

>  <SCORE.INTRA.norm>
-0.0291118

>  <SCORE.RESTR>
0.0158218

>  <SCORE.RESTR.CAVITY>
0.0158218

>  <SCORE.RESTR.norm>
0.00060853

>  <SCORE.SYSTEM>
0

>  <SCORE.SYSTEM.CONST>
0

>  <SCORE.SYSTEM.DIHEDRAL>
0

>  <SCORE.SYSTEM.SOLV>
0

>  <SCORE.SYSTEM.norm>
0

>  <SCORE.heavy>
26

>  <SCORE.norm>
-0.579867

>  <RMSD>
1.111

$$$$
ligand
 OpenBabel11021811473D
libRbt.so/2013.1/901 2013/11/27
 26 28  0  0  0  0  0  0  0  0999 V2000
  -14.7705    6.4730  -17.5699 N   0  0  0  0  0  0  0  0  0  0  0  0
  -14.9795    7.8463  -17.0946 C   0  0  2  0  0  0  0  0  0  0  0  0
  -16.2410    8.4002  -17.7028 C   0  0  0  0  0  0  0  0  0  0  0  0
  -16.6568    7.9534  -18.7461 O   0  0  0  0  0  0  0  0  0  0  0  0
  -13.7894    8.7143  -17.5071 C   0  0  0  0  0  0  0  0  0  0  0  0
  -13.6342    8.6789  -19.0264 C   0  0  0  0  0  0  0  0  0  0  0  0
  -12.4356    9.6053  -19.7939 S   0  0  0  0  0  0  0  0  0  0  0  0
  -11.9462   11.3459  -19.9027 C   0  0  0  0  0  0  0  0  0  0  0  0
  -12.6051   12.1276  -21.0457 C   0  0  1  0  0  0  0  0  0  0  0  0
  -12.4062   13.5247  -20.9302 O   0  0  0  0  0  0  0  0  0  0  0  0
  -11.9867   11.8044  -22.3854 C   0  0  1  0  0  0  0  0  0  0  0  0
  -12.9828   12.1240  -23.3319 O   0  0  0  0  0  0  0  0  0  0  0  0
  -10.8522   12.7895  -22.5455 C   0  0  1  0  0  0  0  0  0  0  0  0
  -10.8093   13.2527  -23.8776 O   0  0  0  0  0  0  0  0  0  0  0  0
  -11.2427   13.9279  -21.6278 C   0  0  2  0  0  0  0  0  0  0  0  0
  -16.9041    9.3934  -17.0880 O   0  0  0  0  0  0  0  0  0  0  0  0
   -6.9952   16.7778  -20.6028 N   0  0  0  0  0  0  0  0  0  0  0  0
   -7.6852   16.6801  -21.7880 C   0  0  0  0  0  0  0  0  0  0  0  0
   -8.7839   15.8586  -21.8663 N   0  0  0  0  0  0  0  0  0  0  0  0
   -9.1916   15.1510  -20.7947 C   0  0  0  0  0  0  0  0  0  0  0  0
   -8.5131   15.2352  -19.5935 C   0  0  0  0  0  0  0  0  0  0  0  0
   -7.3984   16.0607  -19.5046 C   0  0  0  0  0  0  0  0  0  0  0  0
   -6.7151   16.1681  -18.3718 N   0  0  0  0  0  0  0  0  0  0  0  0
   -9.1310   14.4297  -18.7008 N   0  0  0  0  0  0  0  0  0  0  0  0
  -10.1815   13.8503  -19.3140 C   0  0  0  0  0  0  0  0  0  0  0  0
  -10.2282   14.2772  -20.6165 N   0  0  0  0  0  0  0  0  0  0  0  0
  2  1  1  6  0  0  0
  2  3  1  0  0  0  0
  2  5  1  0  0  0  0
  3  4  1  0  0  0  0
  3 16  1  0  0  0  0
  5  6  1  0  0  0  0
  6  7  1  0  0  0  0
  7  8  1  0  0  0  0
  9  8  1  1  0  0  0
  9 10  1  0  0  0  0
  9 11  1  0  0  0  0
 10 15  1  0  0  0  0
 11 12  1  6  0  0  0
 11 13  1  0  0  0  0
 13 14  1  6  0  0  0
 13 15  1  0  0  0  0
 15 26  1  1  0  0  0
 17 18  2  0  0  0  0
 17 22  1  0  0  0  0
 18 19  1  0  0  0  0
 19 20  2  0  0  0  0
 20 21  1  0  0  0  0
 20 26  1  0  0  0  0
 21 22  2  0  0  0  0
 21 24  1  0  0  0  0
 22 23  1  0  0  0  0
 24 25  2  0  0  0  0
 25 26  1  0  0  0  0
M  END
>  <CHROM.1>
-24.50990684,58.13598865,177.27184836,-57.22333839,-90.11162049,168.12187755
-153.99194533,-11.65389076,12.18731489,-20.05513966,-2.70626186,-0.75632823
-1.31128037

>  <Name>
ligand

>  <RI>
0

>  <Rbt.Current_Directory>
/home/itssahil/PROJECTS/Mol_Feturizer/New_Systems/rnas/3E5E

>  <Rbt.Executable>
rbdock ($Id: //depot/dev/client3/rdock/2013.1/src/exe/rbdock.cxx#4 $)

>  <Rbt.Library>
libRbt.so (2013.1, Build901 2013/11/27)

>  <Rbt.Parameter_File>
/export/apps/rDock/src/rDock_2013.1_src/data/scripts/dock_solv.prm

>  <Rbt.Receptor>
prm/pocket_docking_2.prm

>  <SCORE>
-17.1388

>  <SCORE.INTER>
-14.7572

>  <SCORE.INTER.CONST>
1

>  <SCORE.INTER.POLAR>
0

>  <SCORE.INTER.ROT>
7

>  <SCORE.INTER.SOLV>
15.7513

>  <SCORE.INTER.VDW>
-23.3553

>  <SCORE.INTER.norm>
-0.567586

>  <SCORE.INTRA>
-2.38159

>  <SCORE.INTRA.DIHEDRAL>
-5.59903

>  <SCORE.INTRA.DIHEDRAL.0>
10.1225

>  <SCORE.INTRA.POLAR>
0

>  <SCORE.INTRA.POLAR.0>
0

>  <SCORE.INTRA.REPUL>
0

>  <SCORE.INTRA.REPUL.0>
0

>  <SCORE.INTRA.SOLV>
0.141031

>  <SCORE.INTRA.SOLV.lig_0>
-49.9393

>  <SCORE.INTRA.VDW>
0.347411

>  <SCORE.INTRA.VDW.0>
-1.75437

>  <SCORE.INTRA.norm>
-0.0915996

>  <SCORE.RESTR>
0

>  <SCORE.RESTR.CAVITY>
0

>  <SCORE.RESTR.norm>
0

>  <SCORE.SYSTEM>
0

>  <SCORE.SYSTEM.CONST>
0

>  <SCORE.SYSTEM.DIHEDRAL>
0

>  <SCORE.SYSTEM.SOLV>
0

>  <SCORE.SYSTEM.norm>
0

>  <SCORE.heavy>
26

>  <SCORE.norm>
-0.659186

>  <RMSD>
1.121

$$$$
ligand
 OpenBabel11021811473D
libRbt.so/2013.1/901 2013/11/27
 26 28  0  0  0  0  0  0  0  0999 V2000
  -14.5298    5.9820  -17.2852 N   0  0  0  0  0  0  0  0  0  0  0  0
  -13.8711    7.2934  -17.2432 C   0  0  2  0  0  0  0  0  0  0  0  0
  -14.5814    8.1792  -16.2537 C   0  0  0  0  0  0  0  0  0  0  0  0
  -15.3266    7.6952  -15.4342 O   0  0  0  0  0  0  0  0  0  0  0  0
  -13.9231    7.9337  -18.6314 C   0  0  0  0  0  0  0  0  0  0  0  0
  -12.8941    9.0599  -18.7128 C   0  0  0  0  0  0  0  0  0  0  0  0
  -12.8103   10.0557  -20.0859 S   0  0  0  0  0  0  0  0  0  0  0  0
  -11.5417   10.9377  -21.0313 C   0  0  0  0  0  0  0  0  0  0  0  0
  -12.0857   11.8759  -22.1155 C   0  0  1  0  0  0  0  0  0  0  0  0
  -12.2014   13.2132  -21.6647 O   0  0  0  0  0  0  0  0  0  0  0  0
  -11.1441   11.9922  -23.2908 C   0  0  1  0  0  0  0  0  0  0  0  0
  -11.9594   12.3898  -24.3714 O   0  0  0  0  0  0  0  0  0  0  0  0
  -10.2237   13.1406  -22.9484 C   0  0  1  0  0  0  0  0  0  0  0  0
   -9.9923   13.9237  -24.0990 O   0  0  0  0  0  0  0  0  0  0  0  0
  -11.0217   13.9434  -21.9438 C   0  0  2  0  0  0  0  0  0  0  0  0
  -14.3898    9.5083  -16.2824 O   0  0  0  0  0  0  0  0  0  0  0  0
   -7.2671   16.6013  -19.4837 N   0  0  0  0  0  0  0  0  0  0  0  0
   -7.5938   16.6341  -20.8187 C   0  0  0  0  0  0  0  0  0  0  0  0
   -8.6167   15.8442  -21.2852 N   0  0  0  0  0  0  0  0  0  0  0  0
   -9.3023   15.0410  -20.4485 C   0  0  0  0  0  0  0  0  0  0  0  0
   -8.9909   14.9934  -19.1026 C   0  0  0  0  0  0  0  0  0  0  0  0
   -7.9557   15.7860  -18.6211 C   0  0  0  0  0  0  0  0  0  0  0  0
   -7.6208   15.7683  -17.3369 N   0  0  0  0  0  0  0  0  0  0  0  0
   -9.8266   14.1144  -18.5056 N   0  0  0  0  0  0  0  0  0  0  0  0
  -10.6552   13.6175  -19.4447 C   0  0  0  0  0  0  0  0  0  0  0  0
  -10.3374   14.1724  -20.6580 N   0  0  0  0  0  0  0  0  0  0  0  0
  2  1  1  6  0  0  0
  2  3  1  0  0  0  0
  2  5  1  0  0  0  0
  3  4  1  0  0  0  0
  3 16  1  0  0  0  0
  5  6  1  0  0  0  0
  6  7  1  0  0  0  0
  7  8  1  0  0  0  0
  9  8  1  1  0  0  0
  9 10  1  0  0  0  0
  9 11  1  0  0  0  0
 10 15  1  0  0  0  0
 11 12  1  6  0  0  0
 11 13  1  0  0  0  0
 13 14  1  6  0  0  0
 13 15  1  0  0  0  0
 15 26  1  1  0  0  0
 17 18  2  0  0  0  0
 17 22  1  0  0  0  0
 18 19  1  0  0  0  0
 19 20  2  0  0  0  0
 20 21  1  0  0  0  0
 20 26  1  0  0  0  0
 21 22  2  0  0  0  0
 21 24  1  0  0  0  0
 22 23  1  0  0  0  0
 24 25  2  0  0  0  0
 25 26  1  0  0  0  0
M  END
>  <CHROM.1>
16.84004470,-162.56456890,-174.38376535,-146.46655616,-171.65149667,95.24250077
-167.12225369,-11.33644673,12.11537434,-19.91398939,-2.67766591,-0.90380926
-1.45104617

>  <Name>
ligand

>  <RI>
0

>  <Rbt.Current_Directory>
/home/itssahil/PROJECTS/Mol_Feturizer/New_Systems/rnas/3E5E

>  <Rbt.Executable>
rbdock ($Id: //depot/dev/client3/rdock/2013.1/src/exe/rbdock.cxx#4 $)

>  <Rbt.Library>
libRbt.so (2013.1, Build901 2013/11/27)

>  <Rbt.Parameter_File>
/export/apps/rDock/src/rDock_2013.1_src/data/scripts/dock_solv.prm

>  <Rbt.Receptor>
prm/pocket_docking_2.prm

>  <SCORE>
-15.8937

>  <SCORE.INTER>
-15.2176

>  <SCORE.INTER.CONST>
1

>  <SCORE.INTER.POLAR>
0

>  <SCORE.INTER.ROT>
7

>  <SCORE.INTER.SOLV>
17.4377

>  <SCORE.INTER.VDW>
-24.2243

>  <SCORE.INTER.norm>
-0.585293

>  <SCORE.INTRA>
-0.676099

>  <SCORE.INTRA.DIHEDRAL>
-1.25221

>  <SCORE.INTRA.DIHEDRAL.0>
10.1225

>  <SCORE.INTRA.POLAR>
0

>  <SCORE.INTRA.POLAR.0>
0

>  <SCORE.INTRA.REPUL>
0

>  <SCORE.INTRA.REPUL.0>
0

>  <SCORE.INTRA.SOLV>
-0.656784

>  <SCORE.INTRA.SOLV.lig_0>
-49.9393

>  <SCORE.INTRA.VDW>
0.2784

>  <SCORE.INTRA.VDW.0>
-1.75437

>  <SCORE.INTRA.norm>
-0.0260038

>  <SCORE.RESTR>
0

>  <SCORE.RESTR.CAVITY>
0

>  <SCORE.RESTR.norm>
0

>  <SCORE.SYSTEM>
0

>  <SCORE.SYSTEM.CONST>
0

>  <SCORE.SYSTEM.DIHEDRAL>
0

>  <SCORE.SYSTEM.SOLV>
0

>  <SCORE.SYSTEM.norm>
0

>  <SCORE.heavy>
26

>  <SCORE.norm>
-0.611297

>  <RMSD>
1.126

$$$$
ligand
 OpenBabel11021811473D
libRbt.so/2013.1/901 2013/11/27
 26 28  0  0  0  0  0  0  0  0999 V2000
  -15.0575    8.3010  -15.4941 N   0  0  0  0  0  0  0  0  0  0  0  0
  -15.0107    8.1667  -16.9554 C   0  0  2  0  0  0  0  0  0  0  0  0
  -15.8300    6.9748  -17.3753 C   0  0  0  0  0  0  0  0  0  0  0  0
  -15.8628    5.9873  -16.6790 O   0  0  0  0  0  0  0  0  0  0  0  0
  -13.5608    7.9734  -17.4026 C   0  0  0  0  0  0  0  0  0  0  0  0
  -13.4784    8.0739  -18.9246 C   0  0  0  0  0  0  0  0  0  0  0  0
  -13.7188    9.5623  -19.7062 S   0  0  0  0  0  0  0  0  0  0  0  0
  -12.8048   11.1031  -19.9737 C   0  0  0  0  0  0  0  0  0  0  0  0
  -12.7122   11.5482  -21.4383 C   0  0  1  0  0  0  0  0  0  0  0  0
  -12.1415   12.8366  -21.5767 O   0  0  0  0  0  0  0  0  0  0  0  0
  -11.7777   10.6732  -22.2400 C   0  0  1  0  0  0  0  0  0  0  0  0
  -12.1980   10.8235  -23.5784 O   0  0  0  0  0  0  0  0  0  0  0  0
  -10.4168   11.3145  -22.0994 C   0  0  1  0  0  0  0  0  0  0  0  0
   -9.7409   11.2717  -23.3372 O   0  0  0  0  0  0  0  0  0  0  0  0
  -10.7395   12.7513  -21.7501 C   0  0  2  0  0  0  0  0  0  0  0  0
  -16.5230    7.0067  -18.5254 O   0  0  0  0  0  0  0  0  0  0  0  0
   -7.7247   16.4216  -19.5929 N   0  0  0  0  0  0  0  0  0  0  0  0
   -8.0661   16.2747  -20.9165 C   0  0  0  0  0  0  0  0  0  0  0  0
   -8.8687   15.2262  -21.2966 N   0  0  0  0  0  0  0  0  0  0  0  0
   -9.3248   14.3438  -20.3864 C   0  0  0  0  0  0  0  0  0  0  0  0
   -8.9946   14.4734  -19.0505 C   0  0  0  0  0  0  0  0  0  0  0  0
   -8.1805   15.5287  -18.6560 C   0  0  0  0  0  0  0  0  0  0  0  0
   -7.8355   15.6884  -17.3843 N   0  0  0  0  0  0  0  0  0  0  0  0
   -9.5805   13.4633  -18.3695 N   0  0  0  0  0  0  0  0  0  0  0  0
  -10.2729   12.7107  -19.2468 C   0  0  0  0  0  0  0  0  0  0  0  0
  -10.1167   13.2352  -20.5044 N   0  0  0  0  0  0  0  0  0  0  0  0
  2  1  1  1  0  0  0
  2  3  1  0  0  0  0
  2  5  1  0  0  0  0
  3  4  1  0  0  0  0
  3 16  1  0  0  0  0
  5  6  1  0  0  0  0
  6  7  1  0  0  0  0
  7  8  1  0  0  0  0
  9  8  1  1  0  0  0
  9 10  1  0  0  0  0
  9 11  1  0  0  0  0
 10 15  1  0  0  0  0
 11 12  1  6  0  0  0
 11 13  1  0  0  0  0
 13 14  1  6  0  0  0
 13 15  1  0  0  0  0
 15 26  1  1  0  0  0
 17 18  2  0  0  0  0
 17 22  1  0  0  0  0
 18 19  1  0  0  0  0
 19 20  2  0  0  0  0
 20 21  1  0  0  0  0
 20 26  1  0  0  0  0
 21 22  2  0  0  0  0
 21 24  1  0  0  0  0
 22 23  1  0  0  0  0
 24 25  2  0  0  0  0
 25 26  1  0  0  0  0
M  END
>  <CHROM.1>
-35.32759669,-170.33942740,69.78999198,75.23800882,128.00619712,172.40268674
-116.15542045,-11.74802116,11.40549738,-19.73537355,-2.94207653,-0.86227441
-1.63889677

>  <Name>
ligand

>  <RI>
0

>  <Rbt.Current_Directory>
/home/itssahil/PROJECTS/Mol_Feturizer/New_Systems/rnas/3E5E

>  <Rbt.Executable>
rbdock ($Id: //depot/dev/client3/rdock/2013.1/src/exe/rbdock.cxx#4 $)

>  <Rbt.Library>
libRbt.so (2013.1, Build901 2013/11/27)

>  <Rbt.Parameter_File>
/export/apps/rDock/src/rDock_2013.1_src/data/scripts/dock_solv.prm

>  <Rbt.Receptor>
prm/pocket_docking_2.prm

>  <SCORE>
-15.4093

>  <SCORE.INTER>
-12.6508

>  <SCORE.INTER.CONST>
1

>  <SCORE.INTER.POLAR>
0

>  <SCORE.INTER.ROT>
7

>  <SCORE.INTER.SOLV>
16.3627

>  <SCORE.INTER.VDW>
-22.1548

>  <SCORE.INTER.norm>
-0.486569

>  <SCORE.INTRA>
-2.75852

>  <SCORE.INTRA.DIHEDRAL>
-3.87794

>  <SCORE.INTRA.DIHEDRAL.0>
10.1225

>  <SCORE.INTRA.POLAR>
0

>  <SCORE.INTRA.POLAR.0>
0

>  <SCORE.INTRA.REPUL>
0

>  <SCORE.INTRA.REPUL.0>
0

>  <SCORE.INTRA.SOLV>
-0.575456

>  <SCORE.INTRA.SOLV.lig_0>
-49.9393

>  <SCORE.INTRA.VDW>
-0.531818

>  <SCORE.INTRA.VDW.0>
-1.75437

>  <SCORE.INTRA.norm>
-0.106097

>  <SCORE.RESTR>
0

>  <SCORE.RESTR.CAVITY>
0

>  <SCORE.RESTR.norm>
0

>  <SCORE.SYSTEM>
0

>  <SCORE.SYSTEM.CONST>
0

>  <SCORE.SYSTEM.DIHEDRAL>
0

>  <SCORE.SYSTEM.SOLV>
0

>  <SCORE.SYSTEM.norm>
0

>  <SCORE.heavy>
26

>  <SCORE.norm>
-0.592666

>  <RMSD>
1.144

$$$$
ligand
 OpenBabel11021811473D
libRbt.so/2013.1/901 2013/11/27
 26 28  0  0  0  0  0  0  0  0999 V2000
  -15.1403    8.1886  -15.4474 N   0  0  0  0  0  0  0  0  0  0  0  0
  -15.1621    8.0678  -16.9105 C   0  0  2  0  0  0  0  0  0  0  0  0
  -15.0549    6.6156  -17.2948 C   0  0  0  0  0  0  0  0  0  0  0  0
  -15.9246    6.0988  -17.9563 O   0  0  0  0  0  0  0  0  0  0  0  0
  -13.9830    8.8415  -17.5027 C   0  0  0  0  0  0  0  0  0  0  0  0
  -14.1299    8.9118  -19.0216 C   0  0  0  0  0  0  0  0  0  0  0  0
  -13.0458    9.8294  -19.9526 S   0  0  0  0  0  0  0  0  0  0  0  0
  -12.4187   11.5281  -20.0001 C   0  0  0  0  0  0  0  0  0  0  0  0
  -12.7616   12.3032  -21.2781 C   0  0  1  0  0  0  0  0  0  0  0  0
  -12.3323   13.6514  -21.2241 O   0  0  0  0  0  0  0  0  0  0  0  0
  -12.0322   11.7609  -22.4844 C   0  0  1  0  0  0  0  0  0  0  0  0
  -12.8140   12.1571  -23.5900 O   0  0  0  0  0  0  0  0  0  0  0  0
  -10.7279   12.5220  -22.5336 C   0  0  1  0  0  0  0  0  0  0  0  0
  -10.4185   12.8491  -23.8707 O   0  0  0  0  0  0  0  0  0  0  0  0
  -11.0302   13.7880  -21.7614 C   0  0  2  0  0  0  0  0  0  0  0  0
  -13.9940    5.8922  -16.9007 O   0  0  0  0  0  0  0  0  0  0  0  0
   -7.0192   16.6501  -20.0484 N   0  0  0  0  0  0  0  0  0  0  0  0
   -7.6048   16.6695  -21.2920 C   0  0  0  0  0  0  0  0  0  0  0  0
   -8.6536   15.8232  -21.5601 N   0  0  0  0  0  0  0  0  0  0  0  0
   -9.1137   14.9777  -20.6174 C   0  0  0  0  0  0  0  0  0  0  0  0
   -8.5401   14.9425  -19.3603 C   0  0  0  0  0  0  0  0  0  0  0  0
   -7.4764   15.7922  -19.0799 C   0  0  0  0  0  0  0  0  0  0  0  0
   -6.8937   15.7885  -17.8874 N   0  0  0  0  0  0  0  0  0  0  0  0
   -9.1902   14.0136  -18.6241 N   0  0  0  0  0  0  0  0  0  0  0  0
  -10.1588   13.4733  -19.3891 C   0  0  0  0  0  0  0  0  0  0  0  0
  -10.1191   14.0511  -20.6323 N   0  0  0  0  0  0  0  0  0  0  0  0
  2  1  1  1  0  0  0
  2  3  1  0  0  0  0
  2  5  1  0  0  0  0
  3  4  1  0  0  0  0
  3 16  1  0  0  0  0
  5  6  1  0  0  0  0
  6  7  1  0  0  0  0
  7  8  1  0  0  0  0
  9  8  1  1  0  0  0
  9 10  1  0  0  0  0
  9 11  1  0  0  0  0
 10 15  1  0  0  0  0
 11 12  1  6  0  0  0
 11 13  1  0  0  0  0
 13 14  1  6  0  0  0
 13 15  1  0  0  0  0
 15 26  1  1  0  0  0
 17 18  2  0  0  0  0
 17 22  1  0  0  0  0
 18 19  1  0  0  0  0
 19 20  2  0  0  0  0
 20 21  1  0  0  0  0
 20 26  1  0  0  0  0
 21 22  2  0  0  0  0
 21 24  1  0  0  0  0
 22 23  1  0  0  0  0
 24 25  2  0  0  0  0
 25 26  1  0  0  0  0
M  END
>  <CHROM.1>
121.34789922,-170.75868310,174.45524073,-53.72381814,-117.03781055,175.76272163
-136.79858829,-11.54306683,11.91294315,-19.87798127,-2.61074672,-0.80926903
-1.25110104

>  <Name>
ligand

>  <RI>
0

>  <Rbt.Current_Directory>
/home/itssahil/PROJECTS/Mol_Feturizer/New_Systems/rnas/3E5E

>  <Rbt.Executable>
rbdock ($Id: //depot/dev/client3/rdock/2013.1/src/exe/rbdock.cxx#4 $)

>  <Rbt.Library>
libRbt.so (2013.1, Build901 2013/11/27)

>  <Rbt.Parameter_File>
/export/apps/rDock/src/rDock_2013.1_src/data/scripts/dock_solv.prm

>  <Rbt.Receptor>
prm/pocket_docking_2.prm

>  <SCORE>
-16.8239

>  <SCORE.INTER>
-14.1142

>  <SCORE.INTER.CONST>
1

>  <SCORE.INTER.POLAR>
0

>  <SCORE.INTER.ROT>
7

>  <SCORE.INTER.SOLV>
16.0907

>  <SCORE.INTER.VDW>
-23.0397

>  <SCORE.INTER.norm>
-0.542853

>  <SCORE.INTRA>
-2.73126

>  <SCORE.INTRA.DIHEDRAL>
-4.37868

>  <SCORE.INTRA.DIHEDRAL.0>
10.1225

>  <SCORE.INTRA.POLAR>
0

>  <SCORE.INTRA.POLAR.0>
0

>  <SCORE.INTRA.REPUL>
0

>  <SCORE.INTRA.REPUL.0>
0

>  <SCORE.INTRA.SOLV>
-0.639396

>  <SCORE.INTRA.SOLV.lig_0>
-49.9393

>  <SCORE.INTRA.VDW>
-0.222222

>  <SCORE.INTRA.VDW.0>
-1.75437

>  <SCORE.INTRA.norm>
-0.105049

>  <SCORE.RESTR>
0.0215509

>  <SCORE.RESTR.CAVITY>
0.0215509

>  <SCORE.RESTR.norm>
0.000828882

>  <SCORE.SYSTEM>
0

>  <SCORE.SYSTEM.CONST>
0

>  <SCORE.SYSTEM.DIHEDRAL>
0

>  <SCORE.SYSTEM.SOLV>
0

>  <SCORE.SYSTEM.norm>
0

>  <SCORE.heavy>
26

>  <SCORE.norm>
-0.647073

>  <RMSD>
1.163

$$$$
ligand
 OpenBabel11021811473D
libRbt.so/2013.1/901 2013/11/27
 26 28  0  0  0  0  0  0  0  0999 V2000
  -15.9477    9.1081  -16.3278 N   0  0  0  0  0  0  0  0  0  0  0  0
  -15.3093    8.8959  -17.6328 C   0  0  2  0  0  0  0  0  0  0  0  0
  -15.9556    7.7228  -18.3216 C   0  0  0  0  0  0  0  0  0  0  0  0
  -16.0504    7.7056  -19.5265 O   0  0  0  0  0  0  0  0  0  0  0  0
  -13.8198    8.6127  -17.4307 C   0  0  0  0  0  0  0  0  0  0  0  0
  -13.1362    8.4812  -18.7905 C   0  0  0  0  0  0  0  0  0  0  0  0
  -13.1160    9.7864  -19.8769 S   0  0  0  0  0  0  0  0  0  0  0  0
  -12.5015   11.4898  -19.9201 C   0  0  0  0  0  0  0  0  0  0  0  0
  -12.8491   12.2651  -21.1967 C   0  0  1  0  0  0  0  0  0  0  0  0
  -12.4133   13.6114  -21.1470 O   0  0  0  0  0  0  0  0  0  0  0  0
  -12.1300   11.7181  -22.4071 C   0  0  1  0  0  0  0  0  0  0  0  0
  -12.9170   12.1167  -23.5081 O   0  0  0  0  0  0  0  0  0  0  0  0
  -10.8225   12.4732  -22.4655 C   0  0  1  0  0  0  0  0  0  0  0  0
  -10.5202   12.7974  -23.8049 O   0  0  0  0  0  0  0  0  0  0  0  0
  -11.1140   13.7414  -21.6927 C   0  0  2  0  0  0  0  0  0  0  0  0
  -16.4297    6.6956  -17.5977 O   0  0  0  0  0  0  0  0  0  0  0  0
   -7.1608   16.6720  -19.9615 N   0  0  0  0  0  0  0  0  0  0  0  0
   -7.7646   16.7064  -21.1961 C   0  0  0  0  0  0  0  0  0  0  0  0
   -8.7929   15.8376  -21.4715 N   0  0  0  0  0  0  0  0  0  0  0  0
   -9.2154   14.9557  -20.5447 C   0  0  0  0  0  0  0  0  0  0  0  0
   -8.6230   14.9049  -19.2969 C   0  0  0  0  0  0  0  0  0  0  0  0
   -7.5797   15.7772  -19.0093 C   0  0  0  0  0  0  0  0  0  0  0  0
   -6.9800   15.7597  -17.8254 N   0  0  0  0  0  0  0  0  0  0  0  0
   -9.2361   13.9395  -18.5762 N   0  0  0  0  0  0  0  0  0  0  0  0
  -10.2000   13.3915  -19.3415 C   0  0  0  0  0  0  0  0  0  0  0  0
  -10.1945   14.0015  -20.5699 N   0  0  0  0  0  0  0  0  0  0  0  0
  2  1  1  1  0  0  0
  2  3  1  0  0  0  0
  2  5  1  0  0  0  0
  3  4  1  0  0  0  0
  3 16  1  0  0  0  0
  5  6  1  0  0  0  0
  6  7  1  0  0  0  0
  7  8  1  0  0  0  0
  9  8  1  1  0  0  0
  9 10  1  0  0  0  0
  9 11  1  0  0  0  0
 10 15  1  0  0  0  0
 11 12  1  6  0  0  0
 11 13  1  0  0  0  0
 13 14  1  6  0  0  0
 13 15  1  0  0  0  0
 15 26  1  1  0  0  0
 17 18  2  0  0  0  0
 17 22  1  0  0  0  0
 18 19  1  0  0  0  0
 19 20  2  0  0  0  0
 20 21  1  0  0  0  0
 20 26  1  0  0  0  0
 21 22  2  0  0  0  0
 21 24  1  0  0  0  0
 22 23  1  0  0  0  0
 24 25  2  0  0  0  0
 25 26  1  0  0  0  0
M  END
>  <CHROM.1>
147.36322379,-176.36237664,61.67029125,60.37601533,-176.79712181,176.59094252
-134.33288774,-11.74084132,12.06449362,-20.00059560,-2.79888298,-0.77597787
-1.37437728

>  <Name>
ligand

>  <RI>
0

>  <Rbt.Current_Directory>
/home/itssahil/PROJECTS/Mol_Feturizer/New_Systems/rnas/3E5E

>  <Rbt.Executable>
rbdock ($Id: //depot/dev/client3/rdock/2013.1/src/exe/rbdock.cxx#4 $)

>  <Rbt.Library>
libRbt.so (2013.1, Build901 2013/11/27)

>  <Rbt.Parameter_File>
/export/apps/rDock/src/rDock_2013.1_src/data/scripts/dock_solv.prm

>  <Rbt.Receptor>
prm/pocket_docking_2.prm

>  <SCORE>
-18.3921

>  <SCORE.INTER>
-14.2773

>  <SCORE.INTER.CONST>
1

>  <SCORE.INTER.POLAR>
0

>  <SCORE.INTER.ROT>
7

>  <SCORE.INTER.SOLV>
17.187

>  <SCORE.INTER.VDW>
-23.5139

>  <SCORE.INTER.norm>
-0.549127

>  <SCORE.INTRA>
-4.11482

>  <SCORE.INTRA.DIHEDRAL>
-7.22647

>  <SCORE.INTRA.DIHEDRAL.0>
10.1225

>  <SCORE.INTRA.POLAR>
0

>  <SCORE.INTRA.POLAR.0>
0

>  <SCORE.INTRA.REPUL>
0

>  <SCORE.INTRA.REPUL.0>
0

>  <SCORE.INTRA.SOLV>
-0.484846

>  <SCORE.INTRA.SOLV.lig_0>
-49.9393

>  <SCORE.INTRA.VDW>
-0.259165

>  <SCORE.INTRA.VDW.0>
-1.75437

>  <SCORE.INTRA.norm>
-0.158262

>  <SCORE.RESTR>
0

>  <SCORE.RESTR.CAVITY>
0

>  <SCORE.RESTR.norm>
0

>  <SCORE.SYSTEM>
0

>  <SCORE.SYSTEM.CONST>
0

>  <SCORE.SYSTEM.DIHEDRAL>
0

>  <SCORE.SYSTEM.SOLV>
0

>  <SCORE.SYSTEM.norm>
0

>  <SCORE.heavy>
26

>  <SCORE.norm>
-0.70739

>  <RMSD>
1.169

$$$$
ligand
 OpenBabel11021811473D
libRbt.so/2013.1/901 2013/11/27
 26 28  0  0  0  0  0  0  0  0999 V2000
  -14.1573    7.0119  -18.3204 N   0  0  0  0  0  0  0  0  0  0  0  0
  -14.5243    8.3383  -17.8088 C   0  0  2  0  0  0  0  0  0  0  0  0
  -15.9733    8.6103  -18.1160 C   0  0  0  0  0  0  0  0  0  0  0  0
  -16.5272    8.0066  -19.0048 O   0  0  0  0  0  0  0  0  0  0  0  0
  -13.6517    9.4013  -18.4782 C   0  0  0  0  0  0  0  0  0  0  0  0
  -13.7815    9.2865  -19.9959 C   0  0  0  0  0  0  0  0  0  0  0  0
  -13.4348   10.6150  -20.9955 S   0  0  0  0  0  0  0  0  0  0  0  0
  -12.6463   12.2389  -20.8473 C   0  0  0  0  0  0  0  0  0  0  0  0
  -12.6641   13.0803  -22.1293 C   0  0  1  0  0  0  0  0  0  0  0  0
  -12.0753   14.3551  -21.9475 O   0  0  0  0  0  0  0  0  0  0  0  0
  -11.8210   12.4677  -23.2226 C   0  0  1  0  0  0  0  0  0  0  0  0
  -12.3466   12.9907  -24.4228 O   0  0  0  0  0  0  0  0  0  0  0  0
  -10.4377   13.0427  -23.0248 C   0  0  1  0  0  0  0  0  0  0  0  0
   -9.8677   13.3518  -24.2779 O   0  0  0  0  0  0  0  0  0  0  0  0
  -10.6950   14.3220  -22.2581 C   0  0  2  0  0  0  0  0  0  0  0  0
  -16.6512    9.5259  -17.4046 O   0  0  0  0  0  0  0  0  0  0  0  0
   -6.5698   16.4109  -19.8429 N   0  0  0  0  0  0  0  0  0  0  0  0
   -6.9170   16.5124  -21.1692 C   0  0  0  0  0  0  0  0  0  0  0  0
   -8.0454   15.8742  -21.6247 N   0  0  0  0  0  0  0  0  0  0  0  0
   -8.8141   15.1530  -20.7855 C   0  0  0  0  0  0  0  0  0  0  0  0
   -8.4838   15.0386  -19.4482 C   0  0  0  0  0  0  0  0  0  0  0  0
   -7.3425   15.6777  -18.9780 C   0  0  0  0  0  0  0  0  0  0  0  0
   -6.9863   15.5909  -17.7024 N   0  0  0  0  0  0  0  0  0  0  0  0
   -9.4163   14.2669  -18.8463 N   0  0  0  0  0  0  0  0  0  0  0  0
  -10.3230   13.9024  -19.7739 C   0  0  0  0  0  0  0  0  0  0  0  0
   -9.9596   14.4335  -20.9850 N   0  0  0  0  0  0  0  0  0  0  0  0
  2  1  1  6  0  0  0
  2  3  1  0  0  0  0
  2  5  1  0  0  0  0
  3  4  1  0  0  0  0
  3 16  1  0  0  0  0
  5  6  1  0  0  0  0
  6  7  1  0  0  0  0
  7  8  1  0  0  0  0
  9  8  1  1  0  0  0
  9 10  1  0  0  0  0
  9 11  1  0  0  0  0
 10 15  1  0  0  0  0
 11 12  1  6  0  0  0
 11 13  1  0  0  0  0
 13 14  1  6  0  0  0
 13 15  1  0  0  0  0
 15 26  1  1  0  0  0
 17 18  2  0  0  0  0
 17 22  1  0  0  0  0
 18 19  1  0  0  0  0
 19 20  2  0  0  0  0
 20 21  1  0  0  0  0
 20 26  1  0  0  0  0
 21 22  2  0  0  0  0
 21 24  1  0  0  0  0
 22 23  1  0  0  0  0
 24 25  2  0  0  0  0
 25 26  1  0  0  0  0
M  END
>  <CHROM.1>
-21.53852894,55.45093614,157.13781300,12.68660006,-177.65554066,178.05816120
-140.71750985,-11.51622533,12.50512562,-20.49810783,-2.78459518,-0.71364338
-1.32528463

>  <Name>
ligand

>  <RI>
0

>  <Rbt.Current_Directory>
/home/itssahil/PROJECTS/Mol_Feturizer/New_Systems/rnas/3E5E

>  <Rbt.Executable>
rbdock ($Id: //depot/dev/client3/rdock/2013.1/src/exe/rbdock.cxx#4 $)

>  <Rbt.Library>
libRbt.so (2013.1, Build901 2013/11/27)

>  <Rbt.Parameter_File>
/export/apps/rDock/src/rDock_2013.1_src/data/scripts/dock_solv.prm

>  <Rbt.Receptor>
prm/pocket_docking_2.prm

>  <SCORE>
-15.5693

>  <SCORE.INTER>
-14.4476

>  <SCORE.INTER.CONST>
1

>  <SCORE.INTER.POLAR>
0

>  <SCORE.INTER.ROT>
7

>  <SCORE.INTER.SOLV>
18.9202

>  <SCORE.INTER.VDW>
-24.2051

>  <SCORE.INTER.norm>
-0.555676

>  <SCORE.INTRA>
-1.22747

>  <SCORE.INTRA.DIHEDRAL>
-3.33332

>  <SCORE.INTRA.DIHEDRAL.0>
10.1225

>  <SCORE.INTRA.POLAR>
0

>  <SCORE.INTRA.POLAR.0>
0

>  <SCORE.INTRA.REPUL>
0

>  <SCORE.INTRA.REPUL.0>
0

>  <SCORE.INTRA.SOLV>
0.148556

>  <SCORE.INTRA.SOLV.lig_0>
-49.9393

>  <SCORE.INTRA.VDW>
0.364913

>  <SCORE.INTRA.VDW.0>
-1.75437

>  <SCORE.INTRA.norm>
-0.0472103

>  <SCORE.RESTR>
0.105774

>  <SCORE.RESTR.CAVITY>
0.105774

>  <SCORE.RESTR.norm>
0.00406823

>  <SCORE.SYSTEM>
0

>  <SCORE.SYSTEM.CONST>
0

>  <SCORE.SYSTEM.DIHEDRAL>
0

>  <SCORE.SYSTEM.SOLV>
0

>  <SCORE.SYSTEM.norm>
0

>  <SCORE.heavy>
26

>  <SCORE.norm>
-0.598818

>  <RMSD>
1.178

$$$$
ligand
 OpenBabel11021811473D
libRbt.so/2013.1/901 2013/11/27
 26 28  0  0  0  0  0  0  0  0999 V2000
  -15.8957    8.9588  -18.2031 N   0  0  0  0  0  0  0  0  0  0  0  0
  -14.5502    8.4456  -17.9171 C   0  0  2  0  0  0  0  0  0  0  0  0
  -14.6155    7.4884  -16.7562 C   0  0  0  0  0  0  0  0  0  0  0  0
  -15.3108    7.7425  -15.8007 O   0  0  0  0  0  0  0  0  0  0  0  0
  -13.6246    9.6117  -17.5665 C   0  0  0  0  0  0  0  0  0  0  0  0
  -13.2382   10.3580  -18.8422 C   0  0  0  0  0  0  0  0  0  0  0  0
  -12.0717    9.7180  -19.8976 S   0  0  0  0  0  0  0  0  0  0  0  0
  -10.8083   10.3362  -21.0389 C   0  0  0  0  0  0  0  0  0  0  0  0
  -11.3518   11.1593  -22.2131 C   0  0  1  0  0  0  0  0  0  0  0  0
  -11.6156   12.5035  -21.8546 O   0  0  0  0  0  0  0  0  0  0  0  0
  -10.3413   11.2954  -23.3275 C   0  0  1  0  0  0  0  0  0  0  0  0
  -11.1077   11.5565  -24.4829 O   0  0  0  0  0  0  0  0  0  0  0  0
   -9.5514   12.5399  -22.9957 C   0  0  1  0  0  0  0  0  0  0  0  0
   -9.3062   13.2757  -24.1744 O   0  0  0  0  0  0  0  0  0  0  0  0
  -10.4867   13.3213  -22.0984 C   0  0  2  0  0  0  0  0  0  0  0  0
  -13.8992    6.3525  -16.7801 O   0  0  0  0  0  0  0  0  0  0  0  0
   -7.4353   16.6648  -19.5053 N   0  0  0  0  0  0  0  0  0  0  0  0
   -7.7002   16.6294  -20.8539 C   0  0  0  0  0  0  0  0  0  0  0  0
   -8.5282   15.6546  -21.3561 N   0  0  0  0  0  0  0  0  0  0  0  0
   -9.0831   14.7363  -20.5412 C   0  0  0  0  0  0  0  0  0  0  0  0
   -8.8308   14.7542  -19.1823 C   0  0  0  0  0  0  0  0  0  0  0  0
   -7.9920   15.7341  -18.6646 C   0  0  0  0  0  0  0  0  0  0  0  0
   -7.7195   15.7856  -17.3666 N   0  0  0  0  0  0  0  0  0  0  0  0
   -9.5071   13.7317  -18.6127 N   0  0  0  0  0  0  0  0  0  0  0  0
  -10.1796   13.0806  -19.5817 C   0  0  0  0  0  0  0  0  0  0  0  0
   -9.9197   13.6828  -20.7862 N   0  0  0  0  0  0  0  0  0  0  0  0
  2  1  1  1  0  0  0
  2  3  1  0  0  0  0
  2  5  1  0  0  0  0
  3  4  1  0  0  0  0
  3 16  1  0  0  0  0
  5  6  1  0  0  0  0
  6  7  1  0  0  0  0
  7  8  1  0  0  0  0
  9  8  1  1  0  0  0
  9 10  1  0  0  0  0
  9 11  1  0  0  0  0
 10 15  1  0  0  0  0
 11 12  1  6  0  0  0
 11 13  1  0  0  0  0
 13 14  1  6  0  0  0
 13 15  1  0  0  0  0
 15 26  1  1  0  0  0
 17 18  2  0  0  0  0
 17 22  1  0  0  0  0
 18 19  1  0  0  0  0
 19 20  2  0  0  0  0
 20 21  1  0  0  0  0
 20 26  1  0  0  0  0
 21 22  2  0  0  0  0
 21 24  1  0  0  0  0
 22 23  1  0  0  0  0
 24 25  2  0  0  0  0
 25 26  1  0  0  0  0
M  END
>  <CHROM.1>
-41.31083285,-76.14998538,-76.89550165,-148.46361830,-62.57633952,81.42280394
-160.24177755,-11.07234651,11.91386172,-20.02726284,-2.90268569,-0.90008923
-1.72240914

>  <Name>
ligand

>  <RI>
0

>  <Rbt.Current_Directory>
/home/itssahil/PROJECTS/Mol_Feturizer/New_Systems/rnas/3E5E

>  <Rbt.Executable>
rbdock ($Id: //depot/dev/client3/rdock/2013.1/src/exe/rbdock.cxx#4 $)

>  <Rbt.Library>
libRbt.so (2013.1, Build901 2013/11/27)

>  <Rbt.Parameter_File>
/export/apps/rDock/src/rDock_2013.1_src/data/scripts/dock_solv.prm

>  <Rbt.Receptor>
prm/pocket_docking_2.prm

>  <SCORE>
-17.2172

>  <SCORE.INTER>
-15.2059

>  <SCORE.INTER.CONST>
1

>  <SCORE.INTER.POLAR>
0

>  <SCORE.INTER.ROT>
7

>  <SCORE.INTER.SOLV>
16.9224

>  <SCORE.INTER.VDW>
-24.0447

>  <SCORE.INTER.norm>
-0.584842

>  <SCORE.INTRA>
-2.06031

>  <SCORE.INTRA.DIHEDRAL>
-2.54643

>  <SCORE.INTRA.DIHEDRAL.0>
10.1225

>  <SCORE.INTRA.POLAR>
0

>  <SCORE.INTRA.POLAR.0>
0

>  <SCORE.INTRA.REPUL>
0

>  <SCORE.INTRA.REPUL.0>
0

>  <SCORE.INTRA.SOLV>
0.291572

>  <SCORE.INTRA.SOLV.lig_0>
-49.9393

>  <SCORE.INTRA.VDW>
-0.932877

>  <SCORE.INTRA.VDW.0>
-1.75437

>  <SCORE.INTRA.norm>
-0.0792426

>  <SCORE.RESTR>
0.0490093

>  <SCORE.RESTR.CAVITY>
0.0490093

>  <SCORE.RESTR.norm>
0.00188497

>  <SCORE.SYSTEM>
0

>  <SCORE.SYSTEM.CONST>
0

>  <SCORE.SYSTEM.DIHEDRAL>
0

>  <SCORE.SYSTEM.SOLV>
0

>  <SCORE.SYSTEM.norm>
0

>  <SCORE.heavy>
26

>  <SCORE.norm>
-0.6622

>  <RMSD>
1.199

$$$$
ligand
 OpenBabel11021811473D
libRbt.so/2013.1/901 2013/11/27
 26 28  0  0  0  0  0  0  0  0999 V2000
  -14.6555    7.9622  -16.4645 N   0  0  0  0  0  0  0  0  0  0  0  0
  -15.2131    8.9280  -17.4195 C   0  0  2  0  0  0  0  0  0  0  0  0
  -16.6717    9.1479  -17.1155 C   0  0  0  0  0  0  0  0  0  0  0  0
  -17.0750    9.0481  -15.9804 O   0  0  0  0  0  0  0  0  0  0  0  0
  -15.0640    8.3824  -18.8407 C   0  0  0  0  0  0  0  0  0  0  0  0
  -13.5916    8.0888  -19.1227 C   0  0  0  0  0  0  0  0  0  0  0  0
  -12.4789    9.3576  -19.3129 S   0  0  0  0  0  0  0  0  0  0  0  0
  -11.6262   10.2059  -20.6673 C   0  0  0  0  0  0  0  0  0  0  0  0
  -12.5151   11.1344  -21.5035 C   0  0  1  0  0  0  0  0  0  0  0  0
  -12.6393   12.4236  -20.9313 O   0  0  0  0  0  0  0  0  0  0  0  0
  -11.9192   11.4199  -22.8618 C   0  0  1  0  0  0  0  0  0  0  0  0
  -13.0167   11.7813  -23.6713 O   0  0  0  0  0  0  0  0  0  0  0  0
  -11.0558   12.6443  -22.6658 C   0  0  1  0  0  0  0  0  0  0  0  0
  -11.2006   13.5099  -23.7705 O   0  0  0  0  0  0  0  0  0  0  0  0
  -11.6446   13.2962  -21.4334 C   0  0  2  0  0  0  0  0  0  0  0  0
  -17.5264    9.4527  -18.1056 O   0  0  0  0  0  0  0  0  0  0  0  0
   -7.5780   16.1404  -19.8248 N   0  0  0  0  0  0  0  0  0  0  0  0
   -8.2251   16.1955  -21.0366 C   0  0  0  0  0  0  0  0  0  0  0  0
   -9.2786   15.3479  -21.2810 N   0  0  0  0  0  0  0  0  0  0  0  0
   -9.6837   14.4665  -20.3459 C   0  0  0  0  0  0  0  0  0  0  0  0
   -9.0479   14.3951  -19.1208 C   0  0  0  0  0  0  0  0  0  0  0  0
   -7.9789   15.2458  -18.8647 C   0  0  0  0  0  0  0  0  0  0  0  0
   -7.3374   15.2080  -17.7034 N   0  0  0  0  0  0  0  0  0  0  0  0
   -9.6524   13.4354  -18.3854 N   0  0  0  0  0  0  0  0  0  0  0  0
  -10.6532   12.9110  -19.1193 C   0  0  0  0  0  0  0  0  0  0  0  0
  -10.6806   13.5306  -20.3426 N   0  0  0  0  0  0  0  0  0  0  0  0
  2  1  1  1  0  0  0
  2  3  1  0  0  0  0
  2  5  1  0  0  0  0
  3  4  1  0  0  0  0
  3 16  1  0  0  0  0
  5  6  1  0  0  0  0
  6  7  1  0  0  0  0
  7  8  1  0  0  0  0
  9  8  1  1  0  0  0
  9 10  1  0  0  0  0
  9 11  1  0  0  0  0
 10 15  1  0  0  0  0
 11 12  1  6  0  0  0
 11 13  1  0  0  0  0
 13 14  1  6  0  0  0
 13 15  1  0  0  0  0
 15 26  1  1  0  0  0
 17 18  2  0  0  0  0
 17 22  1  0  0  0  0
 18 19  1  0  0  0  0
 19 20  2  0  0  0  0
 20 21  1  0  0  0  0
 20 26  1  0  0  0  0
 21 22  2  0  0  0  0
 21 24  1  0  0  0  0
 22 23  1  0  0  0  0
 24 25  2  0  0  0  0
 25 26  1  0  0  0  0
M  END
>  <CHROM.1>
30.28996349,-57.04399895,-70.68409793,-102.44567261,73.11569348,84.75028552
-169.58453639,-11.98080243,11.86592958,-19.83449545,-2.80262540,-0.72391831
-1.48780581

>  <Name>
ligand

>  <RI>
0

>  <Rbt.Current_Directory>
/home/itssahil/PROJECTS/Mol_Feturizer/New_Systems/rnas/3E5E

>  <Rbt.Executable>
rbdock ($Id: //depot/dev/client3/rdock/2013.1/src/exe/rbdock.cxx#4 $)

>  <Rbt.Library>
libRbt.so (2013.1, Build901 2013/11/27)

>  <Rbt.Parameter_File>
/export/apps/rDock/src/rDock_2013.1_src/data/scripts/dock_solv.prm

>  <Rbt.Receptor>
prm/pocket_docking_2.prm

>  <SCORE>
-15.4596

>  <SCORE.INTER>
-14.6095

>  <SCORE.INTER.CONST>
1

>  <SCORE.INTER.POLAR>
0

>  <SCORE.INTER.ROT>
7

>  <SCORE.INTER.SOLV>
18.0357

>  <SCORE.INTER.VDW>
-24.0183

>  <SCORE.INTER.norm>
-0.561905

>  <SCORE.INTRA>
-0.855829

>  <SCORE.INTRA.DIHEDRAL>
-2.80885

>  <SCORE.INTRA.DIHEDRAL.0>
10.1225

>  <SCORE.INTRA.POLAR>
0

>  <SCORE.INTRA.POLAR.0>
0

>  <SCORE.INTRA.REPUL>
0

>  <SCORE.INTRA.REPUL.0>
0

>  <SCORE.INTRA.SOLV>
0.745997

>  <SCORE.INTRA.SOLV.lig_0>
-49.9393

>  <SCORE.INTRA.VDW>
0.175595

>  <SCORE.INTRA.VDW.0>
-1.75437

>  <SCORE.INTRA.norm>
-0.0329165

>  <SCORE.RESTR>
0.00579827

>  <SCORE.RESTR.CAVITY>
0.00579827

>  <SCORE.RESTR.norm>
0.00022301

>  <SCORE.SYSTEM>
0

>  <SCORE.SYSTEM.CONST>
0

>  <SCORE.SYSTEM.DIHEDRAL>
0

>  <SCORE.SYSTEM.SOLV>
0

>  <SCORE.SYSTEM.norm>
0

>  <SCORE.heavy>
26

>  <SCORE.norm>
-0.594599

>  <RMSD>
1.203

$$$$
ligand
 OpenBabel11021811473D
libRbt.so/2013.1/901 2013/11/27
 26 28  0  0  0  0  0  0  0  0999 V2000
  -15.9115    6.3043  -17.9906 N   0  0  0  0  0  0  0  0  0  0  0  0
  -15.2990    7.6094  -17.7130 C   0  0  2  0  0  0  0  0  0  0  0  0
  -15.8460    8.1545  -16.4200 C   0  0  0  0  0  0  0  0  0  0  0  0
  -17.0388    8.2863  -16.2753 O   0  0  0  0  0  0  0  0  0  0  0  0
  -15.6231    8.5765  -18.8530 C   0  0  0  0  0  0  0  0  0  0  0  0
  -14.5681    8.4442  -19.9499 C   0  0  0  0  0  0  0  0  0  0  0  0
  -13.0424    9.1686  -19.7726 S   0  0  0  0  0  0  0  0  0  0  0  0
  -12.2988   10.8063  -19.9879 C   0  0  0  0  0  0  0  0  0  0  0  0
  -12.2879   11.3212  -21.4323 C   0  0  1  0  0  0  0  0  0  0  0  0
  -11.8816   12.6747  -21.5206 O   0  0  0  0  0  0  0  0  0  0  0  0
  -11.2681   10.6026  -22.2839 C   0  0  1  0  0  0  0  0  0  0  0  0
  -11.7278   10.7568  -23.6088 O   0  0  0  0  0  0  0  0  0  0  0  0
   -9.9935   11.3998  -22.1324 C   0  0  1  0  0  0  0  0  0  0  0  0
   -9.3400   11.4930  -23.3793 O   0  0  0  0  0  0  0  0  0  0  0  0
  -10.4831   12.7699  -21.7155 C   0  0  2  0  0  0  0  0  0  0  0  0
  -15.0089    8.4973  -15.4272 O   0  0  0  0  0  0  0  0  0  0  0  0
   -7.6462   16.5435  -19.4963 N   0  0  0  0  0  0  0  0  0  0  0  0
   -7.9574   16.3874  -20.8263 C   0  0  0  0  0  0  0  0  0  0  0  0
   -8.7136   15.3109  -21.2230 N   0  0  0  0  0  0  0  0  0  0  0  0
   -9.1536   14.4101  -20.3230 C   0  0  0  0  0  0  0  0  0  0  0  0
   -8.8531   14.5485  -18.9809 C   0  0  0  0  0  0  0  0  0  0  0  0
   -8.0859   15.6321  -18.5696 C   0  0  0  0  0  0  0  0  0  0  0  0
   -7.7706   15.8013  -17.2914 N   0  0  0  0  0  0  0  0  0  0  0  0
   -9.4139   13.5158  -18.3128 N   0  0  0  0  0  0  0  0  0  0  0  0
  -10.0616   12.7404  -19.2041 C   0  0  0  0  0  0  0  0  0  0  0  0
   -9.9017   13.2734  -20.4576 N   0  0  0  0  0  0  0  0  0  0  0  0
  2  1  1  6  0  0  0
  2  3  1  0  0  0  0
  2  5  1  0  0  0  0
  3  4  1  0  0  0  0
  3 16  1  0  0  0  0
  5  6  1  0  0  0  0
  6  7  1  0  0  0  0
  7  8  1  0  0  0  0
  9  8  1  1  0  0  0
  9 10  1  0  0  0  0
  9 11  1  0  0  0  0
 10 15  1  0  0  0  0
 11 12  1  6  0  0  0
 11 13  1  0  0  0  0
 13 14  1  6  0  0  0
 13 15  1  0  0  0  0
 15 26  1  1  0  0  0
 17 18  2  0  0  0  0
 17 22  1  0  0  0  0
 18 19  1  0  0  0  0
 19 20  2  0  0  0  0
 20 21  1  0  0  0  0
 20 26  1  0  0  0  0
 21 22  2  0  0  0  0
 21 24  1  0  0  0  0
 22 23  1  0  0  0  0
 24 25  2  0  0  0  0
 25 26  1  0  0  0  0
M  END
>  <CHROM.1>
-55.82339382,-87.69224364,-78.02832308,-81.34458138,-64.80913049,171.24905821
-121.96485368,-11.66426712,11.52328881,-19.75068661,3.11286753,0.81499092
1.26773446

>  <Name>
ligand

>  <RI>
0

>  <Rbt.Current_Directory>
/home/itssahil/PROJECTS/Mol_Feturizer/New_Systems/rnas/3E5E

>  <Rbt.Executable>
rbdock ($Id: //depot/dev/client3/rdock/2013.1/src/exe/rbdock.cxx#4 $)

>  <Rbt.Library>
libRbt.so (2013.1, Build901 2013/11/27)

>  <Rbt.Parameter_File>
/export/apps/rDock/src/rDock_2013.1_src/data/scripts/dock_solv.prm

>  <Rbt.Receptor>
prm/pocket_docking_2.prm

>  <SCORE>
-13.6388

>  <SCORE.INTER>
-11.6599

>  <SCORE.INTER.CONST>
1

>  <SCORE.INTER.POLAR>
0

>  <SCORE.INTER.ROT>
7

>  <SCORE.INTER.SOLV>
15.1744

>  <SCORE.INTER.VDW>
-21.0981

>  <SCORE.INTER.norm>
-0.448458

>  <SCORE.INTRA>
-1.9789

>  <SCORE.INTRA.DIHEDRAL>
-2.71899

>  <SCORE.INTRA.DIHEDRAL.0>
10.1225

>  <SCORE.INTRA.POLAR>
0

>  <SCORE.INTRA.POLAR.0>
0

>  <SCORE.INTRA.REPUL>
0

>  <SCORE.INTRA.REPUL.0>
0

>  <SCORE.INTRA.SOLV>
-0.00479928

>  <SCORE.INTRA.SOLV.lig_0>
-49.9393

>  <SCORE.INTRA.VDW>
-0.617005

>  <SCORE.INTRA.VDW.0>
-1.75437

>  <SCORE.INTRA.norm>
-0.0761115

>  <SCORE.RESTR>
0

>  <SCORE.RESTR.CAVITY>
0

>  <SCORE.RESTR.norm>
0

>  <SCORE.SYSTEM>
0

>  <SCORE.SYSTEM.CONST>
0

>  <SCORE.SYSTEM.DIHEDRAL>
0

>  <SCORE.SYSTEM.SOLV>
0

>  <SCORE.SYSTEM.norm>
0

>  <SCORE.heavy>
26

>  <SCORE.norm>
-0.524569

>  <RMSD>
1.208

$$$$
ligand
 OpenBabel11021811473D
libRbt.so/2013.1/901 2013/11/27
 26 28  0  0  0  0  0  0  0  0999 V2000
  -14.6629    9.6224  -15.8090 N   0  0  0  0  0  0  0  0  0  0  0  0
  -15.2664    9.5097  -17.1426 C   0  0  2  0  0  0  0  0  0  0  0  0
  -16.7368    9.2149  -17.0037 C   0  0  0  0  0  0  0  0  0  0  0  0
  -17.4856    9.4218  -17.9297 O   0  0  0  0  0  0  0  0  0  0  0  0
  -14.5886    8.3760  -17.9139 C   0  0  0  0  0  0  0  0  0  0  0  0
  -13.2097    8.8333  -18.3863 C   0  0  0  0  0  0  0  0  0  0  0  0
  -13.0458   10.2073  -19.3707 S   0  0  0  0  0  0  0  0  0  0  0  0
  -12.1057   10.7063  -20.8365 C   0  0  0  0  0  0  0  0  0  0  0  0
  -12.8009   11.7489  -21.7204 C   0  0  1  0  0  0  0  0  0  0  0  0
  -12.7586   13.0481  -21.1591 O   0  0  0  0  0  0  0  0  0  0  0  0
  -12.1004   11.9271  -23.0467 C   0  0  1  0  0  0  0  0  0  0  0  0
  -13.0883   12.4406  -23.9132 O   0  0  0  0  0  0  0  0  0  0  0  0
  -11.0736   13.0100  -22.8096 C   0  0  1  0  0  0  0  0  0  0  0  0
  -11.0300   13.8757  -23.9228 O   0  0  0  0  0  0  0  0  0  0  0  0
  -11.6196   13.7560  -21.6113 C   0  0  2  0  0  0  0  0  0  0  0  0
  -17.2182    8.7243  -15.8498 O   0  0  0  0  0  0  0  0  0  0  0  0
   -7.3645   16.1135  -19.7271 N   0  0  0  0  0  0  0  0  0  0  0  0
   -7.9462   16.2741  -20.9624 C   0  0  0  0  0  0  0  0  0  0  0  0
   -9.0676   15.5476  -21.2826 N   0  0  0  0  0  0  0  0  0  0  0  0
   -9.6026   14.6827  -20.3989 C   0  0  0  0  0  0  0  0  0  0  0  0
   -9.0344   14.5066  -19.1512 C   0  0  0  0  0  0  0  0  0  0  0  0
   -7.8978   15.2342  -18.8186 C   0  0  0  0  0  0  0  0  0  0  0  0
   -7.3176   15.0930  -17.6332 N   0  0  0  0  0  0  0  0  0  0  0  0
   -9.7663   13.5907  -18.4782 N   0  0  0  0  0  0  0  0  0  0  0  0
  -10.7801   13.1961  -19.2729 C   0  0  0  0  0  0  0  0  0  0  0  0
  -10.6882   13.8546  -20.4725 N   0  0  0  0  0  0  0  0  0  0  0  0
  2  1  1  1  0  0  0
  2  3  1  0  0  0  0
  2  5  1  0  0  0  0
  3  4  1  0  0  0  0
  3 16  1  0  0  0  0
  5  6  1  0  0  0  0
  6  7  1  0  0  0  0
  7  8  1  0  0  0  0
  9  8  1  1  0  0  0
  9 10  1  0  0  0  0
  9 11  1  0  0  0  0
 10 15  1  0  0  0  0
 11 12  1  6  0  0  0
 11 13  1  0  0  0  0
 13 14  1  6  0  0  0
 13 15  1  0  0  0  0
 15 26  1  1  0  0  0
 17 18  2  0  0  0  0
 17 22  1  0  0  0  0
 18 19  1  0  0  0  0
 19 20  2  0  0  0  0
 20 21  1  0  0  0  0
 20 26  1  0  0  0  0
 21 22  2  0  0  0  0
 21 24  1  0  0  0  0
 22 23  1  0  0  0  0
 24 25  2  0  0  0  0
 25 26  1  0  0  0  0
M  END
>  <CHROM.1>
160.79113080,-75.38766141,-57.62390511,-137.24082820,150.51157408,75.35557414
-165.89136094,-12.01796632,12.23360651,-19.79035234,-2.68870373,-0.65943808
-1.40551999

>  <Name>
ligand

>  <RI>
0

>  <Rbt.Current_Directory>
/home/itssahil/PROJECTS/Mol_Feturizer/New_Systems/rnas/3E5E

>  <Rbt.Executable>
rbdock ($Id: //depot/dev/client3/rdock/2013.1/src/exe/rbdock.cxx#4 $)

>  <Rbt.Library>
libRbt.so (2013.1, Build901 2013/11/27)

>  <Rbt.Parameter_File>
/export/apps/rDock/src/rDock_2013.1_src/data/scripts/dock_solv.prm

>  <Rbt.Receptor>
prm/pocket_docking_3.prm

>  <SCORE>
-17.0961

>  <SCORE.INTER>
-15.4843

>  <SCORE.INTER.CONST>
1

>  <SCORE.INTER.POLAR>
0

>  <SCORE.INTER.ROT>
7

>  <SCORE.INTER.SOLV>
19.7226

>  <SCORE.INTER.VDW>
-25.1638

>  <SCORE.INTER.norm>
-0.595551

>  <SCORE.INTRA>
-1.61177

>  <SCORE.INTRA.DIHEDRAL>
-2.512

>  <SCORE.INTRA.DIHEDRAL.0>
10.1225

>  <SCORE.INTRA.POLAR>
0

>  <SCORE.INTRA.POLAR.0>
0

>  <SCORE.INTRA.REPUL>
0

>  <SCORE.INTRA.REPUL.0>
0

>  <SCORE.INTRA.SOLV>
0.578017

>  <SCORE.INTRA.SOLV.lig_0>
-49.9393

>  <SCORE.INTRA.VDW>
-0.644777

>  <SCORE.INTRA.VDW.0>
-1.75437

>  <SCORE.INTRA.norm>
-0.0619912

>  <SCORE.RESTR>
0

>  <SCORE.RESTR.CAVITY>
0

>  <SCORE.RESTR.norm>
0

>  <SCORE.SYSTEM>
0

>  <SCORE.SYSTEM.CONST>
0

>  <SCORE.SYSTEM.DIHEDRAL>
0

>  <SCORE.SYSTEM.SOLV>
0

>  <SCORE.SYSTEM.norm>
0

>  <SCORE.heavy>
26

>  <SCORE.norm>
-0.657543

>  <RMSD>
1.217

$$$$
ligand
 OpenBabel11021811473D
libRbt.so/2013.1/901 2013/11/27
 26 28  0  0  0  0  0  0  0  0999 V2000
  -15.7890    6.9967  -17.7563 N   0  0  0  0  0  0  0  0  0  0  0  0
  -15.7216    8.4147  -17.3818 C   0  0  2  0  0  0  0  0  0  0  0  0
  -17.1147    8.9390  -17.1525 C   0  0  0  0  0  0  0  0  0  0  0  0
  -17.4132    9.4164  -16.0829 O   0  0  0  0  0  0  0  0  0  0  0  0
  -15.0562    9.2075  -18.5081 C   0  0  0  0  0  0  0  0  0  0  0  0
  -13.5957    8.7794  -18.6397 C   0  0  0  0  0  0  0  0  0  0  0  0
  -12.5487    9.5950  -19.6992 S   0  0  0  0  0  0  0  0  0  0  0  0
  -11.9001   11.2715  -19.9220 C   0  0  0  0  0  0  0  0  0  0  0  0
  -12.5848   12.0826  -21.0288 C   0  0  1  0  0  0  0  0  0  0  0  0
  -12.3800   13.4761  -20.8832 O   0  0  0  0  0  0  0  0  0  0  0  0
  -11.9998   11.7922  -22.3908 C   0  0  1  0  0  0  0  0  0  0  0  0
  -13.0180   12.1370  -23.3045 O   0  0  0  0  0  0  0  0  0  0  0  0
  -10.8674   12.7791  -22.5538 C   0  0  1  0  0  0  0  0  0  0  0  0
  -10.8558   13.2755  -23.8745 O   0  0  0  0  0  0  0  0  0  0  0  0
  -11.2329   13.8947  -21.5986 C   0  0  2  0  0  0  0  0  0  0  0  0
  -18.0278    8.8741  -18.1353 O   0  0  0  0  0  0  0  0  0  0  0  0
   -7.0504   16.8292  -20.5453 N   0  0  0  0  0  0  0  0  0  0  0  0
   -7.7812   16.7809  -21.7088 C   0  0  0  0  0  0  0  0  0  0  0  0
   -8.8530   15.9260  -21.8004 N   0  0  0  0  0  0  0  0  0  0  0  0
   -9.1951   15.1378  -20.7626 C   0  0  0  0  0  0  0  0  0  0  0  0
   -8.4746   15.1712  -19.5834 C   0  0  0  0  0  0  0  0  0  0  0  0
   -7.3865   16.0301  -19.4816 C   0  0  0  0  0  0  0  0  0  0  0  0
   -6.6648   16.0912  -18.3694 N   0  0  0  0  0  0  0  0  0  0  0  0
   -9.0300   14.2890  -18.7229 N   0  0  0  0  0  0  0  0  0  0  0  0
  -10.0824   13.7110  -19.3340 C   0  0  0  0  0  0  0  0  0  0  0  0
  -10.1934   14.2169  -20.6039 N   0  0  0  0  0  0  0  0  0  0  0  0
  2  1  1  6  0  0  0
  2  3  1  0  0  0  0
  2  5  1  0  0  0  0
  3  4  1  0  0  0  0
  3 16  1  0  0  0  0
  5  6  1  0  0  0  0
  6  7  1  0  0  0  0
  7  8  1  0  0  0  0
  9  8  1  1  0  0  0
  9 10  1  0  0  0  0
  9 11  1  0  0  0  0
 10 15  1  0  0  0  0
 11 12  1  6  0  0  0
 11 13  1  0  0  0  0
 13 14  1  6  0  0  0
 13 15  1  0  0  0  0
 15 26  1  1  0  0  0
 17 18  2  0  0  0  0
 17 22  1  0  0  0  0
 18 19  1  0  0  0  0
 19 20  2  0  0  0  0
 20 21  1  0  0  0  0
 20 26  1  0  0  0  0
 21 22  2  0  0  0  0
 21 24  1  0  0  0  0
 22 23  1  0  0  0  0
 24 25  2  0  0  0  0
 25 26  1  0  0  0  0
M  END
>  <CHROM.1>
121.73088098,-66.11488693,-173.65596004,60.54776480,-101.22527312,160.28786897
-150.81846754,-11.87797423,12.28791128,-19.98840348,-2.82748848,-0.71481403
-1.49810033

>  <Name>
ligand

>  <RI>
0

>  <Rbt.Current_Directory>
/home/itssahil/PROJECTS/Mol_Feturizer/New_Systems/rnas/3E5E

>  <Rbt.Executable>
rbdock ($Id: //depot/dev/client3/rdock/2013.1/src/exe/rbdock.cxx#4 $)

>  <Rbt.Library>
libRbt.so (2013.1, Build901 2013/11/27)

>  <Rbt.Parameter_File>
/export/apps/rDock/src/rDock_2013.1_src/data/scripts/dock_solv.prm

>  <Rbt.Receptor>
prm/pocket_docking_2.prm

>  <SCORE>
-16.5429

>  <SCORE.INTER>
-14.273

>  <SCORE.INTER.CONST>
1

>  <SCORE.INTER.POLAR>
0

>  <SCORE.INTER.ROT>
7

>  <SCORE.INTER.SOLV>
15.9825

>  <SCORE.INTER.VDW>
-23.1095

>  <SCORE.INTER.norm>
-0.548962

>  <SCORE.INTRA>
-2.28849

>  <SCORE.INTRA.DIHEDRAL>
-3.91609

>  <SCORE.INTRA.DIHEDRAL.0>
10.1225

>  <SCORE.INTRA.POLAR>
0

>  <SCORE.INTRA.POLAR.0>
0

>  <SCORE.INTRA.REPUL>
0

>  <SCORE.INTRA.REPUL.0>
0

>  <SCORE.INTRA.SOLV>
0.00408219

>  <SCORE.INTRA.SOLV.lig_0>
-49.9393

>  <SCORE.INTRA.VDW>
-0.332483

>  <SCORE.INTRA.VDW.0>
-1.75437

>  <SCORE.INTRA.norm>
-0.0880188

>  <SCORE.RESTR>
0.0185824

>  <SCORE.RESTR.CAVITY>
0.0185824

>  <SCORE.RESTR.norm>
0.000714707

>  <SCORE.SYSTEM>
0

>  <SCORE.SYSTEM.CONST>
0

>  <SCORE.SYSTEM.DIHEDRAL>
0

>  <SCORE.SYSTEM.SOLV>
0

>  <SCORE.SYSTEM.norm>
0

>  <SCORE.heavy>
26

>  <SCORE.norm>
-0.636267

>  <RMSD>
1.220

$$$$
ligand
 OpenBabel11021811473D
libRbt.so/2013.1/901 2013/11/27
 26 28  0  0  0  0  0  0  0  0999 V2000
  -14.8168    6.8750  -18.1951 N   0  0  0  0  0  0  0  0  0  0  0  0
  -14.1059    8.1314  -17.9272 C   0  0  2  0  0  0  0  0  0  0  0  0
  -14.9710    9.0250  -17.0780 C   0  0  0  0  0  0  0  0  0  0  0  0
  -16.0936    9.2968  -17.4342 O   0  0  0  0  0  0  0  0  0  0  0  0
  -13.7928    8.8312  -19.2509 C   0  0  0  0  0  0  0  0  0  0  0  0
  -13.0528   10.1387  -18.9743 C   0  0  0  0  0  0  0  0  0  0  0  0
  -12.4689   11.0883  -20.2554 S   0  0  0  0  0  0  0  0  0  0  0  0
  -11.3348   10.9053  -21.6559 C   0  0  0  0  0  0  0  0  0  0  0  0
  -11.6058   11.8547  -22.8294 C   0  0  1  0  0  0  0  0  0  0  0  0
  -11.6470   13.2120  -22.4281 O   0  0  0  0  0  0  0  0  0  0  0  0
  -10.4897   11.8334  -23.8469 C   0  0  1  0  0  0  0  0  0  0  0  0
  -11.0849   12.2728  -25.0481 O   0  0  0  0  0  0  0  0  0  0  0  0
   -9.5161   12.8941  -23.3886 C   0  0  1  0  0  0  0  0  0  0  0  0
   -9.0313   13.6084  -24.5046 O   0  0  0  0  0  0  0  0  0  0  0  0
  -10.3682   13.8086  -22.5354 C   0  0  2  0  0  0  0  0  0  0  0  0
  -14.4951    9.5233  -15.9250 O   0  0  0  0  0  0  0  0  0  0  0  0
   -7.3412   16.7333  -19.4536 N   0  0  0  0  0  0  0  0  0  0  0  0
   -7.5255   16.8424  -20.8116 C   0  0  0  0  0  0  0  0  0  0  0  0
   -8.3619   15.9620  -21.4545 N   0  0  0  0  0  0  0  0  0  0  0  0
   -9.0031   14.9961  -20.7681 C   0  0  0  0  0  0  0  0  0  0  0  0
   -8.8328   14.8691  -19.4023 C   0  0  0  0  0  0  0  0  0  0  0  0
   -7.9863   15.7526  -18.7429 C   0  0  0  0  0  0  0  0  0  0  0  0
   -7.7908   15.6640  -17.4331 N   0  0  0  0  0  0  0  0  0  0  0  0
   -9.5846   13.8294  -18.9768 N   0  0  0  0  0  0  0  0  0  0  0  0
  -10.2241   13.3089  -20.0423 C   0  0  0  0  0  0  0  0  0  0  0  0
   -9.8669   14.0127  -21.1640 N   0  0  0  0  0  0  0  0  0  0  0  0
  2  1  1  6  0  0  0
  2  3  1  0  0  0  0
  2  5  1  0  0  0  0
  3  4  1  0  0  0  0
  3 16  1  0  0  0  0
  5  6  1  0  0  0  0
  6  7  1  0  0  0  0
  7  8  1  0  0  0  0
  9  8  1  1  0  0  0
  9 10  1  0  0  0  0
  9 11  1  0  0  0  0
 10 15  1  0  0  0  0
 11 12  1  6  0  0  0
 11 13  1  0  0  0  0
 13 14  1  6  0  0  0
 13 15  1  0  0  0  0
 15 26  1  1  0  0  0
 17 18  2  0  0  0  0
 17 22  1  0  0  0  0
 18 19  1  0  0  0  0
 19 20  2  0  0  0  0
 20 21  1  0  0  0  0
 20 26  1  0  0  0  0
 21 22  2  0  0  0  0
 21 24  1  0  0  0  0
 22 23  1  0  0  0  0
 24 25  2  0  0  0  0
 25 26  1  0  0  0  0
M  END
>  <CHROM.1>
-54.19764031,-179.98735809,175.54435797,-58.61305726,155.07978782,53.95809409
-151.18859271,-11.12407247,12.37579795,-20.38519791,2.87795954,0.84190484
1.44300320

>  <Name>
ligand

>  <RI>
0

>  <Rbt.Current_Directory>
/home/itssahil/PROJECTS/Mol_Feturizer/New_Systems/rnas/3E5E

>  <Rbt.Executable>
rbdock ($Id: //depot/dev/client3/rdock/2013.1/src/exe/rbdock.cxx#4 $)

>  <Rbt.Library>
libRbt.so (2013.1, Build901 2013/11/27)

>  <Rbt.Parameter_File>
/export/apps/rDock/src/rDock_2013.1_src/data/scripts/dock_solv.prm

>  <Rbt.Receptor>
prm/pocket_docking_2.prm

>  <SCORE>
-16.9131

>  <SCORE.INTER>
-13.2947

>  <SCORE.INTER.CONST>
1

>  <SCORE.INTER.POLAR>
0

>  <SCORE.INTER.ROT>
7

>  <SCORE.INTER.SOLV>
15.5208

>  <SCORE.INTER.VDW>
-22.3034

>  <SCORE.INTER.norm>
-0.511336

>  <SCORE.INTRA>
-3.63115

>  <SCORE.INTRA.DIHEDRAL>
-6.24029

>  <SCORE.INTRA.DIHEDRAL.0>
10.1225

>  <SCORE.INTRA.POLAR>
0

>  <SCORE.INTRA.POLAR.0>
0

>  <SCORE.INTRA.REPUL>
0

>  <SCORE.INTRA.REPUL.0>
0

>  <SCORE.INTRA.SOLV>
-0.56676

>  <SCORE.INTRA.SOLV.lig_0>
-49.9393

>  <SCORE.INTRA.VDW>
-0.227624

>  <SCORE.INTRA.VDW.0>
-1.75437

>  <SCORE.INTRA.norm>
-0.13966

>  <SCORE.RESTR>
0.0127813

>  <SCORE.RESTR.CAVITY>
0.0127813

>  <SCORE.RESTR.norm>
0.000491589

>  <SCORE.SYSTEM>
0

>  <SCORE.SYSTEM.CONST>
0

>  <SCORE.SYSTEM.DIHEDRAL>
0

>  <SCORE.SYSTEM.SOLV>
0

>  <SCORE.SYSTEM.norm>
0

>  <SCORE.heavy>
26

>  <SCORE.norm>
-0.650504

>  <RMSD>
1.231

$$$$
ligand
 OpenBabel11021811473D
libRbt.so/2013.1/901 2013/11/27
 26 28  0  0  0  0  0  0  0  0999 V2000
  -15.7115    7.2090  -18.6728 N   0  0  0  0  0  0  0  0  0  0  0  0
  -14.6871    7.2519  -17.6219 C   0  0  2  0  0  0  0  0  0  0  0  0
  -15.2185    8.0117  -16.4352 C   0  0  0  0  0  0  0  0  0  0  0  0
  -14.8079    7.7651  -15.3254 O   0  0  0  0  0  0  0  0  0  0  0  0
  -13.4368    7.9511  -18.1582 C   0  0  0  0  0  0  0  0  0  0  0  0
  -13.7692    9.4035  -18.4951 C   0  0  0  0  0  0  0  0  0  0  0  0
  -12.5906   10.4263  -19.1650 S   0  0  0  0  0  0  0  0  0  0  0  0
  -11.8622   10.7539  -20.7908 C   0  0  0  0  0  0  0  0  0  0  0  0
  -12.6322   11.7671  -21.6465 C   0  0  1  0  0  0  0  0  0  0  0  0
  -12.6217   13.0671  -21.0854 O   0  0  0  0  0  0  0  0  0  0  0  0
  -11.9900   11.9736  -22.9980 C   0  0  1  0  0  0  0  0  0  0  0  0
  -13.0300   12.4462  -23.8259 O   0  0  0  0  0  0  0  0  0  0  0  0
  -11.0001   13.0975  -22.7983 C   0  0  1  0  0  0  0  0  0  0  0  0
  -11.0338   13.9641  -23.9112 O   0  0  0  0  0  0  0  0  0  0  0  0
  -11.5304   13.8208  -21.5792 C   0  0  2  0  0  0  0  0  0  0  0  0
  -16.1513    8.9625  -16.6082 O   0  0  0  0  0  0  0  0  0  0  0  0
   -7.2313   16.2581  -19.9085 N   0  0  0  0  0  0  0  0  0  0  0  0
   -7.8559   16.3800  -21.1272 C   0  0  0  0  0  0  0  0  0  0  0  0
   -8.9822   15.6375  -21.3883 N   0  0  0  0  0  0  0  0  0  0  0  0
   -9.4803   14.7944  -20.4630 C   0  0  0  0  0  0  0  0  0  0  0  0
   -8.8686   14.6572  -19.2311 C   0  0  0  0  0  0  0  0  0  0  0  0
   -7.7268   15.4012  -18.9581 C   0  0  0  0  0  0  0  0  0  0  0  0
   -7.1055   15.2973  -17.7898 N   0  0  0  0  0  0  0  0  0  0  0  0
   -9.5702   13.7559  -18.5081 N   0  0  0  0  0  0  0  0  0  0  0  0
  -10.6076   13.3325  -19.2563 C   0  0  0  0  0  0  0  0  0  0  0  0
  -10.5615   13.9575  -20.4763 N   0  0  0  0  0  0  0  0  0  0  0  0
  2  1  1  6  0  0  0
  2  3  1  0  0  0  0
  2  5  1  0  0  0  0
  3  4  1  0  0  0  0
  3 16  1  0  0  0  0
  5  6  1  0  0  0  0
  6  7  1  0  0  0  0
  7  8  1  0  0  0  0
  9  8  1  1  0  0  0
  9 10  1  0  0  0  0
  9 11  1  0  0  0  0
 10 15  1  0  0  0  0
 11 12  1  6  0  0  0
 11 13  1  0  0  0  0
 13 14  1  6  0  0  0
 13 15  1  0  0  0  0
 15 26  1  1  0  0  0
 17 18  2  0  0  0  0
 17 22  1  0  0  0  0
 18 19  1  0  0  0  0
 19 20  2  0  0  0  0
 20 21  1  0  0  0  0
 20 26  1  0  0  0  0
 21 22  2  0  0  0  0
 21 24  1  0  0  0  0
 22 23  1  0  0  0  0
 24 25  2  0  0  0  0
 25 26  1  0  0  0  0
M  END
>  <CHROM.1>
152.13424688,63.75540670,-177.89083668,80.52686715,86.14243800,65.62945479
-168.43897341,-11.68396483,12.05236952,-19.82941056,2.56678214,0.75514311
1.89233216

>  <Name>
ligand

>  <RI>
0

>  <Rbt.Current_Directory>
/home/itssahil/PROJECTS/Mol_Feturizer/New_Systems/rnas/3E5E

>  <Rbt.Executable>
rbdock ($Id: //depot/dev/client3/rdock/2013.1/src/exe/rbdock.cxx#4 $)

>  <Rbt.Library>
libRbt.so (2013.1, Build901 2013/11/27)

>  <Rbt.Parameter_File>
/export/apps/rDock/src/rDock_2013.1_src/data/scripts/dock_solv.prm

>  <Rbt.Receptor>
prm/pocket_docking_3.prm

>  <SCORE>
-18.5698

>  <SCORE.INTER>
-15.9062

>  <SCORE.INTER.CONST>
1

>  <SCORE.INTER.POLAR>
0

>  <SCORE.INTER.ROT>
7

>  <SCORE.INTER.SOLV>
17.1095

>  <SCORE.INTER.VDW>
-24.574

>  <SCORE.INTER.norm>
-0.611778

>  <SCORE.INTRA>
-2.66355

>  <SCORE.INTRA.DIHEDRAL>
-5.59181

>  <SCORE.INTRA.DIHEDRAL.0>
10.1225

>  <SCORE.INTRA.POLAR>
0

>  <SCORE.INTRA.POLAR.0>
0

>  <SCORE.INTRA.REPUL>
0

>  <SCORE.INTRA.REPUL.0>
0

>  <SCORE.INTRA.SOLV>
0.216522

>  <SCORE.INTRA.SOLV.lig_0>
-49.9393

>  <SCORE.INTRA.VDW>
0.0240981

>  <SCORE.INTRA.VDW.0>
-1.75437

>  <SCORE.INTRA.norm>
-0.102444

>  <SCORE.RESTR>
0

>  <SCORE.RESTR.CAVITY>
0

>  <SCORE.RESTR.norm>
0

>  <SCORE.SYSTEM>
0

>  <SCORE.SYSTEM.CONST>
0

>  <SCORE.SYSTEM.DIHEDRAL>
0

>  <SCORE.SYSTEM.SOLV>
0

>  <SCORE.SYSTEM.norm>
0

>  <SCORE.heavy>
26

>  <SCORE.norm>
-0.714222

>  <RMSD>
1.238

$$$$
ligand
 OpenBabel11021811473D
libRbt.so/2013.1/901 2013/11/27
 26 28  0  0  0  0  0  0  0  0999 V2000
  -15.4087    9.8709  -19.8867 N   0  0  0  0  0  0  0  0  0  0  0  0
  -15.3411    8.6343  -19.0981 C   0  0  2  0  0  0  0  0  0  0  0  0
  -16.6108    8.4768  -18.3037 C   0  0  0  0  0  0  0  0  0  0  0  0
  -16.9188    9.3096  -17.4836 O   0  0  0  0  0  0  0  0  0  0  0  0
  -14.1470    8.7034  -18.1446 C   0  0  0  0  0  0  0  0  0  0  0  0
  -12.8489    8.6181  -18.9454 C   0  0  0  0  0  0  0  0  0  0  0  0
  -12.4713    9.7984  -20.1066 S   0  0  0  0  0  0  0  0  0  0  0  0
  -11.0239   10.3395  -21.0517 C   0  0  0  0  0  0  0  0  0  0  0  0
  -11.3474   11.1451  -22.3159 C   0  0  1  0  0  0  0  0  0  0  0  0
  -11.4863   12.5296  -22.0538 O   0  0  0  0  0  0  0  0  0  0  0  0
  -10.2219   11.0995  -23.3222 C   0  0  1  0  0  0  0  0  0  0  0  0
  -10.8334   11.3735  -24.5637 O   0  0  0  0  0  0  0  0  0  0  0  0
   -9.3286   12.2661  -22.9700 C   0  0  1  0  0  0  0  0  0  0  0  0
   -8.8827   12.8968  -24.1507 O   0  0  0  0  0  0  0  0  0  0  0  0
  -10.2507   13.2001  -22.2164 C   0  0  2  0  0  0  0  0  0  0  0  0
  -17.4012    7.4094  -18.5038 O   0  0  0  0  0  0  0  0  0  0  0  0
   -7.4714   16.6276  -19.4340 N   0  0  0  0  0  0  0  0  0  0  0  0
   -7.6494   16.5874  -20.7967 C   0  0  0  0  0  0  0  0  0  0  0  0
   -8.4142   15.5894  -21.3506 N   0  0  0  0  0  0  0  0  0  0  0  0
   -8.9916   14.6529  -20.5729 C   0  0  0  0  0  0  0  0  0  0  0  0
   -8.8264   14.6752  -19.2008 C   0  0  0  0  0  0  0  0  0  0  0  0
   -8.0518   15.6787  -18.6306 C   0  0  0  0  0  0  0  0  0  0  0  0
   -7.8637   15.7353  -17.3180 N   0  0  0  0  0  0  0  0  0  0  0  0
   -9.5063   13.6315  -18.6755 N   0  0  0  0  0  0  0  0  0  0  0  0
  -10.0962   12.9628  -19.6854 C   0  0  0  0  0  0  0  0  0  0  0  0
   -9.7790   13.5754  -20.8708 N   0  0  0  0  0  0  0  0  0  0  0  0
  2  1  1  1  0  0  0
  2  3  1  0  0  0  0
  2  5  1  0  0  0  0
  3  4  1  0  0  0  0
  3 16  1  0  0  0  0
  5  6  1  0  0  0  0
  6  7  1  0  0  0  0
  7  8  1  0  0  0  0
  9  8  1  1  0  0  0
  9 10  1  0  0  0  0
  9 11  1  0  0  0  0
 10 15  1  0  0  0  0
 11 12  1  6  0  0  0
 11 13  1  0  0  0  0
 13 14  1  6  0  0  0
 13 15  1  0  0  0  0
 15 26  1  1  0  0  0
 17 18  2  0  0  0  0
 17 22  1  0  0  0  0
 18 19  1  0  0  0  0
 19 20  2  0  0  0  0
 20 21  1  0  0  0  0
 20 26  1  0  0  0  0
 21 22  2  0  0  0  0
 21 24  1  0  0  0  0
 22 23  1  0  0  0  0
 24 25  2  0  0  0  0
 25 26  1  0  0  0  0
M  END
>  <CHROM.1>
-61.13504293,-69.82295040,61.18195824,165.37518516,159.78243001,87.08974751
-151.03879053,-11.34671833,11.93661324,-20.38992709,3.07567628,-0.74161007
-1.94548516

>  <Name>
ligand

>  <RI>
0

>  <Rbt.Current_Directory>
/home/itssahil/PROJECTS/Mol_Feturizer/New_Systems/rnas/3E5E

>  <Rbt.Executable>
rbdock ($Id: //depot/dev/client3/rdock/2013.1/src/exe/rbdock.cxx#4 $)

>  <Rbt.Library>
libRbt.so (2013.1, Build901 2013/11/27)

>  <Rbt.Parameter_File>
/export/apps/rDock/src/rDock_2013.1_src/data/scripts/dock_solv.prm

>  <Rbt.Receptor>
prm/pocket_docking_2.prm

>  <SCORE>
-12.4913

>  <SCORE.INTER>
-11.6928

>  <SCORE.INTER.CONST>
1

>  <SCORE.INTER.POLAR>
0

>  <SCORE.INTER.ROT>
7

>  <SCORE.INTER.SOLV>
18.815

>  <SCORE.INTER.VDW>
-22.3335

>  <SCORE.INTER.norm>
-0.449724

>  <SCORE.INTRA>
-1.32805

>  <SCORE.INTRA.DIHEDRAL>
-3.76309

>  <SCORE.INTRA.DIHEDRAL.0>
10.1225

>  <SCORE.INTRA.POLAR>
0

>  <SCORE.INTRA.POLAR.0>
0

>  <SCORE.INTRA.REPUL>
0

>  <SCORE.INTRA.REPUL.0>
0

>  <SCORE.INTRA.SOLV>
1.36988

>  <SCORE.INTRA.SOLV.lig_0>
-49.9393

>  <SCORE.INTRA.VDW>
-0.131448

>  <SCORE.INTRA.VDW.0>
-1.75437

>  <SCORE.INTRA.norm>
-0.051079

>  <SCORE.RESTR>
0.52959

>  <SCORE.RESTR.CAVITY>
0.52959

>  <SCORE.RESTR.norm>
0.0203689

>  <SCORE.SYSTEM>
0

>  <SCORE.SYSTEM.CONST>
0

>  <SCORE.SYSTEM.DIHEDRAL>
0

>  <SCORE.SYSTEM.SOLV>
0

>  <SCORE.SYSTEM.norm>
0

>  <SCORE.heavy>
26

>  <SCORE.norm>
-0.480434

>  <RMSD>
1.245

$$$$
ligand
 OpenBabel11021811473D
libRbt.so/2013.1/901 2013/11/27
 26 28  0  0  0  0  0  0  0  0999 V2000
  -14.4091    6.9126  -18.8794 N   0  0  0  0  0  0  0  0  0  0  0  0
  -14.0975    8.0623  -18.0212 C   0  0  2  0  0  0  0  0  0  0  0  0
  -15.0131    8.0575  -16.8255 C   0  0  0  0  0  0  0  0  0  0  0  0
  -14.5549    8.1621  -15.7118 O   0  0  0  0  0  0  0  0  0  0  0  0
  -14.2964    9.3565  -18.8119 C   0  0  0  0  0  0  0  0  0  0  0  0
  -13.3191    9.3929  -19.9854 C   0  0  0  0  0  0  0  0  0  0  0  0
  -13.2315   10.7560  -20.9945 S   0  0  0  0  0  0  0  0  0  0  0  0
  -12.8375   12.5175  -20.8428 C   0  0  0  0  0  0  0  0  0  0  0  0
  -12.7334   13.2688  -22.1756 C   0  0  1  0  0  0  0  0  0  0  0  0
  -12.0094   14.4800  -22.0583 O   0  0  0  0  0  0  0  0  0  0  0  0
  -11.9409   12.4958  -23.2032 C   0  0  1  0  0  0  0  0  0  0  0  0
  -12.3787   12.9929  -24.4488 O   0  0  0  0  0  0  0  0  0  0  0  0
  -10.5065   12.9264  -23.0026 C   0  0  1  0  0  0  0  0  0  0  0  0
   -9.8787   13.0868  -24.2559 O   0  0  0  0  0  0  0  0  0  0  0  0
  -10.6352   14.2742  -22.3264 C   0  0  2  0  0  0  0  0  0  0  0  0
  -16.3398    7.9343  -16.9949 O   0  0  0  0  0  0  0  0  0  0  0  0
   -6.6405   16.4947  -19.8113 N   0  0  0  0  0  0  0  0  0  0  0  0
   -6.9782   16.6134  -21.1387 C   0  0  0  0  0  0  0  0  0  0  0  0
   -8.0698   15.9341  -21.6232 N   0  0  0  0  0  0  0  0  0  0  0  0
   -8.8119   15.1559  -20.8114 C   0  0  0  0  0  0  0  0  0  0  0  0
   -8.4907   15.0232  -19.4736 C   0  0  0  0  0  0  0  0  0  0  0  0
   -7.3863   15.7036  -18.9742 C   0  0  0  0  0  0  0  0  0  0  0  0
   -7.0398   15.6013  -17.6970 N   0  0  0  0  0  0  0  0  0  0  0  0
   -9.3914   14.1928  -18.9023 N   0  0  0  0  0  0  0  0  0  0  0  0
  -10.2698   13.8094  -19.8492 C   0  0  0  0  0  0  0  0  0  0  0  0
   -9.9195   14.3880  -21.0424 N   0  0  0  0  0  0  0  0  0  0  0  0
  2  1  1  6  0  0  0
  2  3  1  0  0  0  0
  2  5  1  0  0  0  0
  3  4  1  0  0  0  0
  3 16  1  0  0  0  0
  5  6  1  0  0  0  0
  6  7  1  0  0  0  0
  7  8  1  0  0  0  0
  9  8  1  1  0  0  0
  9 10  1  0  0  0  0
  9 11  1  0  0  0  0
 10 15  1  0  0  0  0
 11 12  1  6  0  0  0
 11 13  1  0  0  0  0
 13 14  1  6  0  0  0
 13 15  1  0  0  0  0
 15 26  1  1  0  0  0
 17 18  2  0  0  0  0
 17 22  1  0  0  0  0
 18 19  1  0  0  0  0
 19 20  2  0  0  0  0
 20 21  1  0  0  0  0
 20 26  1  0  0  0  0
 21 22  2  0  0  0  0
 21 24  1  0  0  0  0
 22 23  1  0  0  0  0
 24 25  2  0  0  0  0
 25 26  1  0  0  0  0
M  END
>  <CHROM.1>
129.59096692,-62.83382483,-176.10473667,61.04386393,171.83656030,-160.28433814
-130.18995047,-11.39016143,12.43560733,-20.35221183,-2.64445479,-0.75124824
-1.27866331

>  <Name>
ligand

>  <RI>
0

>  <Rbt.Current_Directory>
/home/itssahil/PROJECTS/Mol_Feturizer/New_Systems/rnas/3E5E

>  <Rbt.Executable>
rbdock ($Id: //depot/dev/client3/rdock/2013.1/src/exe/rbdock.cxx#4 $)

>  <Rbt.Library>
libRbt.so (2013.1, Build901 2013/11/27)

>  <Rbt.Parameter_File>
/export/apps/rDock/src/rDock_2013.1_src/data/scripts/dock_solv.prm

>  <Rbt.Receptor>
prm/pocket_docking_2.prm

>  <SCORE>
-17.9319

>  <SCORE.INTER>
-15.111

>  <SCORE.INTER.CONST>
1

>  <SCORE.INTER.POLAR>
0

>  <SCORE.INTER.ROT>
7

>  <SCORE.INTER.SOLV>
18.3434

>  <SCORE.INTER.VDW>
-24.4551

>  <SCORE.INTER.norm>
-0.581193

>  <SCORE.INTRA>
-2.89658

>  <SCORE.INTRA.DIHEDRAL>
-5.879

>  <SCORE.INTRA.DIHEDRAL.0>
10.1225

>  <SCORE.INTRA.POLAR>
0

>  <SCORE.INTRA.POLAR.0>
0

>  <SCORE.INTRA.REPUL>
0

>  <SCORE.INTRA.REPUL.0>
0

>  <SCORE.INTRA.SOLV>
0.20051

>  <SCORE.INTRA.SOLV.lig_0>
-49.9393

>  <SCORE.INTRA.VDW>
-0.057334

>  <SCORE.INTRA.VDW.0>
-1.75437

>  <SCORE.INTRA.norm>
-0.111407

>  <SCORE.RESTR>
0.0757053

>  <SCORE.RESTR.CAVITY>
0.0757053

>  <SCORE.RESTR.norm>
0.00291174

>  <SCORE.SYSTEM>
0

>  <SCORE.SYSTEM.CONST>
0

>  <SCORE.SYSTEM.DIHEDRAL>
0

>  <SCORE.SYSTEM.SOLV>
0

>  <SCORE.SYSTEM.norm>
0

>  <SCORE.heavy>
26

>  <SCORE.norm>
-0.689688

>  <RMSD>
1.254

$$$$
ligand
 OpenBabel11021811473D
libRbt.so/2013.1/901 2013/11/27
 26 28  0  0  0  0  0  0  0  0999 V2000
  -15.3196    7.1322  -17.1873 N   0  0  0  0  0  0  0  0  0  0  0  0
  -15.5178    8.4479  -16.5668 C   0  0  2  0  0  0  0  0  0  0  0  0
  -16.7697    9.0781  -17.1179 C   0  0  0  0  0  0  0  0  0  0  0  0
  -17.5598    9.6075  -16.3718 O   0  0  0  0  0  0  0  0  0  0  0  0
  -14.3164    9.3428  -16.8761 C   0  0  0  0  0  0  0  0  0  0  0  0
  -14.0702    9.3635  -18.3836 C   0  0  0  0  0  0  0  0  0  0  0  0
  -12.7461   10.2072  -19.0310 S   0  0  0  0  0  0  0  0  0  0  0  0
  -11.9798   10.4664  -20.6516 C   0  0  0  0  0  0  0  0  0  0  0  0
  -12.7327   11.4371  -21.5696 C   0  0  1  0  0  0  0  0  0  0  0  0
  -12.7439   12.7599  -21.0646 O   0  0  0  0  0  0  0  0  0  0  0  0
  -12.0567   11.5899  -22.9116 C   0  0  1  0  0  0  0  0  0  0  0  0
  -13.0774   12.0199  -23.7856 O   0  0  0  0  0  0  0  0  0  0  0  0
  -11.0784   12.7277  -22.7348 C   0  0  1  0  0  0  0  0  0  0  0  0
  -11.0878   13.5458  -23.8843 O   0  0  0  0  0  0  0  0  0  0  0  0
  -11.6442   13.4989  -21.5619 C   0  0  2  0  0  0  0  0  0  0  0  0
  -17.0111    9.0504  -18.4388 O   0  0  0  0  0  0  0  0  0  0  0  0
   -7.4893   16.1370  -19.8324 N   0  0  0  0  0  0  0  0  0  0  0  0
   -8.0931   16.2191  -21.0648 C   0  0  0  0  0  0  0  0  0  0  0  0
   -9.1809   15.4259  -21.3402 N   0  0  0  0  0  0  0  0  0  0  0  0
   -9.6613   14.5718  -20.4156 C   0  0  0  0  0  0  0  0  0  0  0  0
   -9.0699   14.4741  -19.1701 C   0  0  0  0  0  0  0  0  0  0  0  0
   -7.9670   15.2696  -18.8825 C   0  0  0  0  0  0  0  0  0  0  0  0
   -7.3662   15.2048  -17.7008 N   0  0  0  0  0  0  0  0  0  0  0  0
   -9.7470   13.5510  -18.4512 N   0  0  0  0  0  0  0  0  0  0  0  0
  -10.7495   13.0753  -19.2154 C   0  0  0  0  0  0  0  0  0  0  0  0
  -10.7051   13.6889  -20.4412 N   0  0  0  0  0  0  0  0  0  0  0  0
  2  1  1  6  0  0  0
  2  3  1  0  0  0  0
  2  5  1  0  0  0  0
  3  4  1  0  0  0  0
  3 16  1  0  0  0  0
  5  6  1  0  0  0  0
  6  7  1  0  0  0  0
  7  8  1  0  0  0  0
  9  8  1  1  0  0  0
  9 10  1  0  0  0  0
  9 11  1  0  0  0  0
 10 15  1  0  0  0  0
 11 12  1  6  0  0  0
 11 13  1  0  0  0  0
 13 14  1  6  0  0  0
 13 15  1  0  0  0  0
 15 26  1  1  0  0  0
 17 18  2  0  0  0  0
 17 22  1  0  0  0  0
 18 19  1  0  0  0  0
 19 20  2  0  0  0  0
 20 21  1  0  0  0  0
 20 26  1  0  0  0  0
 21 22  2  0  0  0  0
 21 24  1  0  0  0  0
 22 23  1  0  0  0  0
 24 25  2  0  0  0  0
 25 26  1  0  0  0  0
M  END
>  <CHROM.1>
134.78875631,52.76054608,-176.66217154,175.85428317,75.67369390,65.47501187
-165.61955687,-12.05633530,12.06651715,-19.78031496,-2.73217316,-0.68533879
-1.43420103

>  <Name>
ligand

>  <RI>
0

>  <Rbt.Current_Directory>
/home/itssahil/PROJECTS/Mol_Feturizer/New_Systems/rnas/3E5E

>  <Rbt.Executable>
rbdock ($Id: //depot/dev/client3/rdock/2013.1/src/exe/rbdock.cxx#4 $)

>  <Rbt.Library>
libRbt.so (2013.1, Build901 2013/11/27)

>  <Rbt.Parameter_File>
/export/apps/rDock/src/rDock_2013.1_src/data/scripts/dock_solv.prm

>  <Rbt.Receptor>
prm/pocket_docking_2.prm

>  <SCORE>
-18.5178

>  <SCORE.INTER>
-15.4475

>  <SCORE.INTER.CONST>
1

>  <SCORE.INTER.POLAR>
0

>  <SCORE.INTER.ROT>
7

>  <SCORE.INTER.SOLV>
16.839

>  <SCORE.INTER.VDW>
-24.178

>  <SCORE.INTER.norm>
-0.594135

>  <SCORE.INTRA>
-3.07779

>  <SCORE.INTRA.DIHEDRAL>
-6.58652

>  <SCORE.INTRA.DIHEDRAL.0>
10.1225

>  <SCORE.INTRA.POLAR>
0

>  <SCORE.INTRA.POLAR.0>
0

>  <SCORE.INTRA.REPUL>
0

>  <SCORE.INTRA.REPUL.0>
0

>  <SCORE.INTRA.SOLV>
0.374822

>  <SCORE.INTRA.SOLV.lig_0>
-49.9393

>  <SCORE.INTRA.VDW>
0.0280557

>  <SCORE.INTRA.VDW.0>
-1.75437

>  <SCORE.INTRA.norm>
-0.118377

>  <SCORE.RESTR>
0.00749815

>  <SCORE.RESTR.CAVITY>
0.00749815

>  <SCORE.RESTR.norm>
0.00028839

>  <SCORE.SYSTEM>
0

>  <SCORE.SYSTEM.CONST>
0

>  <SCORE.SYSTEM.DIHEDRAL>
0

>  <SCORE.SYSTEM.SOLV>
0

>  <SCORE.SYSTEM.norm>
0

>  <SCORE.heavy>
26

>  <SCORE.norm>
-0.712224

>  <RMSD>
1.255

$$$$
ligand
 OpenBabel11021811473D
libRbt.so/2013.1/901 2013/11/27
 26 28  0  0  0  0  0  0  0  0999 V2000
  -14.9877    8.4812  -15.5183 N   0  0  0  0  0  0  0  0  0  0  0  0
  -14.6985    8.7631  -16.9299 C   0  0  2  0  0  0  0  0  0  0  0  0
  -15.9777    8.7113  -17.7232 C   0  0  0  0  0  0  0  0  0  0  0  0
  -16.9976    8.3245  -17.2024 O   0  0  0  0  0  0  0  0  0  0  0  0
  -13.7209    7.7169  -17.4679 C   0  0  0  0  0  0  0  0  0  0  0  0
  -13.3394    8.0664  -18.9052 C   0  0  0  0  0  0  0  0  0  0  0  0
  -12.5474    9.5266  -19.2580 S   0  0  0  0  0  0  0  0  0  0  0  0
  -11.6891   10.2853  -20.6611 C   0  0  0  0  0  0  0  0  0  0  0  0
  -12.5530   11.2270  -21.5088 C   0  0  1  0  0  0  0  0  0  0  0  0
  -12.6408   12.5266  -20.9536 O   0  0  0  0  0  0  0  0  0  0  0  0
  -11.9512   11.4778  -22.8712 C   0  0  1  0  0  0  0  0  0  0  0  0
  -13.0393   11.8587  -23.6845 O   0  0  0  0  0  0  0  0  0  0  0  0
  -11.0540   12.6804  -22.6923 C   0  0  1  0  0  0  0  0  0  0  0  0
  -11.1762   13.5350  -23.8083 O   0  0  0  0  0  0  0  0  0  0  0  0
  -11.6229   13.3646  -21.4681 C   0  0  2  0  0  0  0  0  0  0  0  0
  -15.9861    9.0924  -19.0111 O   0  0  0  0  0  0  0  0  0  0  0  0
   -7.5027   16.1445  -19.8842 N   0  0  0  0  0  0  0  0  0  0  0  0
   -8.1527   16.2060  -21.0940 C   0  0  0  0  0  0  0  0  0  0  0  0
   -9.2214   15.3757  -21.3316 N   0  0  0  0  0  0  0  0  0  0  0  0
   -9.6386   14.5052  -20.3917 C   0  0  0  0  0  0  0  0  0  0  0  0
   -9.0000   14.4276  -19.1683 C   0  0  0  0  0  0  0  0  0  0  0  0
   -7.9158   15.2608  -18.9192 C   0  0  0  0  0  0  0  0  0  0  0  0
   -7.2711   15.2166  -17.7598 N   0  0  0  0  0  0  0  0  0  0  0  0
   -9.6186   13.4814  -18.4271 N   0  0  0  0  0  0  0  0  0  0  0  0
  -10.6307   12.9715  -19.1557 C   0  0  0  0  0  0  0  0  0  0  0  0
  -10.6515   13.5866  -20.3814 N   0  0  0  0  0  0  0  0  0  0  0  0
  2  1  1  1  0  0  0
  2  3  1  0  0  0  0
  2  5  1  0  0  0  0
  3  4  1  0  0  0  0
  3 16  1  0  0  0  0
  5  6  1  0  0  0  0
  6  7  1  0  0  0  0
  7  8  1  0  0  0  0
  9  8  1  1  0  0  0
  9 10  1  0  0  0  0
  9 11  1  0  0  0  0
 10 15  1  0  0  0  0
 11 12  1  6  0  0  0
 11 13  1  0  0  0  0
 13 14  1  6  0  0  0
 13 15  1  0  0  0  0
 15 26  1  1  0  0  0
 17 18  2  0  0  0  0
 17 22  1  0  0  0  0
 18 19  1  0  0  0  0
 19 20  2  0  0  0  0
 20 21  1  0  0  0  0
 20 26  1  0  0  0  0
 21 22  2  0  0  0  0
 21 24  1  0  0  0  0
 22 23  1  0  0  0  0
 24 25  2  0  0  0  0
 25 26  1  0  0  0  0
M  END
>  <CHROM.1>
-8.02485990,-175.89669577,61.52974895,168.49697551,96.56063409,82.58277217
-168.77517224,-11.81655734,11.83905077,-19.85069933,-2.68791797,-0.74473273
-1.33790631

>  <Name>
ligand

>  <RI>
0

>  <Rbt.Current_Directory>
/home/itssahil/PROJECTS/Mol_Feturizer/New_Systems/rnas/3E5E

>  <Rbt.Executable>
rbdock ($Id: //depot/dev/client3/rdock/2013.1/src/exe/rbdock.cxx#4 $)

>  <Rbt.Library>
libRbt.so (2013.1, Build901 2013/11/27)

>  <Rbt.Parameter_File>
/export/apps/rDock/src/rDock_2013.1_src/data/scripts/dock_solv.prm

>  <Rbt.Receptor>
prm/pocket_docking_2.prm

>  <SCORE>
-17.7998

>  <SCORE.INTER>
-15.6844

>  <SCORE.INTER.CONST>
1

>  <SCORE.INTER.POLAR>
0

>  <SCORE.INTER.ROT>
7

>  <SCORE.INTER.SOLV>
17.9742

>  <SCORE.INTER.VDW>
-24.7143

>  <SCORE.INTER.norm>
-0.603246

>  <SCORE.INTRA>
-2.11746

>  <SCORE.INTRA.DIHEDRAL>
-3.85444

>  <SCORE.INTRA.DIHEDRAL.0>
10.1225

>  <SCORE.INTRA.POLAR>
0

>  <SCORE.INTRA.POLAR.0>
0

>  <SCORE.INTRA.REPUL>
0

>  <SCORE.INTRA.REPUL.0>
0

>  <SCORE.INTRA.SOLV>
-0.494617

>  <SCORE.INTRA.SOLV.lig_0>
-49.9393

>  <SCORE.INTRA.VDW>
0.0570645

>  <SCORE.INTRA.VDW.0>
-1.75437

>  <SCORE.INTRA.norm>
-0.081441

>  <SCORE.RESTR>
0.00202257

>  <SCORE.RESTR.CAVITY>
0.00202257

>  <SCORE.RESTR.norm>
7.77912e-05

>  <SCORE.SYSTEM>
0

>  <SCORE.SYSTEM.CONST>
0

>  <SCORE.SYSTEM.DIHEDRAL>
0

>  <SCORE.SYSTEM.SOLV>
0

>  <SCORE.SYSTEM.norm>
0

>  <SCORE.heavy>
26

>  <SCORE.norm>
-0.684609

>  <RMSD>
1.256

$$$$
ligand
 OpenBabel11021811473D
libRbt.so/2013.1/901 2013/11/27
 26 28  0  0  0  0  0  0  0  0999 V2000
  -14.6536    7.1745  -18.9786 N   0  0  0  0  0  0  0  0  0  0  0  0
  -14.4216    7.2745  -17.5323 C   0  0  2  0  0  0  0  0  0  0  0  0
  -15.3578    6.3423  -16.8092 C   0  0  0  0  0  0  0  0  0  0  0  0
  -16.2929    5.8492  -17.3952 O   0  0  0  0  0  0  0  0  0  0  0  0
  -14.6764    8.7114  -17.0741 C   0  0  0  0  0  0  0  0  0  0  0  0
  -13.5261    9.6053  -17.5340 C   0  0  0  0  0  0  0  0  0  0  0  0
  -13.3540   10.0167  -19.1727 S   0  0  0  0  0  0  0  0  0  0  0  0
  -12.1444   10.8559  -20.2279 C   0  0  0  0  0  0  0  0  0  0  0  0
  -12.7520   11.7691  -21.2997 C   0  0  1  0  0  0  0  0  0  0  0  0
  -12.6062   13.1421  -20.9859 O   0  0  0  0  0  0  0  0  0  0  0  0
  -12.0373   11.6440  -22.6244 C   0  0  1  0  0  0  0  0  0  0  0  0
  -12.9793   12.0651  -23.5866 O   0  0  0  0  0  0  0  0  0  0  0  0
  -10.9271   12.6677  -22.5734 C   0  0  1  0  0  0  0  0  0  0  0  0
  -10.8122   13.3071  -23.8259 O   0  0  0  0  0  0  0  0  0  0  0  0
  -11.4132   13.6625  -21.5417 C   0  0  2  0  0  0  0  0  0  0  0  0
  -15.1562    6.0599  -15.5117 O   0  0  0  0  0  0  0  0  0  0  0  0
   -7.2956   16.4008  -19.8801 N   0  0  0  0  0  0  0  0  0  0  0  0
   -7.8981   16.4407  -21.1152 C   0  0  0  0  0  0  0  0  0  0  0  0
   -8.9751   15.6263  -21.3700 N   0  0  0  0  0  0  0  0  0  0  0  0
   -9.4464   14.7923  -20.4227 C   0  0  0  0  0  0  0  0  0  0  0  0
   -8.8562   14.7369  -19.1740 C   0  0  0  0  0  0  0  0  0  0  0  0
   -7.7640   15.5542  -18.9071 C   0  0  0  0  0  0  0  0  0  0  0  0
   -7.1647   15.5302  -17.7231 N   0  0  0  0  0  0  0  0  0  0  0  0
   -9.5228   13.8257  -18.4307 N   0  0  0  0  0  0  0  0  0  0  0  0
  -10.5177   13.3161  -19.1828 C   0  0  0  0  0  0  0  0  0  0  0  0
  -10.4788   13.8957  -20.4252 N   0  0  0  0  0  0  0  0  0  0  0  0
  2  1  1  6  0  0  0
  2  3  1  0  0  0  0
  2  5  1  0  0  0  0
  3  4  1  0  0  0  0
  3 16  1  0  0  0  0
  5  6  1  0  0  0  0
  6  7  1  0  0  0  0
  7  8  1  0  0  0  0
  9  8  1  1  0  0  0
  9 10  1  0  0  0  0
  9 11  1  0  0  0  0
 10 15  1  0  0  0  0
 11 12  1  6  0  0  0
 11 13  1  0  0  0  0
 13 14  1  6  0  0  0
 13 15  1  0  0  0  0
 15 26  1  1  0  0  0
 17 18  2  0  0  0  0
 17 22  1  0  0  0  0
 18 19  1  0  0  0  0
 19 20  2  0  0  0  0
 20 21  1  0  0  0  0
 20 26  1  0  0  0  0
 21 22  2  0  0  0  0
 21 24  1  0  0  0  0
 22 23  1  0  0  0  0
 24 25  2  0  0  0  0
 25 26  1  0  0  0  0
M  END
>  <CHROM.1>
-13.41291649,-73.73527624,72.18700215,-172.27699243,-140.22628975,105.84719210
-155.25402305,-11.75821070,11.74771172,-19.72566805,2.57671811,0.80869298
1.91975729

>  <Name>
ligand

>  <RI>
0

>  <Rbt.Current_Directory>
/home/itssahil/PROJECTS/Mol_Feturizer/New_Systems/rnas/3E5E

>  <Rbt.Executable>
rbdock ($Id: //depot/dev/client3/rdock/2013.1/src/exe/rbdock.cxx#4 $)

>  <Rbt.Library>
libRbt.so (2013.1, Build901 2013/11/27)

>  <Rbt.Parameter_File>
/export/apps/rDock/src/rDock_2013.1_src/data/scripts/dock_solv.prm

>  <Rbt.Receptor>
prm/pocket_docking_2.prm

>  <SCORE>
-14.5259

>  <SCORE.INTER>
-14.8559

>  <SCORE.INTER.CONST>
1

>  <SCORE.INTER.POLAR>
0

>  <SCORE.INTER.ROT>
7

>  <SCORE.INTER.SOLV>
16.0787

>  <SCORE.INTER.VDW>
-23.5302

>  <SCORE.INTER.norm>
-0.571382

>  <SCORE.INTRA>
0.324752

>  <SCORE.INTRA.DIHEDRAL>
0.346697

>  <SCORE.INTRA.DIHEDRAL.0>
10.1225

>  <SCORE.INTRA.POLAR>
0

>  <SCORE.INTRA.POLAR.0>
0

>  <SCORE.INTRA.REPUL>
0

>  <SCORE.INTRA.REPUL.0>
0

>  <SCORE.INTRA.SOLV>
1.12038

>  <SCORE.INTRA.SOLV.lig_0>
-49.9393

>  <SCORE.INTRA.VDW>
-0.408786

>  <SCORE.INTRA.VDW.0>
-1.75437

>  <SCORE.INTRA.norm>
0.0124904

>  <SCORE.RESTR>
0.00528626

>  <SCORE.RESTR.CAVITY>
0.00528626

>  <SCORE.RESTR.norm>
0.000203318

>  <SCORE.SYSTEM>
0

>  <SCORE.SYSTEM.CONST>
0

>  <SCORE.SYSTEM.DIHEDRAL>
0

>  <SCORE.SYSTEM.SOLV>
0

>  <SCORE.SYSTEM.norm>
0

>  <SCORE.heavy>
26

>  <SCORE.norm>
-0.558688

>  <RMSD>
1.270

$$$$
ligand
 OpenBabel11021811473D
libRbt.so/2013.1/901 2013/11/27
 26 28  0  0  0  0  0  0  0  0999 V2000
  -15.7898    7.0720  -17.2252 N   0  0  0  0  0  0  0  0  0  0  0  0
  -15.5384    8.5119  -17.3635 C   0  0  2  0  0  0  0  0  0  0  0  0
  -16.6926    9.1547  -18.0865 C   0  0  0  0  0  0  0  0  0  0  0  0
  -17.4504    9.8831  -17.4897 O   0  0  0  0  0  0  0  0  0  0  0  0
  -14.2511    8.7296  -18.1605 C   0  0  0  0  0  0  0  0  0  0  0  0
  -13.9423   10.2238  -18.2330 C   0  0  0  0  0  0  0  0  0  0  0  0
  -12.5599   10.7816  -19.0465 S   0  0  0  0  0  0  0  0  0  0  0  0
  -11.9294   10.8358  -20.7437 C   0  0  0  0  0  0  0  0  0  0  0  0
  -12.6577   11.8194  -21.6677 C   0  0  1  0  0  0  0  0  0  0  0  0
  -12.6444   13.1434  -21.1660 O   0  0  0  0  0  0  0  0  0  0  0  0
  -11.9720   11.9550  -23.0068 C   0  0  1  0  0  0  0  0  0  0  0  0
  -12.9793   12.4036  -23.8869 O   0  0  0  0  0  0  0  0  0  0  0  0
  -10.9715   13.0730  -22.8277 C   0  0  1  0  0  0  0  0  0  0  0  0
  -10.9585   13.8883  -23.9792 O   0  0  0  0  0  0  0  0  0  0  0  0
  -11.5273   13.8585  -21.6596 C   0  0  2  0  0  0  0  0  0  0  0  0
  -16.8829    8.9171  -19.3947 O   0  0  0  0  0  0  0  0  0  0  0  0
   -7.2313   16.2932  -19.9771 N   0  0  0  0  0  0  0  0  0  0  0  0
   -7.8154   16.3654  -21.2196 C   0  0  0  0  0  0  0  0  0  0  0  0
   -8.9485   15.6327  -21.4789 N   0  0  0  0  0  0  0  0  0  0  0  0
   -9.4924   14.8474  -20.5289 C   0  0  0  0  0  0  0  0  0  0  0  0
   -8.9219   14.7609  -19.2728 C   0  0  0  0  0  0  0  0  0  0  0  0
   -7.7736   15.4955  -19.0013 C   0  0  0  0  0  0  0  0  0  0  0  0
   -7.1909   15.4388  -17.8101 N   0  0  0  0  0  0  0  0  0  0  0  0
   -9.6643   13.9112  -18.5283 N   0  0  0  0  0  0  0  0  0  0  0  0
  -10.6868   13.4707  -19.2870 C   0  0  0  0  0  0  0  0  0  0  0  0
  -10.5901   14.0321  -20.5346 N   0  0  0  0  0  0  0  0  0  0  0  0
  2  1  1  6  0  0  0
  2  3  1  0  0  0  0
  2  5  1  0  0  0  0
  3  4  1  0  0  0  0
  3 16  1  0  0  0  0
  5  6  1  0  0  0  0
  6  7  1  0  0  0  0
  7  8  1  0  0  0  0
  9  8  1  1  0  0  0
  9 10  1  0  0  0  0
  9 11  1  0  0  0  0
 10 15  1  0  0  0  0
 11 12  1  6  0  0  0
 11 13  1  0  0  0  0
 13 14  1  6  0  0  0
 13 15  1  0  0  0  0
 15 26  1  1  0  0  0
 17 18  2  0  0  0  0
 17 22  1  0  0  0  0
 18 19  1  0  0  0  0
 19 20  2  0  0  0  0
 20 21  1  0  0  0  0
 20 26  1  0  0  0  0
 21 22  2  0  0  0  0
 21 24  1  0  0  0  0
 22 23  1  0  0  0  0
 24 25  2  0  0  0  0
 25 26  1  0  0  0  0
M  END
>  <CHROM.1>
109.36582199,-176.59093234,179.48143054,66.15688680,71.04352284,56.72989179
-168.87179204,-11.95029496,12.33586649,-20.04087635,-2.75689538,-0.67088841
-1.34721309

>  <Name>
ligand

>  <RI>
0

>  <Rbt.Current_Directory>
/home/itssahil/PROJECTS/Mol_Feturizer/New_Systems/rnas/3E5E

>  <Rbt.Executable>
rbdock ($Id: //depot/dev/client3/rdock/2013.1/src/exe/rbdock.cxx#4 $)

>  <Rbt.Library>
libRbt.so (2013.1, Build901 2013/11/27)

>  <Rbt.Parameter_File>
/export/apps/rDock/src/rDock_2013.1_src/data/scripts/dock_solv.prm

>  <Rbt.Receptor>
prm/pocket_docking_3.prm

>  <SCORE>
-19.573

>  <SCORE.INTER>
-15.2736

>  <SCORE.INTER.CONST>
1

>  <SCORE.INTER.POLAR>
0

>  <SCORE.INTER.ROT>
7

>  <SCORE.INTER.SOLV>
17.5764

>  <SCORE.INTER.VDW>
-24.3079

>  <SCORE.INTER.norm>
-0.587447

>  <SCORE.INTRA>
-4.30241

>  <SCORE.INTRA.DIHEDRAL>
-7.04531

>  <SCORE.INTRA.DIHEDRAL.0>
10.1225

>  <SCORE.INTRA.POLAR>
0

>  <SCORE.INTRA.POLAR.0>
0

>  <SCORE.INTRA.REPUL>
0

>  <SCORE.INTRA.REPUL.0>
0

>  <SCORE.INTRA.SOLV>
-0.509316

>  <SCORE.INTRA.SOLV.lig_0>
-49.9393

>  <SCORE.INTRA.VDW>
-0.5251

>  <SCORE.INTRA.VDW.0>
-1.75437

>  <SCORE.INTRA.norm>
-0.165477

>  <SCORE.RESTR>
0.00301755

>  <SCORE.RESTR.CAVITY>
0.00301755

>  <SCORE.RESTR.norm>
0.000116059

>  <SCORE.SYSTEM>
0

>  <SCORE.SYSTEM.CONST>
0

>  <SCORE.SYSTEM.DIHEDRAL>
0

>  <SCORE.SYSTEM.SOLV>
0

>  <SCORE.SYSTEM.norm>
0

>  <SCORE.heavy>
26

>  <SCORE.norm>
-0.752808

>  <RMSD>
1.272

$$$$
ligand
 OpenBabel11021811473D
libRbt.so/2013.1/901 2013/11/27
 26 28  0  0  0  0  0  0  0  0999 V2000
  -14.7318    9.8058  -15.8608 N   0  0  0  0  0  0  0  0  0  0  0  0
  -14.7886    9.8116  -17.3278 C   0  0  2  0  0  0  0  0  0  0  0  0
  -16.0664    9.1567  -17.7822 C   0  0  0  0  0  0  0  0  0  0  0  0
  -16.7447    9.6801  -18.6349 O   0  0  0  0  0  0  0  0  0  0  0  0
  -13.5920    9.0397  -17.8865 C   0  0  0  0  0  0  0  0  0  0  0  0
  -13.6369    9.0638  -19.4133 C   0  0  0  0  0  0  0  0  0  0  0  0
  -13.6931   10.5391  -20.2525 S   0  0  0  0  0  0  0  0  0  0  0  0
  -12.7934   12.1112  -20.2689 C   0  0  0  0  0  0  0  0  0  0  0  0
  -12.9931   12.9515  -21.5361 C   0  0  1  0  0  0  0  0  0  0  0  0
  -12.3512   14.2111  -21.4561 O   0  0  0  0  0  0  0  0  0  0  0  0
  -12.3493   12.3167  -22.7461 C   0  0  1  0  0  0  0  0  0  0  0  0
  -13.0452   12.8518  -23.8505 O   0  0  0  0  0  0  0  0  0  0  0  0
  -10.9383   12.8565  -22.7726 C   0  0  1  0  0  0  0  0  0  0  0  0
  -10.5664   13.1497  -24.1017 O   0  0  0  0  0  0  0  0  0  0  0  0
  -11.0388   14.1426  -21.9813 C   0  0  2  0  0  0  0  0  0  0  0  0
  -16.4552    7.9917  -17.2386 O   0  0  0  0  0  0  0  0  0  0  0  0
   -6.9178   16.6442  -19.9879 N   0  0  0  0  0  0  0  0  0  0  0  0
   -7.5145   16.8340  -21.2119 C   0  0  0  0  0  0  0  0  0  0  0  0
   -8.5936   16.0608  -21.5665 N   0  0  0  0  0  0  0  0  0  0  0  0
   -9.0725   15.1217  -20.7274 C   0  0  0  0  0  0  0  0  0  0  0  0
   -8.4883   14.9150  -19.4919 C   0  0  0  0  0  0  0  0  0  0  0  0
   -7.3941   15.6896  -19.1249 C   0  0  0  0  0  0  0  0  0  0  0  0
   -6.8002   15.5217  -17.9498 N   0  0  0  0  0  0  0  0  0  0  0  0
   -9.1620   13.9246  -18.8654 N   0  0  0  0  0  0  0  0  0  0  0  0
  -10.1555   13.5130  -19.6770 C   0  0  0  0  0  0  0  0  0  0  0  0
  -10.1085   14.2366  -20.8412 N   0  0  0  0  0  0  0  0  0  0  0  0
  2  1  1  1  0  0  0
  2  3  1  0  0  0  0
  2  5  1  0  0  0  0
  3  4  1  0  0  0  0
  3 16  1  0  0  0  0
  5  6  1  0  0  0  0
  6  7  1  0  0  0  0
  7  8  1  0  0  0  0
  9  8  1  1  0  0  0
  9 10  1  0  0  0  0
  9 11  1  0  0  0  0
 10 15  1  0  0  0  0
 11 12  1  6  0  0  0
 11 13  1  0  0  0  0
 13 14  1  6  0  0  0
 13 15  1  0  0  0  0
 15 26  1  1  0  0  0
 17 18  2  0  0  0  0
 17 22  1  0  0  0  0
 18 19  1  0  0  0  0
 19 20  2  0  0  0  0
 20 21  1  0  0  0  0
 20 26  1  0  0  0  0
 21 22  2  0  0  0  0
 21 24  1  0  0  0  0
 22 23  1  0  0  0  0
 24 25  2  0  0  0  0
 25 26  1  0  0  0  0
M  END
>  <CHROM.1>
133.48547119,-179.09004935,56.01203564,50.22801841,161.74266711,175.55847540
-127.11509966,-11.74738045,12.59397972,-20.12916804,-2.72543995,-0.66120322
-1.32387500

>  <Name>
ligand

>  <RI>
0

>  <Rbt.Current_Directory>
/home/itssahil/PROJECTS/Mol_Feturizer/New_Systems/rnas/3E5E

>  <Rbt.Executable>
rbdock ($Id: //depot/dev/client3/rdock/2013.1/src/exe/rbdock.cxx#4 $)

>  <Rbt.Library>
libRbt.so (2013.1, Build901 2013/11/27)

>  <Rbt.Parameter_File>
/export/apps/rDock/src/rDock_2013.1_src/data/scripts/dock_solv.prm

>  <Rbt.Receptor>
prm/pocket_docking_3.prm

>  <SCORE>
-20.331

>  <SCORE.INTER>
-16.4463

>  <SCORE.INTER.CONST>
1

>  <SCORE.INTER.POLAR>
0

>  <SCORE.INTER.ROT>
7

>  <SCORE.INTER.SOLV>
20.6832

>  <SCORE.INTER.VDW>
-26.1253

>  <SCORE.INTER.norm>
-0.63255

>  <SCORE.INTRA>
-3.88473

>  <SCORE.INTRA.DIHEDRAL>
-6.59109

>  <SCORE.INTRA.DIHEDRAL.0>
10.1225

>  <SCORE.INTRA.POLAR>
0

>  <SCORE.INTRA.POLAR.0>
0

>  <SCORE.INTRA.REPUL>
0

>  <SCORE.INTRA.REPUL.0>
0

>  <SCORE.INTRA.SOLV>
-0.467978

>  <SCORE.INTRA.SOLV.lig_0>
-49.9393

>  <SCORE.INTRA.VDW>
-0.355194

>  <SCORE.INTRA.VDW.0>
-1.75437

>  <SCORE.INTRA.norm>
-0.149413

>  <SCORE.RESTR>
0

>  <SCORE.RESTR.CAVITY>
0

>  <SCORE.RESTR.norm>
0

>  <SCORE.SYSTEM>
0

>  <SCORE.SYSTEM.CONST>
0

>  <SCORE.SYSTEM.DIHEDRAL>
0

>  <SCORE.SYSTEM.SOLV>
0

>  <SCORE.SYSTEM.norm>
0

>  <SCORE.heavy>
26

>  <SCORE.norm>
-0.781962

>  <RMSD>
1.281

$$$$
ligand
 OpenBabel11021811473D
libRbt.so/2013.1/901 2013/11/27
 26 28  0  0  0  0  0  0  0  0999 V2000
  -16.2727    6.7637  -17.6806 N   0  0  0  0  0  0  0  0  0  0  0  0
  -14.9454    7.3850  -17.5925 C   0  0  2  0  0  0  0  0  0  0  0  0
  -14.9559    8.4383  -16.5160 C   0  0  0  0  0  0  0  0  0  0  0  0
  -13.9299    8.7360  -15.9506 O   0  0  0  0  0  0  0  0  0  0  0  0
  -14.5950    8.0296  -18.9347 C   0  0  0  0  0  0  0  0  0  0  0  0
  -13.1203    8.4278  -18.9401 C   0  0  0  0  0  0  0  0  0  0  0  0
  -12.5600    9.6523  -19.9749 S   0  0  0  0  0  0  0  0  0  0  0  0
  -12.2698   11.4391  -19.9093 C   0  0  0  0  0  0  0  0  0  0  0  0
  -12.7591   12.2142  -21.1387 C   0  0  1  0  0  0  0  0  0  0  0  0
  -12.4553   13.5951  -21.0633 O   0  0  0  0  0  0  0  0  0  0  0  0
  -12.0553   11.7784  -22.4022 C   0  0  1  0  0  0  0  0  0  0  0  0
  -12.9351   12.1297  -23.4476 O   0  0  0  0  0  0  0  0  0  0  0  0
  -10.8331   12.6615  -22.4991 C   0  0  1  0  0  0  0  0  0  0  0  0
  -10.6357   13.0546  -23.8397 O   0  0  0  0  0  0  0  0  0  0  0  0
  -11.2058   13.8703  -21.6683 C   0  0  2  0  0  0  0  0  0  0  0  0
  -16.1059    9.0462  -16.1812 O   0  0  0  0  0  0  0  0  0  0  0  0
   -7.0564   16.7088  -20.2760 N   0  0  0  0  0  0  0  0  0  0  0  0
   -7.6725   16.6533  -21.5037 C   0  0  0  0  0  0  0  0  0  0  0  0
   -8.7562   15.8274  -21.6809 N   0  0  0  0  0  0  0  0  0  0  0  0
   -9.2210   15.0746  -20.6647 C   0  0  0  0  0  0  0  0  0  0  0  0
   -8.6171   15.1160  -19.4221 C   0  0  0  0  0  0  0  0  0  0  0  0
   -7.5180   15.9456  -19.2333 C   0  0  0  0  0  0  0  0  0  0  0  0
   -6.9056   16.0130  -18.0577 N   0  0  0  0  0  0  0  0  0  0  0  0
   -9.2799   14.2710  -18.6010 N   0  0  0  0  0  0  0  0  0  0  0  0
  -10.2857   13.7087  -19.2991 C   0  0  0  0  0  0  0  0  0  0  0  0
  -10.2578   14.1867  -20.5843 N   0  0  0  0  0  0  0  0  0  0  0  0
  2  1  1  6  0  0  0
  2  3  1  0  0  0  0
  2  5  1  0  0  0  0
  3  4  1  0  0  0  0
  3 16  1  0  0  0  0
  5  6  1  0  0  0  0
  6  7  1  0  0  0  0
  7  8  1  0  0  0  0
  9  8  1  1  0  0  0
  9 10  1  0  0  0  0
  9 11  1  0  0  0  0
 10 15  1  0  0  0  0
 11 12  1  6  0  0  0
 11 13  1  0  0  0  0
 13 14  1  6  0  0  0
 13 15  1  0  0  0  0
 15 26  1  1  0  0  0
 17 18  2  0  0  0  0
 17 22  1  0  0  0  0
 18 19  1  0  0  0  0
 19 20  2  0  0  0  0
 20 21  1  0  0  0  0
 20 26  1  0  0  0  0
 21 22  2  0  0  0  0
 21 24  1  0  0  0  0
 22 23  1  0  0  0  0
 24 25  2  0  0  0  0
 25 26  1  0  0  0  0
M  END
>  <CHROM.1>
153.91103065,-168.73951872,-156.48712950,93.40594735,-135.89374769,-177.36923589
-146.72032991,-11.57547569,12.13076928,-19.89549515,-2.71227586,-0.80992827
-1.38471049

>  <Name>
ligand

>  <RI>
0

>  <Rbt.Current_Directory>
/home/itssahil/PROJECTS/Mol_Feturizer/New_Systems/rnas/3E5E

>  <Rbt.Executable>
rbdock ($Id: //depot/dev/client3/rdock/2013.1/src/exe/rbdock.cxx#4 $)

>  <Rbt.Library>
libRbt.so (2013.1, Build901 2013/11/27)

>  <Rbt.Parameter_File>
/export/apps/rDock/src/rDock_2013.1_src/data/scripts/dock_solv.prm

>  <Rbt.Receptor>
prm/pocket_docking_2.prm

>  <SCORE>
-16.3156

>  <SCORE.INTER>
-15.0218

>  <SCORE.INTER.CONST>
1

>  <SCORE.INTER.POLAR>
0

>  <SCORE.INTER.ROT>
7

>  <SCORE.INTER.SOLV>
16.0275

>  <SCORE.INTER.VDW>
-23.6237

>  <SCORE.INTER.norm>
-0.577761

>  <SCORE.INTRA>
-1.31735

>  <SCORE.INTRA.DIHEDRAL>
-1.52909

>  <SCORE.INTRA.DIHEDRAL.0>
10.1225

>  <SCORE.INTRA.POLAR>
0

>  <SCORE.INTRA.POLAR.0>
0

>  <SCORE.INTRA.REPUL>
0

>  <SCORE.INTRA.REPUL.0>
0

>  <SCORE.INTRA.SOLV>
-0.578525

>  <SCORE.INTRA.SOLV.lig_0>
-49.9393

>  <SCORE.INTRA.VDW>
-0.263538

>  <SCORE.INTRA.VDW.0>
-1.75437

>  <SCORE.INTRA.norm>
-0.0506672

>  <SCORE.RESTR>
0.0235062

>  <SCORE.RESTR.CAVITY>
0.0235062

>  <SCORE.RESTR.norm>
0.000904087

>  <SCORE.SYSTEM>
0

>  <SCORE.SYSTEM.CONST>
0

>  <SCORE.SYSTEM.DIHEDRAL>
0

>  <SCORE.SYSTEM.SOLV>
0

>  <SCORE.SYSTEM.norm>
0

>  <SCORE.heavy>
26

>  <SCORE.norm>
-0.627524

>  <RMSD>
1.290

$$$$
ligand
 OpenBabel11021811473D
libRbt.so/2013.1/901 2013/11/27
 26 28  0  0  0  0  0  0  0  0999 V2000
  -17.0170    8.0824  -17.4438 N   0  0  0  0  0  0  0  0  0  0  0  0
  -15.6234    7.7606  -17.7753 C   0  0  2  0  0  0  0  0  0  0  0  0
  -14.8445    7.5402  -16.5053 C   0  0  0  0  0  0  0  0  0  0  0  0
  -15.0859    8.2039  -15.5244 O   0  0  0  0  0  0  0  0  0  0  0  0
  -15.0058    8.9201  -18.5588 C   0  0  0  0  0  0  0  0  0  0  0  0
  -13.5992    8.5363  -19.0144 C   0  0  0  0  0  0  0  0  0  0  0  0
  -12.6753    9.6044  -19.9576 S   0  0  0  0  0  0  0  0  0  0  0  0
  -12.2278   11.3597  -19.9517 C   0  0  0  0  0  0  0  0  0  0  0  0
  -12.7361   12.1555  -21.1600 C   0  0  1  0  0  0  0  0  0  0  0  0
  -12.4637   13.5405  -21.0484 O   0  0  0  0  0  0  0  0  0  0  0  0
  -12.0242   11.7693  -22.4349 C   0  0  1  0  0  0  0  0  0  0  0  0
  -12.9130   12.1279  -23.4702 O   0  0  0  0  0  0  0  0  0  0  0  0
  -10.8224   12.6822  -22.5093 C   0  0  1  0  0  0  0  0  0  0  0  0
  -10.6357   13.1149  -23.8392 O   0  0  0  0  0  0  0  0  0  0  0  0
  -11.2216   13.8600  -21.6467 C   0  0  2  0  0  0  0  0  0  0  0  0
  -13.8789    6.6076  -16.4619 O   0  0  0  0  0  0  0  0  0  0  0  0
   -7.0580   16.6625  -20.2240 N   0  0  0  0  0  0  0  0  0  0  0  0
   -7.6644   16.6108  -21.4567 C   0  0  0  0  0  0  0  0  0  0  0  0
   -8.7542   15.7946  -21.6417 N   0  0  0  0  0  0  0  0  0  0  0  0
   -9.2342   15.0475  -20.6284 C   0  0  0  0  0  0  0  0  0  0  0  0
   -8.6402   15.0851  -19.3809 C   0  0  0  0  0  0  0  0  0  0  0  0
   -7.5352   15.9050  -19.1841 C   0  0  0  0  0  0  0  0  0  0  0  0
   -6.9318   15.9684  -18.0036 N   0  0  0  0  0  0  0  0  0  0  0  0
   -9.3174   14.2474  -18.5642 N   0  0  0  0  0  0  0  0  0  0  0  0
  -10.3225   13.6933  -19.2698 C   0  0  0  0  0  0  0  0  0  0  0  0
  -10.2797   14.1692  -20.5554 N   0  0  0  0  0  0  0  0  0  0  0  0
  2  1  1  1  0  0  0
  2  3  1  0  0  0  0
  2  5  1  0  0  0  0
  3  4  1  0  0  0  0
  3 16  1  0  0  0  0
  5  6  1  0  0  0  0
  6  7  1  0  0  0  0
  7  8  1  0  0  0  0
  9  8  1  1  0  0  0
  9 10  1  0  0  0  0
  9 11  1  0  0  0  0
 10 15  1  0  0  0  0
 11 12  1  6  0  0  0
 11 13  1  0  0  0  0
 13 14  1  6  0  0  0
 13 15  1  0  0  0  0
 15 26  1  1  0  0  0
 17 18  2  0  0  0  0
 17 22  1  0  0  0  0
 18 19  1  0  0  0  0
 19 20  2  0  0  0  0
 20 21  1  0  0  0  0
 20 26  1  0  0  0  0
 21 22  2  0  0  0  0
 21 24  1  0  0  0  0
 22 23  1  0  0  0  0
 24 25  2  0  0  0  0
 25 26  1  0  0  0  0
M  END
>  <CHROM.1>
-36.09183112,-174.88274810,177.87642837,46.90180658,-116.65875031,174.70280954
-149.19656854,-11.62260445,12.05492199,-19.86269877,-2.62876492,-0.78068717
-1.28636224

>  <Name>
ligand

>  <RI>
0

>  <Rbt.Current_Directory>
/home/itssahil/PROJECTS/Mol_Feturizer/New_Systems/rnas/3E5E

>  <Rbt.Executable>
rbdock ($Id: //depot/dev/client3/rdock/2013.1/src/exe/rbdock.cxx#4 $)

>  <Rbt.Library>
libRbt.so (2013.1, Build901 2013/11/27)

>  <Rbt.Parameter_File>
/export/apps/rDock/src/rDock_2013.1_src/data/scripts/dock_solv.prm

>  <Rbt.Receptor>
prm/pocket_docking_2.prm

>  <SCORE>
-17.3872

>  <SCORE.INTER>
-14.7023

>  <SCORE.INTER.CONST>
1

>  <SCORE.INTER.POLAR>
0

>  <SCORE.INTER.ROT>
7

>  <SCORE.INTER.SOLV>
15.6187

>  <SCORE.INTER.VDW>
-23.2744

>  <SCORE.INTER.norm>
-0.565474

>  <SCORE.INTRA>
-2.69557

>  <SCORE.INTRA.DIHEDRAL>
-4.45825

>  <SCORE.INTRA.DIHEDRAL.0>
10.1225

>  <SCORE.INTRA.POLAR>
0

>  <SCORE.INTRA.POLAR.0>
0

>  <SCORE.INTRA.REPUL>
0

>  <SCORE.INTRA.REPUL.0>
0

>  <SCORE.INTRA.SOLV>
-0.664103

>  <SCORE.INTRA.SOLV.lig_0>
-49.9393

>  <SCORE.INTRA.VDW>
-0.134392

>  <SCORE.INTRA.VDW.0>
-1.75437

>  <SCORE.INTRA.norm>
-0.103676

>  <SCORE.RESTR>
0.0106414

>  <SCORE.RESTR.CAVITY>
0.0106414

>  <SCORE.RESTR.norm>
0.000409285

>  <SCORE.SYSTEM>
0

>  <SCORE.SYSTEM.CONST>
0

>  <SCORE.SYSTEM.DIHEDRAL>
0

>  <SCORE.SYSTEM.SOLV>
0

>  <SCORE.SYSTEM.norm>
0

>  <SCORE.heavy>
26

>  <SCORE.norm>
-0.66874

>  <RMSD>
1.301

$$$$
ligand
 OpenBabel11021811473D
libRbt.so/2013.1/901 2013/11/27
 26 28  0  0  0  0  0  0  0  0999 V2000
  -15.8371    8.8391  -16.1051 N   0  0  0  0  0  0  0  0  0  0  0  0
  -15.4423    7.8494  -17.1152 C   0  0  2  0  0  0  0  0  0  0  0  0
  -15.4054    6.4808  -16.4878 C   0  0  0  0  0  0  0  0  0  0  0  0
  -14.7304    6.2837  -15.5046 O   0  0  0  0  0  0  0  0  0  0  0  0
  -14.0557    8.2007  -17.6571 C   0  0  0  0  0  0  0  0  0  0  0  0
  -14.1162    9.5443  -18.3814 C   0  0  0  0  0  0  0  0  0  0  0  0
  -12.7125   10.2313  -19.0460 S   0  0  0  0  0  0  0  0  0  0  0  0
  -11.9729   10.4583  -20.6838 C   0  0  0  0  0  0  0  0  0  0  0  0
  -12.7200   11.4400  -21.5948 C   0  0  1  0  0  0  0  0  0  0  0  0
  -12.7194   12.7601  -21.0826 O   0  0  0  0  0  0  0  0  0  0  0  0
  -12.0457   11.5947  -22.9375 C   0  0  1  0  0  0  0  0  0  0  0  0
  -13.0647   12.0377  -23.8068 O   0  0  0  0  0  0  0  0  0  0  0  0
  -11.0578   12.7236  -22.7566 C   0  0  1  0  0  0  0  0  0  0  0  0
  -11.0631   13.5480  -23.9016 O   0  0  0  0  0  0  0  0  0  0  0  0
  -11.6148   13.4929  -21.5783 C   0  0  2  0  0  0  0  0  0  0  0  0
  -16.1203    5.4768  -17.0216 O   0  0  0  0  0  0  0  0  0  0  0  0
   -7.4802   16.1396  -19.8138 N   0  0  0  0  0  0  0  0  0  0  0  0
   -8.0917   16.2416  -21.0409 C   0  0  0  0  0  0  0  0  0  0  0  0
   -9.1720   15.4424  -21.3277 N   0  0  0  0  0  0  0  0  0  0  0  0
   -9.6378   14.5631  -20.4194 C   0  0  0  0  0  0  0  0  0  0  0  0
   -9.0385   14.4451  -19.1794 C   0  0  0  0  0  0  0  0  0  0  0  0
   -7.9430   15.2466  -18.8804 C   0  0  0  0  0  0  0  0  0  0  0  0
   -7.3350   15.1630  -17.7036 N   0  0  0  0  0  0  0  0  0  0  0  0
   -9.7013   13.4990  -18.4772 N   0  0  0  0  0  0  0  0  0  0  0  0
  -10.7026   13.0288  -19.2463 C   0  0  0  0  0  0  0  0  0  0  0  0
  -10.6718   13.6692  -20.4587 N   0  0  0  0  0  0  0  0  0  0  0  0
  2  1  1  1  0  0  0
  2  3  1  0  0  0  0
  2  5  1  0  0  0  0
  3  4  1  0  0  0  0
  3 16  1  0  0  0  0
  5  6  1  0  0  0  0
  6  7  1  0  0  0  0
  7  8  1  0  0  0  0
  9  8  1  1  0  0  0
  9 10  1  0  0  0  0
  9 11  1  0  0  0  0
 10 15  1  0  0  0  0
 11 12  1  6  0  0  0
 11 13  1  0  0  0  0
 13 14  1  6  0  0  0
 13 15  1  0  0  0  0
 15 26  1  1  0  0  0
 17 18  2  0  0  0  0
 17 22  1  0  0  0  0
 18 19  1  0  0  0  0
 19 20  2  0  0  0  0
 20 21  1  0  0  0  0
 20 26  1  0  0  0  0
 21 22  2  0  0  0  0
 21 24  1  0  0  0  0
 22 23  1  0  0  0  0
 24 25  2  0  0  0  0
 25 26  1  0  0  0  0
M  END
>  <CHROM.1>
-55.18887498,-64.07943767,177.77372209,104.58489856,68.64246386,63.86172687
-164.16395384,-11.84557798,11.69268171,-19.67965137,-2.53134414,-0.78599322
-1.24908585

>  <Name>
ligand

>  <RI>
0

>  <Rbt.Current_Directory>
/home/itssahil/PROJECTS/Mol_Feturizer/New_Systems/rnas/3E5E

>  <Rbt.Executable>
rbdock ($Id: //depot/dev/client3/rdock/2013.1/src/exe/rbdock.cxx#4 $)

>  <Rbt.Library>
libRbt.so (2013.1, Build901 2013/11/27)

>  <Rbt.Parameter_File>
/export/apps/rDock/src/rDock_2013.1_src/data/scripts/dock_solv.prm

>  <Rbt.Receptor>
prm/pocket_docking_2.prm

>  <SCORE>
-17.0602

>  <SCORE.INTER>
-14.1034

>  <SCORE.INTER.CONST>
1

>  <SCORE.INTER.POLAR>
0

>  <SCORE.INTER.ROT>
7

>  <SCORE.INTER.SOLV>
16.6026

>  <SCORE.INTER.VDW>
-23.2031

>  <SCORE.INTER.norm>
-0.542437

>  <SCORE.INTRA>
-2.97758

>  <SCORE.INTRA.DIHEDRAL>
-5.0644

>  <SCORE.INTRA.DIHEDRAL.0>
10.1225

>  <SCORE.INTRA.POLAR>
0

>  <SCORE.INTRA.POLAR.0>
0

>  <SCORE.INTRA.REPUL>
0

>  <SCORE.INTRA.REPUL.0>
0

>  <SCORE.INTRA.SOLV>
0.186633

>  <SCORE.INTRA.SOLV.lig_0>
-49.9393

>  <SCORE.INTRA.VDW>
-0.538702

>  <SCORE.INTRA.VDW.0>
-1.75437

>  <SCORE.INTRA.norm>
-0.114522

>  <SCORE.RESTR>
0.020767

>  <SCORE.RESTR.CAVITY>
0.020767

>  <SCORE.RESTR.norm>
0.000798732

>  <SCORE.SYSTEM>
0

>  <SCORE.SYSTEM.CONST>
0

>  <SCORE.SYSTEM.DIHEDRAL>
0

>  <SCORE.SYSTEM.SOLV>
0

>  <SCORE.SYSTEM.norm>
0

>  <SCORE.heavy>
26

>  <SCORE.norm>
-0.656161

>  <RMSD>
1.307

$$$$
ligand
 OpenBabel11021811473D
libRbt.so/2013.1/901 2013/11/27
 26 28  0  0  0  0  0  0  0  0999 V2000
  -16.8724    8.7100  -16.1583 N   0  0  0  0  0  0  0  0  0  0  0  0
  -15.7524    8.3283  -17.0274 C   0  0  2  0  0  0  0  0  0  0  0  0
  -14.9143    7.2857  -16.3356 C   0  0  0  0  0  0  0  0  0  0  0  0
  -15.0395    7.0989  -15.1480 O   0  0  0  0  0  0  0  0  0  0  0  0
  -14.8948    9.5599  -17.3229 C   0  0  0  0  0  0  0  0  0  0  0  0
  -13.9859    9.2743  -18.5170 C   0  0  0  0  0  0  0  0  0  0  0  0
  -12.8752   10.4407  -19.0556 S   0  0  0  0  0  0  0  0  0  0  0  0
  -11.8976   10.7805  -20.5421 C   0  0  0  0  0  0  0  0  0  0  0  0
  -12.5687   11.7211  -21.5504 C   0  0  1  0  0  0  0  0  0  0  0  0
  -12.5253   13.0751  -21.1382 O   0  0  0  0  0  0  0  0  0  0  0  0
  -11.8438   11.7443  -22.8753 C   0  0  1  0  0  0  0  0  0  0  0  0
  -12.8123   12.1631  -23.8119 O   0  0  0  0  0  0  0  0  0  0  0  0
  -10.8124   12.8405  -22.7430 C   0  0  1  0  0  0  0  0  0  0  0  0
  -10.7422   13.5749  -23.9457 O   0  0  0  0  0  0  0  0  0  0  0  0
  -11.3728   13.7203  -21.6465 C   0  0  2  0  0  0  0  0  0  0  0  0
  -14.0246    6.5641  -17.0369 O   0  0  0  0  0  0  0  0  0  0  0  0
   -7.3102   16.4627  -19.8609 N   0  0  0  0  0  0  0  0  0  0  0  0
   -7.8910   16.5204  -21.1057 C   0  0  0  0  0  0  0  0  0  0  0  0
   -8.9559   15.7016  -21.3948 N   0  0  0  0  0  0  0  0  0  0  0  0
   -9.4364   14.8460  -20.4717 C   0  0  0  0  0  0  0  0  0  0  0  0
   -8.8680   14.7725  -19.2139 C   0  0  0  0  0  0  0  0  0  0  0  0
   -7.7882   15.5941  -18.9123 C   0  0  0  0  0  0  0  0  0  0  0  0
   -7.2098   15.5532  -17.7184 N   0  0  0  0  0  0  0  0  0  0  0  0
   -9.5395   13.8418  -18.4996 N   0  0  0  0  0  0  0  0  0  0  0  0
  -10.5163   13.3377  -19.2788 C   0  0  0  0  0  0  0  0  0  0  0  0
  -10.4605   13.9407  -20.5093 N   0  0  0  0  0  0  0  0  0  0  0  0
  2  1  1  1  0  0  0
  2  3  1  0  0  0  0
  2  5  1  0  0  0  0
  3  4  1  0  0  0  0
  3 16  1  0  0  0  0
  5  6  1  0  0  0  0
  6  7  1  0  0  0  0
  7  8  1  0  0  0  0
  9  8  1  1  0  0  0
  9 10  1  0  0  0  0
  9 11  1  0  0  0  0
 10 15  1  0  0  0  0
 11 12  1  6  0  0  0
 11 13  1  0  0  0  0
 13 14  1  6  0  0  0
 13 15  1  0  0  0  0
 15 26  1  1  0  0  0
 17 18  2  0  0  0  0
 17 22  1  0  0  0  0
 18 19  1  0  0  0  0
 19 20  2  0  0  0  0
 20 21  1  0  0  0  0
 20 26  1  0  0  0  0
 21 22  2  0  0  0  0
 21 24  1  0  0  0  0
 22 23  1  0  0  0  0
 24 25  2  0  0  0  0
 25 26  1  0  0  0  0
M  END
>  <CHROM.1>
-15.39501625,-163.92722246,-178.02502734,-162.40909038,93.11822352,76.02550555
-160.12109409,-11.71654938,12.03744288,-19.66438558,-2.57310414,-0.77273931
-1.32885834

>  <Name>
ligand

>  <RI>
0

>  <Rbt.Current_Directory>
/home/itssahil/PROJECTS/Mol_Feturizer/New_Systems/rnas/3E5E

>  <Rbt.Executable>
rbdock ($Id: //depot/dev/client3/rdock/2013.1/src/exe/rbdock.cxx#4 $)

>  <Rbt.Library>
libRbt.so (2013.1, Build901 2013/11/27)

>  <Rbt.Parameter_File>
/export/apps/rDock/src/rDock_2013.1_src/data/scripts/dock_solv.prm

>  <Rbt.Receptor>
prm/pocket_docking_2.prm

>  <SCORE>
-17.404

>  <SCORE.INTER>
-14.8695

>  <SCORE.INTER.CONST>
1

>  <SCORE.INTER.POLAR>
0

>  <SCORE.INTER.ROT>
7

>  <SCORE.INTER.SOLV>
16.6362

>  <SCORE.INTER.VDW>
-23.7251

>  <SCORE.INTER.norm>
-0.571904

>  <SCORE.INTRA>
-2.53633

>  <SCORE.INTRA.DIHEDRAL>
-3.59918

>  <SCORE.INTRA.DIHEDRAL.0>
10.1225

>  <SCORE.INTRA.POLAR>
0

>  <SCORE.INTRA.POLAR.0>
0

>  <SCORE.INTRA.REPUL>
0

>  <SCORE.INTRA.REPUL.0>
0

>  <SCORE.INTRA.SOLV>
-0.612419

>  <SCORE.INTRA.SOLV.lig_0>
-49.9393

>  <SCORE.INTRA.VDW>
-0.43053

>  <SCORE.INTRA.VDW.0>
-1.75437

>  <SCORE.INTRA.norm>
-0.0975511

>  <SCORE.RESTR>
0.00186259

>  <SCORE.RESTR.CAVITY>
0.00186259

>  <SCORE.RESTR.norm>
7.16381e-05

>  <SCORE.SYSTEM>
0

>  <SCORE.SYSTEM.CONST>
0

>  <SCORE.SYSTEM.DIHEDRAL>
0

>  <SCORE.SYSTEM.SOLV>
0

>  <SCORE.SYSTEM.norm>
0

>  <SCORE.heavy>
26

>  <SCORE.norm>
-0.669383

>  <RMSD>
1.321

$$$$
ligand
 OpenBabel11021811473D
libRbt.so/2013.1/901 2013/11/27
 26 28  0  0  0  0  0  0  0  0999 V2000
  -16.4487    8.2503  -17.5086 N   0  0  0  0  0  0  0  0  0  0  0  0
  -15.4249    7.2143  -17.6932 C   0  0  2  0  0  0  0  0  0  0  0  0
  -14.5412    7.1607  -16.4749 C   0  0  0  0  0  0  0  0  0  0  0  0
  -14.3309    8.1644  -15.8352 O   0  0  0  0  0  0  0  0  0  0  0  0
  -14.5795    7.5477  -18.9236 C   0  0  0  0  0  0  0  0  0  0  0  0
  -14.0045    8.9558  -18.7814 C   0  0  0  0  0  0  0  0  0  0  0  0
  -12.7234    9.4696  -19.7708 S   0  0  0  0  0  0  0  0  0  0  0  0
  -11.8478   11.0108  -20.1437 C   0  0  0  0  0  0  0  0  0  0  0  0
  -12.5204   11.8903  -21.2047 C   0  0  1  0  0  0  0  0  0  0  0  0
  -12.3988   13.2716  -20.9181 O   0  0  0  0  0  0  0  0  0  0  0  0
  -11.8545   11.7620  -22.5544 C   0  0  1  0  0  0  0  0  0  0  0  0
  -12.8439   12.1428  -23.4853 O   0  0  0  0  0  0  0  0  0  0  0  0
  -10.7706   12.8146  -22.5627 C   0  0  1  0  0  0  0  0  0  0  0  0
  -10.7212   13.4362  -23.8283 O   0  0  0  0  0  0  0  0  0  0  0  0
  -11.2424   13.8134  -21.5281 C   0  0  2  0  0  0  0  0  0  0  0  0
  -13.9834    5.9980  -16.0994 O   0  0  0  0  0  0  0  0  0  0  0  0
   -7.1398   16.6867  -20.0698 N   0  0  0  0  0  0  0  0  0  0  0  0
   -7.7910   16.6913  -21.2806 C   0  0  0  0  0  0  0  0  0  0  0  0
   -8.8543   15.8444  -21.4810 N   0  0  0  0  0  0  0  0  0  0  0  0
   -9.2651   15.0128  -20.5039 C   0  0  0  0  0  0  0  0  0  0  0  0
   -8.6254   14.9926  -19.2789 C   0  0  0  0  0  0  0  0  0  0  0  0
   -7.5465   15.8430  -19.0670 C   0  0  0  0  0  0  0  0  0  0  0  0
   -6.9009   15.8534  -17.9074 N   0  0  0  0  0  0  0  0  0  0  0  0
   -9.2372   14.0754  -18.4968 N   0  0  0  0  0  0  0  0  0  0  0  0
  -10.2463   13.5277  -19.2017 C   0  0  0  0  0  0  0  0  0  0  0  0
  -10.2719   14.0888  -20.4529 N   0  0  0  0  0  0  0  0  0  0  0  0
  2  1  1  1  0  0  0
  2  3  1  0  0  0  0
  2  5  1  0  0  0  0
  3  4  1  0  0  0  0
  3 16  1  0  0  0  0
  5  6  1  0  0  0  0
  6  7  1  0  0  0  0
  7  8  1  0  0  0  0
  9  8  1  1  0  0  0
  9 10  1  0  0  0  0
  9 11  1  0  0  0  0
 10 15  1  0  0  0  0
 11 12  1  6  0  0  0
 11 13  1  0  0  0  0
 13 14  1  6  0  0  0
 13 15  1  0  0  0  0
 15 26  1  1  0  0  0
 17 18  2  0  0  0  0
 17 22  1  0  0  0  0
 18 19  1  0  0  0  0
 19 20  2  0  0  0  0
 20 21  1  0  0  0  0
 20 26  1  0  0  0  0
 21 22  2  0  0  0  0
 21 24  1  0  0  0  0
 22 23  1  0  0  0  0
 24 25  2  0  0  0  0
 25 26  1  0  0  0  0
M  END
>  <CHROM.1>
-31.26713923,54.91644904,164.38912717,170.74174044,-83.89756185,142.96471001
-155.17025902,-11.53452657,11.91892483,-19.81281455,-2.56888096,-0.80256764
-1.20712414

>  <Name>
ligand

>  <RI>
0

>  <Rbt.Current_Directory>
/home/itssahil/PROJECTS/Mol_Feturizer/New_Systems/rnas/3E5E

>  <Rbt.Executable>
rbdock ($Id: //depot/dev/client3/rdock/2013.1/src/exe/rbdock.cxx#4 $)

>  <Rbt.Library>
libRbt.so (2013.1, Build901 2013/11/27)

>  <Rbt.Parameter_File>
/export/apps/rDock/src/rDock_2013.1_src/data/scripts/dock_solv.prm

>  <Rbt.Receptor>
prm/pocket_docking_2.prm

>  <SCORE>
-15.5361

>  <SCORE.INTER>
-15.0074

>  <SCORE.INTER.CONST>
1

>  <SCORE.INTER.POLAR>
0

>  <SCORE.INTER.ROT>
7

>  <SCORE.INTER.SOLV>
15.7094

>  <SCORE.INTER.VDW>
-23.508

>  <SCORE.INTER.norm>
-0.577206

>  <SCORE.INTRA>
-0.528745

>  <SCORE.INTRA.DIHEDRAL>
-1.89691

>  <SCORE.INTRA.DIHEDRAL.0>
10.1225

>  <SCORE.INTRA.POLAR>
0

>  <SCORE.INTRA.POLAR.0>
0

>  <SCORE.INTRA.REPUL>
0

>  <SCORE.INTRA.REPUL.0>
0

>  <SCORE.INTRA.SOLV>
0.094989

>  <SCORE.INTRA.SOLV.lig_0>
-49.9393

>  <SCORE.INTRA.VDW>
0.372218

>  <SCORE.INTRA.VDW.0>
-1.75437

>  <SCORE.INTRA.norm>
-0.0203363

>  <SCORE.RESTR>
0

>  <SCORE.RESTR.CAVITY>
0

>  <SCORE.RESTR.norm>
0

>  <SCORE.SYSTEM>
0

>  <SCORE.SYSTEM.CONST>
0

>  <SCORE.SYSTEM.DIHEDRAL>
0

>  <SCORE.SYSTEM.SOLV>
0

>  <SCORE.SYSTEM.norm>
0

>  <SCORE.heavy>
26

>  <SCORE.norm>
-0.597542

>  <RMSD>
1.322

$$$$
ligand
 OpenBabel11021811473D
libRbt.so/2013.1/901 2013/11/27
 26 28  0  0  0  0  0  0  0  0999 V2000
  -14.2803    6.9013  -18.9894 N   0  0  0  0  0  0  0  0  0  0  0  0
  -13.8064    8.2288  -18.5784 C   0  0  2  0  0  0  0  0  0  0  0  0
  -14.2810    8.5189  -17.1789 C   0  0  0  0  0  0  0  0  0  0  0  0
  -13.9412    9.5373  -16.6235 O   0  0  0  0  0  0  0  0  0  0  0  0
  -14.3605    9.2857  -19.5354 C   0  0  0  0  0  0  0  0  0  0  0  0
  -13.5758   10.5858  -19.3695 C   0  0  0  0  0  0  0  0  0  0  0  0
  -11.9251   10.6545  -19.7627 S   0  0  0  0  0  0  0  0  0  0  0  0
  -10.8881   10.5062  -21.2404 C   0  0  0  0  0  0  0  0  0  0  0  0
  -11.3320   11.3724  -22.4254 C   0  0  1  0  0  0  0  0  0  0  0  0
  -11.5439   12.7233  -22.0581 O   0  0  0  0  0  0  0  0  0  0  0  0
  -10.2635   11.4715  -23.4884 C   0  0  1  0  0  0  0  0  0  0  0  0
  -10.9592   11.7877  -24.6744 O   0  0  0  0  0  0  0  0  0  0  0  0
   -9.4280   12.6689  -23.0995 C   0  0  1  0  0  0  0  0  0  0  0  0
   -9.0894   13.4072  -24.2532 O   0  0  0  0  0  0  0  0  0  0  0  0
  -10.3644   13.4851  -22.2349 C   0  0  2  0  0  0  0  0  0  0  0  0
  -15.0803    7.6452  -16.5452 O   0  0  0  0  0  0  0  0  0  0  0  0
   -7.3775   16.7096  -19.4251 N   0  0  0  0  0  0  0  0  0  0  0  0
   -7.5918   16.7195  -20.7831 C   0  0  0  0  0  0  0  0  0  0  0  0
   -8.4106   15.7707  -21.3465 N   0  0  0  0  0  0  0  0  0  0  0  0
   -9.0055   14.8340  -20.5823 C   0  0  0  0  0  0  0  0  0  0  0  0
   -8.8045   14.8065  -19.2151 C   0  0  0  0  0  0  0  0  0  0  0  0
   -7.9753   15.7598  -18.6357 C   0  0  0  0  0  0  0  0  0  0  0  0
   -7.7514   15.7675  -17.3275 N   0  0  0  0  0  0  0  0  0  0  0  0
   -9.5126   13.7747  -18.7038 N   0  0  0  0  0  0  0  0  0  0  0  0
  -10.1550   13.1622  -19.7174 C   0  0  0  0  0  0  0  0  0  0  0  0
   -9.8435   13.7987  -20.8917 N   0  0  0  0  0  0  0  0  0  0  0  0
  2  1  1  6  0  0  0
  2  3  1  0  0  0  0
  2  5  1  0  0  0  0
  3  4  1  0  0  0  0
  3 16  1  0  0  0  0
  5  6  1  0  0  0  0
  6  7  1  0  0  0  0
  7  8  1  0  0  0  0
  9  8  1  1  0  0  0
  9 10  1  0  0  0  0
  9 11  1  0  0  0  0
 10 15  1  0  0  0  0
 11 12  1  6  0  0  0
 11 13  1  0  0  0  0
 13 14  1  6  0  0  0
 13 15  1  0  0  0  0
 15 26  1  1  0  0  0
 17 18  2  0  0  0  0
 17 22  1  0  0  0  0
 18 19  1  0  0  0  0
 19 20  2  0  0  0  0
 20 21  1  0  0  0  0
 20 26  1  0  0  0  0
 21 22  2  0  0  0  0
 21 24  1  0  0  0  0
 22 23  1  0  0  0  0
 24 25  2  0  0  0  0
 25 26  1  0  0  0  0
M  END
>  <CHROM.1>
176.23890801,-164.02930446,64.51369178,65.25609237,50.15908051,50.38743333
-157.69313952,-10.95144181,12.14769389,-20.25494252,2.97427246,0.88841393
1.41327237

>  <Name>
ligand

>  <RI>
0

>  <Rbt.Current_Directory>
/home/itssahil/PROJECTS/Mol_Feturizer/New_Systems/rnas/3E5E

>  <Rbt.Executable>
rbdock ($Id: //depot/dev/client3/rdock/2013.1/src/exe/rbdock.cxx#4 $)

>  <Rbt.Library>
libRbt.so (2013.1, Build901 2013/11/27)

>  <Rbt.Parameter_File>
/export/apps/rDock/src/rDock_2013.1_src/data/scripts/dock_solv.prm

>  <Rbt.Receptor>
prm/pocket_docking_2.prm

>  <SCORE>
-17.6421

>  <SCORE.INTER>
-14.0989

>  <SCORE.INTER.CONST>
1

>  <SCORE.INTER.POLAR>
0

>  <SCORE.INTER.ROT>
7

>  <SCORE.INTER.SOLV>
16.877

>  <SCORE.INTER.VDW>
-23.2916

>  <SCORE.INTER.norm>
-0.542267

>  <SCORE.INTRA>
-3.54321

>  <SCORE.INTRA.DIHEDRAL>
-5.77729

>  <SCORE.INTRA.DIHEDRAL.0>
10.1225

>  <SCORE.INTRA.POLAR>
0

>  <SCORE.INTRA.POLAR.0>
0

>  <SCORE.INTRA.REPUL>
0

>  <SCORE.INTRA.REPUL.0>
0

>  <SCORE.INTRA.SOLV>
-0.23026

>  <SCORE.INTRA.SOLV.lig_0>
-49.9393

>  <SCORE.INTRA.VDW>
-0.539435

>  <SCORE.INTRA.VDW.0>
-1.75437

>  <SCORE.INTRA.norm>
-0.136277

>  <SCORE.RESTR>
0

>  <SCORE.RESTR.CAVITY>
0

>  <SCORE.RESTR.norm>
0

>  <SCORE.SYSTEM>
0

>  <SCORE.SYSTEM.CONST>
0

>  <SCORE.SYSTEM.DIHEDRAL>
0

>  <SCORE.SYSTEM.SOLV>
0

>  <SCORE.SYSTEM.norm>
0

>  <SCORE.heavy>
26

>  <SCORE.norm>
-0.678544

>  <RMSD>
1.324

$$$$
ligand
 OpenBabel11021811473D
libRbt.so/2013.1/901 2013/11/27
 26 28  0  0  0  0  0  0  0  0999 V2000
  -14.7802    6.9862  -19.0673 N   0  0  0  0  0  0  0  0  0  0  0  0
  -14.1502    8.2477  -18.6581 C   0  0  2  0  0  0  0  0  0  0  0  0
  -14.6834    8.6601  -17.3113 C   0  0  0  0  0  0  0  0  0  0  0  0
  -15.7991    8.3365  -16.9772 O   0  0  0  0  0  0  0  0  0  0  0  0
  -14.4684    9.3330  -19.6879 C   0  0  0  0  0  0  0  0  0  0  0  0
  -13.6262   10.5741  -19.3981 C   0  0  0  0  0  0  0  0  0  0  0  0
  -11.9612   10.5853  -19.7322 S   0  0  0  0  0  0  0  0  0  0  0  0
  -10.8790   10.4307  -21.1765 C   0  0  0  0  0  0  0  0  0  0  0  0
  -11.3095   11.2598  -22.3926 C   0  0  1  0  0  0  0  0  0  0  0  0
  -11.5222   12.6220  -22.0702 O   0  0  0  0  0  0  0  0  0  0  0  0
  -10.2305   11.3233  -23.4477 C   0  0  1  0  0  0  0  0  0  0  0  0
  -10.9140   11.6031  -24.6498 O   0  0  0  0  0  0  0  0  0  0  0  0
   -9.3965   12.5310  -23.0886 C   0  0  1  0  0  0  0  0  0  0  0  0
   -9.0450   13.2319  -24.2616 O   0  0  0  0  0  0  0  0  0  0  0  0
  -10.3395   13.3758  -22.2594 C   0  0  2  0  0  0  0  0  0  0  0  0
  -13.9209    9.3901  -16.4810 O   0  0  0  0  0  0  0  0  0  0  0  0
   -7.3957   16.6987  -19.5197 N   0  0  0  0  0  0  0  0  0  0  0  0
   -7.5996   16.6687  -20.8789 C   0  0  0  0  0  0  0  0  0  0  0  0
   -8.4077   15.6988  -21.4213 N   0  0  0  0  0  0  0  0  0  0  0  0
   -9.0024   14.7801  -20.6355 C   0  0  0  0  0  0  0  0  0  0  0  0
   -8.8117   14.7926  -19.2666 C   0  0  0  0  0  0  0  0  0  0  0  0
   -7.9933   15.7675  -18.7081 C   0  0  0  0  0  0  0  0  0  0  0  0
   -7.7796   15.8137  -17.3990 N   0  0  0  0  0  0  0  0  0  0  0  0
   -9.5169   13.7709  -18.7316 N   0  0  0  0  0  0  0  0  0  0  0  0
  -10.1474   13.1256  -19.7322 C   0  0  0  0  0  0  0  0  0  0  0  0
   -9.8310   13.7307  -20.9217 N   0  0  0  0  0  0  0  0  0  0  0  0
  2  1  1  6  0  0  0
  2  3  1  0  0  0  0
  2  5  1  0  0  0  0
  3  4  1  0  0  0  0
  3 16  1  0  0  0  0
  5  6  1  0  0  0  0
  6  7  1  0  0  0  0
  7  8  1  0  0  0  0
  9  8  1  1  0  0  0
  9 10  1  0  0  0  0
  9 11  1  0  0  0  0
 10 15  1  0  0  0  0
 11 12  1  6  0  0  0
 11 13  1  0  0  0  0
 13 14  1  6  0  0  0
 13 15  1  0  0  0  0
 15 26  1  1  0  0  0
 17 18  2  0  0  0  0
 17 22  1  0  0  0  0
 18 19  1  0  0  0  0
 19 20  2  0  0  0  0
 20 21  1  0  0  0  0
 20 26  1  0  0  0  0
 21 22  2  0  0  0  0
 21 24  1  0  0  0  0
 22 23  1  0  0  0  0
 24 25  2  0  0  0  0
 25 26  1  0  0  0  0
M  END
>  <CHROM.1>
-28.78031063,-170.37236651,73.03875436,62.26209245,45.57699354,52.31379278
-157.14990032,-11.02675557,12.12578715,-20.29707002,3.04266996,0.85207850
1.33934127

>  <Name>
ligand

>  <RI>
0

>  <Rbt.Current_Directory>
/home/itssahil/PROJECTS/Mol_Feturizer/New_Systems/rnas/3E5E

>  <Rbt.Executable>
rbdock ($Id: //depot/dev/client3/rdock/2013.1/src/exe/rbdock.cxx#4 $)

>  <Rbt.Library>
libRbt.so (2013.1, Build901 2013/11/27)

>  <Rbt.Parameter_File>
/export/apps/rDock/src/rDock_2013.1_src/data/scripts/dock_solv.prm

>  <Rbt.Receptor>
prm/pocket_docking_2.prm

>  <SCORE>
-17.6914

>  <SCORE.INTER>
-13.7171

>  <SCORE.INTER.CONST>
1

>  <SCORE.INTER.POLAR>
0

>  <SCORE.INTER.ROT>
7

>  <SCORE.INTER.SOLV>
15.5898

>  <SCORE.INTER.VDW>
-22.608

>  <SCORE.INTER.norm>
-0.527582

>  <SCORE.INTRA>
-3.97424

>  <SCORE.INTRA.DIHEDRAL>
-5.82183

>  <SCORE.INTRA.DIHEDRAL.0>
10.1225

>  <SCORE.INTRA.POLAR>
0

>  <SCORE.INTRA.POLAR.0>
0

>  <SCORE.INTRA.REPUL>
0

>  <SCORE.INTRA.REPUL.0>
0

>  <SCORE.INTRA.SOLV>
-0.398624

>  <SCORE.INTRA.SOLV.lig_0>
-49.9393

>  <SCORE.INTRA.VDW>
-0.864014

>  <SCORE.INTRA.VDW.0>
-1.75437

>  <SCORE.INTRA.norm>
-0.152855

>  <SCORE.RESTR>
0

>  <SCORE.RESTR.CAVITY>
0

>  <SCORE.RESTR.norm>
0

>  <SCORE.SYSTEM>
0

>  <SCORE.SYSTEM.CONST>
0

>  <SCORE.SYSTEM.DIHEDRAL>
0

>  <SCORE.SYSTEM.SOLV>
0

>  <SCORE.SYSTEM.norm>
0

>  <SCORE.heavy>
26

>  <SCORE.norm>
-0.680438

>  <RMSD>
1.325

$$$$
ligand
 OpenBabel11021811473D
libRbt.so/2013.1/901 2013/11/27
 26 28  0  0  0  0  0  0  0  0999 V2000
  -13.7255    4.9912  -17.1096 N   0  0  0  0  0  0  0  0  0  0  0  0
  -13.6875    6.4501  -16.9488 C   0  0  2  0  0  0  0  0  0  0  0  0
  -14.9542    6.9132  -16.2785 C   0  0  0  0  0  0  0  0  0  0  0  0
  -15.9906    6.3209  -16.4681 O   0  0  0  0  0  0  0  0  0  0  0  0
  -13.5656    7.1106  -18.3230 C   0  0  0  0  0  0  0  0  0  0  0  0
  -13.3583    8.6142  -18.1500 C   0  0  0  0  0  0  0  0  0  0  0  0
  -13.1504    9.6188  -19.5033 S   0  0  0  0  0  0  0  0  0  0  0  0
  -12.7201   11.3454  -19.8422 C   0  0  0  0  0  0  0  0  0  0  0  0
  -12.6243   11.7026  -21.3304 C   0  0  1  0  0  0  0  0  0  0  0  0
  -12.0058   12.9579  -21.5463 O   0  0  0  0  0  0  0  0  0  0  0  0
  -11.7318   10.7477  -22.0875 C   0  0  1  0  0  0  0  0  0  0  0  0
  -12.1586   10.8380  -23.4292 O   0  0  0  0  0  0  0  0  0  0  0  0
  -10.3460   11.3425  -21.9936 C   0  0  1  0  0  0  0  0  0  0  0  0
   -9.6839   11.2031  -23.2318 O   0  0  0  0  0  0  0  0  0  0  0  0
  -10.6098   12.8083  -21.7247 C   0  0  2  0  0  0  0  0  0  0  0  0
  -14.9342    7.9866  -15.4714 O   0  0  0  0  0  0  0  0  0  0  0  0
   -7.5757   16.5755  -19.7712 N   0  0  0  0  0  0  0  0  0  0  0  0
   -7.9530   16.3833  -21.0792 C   0  0  0  0  0  0  0  0  0  0  0  0
   -8.7544   15.3152  -21.4030 N   0  0  0  0  0  0  0  0  0  0  0  0
   -9.1746   14.4574  -20.4528 C   0  0  0  0  0  0  0  0  0  0  0  0
   -8.8078   14.6325  -19.1317 C   0  0  0  0  0  0  0  0  0  0  0  0
   -7.9946   15.7079  -18.7941 C   0  0  0  0  0  0  0  0  0  0  0  0
   -7.6153   15.9112  -17.5385 N   0  0  0  0  0  0  0  0  0  0  0  0
   -9.3629   13.6385  -18.4029 N   0  0  0  0  0  0  0  0  0  0  0  0
  -10.0716   12.8516  -19.2358 C   0  0  0  0  0  0  0  0  0  0  0  0
   -9.9572   13.3377  -20.5132 N   0  0  0  0  0  0  0  0  0  0  0  0
  2  1  1  6  0  0  0
  2  3  1  0  0  0  0
  2  5  1  0  0  0  0
  3  4  1  0  0  0  0
  3 16  1  0  0  0  0
  5  6  1  0  0  0  0
  6  7  1  0  0  0  0
  7  8  1  0  0  0  0
  9  8  1  1  0  0  0
  9 10  1  0  0  0  0
  9 11  1  0  0  0  0
 10 15  1  0  0  0  0
 11 12  1  6  0  0  0
 11 13  1  0  0  0  0
 13 14  1  6  0  0  0
 13 15  1  0  0  0  0
 15 26  1  1  0  0  0
 17 18  2  0  0  0  0
 17 22  1  0  0  0  0
 18 19  1  0  0  0  0
 19 20  2  0  0  0  0
 20 21  1  0  0  0  0
 20 26  1  0  0  0  0
 21 22  2  0  0  0  0
 21 24  1  0  0  0  0
 22 23  1  0  0  0  0
 24 25  2  0  0  0  0
 25 26  1  0  0  0  0
M  END
>  <CHROM.1>
-31.93681468,-173.29360644,178.51851618,-172.19344968,177.65505798,-166.88976063
-112.76132496,-11.42568348,11.34222436,-19.61057699,-2.81911907,-0.94309604
-1.55086210

>  <Name>
ligand

>  <RI>
0

>  <Rbt.Current_Directory>
/home/itssahil/PROJECTS/Mol_Feturizer/New_Systems/rnas/3E5E

>  <Rbt.Executable>
rbdock ($Id: //depot/dev/client3/rdock/2013.1/src/exe/rbdock.cxx#4 $)

>  <Rbt.Library>
libRbt.so (2013.1, Build901 2013/11/27)

>  <Rbt.Parameter_File>
/export/apps/rDock/src/rDock_2013.1_src/data/scripts/dock_solv.prm

>  <Rbt.Receptor>
prm/pocket_docking_3.prm

>  <SCORE>
-19.3623

>  <SCORE.INTER>
-15.7287

>  <SCORE.INTER.CONST>
1

>  <SCORE.INTER.POLAR>
0

>  <SCORE.INTER.ROT>
7

>  <SCORE.INTER.SOLV>
16.6212

>  <SCORE.INTER.VDW>
-24.2928

>  <SCORE.INTER.norm>
-0.604949

>  <SCORE.INTRA>
-3.63359

>  <SCORE.INTRA.DIHEDRAL>
-6.57071

>  <SCORE.INTRA.DIHEDRAL.0>
10.1225

>  <SCORE.INTRA.POLAR>
0

>  <SCORE.INTRA.POLAR.0>
0

>  <SCORE.INTRA.REPUL>
0

>  <SCORE.INTRA.REPUL.0>
0

>  <SCORE.INTRA.SOLV>
-0.59459

>  <SCORE.INTRA.SOLV.lig_0>
-49.9393

>  <SCORE.INTRA.VDW>
-0.0509437

>  <SCORE.INTRA.VDW.0>
-1.75437

>  <SCORE.INTRA.norm>
-0.139754

>  <SCORE.RESTR>
0

>  <SCORE.RESTR.CAVITY>
0

>  <SCORE.RESTR.norm>
0

>  <SCORE.SYSTEM>
0

>  <SCORE.SYSTEM.CONST>
0

>  <SCORE.SYSTEM.DIHEDRAL>
0

>  <SCORE.SYSTEM.SOLV>
0

>  <SCORE.SYSTEM.norm>
0

>  <SCORE.heavy>
26

>  <SCORE.norm>
-0.744702

>  <RMSD>
1.339

$$$$
ligand
 OpenBabel11021811473D
libRbt.so/2013.1/901 2013/11/27
 26 28  0  0  0  0  0  0  0  0999 V2000
  -14.1071    7.2822  -17.6986 N   0  0  0  0  0  0  0  0  0  0  0  0
  -13.7557    8.6630  -17.3444 C   0  0  2  0  0  0  0  0  0  0  0  0
  -14.2730    8.9733  -15.9645 C   0  0  0  0  0  0  0  0  0  0  0  0
  -14.0091   10.0312  -15.4429 O   0  0  0  0  0  0  0  0  0  0  0  0
  -14.3858    9.6236  -18.3543 C   0  0  0  0  0  0  0  0  0  0  0  0
  -13.6433    9.5236  -19.6856 C   0  0  0  0  0  0  0  0  0  0  0  0
  -12.0377   10.0602  -19.8214 S   0  0  0  0  0  0  0  0  0  0  0  0
  -10.7875   10.2450  -21.1191 C   0  0  0  0  0  0  0  0  0  0  0  0
  -11.2438   11.0543  -22.3391 C   0  0  1  0  0  0  0  0  0  0  0  0
  -11.4830   12.4145  -22.0268 O   0  0  0  0  0  0  0  0  0  0  0  0
  -10.1737   11.1314  -23.4023 C   0  0  1  0  0  0  0  0  0  0  0  0
  -10.8712   11.3864  -24.6019 O   0  0  0  0  0  0  0  0  0  0  0  0
   -9.3628   12.3594  -23.0594 C   0  0  1  0  0  0  0  0  0  0  0  0
   -9.0344   13.0574  -24.2408 O   0  0  0  0  0  0  0  0  0  0  0  0
  -10.3177   13.1913  -22.2308 C   0  0  2  0  0  0  0  0  0  0  0  0
  -15.0261    8.0737  -15.3106 O   0  0  0  0  0  0  0  0  0  0  0  0
   -7.5239   16.6651  -19.5214 N   0  0  0  0  0  0  0  0  0  0  0  0
   -7.7490   16.6302  -20.8772 C   0  0  0  0  0  0  0  0  0  0  0  0
   -8.5091   15.6179  -21.4116 N   0  0  0  0  0  0  0  0  0  0  0  0
   -9.0361   14.6625  -20.6214 C   0  0  0  0  0  0  0  0  0  0  0  0
   -8.8230   14.6792  -19.2558 C   0  0  0  0  0  0  0  0  0  0  0  0
   -8.0528   15.6969  -18.7055 C   0  0  0  0  0  0  0  0  0  0  0  0
   -7.8196   15.7489  -17.3999 N   0  0  0  0  0  0  0  0  0  0  0  0
   -9.4588   13.6158  -18.7150 N   0  0  0  0  0  0  0  0  0  0  0  0
  -10.0681   12.9402  -19.7087 C   0  0  0  0  0  0  0  0  0  0  0  0
   -9.8077   13.5684  -20.8998 N   0  0  0  0  0  0  0  0  0  0  0  0
  2  1  1  6  0  0  0
  2  3  1  0  0  0  0
  2  5  1  0  0  0  0
  3  4  1  0  0  0  0
  3 16  1  0  0  0  0
  5  6  1  0  0  0  0
  6  7  1  0  0  0  0
  7  8  1  0  0  0  0
  9  8  1  1  0  0  0
  9 10  1  0  0  0  0
  9 11  1  0  0  0  0
 10 15  1  0  0  0  0
 11 12  1  6  0  0  0
 11 13  1  0  0  0  0
 13 14  1  6  0  0  0
 13 15  1  0  0  0  0
 15 26  1  1  0  0  0
 17 18  2  0  0  0  0
 17 22  1  0  0  0  0
 18 19  1  0  0  0  0
 19 20  2  0  0  0  0
 20 21  1  0  0  0  0
 20 26  1  0  0  0  0
 21 22  2  0  0  0  0
 21 24  1  0  0  0  0
 22 23  1  0  0  0  0
 24 25  2  0  0  0  0
 25 26  1  0  0  0  0
M  END
>  <CHROM.1>
174.83396192,-72.55084922,-67.68639239,-175.95197214,53.59026360,66.37836825
-154.82702474,-10.94879381,12.01018674,-19.99481535,2.88065407,0.89469370
1.31351610

>  <Name>
ligand

>  <RI>
0

>  <Rbt.Current_Directory>
/home/itssahil/PROJECTS/Mol_Feturizer/New_Systems/rnas/3E5E

>  <Rbt.Executable>
rbdock ($Id: //depot/dev/client3/rdock/2013.1/src/exe/rbdock.cxx#4 $)

>  <Rbt.Library>
libRbt.so (2013.1, Build901 2013/11/27)

>  <Rbt.Parameter_File>
/export/apps/rDock/src/rDock_2013.1_src/data/scripts/dock_solv.prm

>  <Rbt.Receptor>
prm/pocket_docking_3.prm

>  <SCORE>
-19.7137

>  <SCORE.INTER>
-16.2373

>  <SCORE.INTER.CONST>
1

>  <SCORE.INTER.POLAR>
0

>  <SCORE.INTER.ROT>
7

>  <SCORE.INTER.SOLV>
17.0099

>  <SCORE.INTER.VDW>
-24.7615

>  <SCORE.INTER.norm>
-0.624511

>  <SCORE.INTRA>
-3.47656

>  <SCORE.INTRA.DIHEDRAL>
-6.24681

>  <SCORE.INTRA.DIHEDRAL.0>
10.1225

>  <SCORE.INTRA.POLAR>
0

>  <SCORE.INTRA.POLAR.0>
0

>  <SCORE.INTRA.REPUL>
0

>  <SCORE.INTRA.REPUL.0>
0

>  <SCORE.INTRA.SOLV>
0.5539

>  <SCORE.INTRA.SOLV.lig_0>
-49.9393

>  <SCORE.INTRA.VDW>
-0.630109

>  <SCORE.INTRA.VDW.0>
-1.75437

>  <SCORE.INTRA.norm>
-0.133714

>  <SCORE.RESTR>
0.000124099

>  <SCORE.RESTR.CAVITY>
0.000124099

>  <SCORE.RESTR.norm>
4.77302e-06

>  <SCORE.SYSTEM>
0

>  <SCORE.SYSTEM.CONST>
0

>  <SCORE.SYSTEM.DIHEDRAL>
0

>  <SCORE.SYSTEM.SOLV>
0

>  <SCORE.SYSTEM.norm>
0

>  <SCORE.heavy>
26

>  <SCORE.norm>
-0.75822

>  <RMSD>
1.349

$$$$
ligand
 OpenBabel11021811473D
libRbt.so/2013.1/901 2013/11/27
 26 28  0  0  0  0  0  0  0  0999 V2000
  -14.4856    6.9257  -16.7844 N   0  0  0  0  0  0  0  0  0  0  0  0
  -13.9978    8.3058  -16.6705 C   0  0  2  0  0  0  0  0  0  0  0  0
  -14.9364    9.0985  -15.7993 C   0  0  0  0  0  0  0  0  0  0  0  0
  -14.4956    9.8797  -14.9891 O   0  0  0  0  0  0  0  0  0  0  0  0
  -13.9337    8.9393  -18.0613 C   0  0  0  0  0  0  0  0  0  0  0  0
  -13.4042   10.3677  -17.9475 C   0  0  0  0  0  0  0  0  0  0  0  0
  -13.2304   11.3372  -19.3309 S   0  0  0  0  0  0  0  0  0  0  0  0
  -12.3098   11.3012  -20.8905 C   0  0  0  0  0  0  0  0  0  0  0  0
  -12.7256   12.3725  -21.9060 C   0  0  1  0  0  0  0  0  0  0  0  0
  -12.4404   13.6841  -21.4552 O   0  0  0  0  0  0  0  0  0  0  0  0
  -11.9371   12.2741  -23.1905 C   0  0  1  0  0  0  0  0  0  0  0  0
  -12.7504   12.8914  -24.1641 O   0  0  0  0  0  0  0  0  0  0  0  0
  -10.7196   13.1426  -22.9752 C   0  0  1  0  0  0  0  0  0  0  0  0
  -10.4394   13.8686  -24.1521 O   0  0  0  0  0  0  0  0  0  0  0  0
  -11.1570   14.0973  -21.8854 C   0  0  2  0  0  0  0  0  0  0  0  0
  -16.2642    8.9363  -15.9199 O   0  0  0  0  0  0  0  0  0  0  0  0
   -7.0841   16.3945  -19.5728 N   0  0  0  0  0  0  0  0  0  0  0  0
   -7.6125   16.6559  -20.8148 C   0  0  0  0  0  0  0  0  0  0  0  0
   -8.6904   15.9288  -21.2589 N   0  0  0  0  0  0  0  0  0  0  0  0
   -9.2344   14.9654  -20.4900 C   0  0  0  0  0  0  0  0  0  0  0  0
   -8.7194   14.6870  -19.2379 C   0  0  0  0  0  0  0  0  0  0  0  0
   -7.6270   15.4145  -18.7805 C   0  0  0  0  0  0  0  0  0  0  0  0
   -7.0984   15.1773  -17.5864 N   0  0  0  0  0  0  0  0  0  0  0  0
   -9.4482   13.6872  -18.6932 N   0  0  0  0  0  0  0  0  0  0  0  0
  -10.4085   13.3397  -19.5720 C   0  0  0  0  0  0  0  0  0  0  0  0
  -10.2844   14.1143  -20.6970 N   0  0  0  0  0  0  0  0  0  0  0  0
  2  1  1  6  0  0  0
  2  3  1  0  0  0  0
  2  5  1  0  0  0  0
  3  4  1  0  0  0  0
  3 16  1  0  0  0  0
  5  6  1  0  0  0  0
  6  7  1  0  0  0  0
  7  8  1  0  0  0  0
  9  8  1  1  0  0  0
  9 10  1  0  0  0  0
  9 11  1  0  0  0  0
 10 15  1  0  0  0  0
 11 12  1  6  0  0  0
 11 13  1  0  0  0  0
 13 14  1  6  0  0  0
 13 15  1  0  0  0  0
 15 26  1  1  0  0  0
 17 18  2  0  0  0  0
 17 22  1  0  0  0  0
 18 19  1  0  0  0  0
 19 20  2  0  0  0  0
 20 21  1  0  0  0  0
 20 26  1  0  0  0  0
 21 22  2  0  0  0  0
 21 24  1  0  0  0  0
 22 23  1  0  0  0  0
 24 25  2  0  0  0  0
 25 26  1  0  0  0  0
M  END
>  <CHROM.1>
138.79052324,-179.06133013,-179.53926029,-60.52740409,170.21710931,65.36829163
-148.26502553,-11.54528115,12.48785736,-19.71429064,-2.50523990,-0.71175785
-1.32527059

>  <Name>
ligand

>  <RI>
0

>  <Rbt.Current_Directory>
/home/itssahil/PROJECTS/Mol_Feturizer/New_Systems/rnas/3E5E

>  <Rbt.Executable>
rbdock ($Id: //depot/dev/client3/rdock/2013.1/src/exe/rbdock.cxx#4 $)

>  <Rbt.Library>
libRbt.so (2013.1, Build901 2013/11/27)

>  <Rbt.Parameter_File>
/export/apps/rDock/src/rDock_2013.1_src/data/scripts/dock_solv.prm

>  <Rbt.Receptor>
prm/pocket_docking_3.prm

>  <SCORE>
-21.5585

>  <SCORE.INTER>
-17.4013

>  <SCORE.INTER.CONST>
1

>  <SCORE.INTER.POLAR>
0

>  <SCORE.INTER.ROT>
7

>  <SCORE.INTER.SOLV>
19.9064

>  <SCORE.INTER.VDW>
-26.503

>  <SCORE.INTER.norm>
-0.669281

>  <SCORE.INTRA>
-4.17495

>  <SCORE.INTRA.DIHEDRAL>
-7.04747

>  <SCORE.INTRA.DIHEDRAL.0>
10.1225

>  <SCORE.INTRA.POLAR>
0

>  <SCORE.INTRA.POLAR.0>
0

>  <SCORE.INTRA.REPUL>
0

>  <SCORE.INTRA.REPUL.0>
0

>  <SCORE.INTRA.SOLV>
-0.587766

>  <SCORE.INTRA.SOLV.lig_0>
-49.9393

>  <SCORE.INTRA.VDW>
-0.357331

>  <SCORE.INTRA.VDW.0>
-1.75437

>  <SCORE.INTRA.norm>
-0.160575

>  <SCORE.RESTR>
0.0177898

>  <SCORE.RESTR.CAVITY>
0.0177898

>  <SCORE.RESTR.norm>
0.000684223

>  <SCORE.SYSTEM>
0

>  <SCORE.SYSTEM.CONST>
0

>  <SCORE.SYSTEM.DIHEDRAL>
0

>  <SCORE.SYSTEM.SOLV>
0

>  <SCORE.SYSTEM.norm>
0

>  <SCORE.heavy>
26

>  <SCORE.norm>
-0.829171

>  <RMSD>
1.364

$$$$
ligand
 OpenBabel11021811473D
libRbt.so/2013.1/901 2013/11/27
 26 28  0  0  0  0  0  0  0  0999 V2000
  -17.2595    7.9794  -19.3162 N   0  0  0  0  0  0  0  0  0  0  0  0
  -15.9488    8.0507  -18.6584 C   0  0  2  0  0  0  0  0  0  0  0  0
  -16.1109    8.6389  -17.2815 C   0  0  0  0  0  0  0  0  0  0  0  0
  -16.9346    9.5013  -17.0849 O   0  0  0  0  0  0  0  0  0  0  0  0
  -15.0122    8.9339  -19.4845 C   0  0  0  0  0  0  0  0  0  0  0  0
  -13.5901    8.8207  -18.9380 C   0  0  0  0  0  0  0  0  0  0  0  0
  -12.3839    9.9069  -19.4374 S   0  0  0  0  0  0  0  0  0  0  0  0
  -11.6713   10.5019  -20.9928 C   0  0  0  0  0  0  0  0  0  0  0  0
  -12.5406   11.5116  -21.7521 C   0  0  1  0  0  0  0  0  0  0  0  0
  -12.6462   12.7508  -21.0753 O   0  0  0  0  0  0  0  0  0  0  0  0
  -11.9335   11.8986  -23.0799 C   0  0  1  0  0  0  0  0  0  0  0  0
  -13.0209   12.3444  -23.8604 O   0  0  0  0  0  0  0  0  0  0  0  0
  -11.0509   13.0878  -22.7800 C   0  0  1  0  0  0  0  0  0  0  0  0
  -11.1759   14.0443  -23.8095 O   0  0  0  0  0  0  0  0  0  0  0  0
  -11.6347   13.6450  -21.4997 C   0  0  2  0  0  0  0  0  0  0  0  0
  -15.3384    8.2077  -16.2709 O   0  0  0  0  0  0  0  0  0  0  0  0
   -7.4064   16.1411  -19.7377 N   0  0  0  0  0  0  0  0  0  0  0  0
   -8.0313   16.2858  -20.9537 C   0  0  0  0  0  0  0  0  0  0  0  0
   -9.1366   15.5222  -21.2422 N   0  0  0  0  0  0  0  0  0  0  0  0
   -9.6140   14.6365  -20.3462 C   0  0  0  0  0  0  0  0  0  0  0  0
   -9.0016   14.4758  -19.1175 C   0  0  0  0  0  0  0  0  0  0  0  0
   -7.8808   15.2410  -18.8170 C   0  0  0  0  0  0  0  0  0  0  0  0
   -7.2595   15.1159  -17.6508 N   0  0  0  0  0  0  0  0  0  0  0  0
   -9.6804   13.5331  -18.4262 N   0  0  0  0  0  0  0  0  0  0  0  0
  -10.7043   13.1065  -19.1909 C   0  0  0  0  0  0  0  0  0  0  0  0
  -10.6723   13.7717  -20.3899 N   0  0  0  0  0  0  0  0  0  0  0  0
  2  1  1  6  0  0  0
  2  3  1  0  0  0  0
  2  5  1  0  0  0  0
  3  4  1  0  0  0  0
  3 16  1  0  0  0  0
  5  6  1  0  0  0  0
  6  7  1  0  0  0  0
  7  8  1  0  0  0  0
  9  8  1  1  0  0  0
  9 10  1  0  0  0  0
  9 11  1  0  0  0  0
 10 15  1  0  0  0  0
 11 12  1  6  0  0  0
 11 13  1  0  0  0  0
 13 14  1  6  0  0  0
 13 15  1  0  0  0  0
 15 26  1  1  0  0  0
 17 18  2  0  0  0  0
 17 22  1  0  0  0  0
 18 19  1  0  0  0  0
 19 20  2  0  0  0  0
 20 21  1  0  0  0  0
 20 26  1  0  0  0  0
 21 22  2  0  0  0  0
 21 24  1  0  0  0  0
 22 23  1  0  0  0  0
 24 25  2  0  0  0  0
 25 26  1  0  0  0  0
M  END
>  <CHROM.1>
-35.16862846,-170.44441737,-167.77045350,-53.58399179,76.08551885,68.17866012
-173.55240906,-11.95286758,12.04268734,-20.03099744,2.77413709,0.70630510
1.79381057

>  <Name>
ligand

>  <RI>
0

>  <Rbt.Current_Directory>
/home/itssahil/PROJECTS/Mol_Feturizer/New_Systems/rnas/3E5E

>  <Rbt.Executable>
rbdock ($Id: //depot/dev/client3/rdock/2013.1/src/exe/rbdock.cxx#4 $)

>  <Rbt.Library>
libRbt.so (2013.1, Build901 2013/11/27)

>  <Rbt.Parameter_File>
/export/apps/rDock/src/rDock_2013.1_src/data/scripts/dock_solv.prm

>  <Rbt.Receptor>
prm/pocket_docking_3.prm

>  <SCORE>
-18.6635

>  <SCORE.INTER>
-14.6839

>  <SCORE.INTER.CONST>
1

>  <SCORE.INTER.POLAR>
0

>  <SCORE.INTER.ROT>
7

>  <SCORE.INTER.SOLV>
18.0879

>  <SCORE.INTER.VDW>
-24.0852

>  <SCORE.INTER.norm>
-0.564764

>  <SCORE.INTRA>
-3.97969

>  <SCORE.INTRA.DIHEDRAL>
-5.7905

>  <SCORE.INTRA.DIHEDRAL.0>
10.1225

>  <SCORE.INTRA.POLAR>
0

>  <SCORE.INTRA.POLAR.0>
0

>  <SCORE.INTRA.REPUL>
0

>  <SCORE.INTRA.REPUL.0>
0

>  <SCORE.INTRA.SOLV>
-0.566022

>  <SCORE.INTRA.SOLV.lig_0>
-49.9393

>  <SCORE.INTRA.VDW>
-0.801428

>  <SCORE.INTRA.VDW.0>
-1.75437

>  <SCORE.INTRA.norm>
-0.153065

>  <SCORE.RESTR>
0

>  <SCORE.RESTR.CAVITY>
0

>  <SCORE.RESTR.norm>
0

>  <SCORE.SYSTEM>
0

>  <SCORE.SYSTEM.CONST>
0

>  <SCORE.SYSTEM.DIHEDRAL>
0

>  <SCORE.SYSTEM.SOLV>
0

>  <SCORE.SYSTEM.norm>
0

>  <SCORE.heavy>
26

>  <SCORE.norm>
-0.717829

>  <RMSD>
1.393

$$$$
ligand
 OpenBabel11021811473D
libRbt.so/2013.1/901 2013/11/27
 26 28  0  0  0  0  0  0  0  0999 V2000
  -14.0432    6.9102  -18.5468 N   0  0  0  0  0  0  0  0  0  0  0  0
  -13.6365    8.1663  -17.9045 C   0  0  2  0  0  0  0  0  0  0  0  0
  -14.2889    8.2708  -16.5511 C   0  0  0  0  0  0  0  0  0  0  0  0
  -14.6662    7.2732  -15.9824 O   0  0  0  0  0  0  0  0  0  0  0  0
  -14.0719    9.3469  -18.7742 C   0  0  0  0  0  0  0  0  0  0  0  0
  -13.2661    9.3492  -20.0719 C   0  0  0  0  0  0  0  0  0  0  0  0
  -13.2112   10.7350  -21.0521 S   0  0  0  0  0  0  0  0  0  0  0  0
  -12.8241   12.4952  -20.8706 C   0  0  0  0  0  0  0  0  0  0  0  0
  -12.7249   13.2697  -22.1904 C   0  0  1  0  0  0  0  0  0  0  0  0
  -12.0269   14.4934  -22.0479 O   0  0  0  0  0  0  0  0  0  0  0  0
  -11.9086   12.5296  -23.2236 C   0  0  1  0  0  0  0  0  0  0  0  0
  -12.3467   13.0376  -24.4647 O   0  0  0  0  0  0  0  0  0  0  0  0
  -10.4850   12.9860  -23.0044 C   0  0  1  0  0  0  0  0  0  0  0  0
   -9.8507   13.1793  -24.2498 O   0  0  0  0  0  0  0  0  0  0  0  0
  -10.6466   14.3199  -22.3080 C   0  0  2  0  0  0  0  0  0  0  0  0
  -14.4546    9.4730  -15.9755 O   0  0  0  0  0  0  0  0  0  0  0  0
   -6.6032   16.4293  -19.7752 N   0  0  0  0  0  0  0  0  0  0  0  0
   -6.9191   16.5389  -21.1087 C   0  0  0  0  0  0  0  0  0  0  0  0
   -8.0294   15.8933  -21.5970 N   0  0  0  0  0  0  0  0  0  0  0  0
   -8.8107   15.1570  -20.7829 C   0  0  0  0  0  0  0  0  0  0  0  0
   -8.5119   15.0342  -19.4390 C   0  0  0  0  0  0  0  0  0  0  0  0
   -7.3890   15.6806  -18.9357 C   0  0  0  0  0  0  0  0  0  0  0  0
   -7.0629   15.5862  -17.6525 N   0  0  0  0  0  0  0  0  0  0  0  0
   -9.4506   14.2478  -18.8667 N   0  0  0  0  0  0  0  0  0  0  0  0
  -10.3307   13.8823  -19.8191 C   0  0  0  0  0  0  0  0  0  0  0  0
   -9.9436   14.4277  -21.0165 N   0  0  0  0  0  0  0  0  0  0  0  0
  2  1  1  6  0  0  0
  2  3  1  0  0  0  0
  2  5  1  0  0  0  0
  3  4  1  0  0  0  0
  3 16  1  0  0  0  0
  5  6  1  0  0  0  0
  6  7  1  0  0  0  0
  7  8  1  0  0  0  0
  9  8  1  1  0  0  0
  9 10  1  0  0  0  0
  9 11  1  0  0  0  0
 10 15  1  0  0  0  0
 11 12  1  6  0  0  0
 11 13  1  0  0  0  0
 13 14  1  6  0  0  0
 13 15  1  0  0  0  0
 15 26  1  1  0  0  0
 17 18  2  0  0  0  0
 17 22  1  0  0  0  0
 18 19  1  0  0  0  0
 19 20  2  0  0  0  0
 20 21  1  0  0  0  0
 20 26  1  0  0  0  0
 21 22  2  0  0  0  0
 21 24  1  0  0  0  0
 22 23  1  0  0  0  0
 24 25  2  0  0  0  0
 25 26  1  0  0  0  0
M  END
>  <CHROM.1>
22.67837879,-67.83132837,-163.68730463,52.88439876,170.47772047,-161.37081361
-134.00833585,-11.24740913,12.47891403,-20.29197565,-2.57569386,-0.77029098
-1.24567841

>  <Name>
ligand

>  <RI>
0

>  <Rbt.Current_Directory>
/home/itssahil/PROJECTS/Mol_Feturizer/New_Systems/rnas/3E5E

>  <Rbt.Executable>
rbdock ($Id: //depot/dev/client3/rdock/2013.1/src/exe/rbdock.cxx#4 $)

>  <Rbt.Library>
libRbt.so (2013.1, Build901 2013/11/27)

>  <Rbt.Parameter_File>
/export/apps/rDock/src/rDock_2013.1_src/data/scripts/dock_solv.prm

>  <Rbt.Receptor>
prm/pocket_docking_2.prm

>  <SCORE>
-18.5807

>  <SCORE.INTER>
-16.7275

>  <SCORE.INTER.CONST>
1

>  <SCORE.INTER.POLAR>
0

>  <SCORE.INTER.ROT>
7

>  <SCORE.INTER.SOLV>
19.6191

>  <SCORE.INTER.VDW>
-25.958

>  <SCORE.INTER.norm>
-0.643366

>  <SCORE.INTRA>
-1.89576

>  <SCORE.INTRA.DIHEDRAL>
-4.7652

>  <SCORE.INTRA.DIHEDRAL.0>
10.1225

>  <SCORE.INTRA.POLAR>
0

>  <SCORE.INTRA.POLAR.0>
0

>  <SCORE.INTRA.REPUL>
0

>  <SCORE.INTRA.REPUL.0>
0

>  <SCORE.INTRA.SOLV>
0.0883525

>  <SCORE.INTRA.SOLV.lig_0>
-49.9393

>  <SCORE.INTRA.VDW>
0.442666

>  <SCORE.INTRA.VDW.0>
-1.75437

>  <SCORE.INTRA.norm>
-0.0729137

>  <SCORE.RESTR>
0.0426261

>  <SCORE.RESTR.CAVITY>
0.0426261

>  <SCORE.RESTR.norm>
0.00163947

>  <SCORE.SYSTEM>
0

>  <SCORE.SYSTEM.CONST>
0

>  <SCORE.SYSTEM.DIHEDRAL>
0

>  <SCORE.SYSTEM.SOLV>
0

>  <SCORE.SYSTEM.norm>
0

>  <SCORE.heavy>
26

>  <SCORE.norm>
-0.71464

>  <RMSD>
1.396

$$$$
ligand
 OpenBabel11021811473D
libRbt.so/2013.1/901 2013/11/27
 26 28  0  0  0  0  0  0  0  0999 V2000
  -13.9062    4.9923  -17.5890 N   0  0  0  0  0  0  0  0  0  0  0  0
  -13.6982    6.4007  -17.2302 C   0  0  2  0  0  0  0  0  0  0  0  0
  -14.8259    6.8641  -16.3461 C   0  0  0  0  0  0  0  0  0  0  0  0
  -14.6419    7.7503  -15.5450 O   0  0  0  0  0  0  0  0  0  0  0  0
  -13.6635    7.2501  -18.5018 C   0  0  0  0  0  0  0  0  0  0  0  0
  -13.2931    8.6884  -18.1448 C   0  0  0  0  0  0  0  0  0  0  0  0
  -13.1506    9.8698  -19.3565 S   0  0  0  0  0  0  0  0  0  0  0  0
  -12.4779   11.5426  -19.5303 C   0  0  0  0  0  0  0  0  0  0  0  0
  -12.9205   12.2837  -20.7978 C   0  0  1  0  0  0  0  0  0  0  0  0
  -12.5108   13.6390  -20.8025 O   0  0  0  0  0  0  0  0  0  0  0  0
  -12.2670   11.7254  -22.0399 C   0  0  1  0  0  0  0  0  0  0  0  0
  -13.1293   12.0850  -23.0970 O   0  0  0  0  0  0  0  0  0  0  0  0
  -10.9818   12.5046  -22.1952 C   0  0  1  0  0  0  0  0  0  0  0  0
  -10.7704   12.8062  -23.5572 O   0  0  0  0  0  0  0  0  0  0  0  0
  -11.2510   13.7829  -21.4311 C   0  0  2  0  0  0  0  0  0  0  0  0
  -16.0368    6.2914  -16.4450 O   0  0  0  0  0  0  0  0  0  0  0  0
   -7.0730   16.6204  -20.1248 N   0  0  0  0  0  0  0  0  0  0  0  0
   -7.7295   16.5839  -21.3321 C   0  0  0  0  0  0  0  0  0  0  0  0
   -8.8141   15.7549  -21.4885 N   0  0  0  0  0  0  0  0  0  0  0  0
   -9.2404   14.9804  -20.4718 C   0  0  0  0  0  0  0  0  0  0  0  0
   -8.5955   15.0023  -19.2495 C   0  0  0  0  0  0  0  0  0  0  0  0
   -7.4953   15.8350  -19.0818 C   0  0  0  0  0  0  0  0  0  0  0  0
   -6.8442   15.8841  -17.9263 N   0  0  0  0  0  0  0  0  0  0  0  0
   -9.2257   14.1381  -18.4228 N   0  0  0  0  0  0  0  0  0  0  0  0
  -10.2511   13.5827  -19.0974 C   0  0  0  0  0  0  0  0  0  0  0  0
  -10.2690   14.0848  -20.3736 N   0  0  0  0  0  0  0  0  0  0  0  0
  2  1  1  6  0  0  0
  2  3  1  0  0  0  0
  2  5  1  0  0  0  0
  3  4  1  0  0  0  0
  3 16  1  0  0  0  0
  5  6  1  0  0  0  0
  6  7  1  0  0  0  0
  7  8  1  0  0  0  0
  9  8  1  1  0  0  0
  9 10  1  0  0  0  0
  9 11  1  0  0  0  0
 10 15  1  0  0  0  0
 11 12  1  6  0  0  0
 11 13  1  0  0  0  0
 13 14  1  6  0  0  0
 13 15  1  0  0  0  0
 15 26  1  1  0  0  0
 17 18  2  0  0  0  0
 17 22  1  0  0  0  0
 18 19  1  0  0  0  0
 19 20  2  0  0  0  0
 20 21  1  0  0  0  0
 20 26  1  0  0  0  0
 21 22  2  0  0  0  0
 21 24  1  0  0  0  0
 22 23  1  0  0  0  0
 24 25  2  0  0  0  0
 25 26  1  0  0  0  0
M  END
>  <CHROM.1>
151.93266886,-173.74160718,179.04786763,-165.90341026,-166.16632508,172.37493863
-140.17550106,-11.53186985,11.76920409,-19.61315977,-2.48048666,-0.81085472
-1.10930676

>  <Name>
ligand

>  <RI>
0

>  <Rbt.Current_Directory>
/home/itssahil/PROJECTS/Mol_Feturizer/New_Systems/rnas/3E5E

>  <Rbt.Executable>
rbdock ($Id: //depot/dev/client3/rdock/2013.1/src/exe/rbdock.cxx#4 $)

>  <Rbt.Library>
libRbt.so (2013.1, Build901 2013/11/27)

>  <Rbt.Parameter_File>
/export/apps/rDock/src/rDock_2013.1_src/data/scripts/dock_solv.prm

>  <Rbt.Receptor>
prm/pocket_docking_3.prm

>  <SCORE>
-19.8688

>  <SCORE.INTER>
-16.3982

>  <SCORE.INTER.CONST>
1

>  <SCORE.INTER.POLAR>
0

>  <SCORE.INTER.ROT>
7

>  <SCORE.INTER.SOLV>
16.8727

>  <SCORE.INTER.VDW>
-24.8231

>  <SCORE.INTER.norm>
-0.630701

>  <SCORE.INTRA>
-3.47056

>  <SCORE.INTRA.DIHEDRAL>
-6.3581

>  <SCORE.INTRA.DIHEDRAL.0>
10.1225

>  <SCORE.INTRA.POLAR>
0

>  <SCORE.INTRA.POLAR.0>
0

>  <SCORE.INTRA.REPUL>
0

>  <SCORE.INTRA.REPUL.0>
0

>  <SCORE.INTRA.SOLV>
-0.625535

>  <SCORE.INTRA.SOLV.lig_0>
-49.9393

>  <SCORE.INTRA.VDW>
0.021257

>  <SCORE.INTRA.VDW.0>
-1.75437

>  <SCORE.INTRA.norm>
-0.133483

>  <SCORE.RESTR>
0

>  <SCORE.RESTR.CAVITY>
0

>  <SCORE.RESTR.norm>
0

>  <SCORE.SYSTEM>
0

>  <SCORE.SYSTEM.CONST>
0

>  <SCORE.SYSTEM.DIHEDRAL>
0

>  <SCORE.SYSTEM.SOLV>
0

>  <SCORE.SYSTEM.norm>
0

>  <SCORE.heavy>
26

>  <SCORE.norm>
-0.764184

>  <RMSD>
1.415

$$$$
ligand
 OpenBabel11021811473D
libRbt.so/2013.1/901 2013/11/27
 26 28  0  0  0  0  0  0  0  0999 V2000
  -15.6857    7.4021  -17.1864 N   0  0  0  0  0  0  0  0  0  0  0  0
  -14.6966    7.9708  -16.2624 C   0  0  2  0  0  0  0  0  0  0  0  0
  -15.3363    8.1899  -14.9167 C   0  0  0  0  0  0  0  0  0  0  0  0
  -14.9836    7.5336  -13.9648 O   0  0  0  0  0  0  0  0  0  0  0  0
  -14.1946    9.3066  -16.8131 C   0  0  0  0  0  0  0  0  0  0  0  0
  -13.5555    9.0860  -18.1830 C   0  0  0  0  0  0  0  0  0  0  0  0
  -12.9999   10.4037  -19.0991 S   0  0  0  0  0  0  0  0  0  0  0  0
  -12.1561   10.6829  -20.6774 C   0  0  0  0  0  0  0  0  0  0  0  0
  -12.8385   11.7016  -21.5984 C   0  0  1  0  0  0  0  0  0  0  0  0
  -12.7570   13.0233  -21.0969 O   0  0  0  0  0  0  0  0  0  0  0  0
  -12.1527   11.8030  -22.9404 C   0  0  1  0  0  0  0  0  0  0  0  0
  -13.1402   12.3013  -23.8162 O   0  0  0  0  0  0  0  0  0  0  0  0
  -11.0970   12.8697  -22.7658 C   0  0  1  0  0  0  0  0  0  0  0  0
  -11.0483   13.6834  -23.9174 O   0  0  0  0  0  0  0  0  0  0  0  0
  -11.6078   13.6819  -21.5954 C   0  0  2  0  0  0  0  0  0  0  0  0
  -16.3014    9.1129  -14.7732 O   0  0  0  0  0  0  0  0  0  0  0  0
   -7.3914   16.1672  -19.7903 N   0  0  0  0  0  0  0  0  0  0  0  0
   -8.0011   16.3105  -21.0141 C   0  0  0  0  0  0  0  0  0  0  0  0
   -9.1058   15.5503  -21.3136 N   0  0  0  0  0  0  0  0  0  0  0  0
   -9.5972   14.6692  -20.4207 C   0  0  0  0  0  0  0  0  0  0  0  0
   -9.0002   14.5099  -19.1843 C   0  0  0  0  0  0  0  0  0  0  0  0
   -7.8802   15.2717  -18.8727 C   0  0  0  0  0  0  0  0  0  0  0  0
   -7.2735   15.1478  -17.6987 N   0  0  0  0  0  0  0  0  0  0  0  0
   -9.6909   13.5719  -18.4983 N   0  0  0  0  0  0  0  0  0  0  0  0
  -10.7072   13.1469  -19.2740 C   0  0  0  0  0  0  0  0  0  0  0  0
  -10.6583   13.8084  -20.4745 N   0  0  0  0  0  0  0  0  0  0  0  0
  2  1  1  6  0  0  0
  2  3  1  0  0  0  0
  2  5  1  0  0  0  0
  3  4  1  0  0  0  0
  3 16  1  0  0  0  0
  5  6  1  0  0  0  0
  6  7  1  0  0  0  0
  7  8  1  0  0  0  0
  9  8  1  1  0  0  0
  9 10  1  0  0  0  0
  9 11  1  0  0  0  0
 10 15  1  0  0  0  0
 11 12  1  6  0  0  0
 11 13  1  0  0  0  0
 13 14  1  6  0  0  0
 13 15  1  0  0  0  0
 15 26  1  1  0  0  0
 17 18  2  0  0  0  0
 17 22  1  0  0  0  0
 18 19  1  0  0  0  0
 19 20  2  0  0  0  0
 20 21  1  0  0  0  0
 20 26  1  0  0  0  0
 21 22  2  0  0  0  0
 21 24  1  0  0  0  0
 22 23  1  0  0  0  0
 24 25  2  0  0  0  0
 25 26  1  0  0  0  0
M  END
>  <CHROM.1>
112.72820175,-59.61075450,175.69574414,177.42313292,129.02084168,69.23115464
-161.79059686,-11.84286440,12.03436908,-19.44659294,2.46665724,0.73424032
1.79408696

>  <Name>
ligand

>  <RI>
0

>  <Rbt.Current_Directory>
/home/itssahil/PROJECTS/Mol_Feturizer/New_Systems/rnas/3E5E

>  <Rbt.Executable>
rbdock ($Id: //depot/dev/client3/rdock/2013.1/src/exe/rbdock.cxx#4 $)

>  <Rbt.Library>
libRbt.so (2013.1, Build901 2013/11/27)

>  <Rbt.Parameter_File>
/export/apps/rDock/src/rDock_2013.1_src/data/scripts/dock_solv.prm

>  <Rbt.Receptor>
prm/pocket_docking_3.prm

>  <SCORE>
-19.1306

>  <SCORE.INTER>
-16.5739

>  <SCORE.INTER.CONST>
1

>  <SCORE.INTER.POLAR>
0

>  <SCORE.INTER.ROT>
7

>  <SCORE.INTER.SOLV>
16.8406

>  <SCORE.INTER.VDW>
-24.9294

>  <SCORE.INTER.norm>
-0.637456

>  <SCORE.INTRA>
-2.55671

>  <SCORE.INTRA.DIHEDRAL>
-4.68985

>  <SCORE.INTRA.DIHEDRAL.0>
10.1225

>  <SCORE.INTRA.POLAR>
0

>  <SCORE.INTRA.POLAR.0>
0

>  <SCORE.INTRA.REPUL>
0

>  <SCORE.INTRA.REPUL.0>
0

>  <SCORE.INTRA.SOLV>
0.241155

>  <SCORE.INTRA.SOLV.lig_0>
-49.9393

>  <SCORE.INTRA.VDW>
-0.332362

>  <SCORE.INTRA.VDW.0>
-1.75437

>  <SCORE.INTRA.norm>
-0.098335

>  <SCORE.RESTR>
0

>  <SCORE.RESTR.CAVITY>
0

>  <SCORE.RESTR.norm>
0

>  <SCORE.SYSTEM>
0

>  <SCORE.SYSTEM.CONST>
0

>  <SCORE.SYSTEM.DIHEDRAL>
0

>  <SCORE.SYSTEM.SOLV>
0

>  <SCORE.SYSTEM.norm>
0

>  <SCORE.heavy>
26

>  <SCORE.norm>
-0.735791

>  <RMSD>
1.420

$$$$
ligand
 OpenBabel11021811473D
libRbt.so/2013.1/901 2013/11/27
 26 28  0  0  0  0  0  0  0  0999 V2000
  -16.0643    9.0124  -16.7476 N   0  0  0  0  0  0  0  0  0  0  0  0
  -15.0848    7.9548  -17.0261 C   0  0  2  0  0  0  0  0  0  0  0  0
  -14.9350    7.0782  -15.8106 C   0  0  0  0  0  0  0  0  0  0  0  0
  -14.5057    5.9540  -15.9244 O   0  0  0  0  0  0  0  0  0  0  0  0
  -13.7353    8.5883  -17.3686 C   0  0  0  0  0  0  0  0  0  0  0  0
  -13.8269    9.2810  -18.7271 C   0  0  0  0  0  0  0  0  0  0  0  0
  -12.4691   10.0493  -19.3981 S   0  0  0  0  0  0  0  0  0  0  0  0
  -11.8458   10.4823  -21.0428 C   0  0  0  0  0  0  0  0  0  0  0  0
  -12.6965   11.5079  -21.8019 C   0  0  1  0  0  0  0  0  0  0  0  0
  -12.7877   12.7454  -21.1199 O   0  0  0  0  0  0  0  0  0  0  0  0
  -12.0771   11.8921  -23.1248 C   0  0  1  0  0  0  0  0  0  0  0  0
  -13.1539   12.3571  -23.9088 O   0  0  0  0  0  0  0  0  0  0  0  0
  -11.1789   13.0670  -22.8148 C   0  0  1  0  0  0  0  0  0  0  0  0
  -11.2849   14.0300  -23.8406 O   0  0  0  0  0  0  0  0  0  0  0  0
  -11.7613   13.6268  -21.5350 C   0  0  2  0  0  0  0  0  0  0  0  0
  -15.2808    7.5437  -14.5991 O   0  0  0  0  0  0  0  0  0  0  0  0
   -7.5093   16.0569  -19.7380 N   0  0  0  0  0  0  0  0  0  0  0  0
   -8.1261   16.2166  -20.9563 C   0  0  0  0  0  0  0  0  0  0  0  0
   -9.2400   15.4693  -21.2546 N   0  0  0  0  0  0  0  0  0  0  0  0
   -9.7335   14.5850  -20.3659 C   0  0  0  0  0  0  0  0  0  0  0  0
   -9.1295   14.4095  -19.1351 C   0  0  0  0  0  0  0  0  0  0  0  0
   -8.0002   15.1580  -18.8248 C   0  0  0  0  0  0  0  0  0  0  0  0
   -7.3865   15.0182  -17.6562 N   0  0  0  0  0  0  0  0  0  0  0  0
   -9.8241   13.4720  -18.4525 N   0  0  0  0  0  0  0  0  0  0  0  0
  -10.8497   13.0633  -19.2247 C   0  0  0  0  0  0  0  0  0  0  0  0
  -10.8029   13.7347  -20.4198 N   0  0  0  0  0  0  0  0  0  0  0  0
  2  1  1  1  0  0  0
  2  3  1  0  0  0  0
  2  5  1  0  0  0  0
  3  4  1  0  0  0  0
  3 16  1  0  0  0  0
  5  6  1  0  0  0  0
  6  7  1  0  0  0  0
  7  8  1  0  0  0  0
  9  8  1  1  0  0  0
  9 10  1  0  0  0  0
  9 11  1  0  0  0  0
 10 15  1  0  0  0  0
 11 12  1  6  0  0  0
 11 13  1  0  0  0  0
 13 14  1  6  0  0  0
 13 15  1  0  0  0  0
 15 26  1  1  0  0  0
 17 18  2  0  0  0  0
 17 22  1  0  0  0  0
 18 19  1  0  0  0  0
 19 20  2  0  0  0  0
 20 21  1  0  0  0  0
 20 26  1  0  0  0  0
 21 22  2  0  0  0  0
 21 24  1  0  0  0  0
 22 23  1  0  0  0  0
 24 25  2  0  0  0  0
 25 26  1  0  0  0  0
M  END
>  <CHROM.1>
158.25377461,-69.64805868,-178.57836233,153.78716544,65.14801682,60.74119448
-173.46280336,-11.78727571,11.83971870,-19.63865457,-2.42701352,-0.76402042
-1.21858570

>  <Name>
ligand

>  <RI>
0

>  <Rbt.Current_Directory>
/home/itssahil/PROJECTS/Mol_Feturizer/New_Systems/rnas/3E5E

>  <Rbt.Executable>
rbdock ($Id: //depot/dev/client3/rdock/2013.1/src/exe/rbdock.cxx#4 $)

>  <Rbt.Library>
libRbt.so (2013.1, Build901 2013/11/27)

>  <Rbt.Parameter_File>
/export/apps/rDock/src/rDock_2013.1_src/data/scripts/dock_solv.prm

>  <Rbt.Receptor>
prm/pocket_docking_4.prm

>  <SCORE>
-18.9862

>  <SCORE.INTER>
-15.3175

>  <SCORE.INTER.CONST>
1

>  <SCORE.INTER.POLAR>
0

>  <SCORE.INTER.ROT>
7

>  <SCORE.INTER.SOLV>
17.9446

>  <SCORE.INTER.VDW>
-24.4599

>  <SCORE.INTER.norm>
-0.589136

>  <SCORE.INTRA>
-3.66871

>  <SCORE.INTRA.DIHEDRAL>
-6.01701

>  <SCORE.INTRA.DIHEDRAL.0>
10.1225

>  <SCORE.INTRA.POLAR>
0

>  <SCORE.INTRA.POLAR.0>
0

>  <SCORE.INTRA.REPUL>
0

>  <SCORE.INTRA.REPUL.0>
0

>  <SCORE.INTRA.SOLV>
0.173356

>  <SCORE.INTRA.SOLV.lig_0>
-49.9393

>  <SCORE.INTRA.VDW>
-0.746882

>  <SCORE.INTRA.VDW.0>
-1.75437

>  <SCORE.INTRA.norm>
-0.141104

>  <SCORE.RESTR>
0

>  <SCORE.RESTR.CAVITY>
0

>  <SCORE.RESTR.norm>
0

>  <SCORE.SYSTEM>
0

>  <SCORE.SYSTEM.CONST>
0

>  <SCORE.SYSTEM.DIHEDRAL>
0

>  <SCORE.SYSTEM.SOLV>
0

>  <SCORE.SYSTEM.norm>
0

>  <SCORE.heavy>
26

>  <SCORE.norm>
-0.73024

>  <RMSD>
1.420

$$$$
ligand
 OpenBabel11021811473D
libRbt.so/2013.1/901 2013/11/27
 26 28  0  0  0  0  0  0  0  0999 V2000
  -16.8233    7.4774  -17.7370 N   0  0  0  0  0  0  0  0  0  0  0  0
  -15.6735    6.6021  -17.4774 C   0  0  2  0  0  0  0  0  0  0  0  0
  -15.1772    6.8303  -16.0739 C   0  0  0  0  0  0  0  0  0  0  0  0
  -14.5442    5.9697  -15.5085 O   0  0  0  0  0  0  0  0  0  0  0  0
  -14.5564    6.9207  -18.4726 C   0  0  0  0  0  0  0  0  0  0  0  0
  -14.1819    8.3977  -18.3638 C   0  0  0  0  0  0  0  0  0  0  0  0
  -12.8682    9.0224  -19.2401 S   0  0  0  0  0  0  0  0  0  0  0  0
  -12.1310   10.6404  -19.5863 C   0  0  0  0  0  0  0  0  0  0  0  0
  -12.2926   11.1229  -21.0329 C   0  0  1  0  0  0  0  0  0  0  0  0
  -11.9899   12.4981  -21.1811 O   0  0  0  0  0  0  0  0  0  0  0  0
  -11.3119   10.4549  -21.9676 C   0  0  1  0  0  0  0  0  0  0  0  0
  -11.9050   10.5490  -23.2442 O   0  0  0  0  0  0  0  0  0  0  0  0
  -10.0860   11.3382  -21.9521 C   0  0  1  0  0  0  0  0  0  0  0  0
   -9.5620   11.4470  -23.2575 O   0  0  0  0  0  0  0  0  0  0  0  0
  -10.6261   12.6815  -21.5114 C   0  0  2  0  0  0  0  0  0  0  0  0
  -15.4396    7.9893  -15.4480 O   0  0  0  0  0  0  0  0  0  0  0  0
   -7.5581   16.4977  -19.7118 N   0  0  0  0  0  0  0  0  0  0  0  0
   -7.9440   16.2609  -21.0099 C   0  0  0  0  0  0  0  0  0  0  0  0
   -8.7537   15.1868  -21.2905 N   0  0  0  0  0  0  0  0  0  0  0  0
   -9.1737   14.3665  -20.3077 C   0  0  0  0  0  0  0  0  0  0  0  0
   -8.7984   14.5869  -18.9958 C   0  0  0  0  0  0  0  0  0  0  0  0
   -7.9767   15.6687  -18.7017 C   0  0  0  0  0  0  0  0  0  0  0  0
   -7.5891   15.9148  -17.4564 N   0  0  0  0  0  0  0  0  0  0  0  0
   -9.3553   13.6232  -18.2286 N   0  0  0  0  0  0  0  0  0  0  0  0
  -10.0734   12.8112  -19.0287 C   0  0  0  0  0  0  0  0  0  0  0  0
   -9.9634   13.2502  -20.3234 N   0  0  0  0  0  0  0  0  0  0  0  0
  2  1  1  6  0  0  0
  2  3  1  0  0  0  0
  2  5  1  0  0  0  0
  3  4  1  0  0  0  0
  3 16  1  0  0  0  0
  5  6  1  0  0  0  0
  6  7  1  0  0  0  0
  7  8  1  0  0  0  0
  9  8  1  1  0  0  0
  9 10  1  0  0  0  0
  9 11  1  0  0  0  0
 10 15  1  0  0  0  0
 11 12  1  6  0  0  0
 11 13  1  0  0  0  0
 13 14  1  6  0  0  0
 13 15  1  0  0  0  0
 15 26  1  1  0  0  0
 17 18  2  0  0  0  0
 17 22  1  0  0  0  0
 18 19  1  0  0  0  0
 19 20  2  0  0  0  0
 20 21  1  0  0  0  0
 20 26  1  0  0  0  0
 21 22  2  0  0  0  0
 21 24  1  0  0  0  0
 22 23  1  0  0  0  0
 24 25  2  0  0  0  0
 25 26  1  0  0  0  0
M  END
>  <CHROM.1>
156.87782872,57.09003316,174.18408787,172.61196392,-110.22693802,166.08341569
-128.92324633,-11.54483141,11.25173604,-19.49588448,-2.95904002,-0.89136045
-1.71063540

>  <Name>
ligand

>  <RI>
0

>  <Rbt.Current_Directory>
/home/itssahil/PROJECTS/Mol_Feturizer/New_Systems/rnas/3E5E

>  <Rbt.Executable>
rbdock ($Id: //depot/dev/client3/rdock/2013.1/src/exe/rbdock.cxx#4 $)

>  <Rbt.Library>
libRbt.so (2013.1, Build901 2013/11/27)

>  <Rbt.Parameter_File>
/export/apps/rDock/src/rDock_2013.1_src/data/scripts/dock_solv.prm

>  <Rbt.Receptor>
prm/pocket_docking_2.prm

>  <SCORE>
-15.2804

>  <SCORE.INTER>
-13.6302

>  <SCORE.INTER.CONST>
1

>  <SCORE.INTER.POLAR>
0

>  <SCORE.INTER.ROT>
7

>  <SCORE.INTER.SOLV>
15.3919

>  <SCORE.INTER.VDW>
-22.4841

>  <SCORE.INTER.norm>
-0.524238

>  <SCORE.INTRA>
-1.66631

>  <SCORE.INTRA.DIHEDRAL>
-4.23283

>  <SCORE.INTRA.DIHEDRAL.0>
10.1225

>  <SCORE.INTRA.POLAR>
0

>  <SCORE.INTRA.POLAR.0>
0

>  <SCORE.INTRA.REPUL>
0

>  <SCORE.INTRA.REPUL.0>
0

>  <SCORE.INTRA.SOLV>
0.172758

>  <SCORE.INTRA.SOLV.lig_0>
-49.9393

>  <SCORE.INTRA.VDW>
0.363733

>  <SCORE.INTRA.VDW.0>
-1.75437

>  <SCORE.INTRA.norm>
-0.0640887

>  <SCORE.RESTR>
0.0161347

>  <SCORE.RESTR.CAVITY>
0.0161347

>  <SCORE.RESTR.norm>
0.000620565

>  <SCORE.SYSTEM>
0

>  <SCORE.SYSTEM.CONST>
0

>  <SCORE.SYSTEM.DIHEDRAL>
0

>  <SCORE.SYSTEM.SOLV>
0

>  <SCORE.SYSTEM.norm>
0

>  <SCORE.heavy>
26

>  <SCORE.norm>
-0.587706

>  <RMSD>
1.431

$$$$
ligand
 OpenBabel11021811473D
libRbt.so/2013.1/901 2013/11/27
 26 28  0  0  0  0  0  0  0  0999 V2000
  -16.3306    9.0562  -15.9862 N   0  0  0  0  0  0  0  0  0  0  0  0
  -15.5780    8.5324  -17.1329 C   0  0  2  0  0  0  0  0  0  0  0  0
  -16.1936    7.2345  -17.5853 C   0  0  0  0  0  0  0  0  0  0  0  0
  -16.6445    6.4625  -16.7718 O   0  0  0  0  0  0  0  0  0  0  0  0
  -14.1246    8.2923  -16.7210 C   0  0  0  0  0  0  0  0  0  0  0  0
  -13.3109    7.8702  -17.9429 C   0  0  0  0  0  0  0  0  0  0  0  0
  -13.1216    8.9244  -19.2608 S   0  0  0  0  0  0  0  0  0  0  0  0
  -12.5519   10.6183  -19.5560 C   0  0  0  0  0  0  0  0  0  0  0  0
  -12.6763   11.0931  -21.0088 C   0  0  1  0  0  0  0  0  0  0  0  0
  -12.2741   12.4408  -21.1734 O   0  0  0  0  0  0  0  0  0  0  0  0
  -11.7456   10.3440  -21.9330 C   0  0  1  0  0  0  0  0  0  0  0  0
  -12.3287   10.4649  -23.2120 O   0  0  0  0  0  0  0  0  0  0  0  0
  -10.4587   11.1358  -21.9258 C   0  0  1  0  0  0  0  0  0  0  0  0
   -9.9266   11.1899  -23.2314 O   0  0  0  0  0  0  0  0  0  0  0  0
  -10.9001   12.5203  -21.5031 C   0  0  2  0  0  0  0  0  0  0  0  0
  -16.2400    6.9321  -18.8931 O   0  0  0  0  0  0  0  0  0  0  0  0
   -7.8706   16.3483  -19.6638 N   0  0  0  0  0  0  0  0  0  0  0  0
   -8.3108   16.1602  -20.9526 C   0  0  0  0  0  0  0  0  0  0  0  0
   -9.0989   15.0740  -21.2474 N   0  0  0  0  0  0  0  0  0  0  0  0
   -9.4452   14.1944  -20.2874 C   0  0  0  0  0  0  0  0  0  0  0  0
   -9.0143   14.3649  -18.9851 C   0  0  0  0  0  0  0  0  0  0  0  0
   -8.2139   15.4587  -18.6770 C   0  0  0  0  0  0  0  0  0  0  0  0
   -7.7748   15.6585  -17.4406 N   0  0  0  0  0  0  0  0  0  0  0  0
   -9.5032   13.3479  -18.2408 N   0  0  0  0  0  0  0  0  0  0  0  0
  -10.2331   12.5510  -19.0454 C   0  0  0  0  0  0  0  0  0  0  0  0
  -10.1993   13.0542  -20.3208 N   0  0  0  0  0  0  0  0  0  0  0  0
  2  1  1  1  0  0  0
  2  3  1  0  0  0  0
  2  5  1  0  0  0  0
  3  4  1  0  0  0  0
  3 16  1  0  0  0  0
  5  6  1  0  0  0  0
  6  7  1  0  0  0  0
  7  8  1  0  0  0  0
  9  8  1  1  0  0  0
  9 10  1  0  0  0  0
  9 11  1  0  0  0  0
 10 15  1  0  0  0  0
 11 12  1  6  0  0  0
 11 13  1  0  0  0  0
 13 14  1  6  0  0  0
 13 15  1  0  0  0  0
 15 26  1  1  0  0  0
 17 18  2  0  0  0  0
 17 22  1  0  0  0  0
 18 19  1  0  0  0  0
 19 20  2  0  0  0  0
 20 21  1  0  0  0  0
 20 26  1  0  0  0  0
 21 22  2  0  0  0  0
 21 24  1  0  0  0  0
 22 23  1  0  0  0  0
 24 25  2  0  0  0  0
 25 26  1  0  0  0  0
M  END
>  <CHROM.1>
-36.59220899,-174.83307732,62.84785867,54.15337812,-176.75953151,177.36040451
-121.41248754,-11.85031990,11.28653273,-19.57434684,-3.07685020,-0.84042708
-1.80932187

>  <Name>
ligand

>  <RI>
0

>  <Rbt.Current_Directory>
/home/itssahil/PROJECTS/Mol_Feturizer/New_Systems/rnas/3E5E

>  <Rbt.Executable>
rbdock ($Id: //depot/dev/client3/rdock/2013.1/src/exe/rbdock.cxx#4 $)

>  <Rbt.Library>
libRbt.so (2013.1, Build901 2013/11/27)

>  <Rbt.Parameter_File>
/export/apps/rDock/src/rDock_2013.1_src/data/scripts/dock_solv.prm

>  <Rbt.Receptor>
prm/pocket_docking_4.prm

>  <SCORE>
-18.0163

>  <SCORE.INTER>
-13.7604

>  <SCORE.INTER.CONST>
1

>  <SCORE.INTER.POLAR>
0

>  <SCORE.INTER.ROT>
7

>  <SCORE.INTER.SOLV>
16.4889

>  <SCORE.INTER.VDW>
-22.9366

>  <SCORE.INTER.norm>
-0.529245

>  <SCORE.INTRA>
-4.25593

>  <SCORE.INTRA.DIHEDRAL>
-7.1879

>  <SCORE.INTRA.DIHEDRAL.0>
10.1225

>  <SCORE.INTRA.POLAR>
0

>  <SCORE.INTRA.POLAR.0>
0

>  <SCORE.INTRA.REPUL>
0

>  <SCORE.INTRA.REPUL.0>
0

>  <SCORE.INTRA.SOLV>
-0.529897

>  <SCORE.INTRA.SOLV.lig_0>
-49.9393

>  <SCORE.INTRA.VDW>
-0.397027

>  <SCORE.INTRA.VDW.0>
-1.75437

>  <SCORE.INTRA.norm>
-0.163689

>  <SCORE.RESTR>
0

>  <SCORE.RESTR.CAVITY>
0

>  <SCORE.RESTR.norm>
0

>  <SCORE.SYSTEM>
0

>  <SCORE.SYSTEM.CONST>
0

>  <SCORE.SYSTEM.DIHEDRAL>
0

>  <SCORE.SYSTEM.SOLV>
0

>  <SCORE.SYSTEM.norm>
0

>  <SCORE.heavy>
26

>  <SCORE.norm>
-0.692935

>  <RMSD>
1.439

$$$$
ligand
 OpenBabel11021811473D
libRbt.so/2013.1/901 2013/11/27
 26 28  0  0  0  0  0  0  0  0999 V2000
  -13.6307    8.0747  -18.4291 N   0  0  0  0  0  0  0  0  0  0  0  0
  -14.5113    9.2494  -18.4222 C   0  0  2  0  0  0  0  0  0  0  0  0
  -15.9449    8.8002  -18.3165 C   0  0  0  0  0  0  0  0  0  0  0  0
  -16.3150    7.8132  -18.9080 O   0  0  0  0  0  0  0  0  0  0  0  0
  -14.3173   10.0386  -19.7181 C   0  0  0  0  0  0  0  0  0  0  0  0
  -12.9131   10.6395  -19.7443 C   0  0  0  0  0  0  0  0  0  0  0  0
  -12.4133   11.6105  -21.0449 S   0  0  0  0  0  0  0  0  0  0  0  0
  -12.8663   13.1991  -21.7881 C   0  0  0  0  0  0  0  0  0  0  0  0
  -12.1532   13.5165  -23.1081 C   0  0  1  0  0  0  0  0  0  0  0  0
  -11.0682   14.4097  -22.9352 O   0  0  0  0  0  0  0  0  0  0  0  0
  -11.4974   12.2950  -23.7076 C   0  0  1  0  0  0  0  0  0  0  0  0
  -11.3858   12.5815  -25.0845 O   0  0  0  0  0  0  0  0  0  0  0  0
  -10.1061   12.2638  -23.1192 C   0  0  1  0  0  0  0  0  0  0  0  0
   -9.1776   11.8902  -24.1138 O   0  0  0  0  0  0  0  0  0  0  0  0
   -9.8624   13.7020  -22.7160 C   0  0  2  0  0  0  0  0  0  0  0  0
  -16.8145    9.4973  -17.5669 O   0  0  0  0  0  0  0  0  0  0  0  0
   -7.2587   16.6620  -19.2995 N   0  0  0  0  0  0  0  0  0  0  0  0
   -7.3209   16.7995  -20.6660 C   0  0  0  0  0  0  0  0  0  0  0  0
   -8.0566   15.9038  -21.4040 N   0  0  0  0  0  0  0  0  0  0  0  0
   -8.7176   14.8956  -20.8025 C   0  0  0  0  0  0  0  0  0  0  0  0
   -8.6693   14.7397  -19.4299 C   0  0  0  0  0  0  0  0  0  0  0  0
   -7.9252   15.6383  -18.6745 C   0  0  0  0  0  0  0  0  0  0  0  0
   -7.8483   15.5231  -17.3545 N   0  0  0  0  0  0  0  0  0  0  0  0
   -9.4131   13.6602  -19.1001 N   0  0  0  0  0  0  0  0  0  0  0  0
   -9.9289   13.1430  -20.2322 C   0  0  0  0  0  0  0  0  0  0  0  0
   -9.4991   13.8896  -21.2994 N   0  0  0  0  0  0  0  0  0  0  0  0
  2  1  1  6  0  0  0
  2  3  1  0  0  0  0
  2  5  1  0  0  0  0
  3  4  1  0  0  0  0
  3 16  1  0  0  0  0
  5  6  1  0  0  0  0
  6  7  1  0  0  0  0
  7  8  1  0  0  0  0
  9  8  1  1  0  0  0
  9 10  1  0  0  0  0
  9 11  1  0  0  0  0
 10 15  1  0  0  0  0
 11 12  1  6  0  0  0
 11 13  1  0  0  0  0
 13 14  1  6  0  0  0
 13 15  1  0  0  0  0
 15 26  1  1  0  0  0
 17 18  2  0  0  0  0
 17 22  1  0  0  0  0
 18 19  1  0  0  0  0
 19 20  2  0  0  0  0
 20 21  1  0  0  0  0
 20 26  1  0  0  0  0
 21 22  2  0  0  0  0
 21 24  1  0  0  0  0
 22 23  1  0  0  0  0
 24 25  2  0  0  0  0
 25 26  1  0  0  0  0
M  END
>  <CHROM.1>
-38.53581680,-66.96703509,-178.33623091,63.75611897,-172.69670416,-100.41466487
-90.23413532,-11.28668954,12.58232119,-20.71072352,-2.95735427,-0.73654316
-1.59503412

>  <Name>
ligand

>  <RI>
0

>  <Rbt.Current_Directory>
/home/itssahil/PROJECTS/Mol_Feturizer/New_Systems/rnas/3E5E

>  <Rbt.Executable>
rbdock ($Id: //depot/dev/client3/rdock/2013.1/src/exe/rbdock.cxx#4 $)

>  <Rbt.Library>
libRbt.so (2013.1, Build901 2013/11/27)

>  <Rbt.Parameter_File>
/export/apps/rDock/src/rDock_2013.1_src/data/scripts/dock_solv.prm

>  <Rbt.Receptor>
prm/pocket_docking_2.prm

>  <SCORE>
-14.4739

>  <SCORE.INTER>
-13.4063

>  <SCORE.INTER.CONST>
1

>  <SCORE.INTER.POLAR>
0

>  <SCORE.INTER.ROT>
7

>  <SCORE.INTER.SOLV>
20.3646

>  <SCORE.INTER.VDW>
-23.9924

>  <SCORE.INTER.norm>
-0.515625

>  <SCORE.INTRA>
-1.07578

>  <SCORE.INTRA.DIHEDRAL>
-3.32636

>  <SCORE.INTRA.DIHEDRAL.0>
10.1225

>  <SCORE.INTRA.POLAR>
0

>  <SCORE.INTRA.POLAR.0>
0

>  <SCORE.INTRA.REPUL>
0

>  <SCORE.INTRA.REPUL.0>
0

>  <SCORE.INTRA.SOLV>
0.397167

>  <SCORE.INTRA.SOLV.lig_0>
-49.9393

>  <SCORE.INTRA.VDW>
0.388813

>  <SCORE.INTRA.VDW.0>
-1.75437

>  <SCORE.INTRA.norm>
-0.0413763

>  <SCORE.RESTR>
0.00812061

>  <SCORE.RESTR.CAVITY>
0.00812061

>  <SCORE.RESTR.norm>
0.000312331

>  <SCORE.SYSTEM>
0

>  <SCORE.SYSTEM.CONST>
0

>  <SCORE.SYSTEM.DIHEDRAL>
0

>  <SCORE.SYSTEM.SOLV>
0

>  <SCORE.SYSTEM.norm>
0

>  <SCORE.heavy>
26

>  <SCORE.norm>
-0.556689

>  <RMSD>
1.449

$$$$
ligand
 OpenBabel11021811473D
libRbt.so/2013.1/901 2013/11/27
 26 28  0  0  0  0  0  0  0  0999 V2000
  -14.3172    7.4960  -16.3976 N   0  0  0  0  0  0  0  0  0  0  0  0
  -14.2649    8.8796  -15.9090 C   0  0  2  0  0  0  0  0  0  0  0  0
  -15.3313    9.0827  -14.8651 C   0  0  0  0  0  0  0  0  0  0  0  0
  -16.3273    8.3979  -14.8761 O   0  0  0  0  0  0  0  0  0  0  0  0
  -14.5018    9.8405  -17.0753 C   0  0  0  0  0  0  0  0  0  0  0  0
  -13.3327    9.7524  -18.0546 C   0  0  0  0  0  0  0  0  0  0  0  0
  -13.1710   10.8839  -19.3106 S   0  0  0  0  0  0  0  0  0  0  0  0
  -12.1873   11.0876  -20.8179 C   0  0  0  0  0  0  0  0  0  0  0  0
  -12.7168   12.1476  -21.7914 C   0  0  1  0  0  0  0  0  0  0  0  0
  -12.5336   13.4656  -21.3076 O   0  0  0  0  0  0  0  0  0  0  0  0
  -11.9539   12.1534  -23.0950 C   0  0  1  0  0  0  0  0  0  0  0  0
  -12.8398   12.7260  -24.0319 O   0  0  0  0  0  0  0  0  0  0  0  0
  -10.8098   13.1167  -22.8797 C   0  0  1  0  0  0  0  0  0  0  0  0
  -10.6206   13.8970  -24.0399 O   0  0  0  0  0  0  0  0  0  0  0  0
  -11.3006   13.9993  -21.7525 C   0  0  2  0  0  0  0  0  0  0  0  0
  -15.1781   10.0269  -13.9222 O   0  0  0  0  0  0  0  0  0  0  0  0
   -7.0590   16.2295  -19.6913 N   0  0  0  0  0  0  0  0  0  0  0  0
   -7.5970   16.4245  -20.9413 C   0  0  0  0  0  0  0  0  0  0  0  0
   -8.7229   15.7285  -21.3102 N   0  0  0  0  0  0  0  0  0  0  0  0
   -9.3043   14.8601  -20.4599 C   0  0  0  0  0  0  0  0  0  0  0  0
   -8.7804   14.6497  -19.1982 C   0  0  0  0  0  0  0  0  0  0  0  0
   -7.6398   15.3462  -18.8164 C   0  0  0  0  0  0  0  0  0  0  0  0
   -7.1012   15.1716  -17.6160 N   0  0  0  0  0  0  0  0  0  0  0  0
   -9.5530   13.7384  -18.5656 N   0  0  0  0  0  0  0  0  0  0  0  0
  -10.5489   13.3801  -19.3992 C   0  0  0  0  0  0  0  0  0  0  0  0
  -10.4045   14.0574  -20.5831 N   0  0  0  0  0  0  0  0  0  0  0  0
  2  1  1  6  0  0  0
  2  3  1  0  0  0  0
  2  5  1  0  0  0  0
  3  4  1  0  0  0  0
  3 16  1  0  0  0  0
  5  6  1  0  0  0  0
  6  7  1  0  0  0  0
  7  8  1  0  0  0  0
  9  8  1  1  0  0  0
  9 10  1  0  0  0  0
  9 11  1  0  0  0  0
 10 15  1  0  0  0  0
 11 12  1  6  0  0  0
 11 13  1  0  0  0  0
 13 14  1  6  0  0  0
 13 15  1  0  0  0  0
 15 26  1  1  0  0  0
 17 18  2  0  0  0  0
 17 22  1  0  0  0  0
 18 19  1  0  0  0  0
 19 20  2  0  0  0  0
 20 21  1  0  0  0  0
 20 26  1  0  0  0  0
 21 22  2  0  0  0  0
 21 24  1  0  0  0  0
 22 23  1  0  0  0  0
 24 25  2  0  0  0  0
 25 26  1  0  0  0  0
M  END
>  <CHROM.1>
-26.15367756,-66.70063468,-169.45514325,-168.30974696,164.49142943,71.30150842
-158.46936650,-11.64285798,12.41747766,-19.48022609,-2.46229068,-0.69552446
-1.39436237

>  <Name>
ligand

>  <RI>
0

>  <Rbt.Current_Directory>
/home/itssahil/PROJECTS/Mol_Feturizer/New_Systems/rnas/3E5E

>  <Rbt.Executable>
rbdock ($Id: //depot/dev/client3/rdock/2013.1/src/exe/rbdock.cxx#4 $)

>  <Rbt.Library>
libRbt.so (2013.1, Build901 2013/11/27)

>  <Rbt.Parameter_File>
/export/apps/rDock/src/rDock_2013.1_src/data/scripts/dock_solv.prm

>  <Rbt.Receptor>
prm/pocket_docking_4.prm

>  <SCORE>
-20.2443

>  <SCORE.INTER>
-16.9854

>  <SCORE.INTER.CONST>
1

>  <SCORE.INTER.POLAR>
0

>  <SCORE.INTER.ROT>
7

>  <SCORE.INTER.SOLV>
20.417

>  <SCORE.INTER.VDW>
-26.396

>  <SCORE.INTER.norm>
-0.653286

>  <SCORE.INTRA>
-3.26105

>  <SCORE.INTRA.DIHEDRAL>
-5.70362

>  <SCORE.INTRA.DIHEDRAL.0>
10.1225

>  <SCORE.INTRA.POLAR>
0

>  <SCORE.INTRA.POLAR.0>
0

>  <SCORE.INTRA.REPUL>
0

>  <SCORE.INTRA.REPUL.0>
0

>  <SCORE.INTRA.SOLV>
0.0493772

>  <SCORE.INTRA.SOLV.lig_0>
-49.9393

>  <SCORE.INTRA.VDW>
-0.433931

>  <SCORE.INTRA.VDW.0>
-1.75437

>  <SCORE.INTRA.norm>
-0.125425

>  <SCORE.RESTR>
0.00223537

>  <SCORE.RESTR.CAVITY>
0.00223537

>  <SCORE.RESTR.norm>
8.59758e-05

>  <SCORE.SYSTEM>
0

>  <SCORE.SYSTEM.CONST>
0

>  <SCORE.SYSTEM.DIHEDRAL>
0

>  <SCORE.SYSTEM.SOLV>
0

>  <SCORE.SYSTEM.norm>
0

>  <SCORE.heavy>
26

>  <SCORE.norm>
-0.778625

>  <RMSD>
1.453

$$$$
ligand
 OpenBabel11021811473D
libRbt.so/2013.1/901 2013/11/27
 26 28  0  0  0  0  0  0  0  0999 V2000
  -13.7303    8.5993  -18.0419 N   0  0  0  0  0  0  0  0  0  0  0  0
  -14.9816    8.1609  -18.6724 C   0  0  2  0  0  0  0  0  0  0  0  0
  -15.2055    6.7007  -18.3792 C   0  0  0  0  0  0  0  0  0  0  0  0
  -16.3248    6.2866  -18.1879 O   0  0  0  0  0  0  0  0  0  0  0  0
  -14.8899    8.3702  -20.1849 C   0  0  0  0  0  0  0  0  0  0  0  0
  -14.8328    9.8658  -20.4906 C   0  0  0  0  0  0  0  0  0  0  0  0
  -13.4394   10.7680  -20.1320 S   0  0  0  0  0  0  0  0  0  0  0  0
  -12.9049   12.4976  -20.1952 C   0  0  0  0  0  0  0  0  0  0  0  0
  -12.9663   13.1377  -21.5873 C   0  0  1  0  0  0  0  0  0  0  0  0
  -12.2128   14.3340  -21.6659 O   0  0  0  0  0  0  0  0  0  0  0  0
  -12.3307   12.2641  -22.6429 C   0  0  1  0  0  0  0  0  0  0  0  0
  -12.9218   12.6728  -23.8569 O   0  0  0  0  0  0  0  0  0  0  0  0
  -10.8753   12.6695  -22.6683 C   0  0  1  0  0  0  0  0  0  0  0  0
  -10.4171   12.7127  -24.0021 O   0  0  0  0  0  0  0  0  0  0  0  0
  -10.8901   14.0697  -22.0942 C   0  0  2  0  0  0  0  0  0  0  0  0
  -14.1613    5.8575  -18.3273 O   0  0  0  0  0  0  0  0  0  0  0  0
   -6.9028   16.7990  -20.1280 N   0  0  0  0  0  0  0  0  0  0  0  0
   -7.4538   16.8882  -21.3844 C   0  0  0  0  0  0  0  0  0  0  0  0
   -8.5022   16.0675  -21.7240 N   0  0  0  0  0  0  0  0  0  0  0  0
   -8.9954   15.1795  -20.8390 C   0  0  0  0  0  0  0  0  0  0  0  0
   -8.4570   15.0739  -19.5703 C   0  0  0  0  0  0  0  0  0  0  0  0
   -7.3940   15.8972  -19.2178 C   0  0  0  0  0  0  0  0  0  0  0  0
   -6.8444   15.8262  -18.0118 N   0  0  0  0  0  0  0  0  0  0  0  0
   -9.1353   14.1151  -18.9010 N   0  0  0  0  0  0  0  0  0  0  0  0
  -10.0871   13.6247  -19.7187 C   0  0  0  0  0  0  0  0  0  0  0  0
  -10.0082   14.2651  -20.9289 N   0  0  0  0  0  0  0  0  0  0  0  0
  2  1  1  1  0  0  0
  2  3  1  0  0  0  0
  2  5  1  0  0  0  0
  3  4  1  0  0  0  0
  3 16  1  0  0  0  0
  5  6  1  0  0  0  0
  6  7  1  0  0  0  0
  7  8  1  0  0  0  0
  9  8  1  1  0  0  0
  9 10  1  0  0  0  0
  9 11  1  0  0  0  0
 10 15  1  0  0  0  0
 11 12  1  6  0  0  0
 11 13  1  0  0  0  0
 13 14  1  6  0  0  0
 13 15  1  0  0  0  0
 15 26  1  1  0  0  0
 17 18  2  0  0  0  0
 17 22  1  0  0  0  0
 18 19  1  0  0  0  0
 19 20  2  0  0  0  0
 20 21  1  0  0  0  0
 20 26  1  0  0  0  0
 21 22  2  0  0  0  0
 21 24  1  0  0  0  0
 22 23  1  0  0  0  0
 24 25  2  0  0  0  0
 25 26  1  0  0  0  0
M  END
>  <CHROM.1>
143.60227171,-66.85069745,71.54877736,-175.56594195,-59.03568780,-163.74620612
-118.92262864,-11.60806956,12.23546292,-20.45416379,-2.61059960,-0.74628278
-1.05148752

>  <Name>
ligand

>  <RI>
0

>  <Rbt.Current_Directory>
/home/itssahil/PROJECTS/Mol_Feturizer/New_Systems/rnas/3E5E

>  <Rbt.Executable>
rbdock ($Id: //depot/dev/client3/rdock/2013.1/src/exe/rbdock.cxx#4 $)

>  <Rbt.Library>
libRbt.so (2013.1, Build901 2013/11/27)

>  <Rbt.Parameter_File>
/export/apps/rDock/src/rDock_2013.1_src/data/scripts/dock_solv.prm

>  <Rbt.Receptor>
prm/pocket_docking_3.prm

>  <SCORE>
-17.1192

>  <SCORE.INTER>
-14.5221

>  <SCORE.INTER.CONST>
1

>  <SCORE.INTER.POLAR>
0

>  <SCORE.INTER.ROT>
7

>  <SCORE.INTER.SOLV>
18.0941

>  <SCORE.INTER.VDW>
-23.9794

>  <SCORE.INTER.norm>
-0.558542

>  <SCORE.INTRA>
-2.59713

>  <SCORE.INTRA.DIHEDRAL>
-5.81076

>  <SCORE.INTRA.DIHEDRAL.0>
10.1225

>  <SCORE.INTRA.POLAR>
0

>  <SCORE.INTRA.POLAR.0>
0

>  <SCORE.INTRA.REPUL>
0

>  <SCORE.INTRA.REPUL.0>
0

>  <SCORE.INTRA.SOLV>
1.50017

>  <SCORE.INTRA.SOLV.lig_0>
-49.9393

>  <SCORE.INTRA.VDW>
-0.441839

>  <SCORE.INTRA.VDW.0>
-1.75437

>  <SCORE.INTRA.norm>
-0.0998898

>  <SCORE.RESTR>
0

>  <SCORE.RESTR.CAVITY>
0

>  <SCORE.RESTR.norm>
0

>  <SCORE.SYSTEM>
0

>  <SCORE.SYSTEM.CONST>
0

>  <SCORE.SYSTEM.DIHEDRAL>
0

>  <SCORE.SYSTEM.SOLV>
0

>  <SCORE.SYSTEM.norm>
0

>  <SCORE.heavy>
26

>  <SCORE.norm>
-0.658432

>  <RMSD>
1.455

$$$$
ligand
 OpenBabel11021811473D
libRbt.so/2013.1/901 2013/11/27
 26 28  0  0  0  0  0  0  0  0999 V2000
  -16.9284    7.7813  -17.2613 N   0  0  0  0  0  0  0  0  0  0  0  0
  -15.6077    7.8684  -17.8965 C   0  0  2  0  0  0  0  0  0  0  0  0
  -14.6730    8.6424  -17.0047 C   0  0  0  0  0  0  0  0  0  0  0  0
  -13.4888    8.4003  -17.0136 O   0  0  0  0  0  0  0  0  0  0  0  0
  -15.7368    8.5820  -19.2434 C   0  0  0  0  0  0  0  0  0  0  0  0
  -14.4344    8.4315  -20.0275 C   0  0  0  0  0  0  0  0  0  0  0  0
  -13.0885    9.3999  -19.6606 S   0  0  0  0  0  0  0  0  0  0  0  0
  -12.5471   11.1071  -19.9312 C   0  0  0  0  0  0  0  0  0  0  0  0
  -12.4634   11.5280  -21.4035 C   0  0  1  0  0  0  0  0  0  0  0  0
  -11.9460   12.8363  -21.5631 O   0  0  0  0  0  0  0  0  0  0  0  0
  -11.4880   10.6779  -22.1828 C   0  0  1  0  0  0  0  0  0  0  0  0
  -11.9053   10.7852  -23.5262 O   0  0  0  0  0  0  0  0  0  0  0  0
  -10.1560   11.3781  -22.0465 C   0  0  1  0  0  0  0  0  0  0  0  0
   -9.4707   11.3402  -23.2793 O   0  0  0  0  0  0  0  0  0  0  0  0
  -10.5406   12.8064  -21.7267 C   0  0  2  0  0  0  0  0  0  0  0  0
  -15.1545    9.6009  -16.1963 O   0  0  0  0  0  0  0  0  0  0  0  0
   -7.6169   16.5886  -19.6385 N   0  0  0  0  0  0  0  0  0  0  0  0
   -7.9327   16.3940  -20.9623 C   0  0  0  0  0  0  0  0  0  0  0  0
   -8.7135   15.3220  -21.3218 N   0  0  0  0  0  0  0  0  0  0  0  0
   -9.1730   14.4628  -20.3913 C   0  0  0  0  0  0  0  0  0  0  0  0
   -8.8683   14.6403  -19.0549 C   0  0  0  0  0  0  0  0  0  0  0  0
   -8.0764   15.7197  -18.6810 C   0  0  0  0  0  0  0  0  0  0  0  0
   -7.7562   15.9254  -17.4095 N   0  0  0  0  0  0  0  0  0  0  0  0
   -9.4517   13.6441  -18.3517 N   0  0  0  0  0  0  0  0  0  0  0  0
  -10.1177   12.8535  -19.2157 C   0  0  0  0  0  0  0  0  0  0  0  0
   -9.9469   13.3395  -20.4868 N   0  0  0  0  0  0  0  0  0  0  0  0
  2  1  1  1  0  0  0
  2  3  1  0  0  0  0
  2  5  1  0  0  0  0
  3  4  1  0  0  0  0
  3 16  1  0  0  0  0
  5  6  1  0  0  0  0
  6  7  1  0  0  0  0
  7  8  1  0  0  0  0
  9  8  1  1  0  0  0
  9 10  1  0  0  0  0
  9 11  1  0  0  0  0
 10 15  1  0  0  0  0
 11 12  1  6  0  0  0
 11 13  1  0  0  0  0
 13 14  1  6  0  0  0
 13 15  1  0  0  0  0
 15 26  1  1  0  0  0
 17 18  2  0  0  0  0
 17 22  1  0  0  0  0
 18 19  1  0  0  0  0
 19 20  2  0  0  0  0
 20 21  1  0  0  0  0
 20 26  1  0  0  0  0
 21 22  2  0  0  0  0
 21 24  1  0  0  0  0
 22 23  1  0  0  0  0
 24 25  2  0  0  0  0
 25 26  1  0  0  0  0
M  END
>  <CHROM.1>
149.88022031,-168.83816816,-78.55326008,-76.08957248,-58.49448334,-175.79700554
-118.00824043,-11.58322381,11.72274727,-19.83431586,-3.11589480,-0.81076816
-1.82243786

>  <Name>
ligand

>  <RI>
0

>  <Rbt.Current_Directory>
/home/itssahil/PROJECTS/Mol_Feturizer/New_Systems/rnas/3E5E

>  <Rbt.Executable>
rbdock ($Id: //depot/dev/client3/rdock/2013.1/src/exe/rbdock.cxx#4 $)

>  <Rbt.Library>
libRbt.so (2013.1, Build901 2013/11/27)

>  <Rbt.Parameter_File>
/export/apps/rDock/src/rDock_2013.1_src/data/scripts/dock_solv.prm

>  <Rbt.Receptor>
prm/pocket_docking_2.prm

>  <SCORE>
-16.7337

>  <SCORE.INTER>
-13.4294

>  <SCORE.INTER.CONST>
1

>  <SCORE.INTER.POLAR>
0

>  <SCORE.INTER.ROT>
7

>  <SCORE.INTER.SOLV>
15.5639

>  <SCORE.INTER.VDW>
-22.4076

>  <SCORE.INTER.norm>
-0.516515

>  <SCORE.INTRA>
-3.31316

>  <SCORE.INTRA.DIHEDRAL>
-5.26525

>  <SCORE.INTRA.DIHEDRAL.0>
10.1225

>  <SCORE.INTRA.POLAR>
0

>  <SCORE.INTRA.POLAR.0>
0

>  <SCORE.INTRA.REPUL>
0

>  <SCORE.INTRA.REPUL.0>
0

>  <SCORE.INTRA.SOLV>
-0.398917

>  <SCORE.INTRA.SOLV.lig_0>
-49.9393

>  <SCORE.INTRA.VDW>
-0.481081

>  <SCORE.INTRA.VDW.0>
-1.75437

>  <SCORE.INTRA.norm>
-0.127429

>  <SCORE.RESTR>
0.00887976

>  <SCORE.RESTR.CAVITY>
0.00887976

>  <SCORE.RESTR.norm>
0.000341529

>  <SCORE.SYSTEM>
0

>  <SCORE.SYSTEM.CONST>
0

>  <SCORE.SYSTEM.DIHEDRAL>
0

>  <SCORE.SYSTEM.SOLV>
0

>  <SCORE.SYSTEM.norm>
0

>  <SCORE.heavy>
26

>  <SCORE.norm>
-0.643603

>  <RMSD>
1.471

$$$$
ligand
 OpenBabel11021811473D
libRbt.so/2013.1/901 2013/11/27
 26 28  0  0  0  0  0  0  0  0999 V2000
  -15.8427    7.2340  -18.5692 N   0  0  0  0  0  0  0  0  0  0  0  0
  -15.8703    8.5652  -17.9506 C   0  0  2  0  0  0  0  0  0  0  0  0
  -17.2846    9.0828  -17.9389 C   0  0  0  0  0  0  0  0  0  0  0  0
  -17.6830    9.7340  -17.0017 O   0  0  0  0  0  0  0  0  0  0  0  0
  -14.9839    9.5183  -18.7541 C   0  0  0  0  0  0  0  0  0  0  0  0
  -13.5287    9.0634  -18.6598 C   0  0  0  0  0  0  0  0  0  0  0  0
  -12.2961    9.9480  -19.4229 S   0  0  0  0  0  0  0  0  0  0  0  0
  -11.7909   10.3685  -21.1108 C   0  0  0  0  0  0  0  0  0  0  0  0
  -12.7076   11.3697  -21.8243 C   0  0  1  0  0  0  0  0  0  0  0  0
  -12.8563   12.5774  -21.1002 O   0  0  0  0  0  0  0  0  0  0  0  0
  -12.1295   11.8305  -23.1414 C   0  0  1  0  0  0  0  0  0  0  0  0
  -13.2415   12.2607  -23.8956 O   0  0  0  0  0  0  0  0  0  0  0  0
  -11.2926   13.0425  -22.8040 C   0  0  1  0  0  0  0  0  0  0  0  0
  -11.4661   14.0311  -23.7956 O   0  0  0  0  0  0  0  0  0  0  0  0
  -11.8859   13.5273  -21.4989 C   0  0  2  0  0  0  0  0  0  0  0  0
  -18.1056    8.8193  -18.9687 O   0  0  0  0  0  0  0  0  0  0  0  0
   -7.6020   15.9613  -19.7849 N   0  0  0  0  0  0  0  0  0  0  0  0
   -8.2264   16.0996  -21.0019 C   0  0  0  0  0  0  0  0  0  0  0  0
   -9.3482   15.3551  -21.2761 N   0  0  0  0  0  0  0  0  0  0  0  0
   -9.8422   14.4941  -20.3651 C   0  0  0  0  0  0  0  0  0  0  0  0
   -9.2306   14.3402  -19.1351 C   0  0  0  0  0  0  0  0  0  0  0  0
   -8.0933   15.0862  -18.8490 C   0  0  0  0  0  0  0  0  0  0  0  0
   -7.4723   14.9667  -17.6821 N   0  0  0  0  0  0  0  0  0  0  0  0
   -9.9277   13.4233  -18.4276 N   0  0  0  0  0  0  0  0  0  0  0  0
  -10.9621   13.0063  -19.1834 C   0  0  0  0  0  0  0  0  0  0  0  0
  -10.9187   13.6514  -20.3930 N   0  0  0  0  0  0  0  0  0  0  0  0
  2  1  1  6  0  0  0
  2  3  1  0  0  0  0
  2  5  1  0  0  0  0
  3  4  1  0  0  0  0
  3 16  1  0  0  0  0
  5  6  1  0  0  0  0
  6  7  1  0  0  0  0
  7  8  1  0  0  0  0
  9  8  1  1  0  0  0
  9 10  1  0  0  0  0
  9 11  1  0  0  0  0
 10 15  1  0  0  0  0
 11 12  1  6  0  0  0
 11 13  1  0  0  0  0
 13 14  1  6  0  0  0
 13 15  1  0  0  0  0
 15 26  1  1  0  0  0
 17 18  2  0  0  0  0
 17 22  1  0  0  0  0
 18 19  1  0  0  0  0
 19 20  2  0  0  0  0
 20 21  1  0  0  0  0
 20 26  1  0  0  0  0
 21 22  2  0  0  0  0
 21 24  1  0  0  0  0
 22 23  1  0  0  0  0
 24 25  2  0  0  0  0
 25 26  1  0  0  0  0
M  END
>  <CHROM.1>
143.33381519,-65.18090147,-178.54049825,-65.60915746,71.29947590,56.15720814
-178.25170676,-12.21620763,12.03777423,-20.09180134,-2.81466477,-0.65238741
-1.36178940

>  <Name>
ligand

>  <RI>
0

>  <Rbt.Current_Directory>
/home/itssahil/PROJECTS/Mol_Feturizer/New_Systems/rnas/3E5E

>  <Rbt.Executable>
rbdock ($Id: //depot/dev/client3/rdock/2013.1/src/exe/rbdock.cxx#4 $)

>  <Rbt.Library>
libRbt.so (2013.1, Build901 2013/11/27)

>  <Rbt.Parameter_File>
/export/apps/rDock/src/rDock_2013.1_src/data/scripts/dock_solv.prm

>  <Rbt.Receptor>
prm/pocket_docking_3.prm

>  <SCORE>
-18.9888

>  <SCORE.INTER>
-14.6414

>  <SCORE.INTER.CONST>
1

>  <SCORE.INTER.POLAR>
0

>  <SCORE.INTER.ROT>
7

>  <SCORE.INTER.SOLV>
18.1577

>  <SCORE.INTER.VDW>
-24.0802

>  <SCORE.INTER.norm>
-0.563132

>  <SCORE.INTRA>
-4.34735

>  <SCORE.INTRA.DIHEDRAL>
-7.01222

>  <SCORE.INTRA.DIHEDRAL.0>
10.1225

>  <SCORE.INTRA.POLAR>
0

>  <SCORE.INTRA.POLAR.0>
0

>  <SCORE.INTRA.REPUL>
0

>  <SCORE.INTRA.REPUL.0>
0

>  <SCORE.INTRA.SOLV>
0.280748

>  <SCORE.INTRA.SOLV.lig_0>
-49.9393

>  <SCORE.INTRA.VDW>
-0.981617

>  <SCORE.INTRA.VDW.0>
-1.75437

>  <SCORE.INTRA.norm>
-0.167206

>  <SCORE.RESTR>
0

>  <SCORE.RESTR.CAVITY>
0

>  <SCORE.RESTR.norm>
0

>  <SCORE.SYSTEM>
0

>  <SCORE.SYSTEM.CONST>
0

>  <SCORE.SYSTEM.DIHEDRAL>
0

>  <SCORE.SYSTEM.SOLV>
0

>  <SCORE.SYSTEM.norm>
0

>  <SCORE.heavy>
26

>  <SCORE.norm>
-0.730338

>  <RMSD>
1.474

$$$$
ligand
 OpenBabel11021811473D
libRbt.so/2013.1/901 2013/11/27
 26 28  0  0  0  0  0  0  0  0999 V2000
  -15.4298    7.4755  -16.2266 N   0  0  0  0  0  0  0  0  0  0  0  0
  -15.0678    8.3386  -17.3577 C   0  0  2  0  0  0  0  0  0  0  0  0
  -14.6241    7.4855  -18.5168 C   0  0  0  0  0  0  0  0  0  0  0  0
  -13.5588    6.9159  -18.4761 O   0  0  0  0  0  0  0  0  0  0  0  0
  -13.9276    9.2700  -16.9428 C   0  0  0  0  0  0  0  0  0  0  0  0
  -13.5791   10.1989  -18.1043 C   0  0  0  0  0  0  0  0  0  0  0  0
  -12.6593    9.6345  -19.4156 S   0  0  0  0  0  0  0  0  0  0  0  0
  -11.7806   10.3293  -20.8391 C   0  0  0  0  0  0  0  0  0  0  0  0
  -12.5994   11.3172  -21.6789 C   0  0  1  0  0  0  0  0  0  0  0  0
  -12.6675   12.6022  -21.0882 O   0  0  0  0  0  0  0  0  0  0  0  0
  -11.9586   11.5911  -23.0189 C   0  0  1  0  0  0  0  0  0  0  0  0
  -13.0166   12.0235  -23.8460 O   0  0  0  0  0  0  0  0  0  0  0  0
  -11.0356   12.7642  -22.7838 C   0  0  1  0  0  0  0  0  0  0  0  0
  -11.1089   13.6532  -23.8769 O   0  0  0  0  0  0  0  0  0  0  0  0
  -11.6165   13.4276  -21.5539 C   0  0  2  0  0  0  0  0  0  0  0  0
  -15.4104    7.3587  -19.5983 O   0  0  0  0  0  0  0  0  0  0  0  0
   -7.5129   16.1034  -19.7608 N   0  0  0  0  0  0  0  0  0  0  0  0
   -8.1375   16.2247  -20.9795 C   0  0  0  0  0  0  0  0  0  0  0  0
   -9.2061   15.4136  -21.2765 N   0  0  0  0  0  0  0  0  0  0  0  0
   -9.6479   14.5040  -20.3862 C   0  0  0  0  0  0  0  0  0  0  0  0
   -9.0351   14.3661  -19.1550 C   0  0  0  0  0  0  0  0  0  0  0  0
   -7.9512   15.1794  -18.8459 C   0  0  0  0  0  0  0  0  0  0  0  0
   -7.3309   15.0777  -17.6769 N   0  0  0  0  0  0  0  0  0  0  0  0
   -9.6746   13.3913  -18.4706 N   0  0  0  0  0  0  0  0  0  0  0  0
  -10.6746   12.9224  -19.2422 C   0  0  0  0  0  0  0  0  0  0  0  0
  -10.6663   13.5930  -20.4386 N   0  0  0  0  0  0  0  0  0  0  0  0
  2  1  1  1  0  0  0
  2  3  1  0  0  0  0
  2  5  1  0  0  0  0
  3  4  1  0  0  0  0
  3 16  1  0  0  0  0
  5  6  1  0  0  0  0
  6  7  1  0  0  0  0
  7  8  1  0  0  0  0
  9  8  1  1  0  0  0
  9 10  1  0  0  0  0
  9 11  1  0  0  0  0
 10 15  1  0  0  0  0
 11 12  1  6  0  0  0
 11 13  1  0  0  0  0
 13 14  1  6  0  0  0
 13 15  1  0  0  0  0
 15 26  1  1  0  0  0
 17 18  2  0  0  0  0
 17 22  1  0  0  0  0
 18 19  1  0  0  0  0
 19 20  2  0  0  0  0
 20 21  1  0  0  0  0
 20 26  1  0  0  0  0
 21 22  2  0  0  0  0
 21 24  1  0  0  0  0
 22 23  1  0  0  0  0
 24 25  2  0  0  0  0
 25 26  1  0  0  0  0
M  END
>  <CHROM.1>
-72.00157561,-178.23295003,-77.32838408,-167.76245221,-50.05757152,78.81875698
-167.29509306,-11.66753963,11.77564204,-19.99012723,-2.66350551,-0.81890163
-1.25712652

>  <Name>
ligand

>  <RI>
0

>  <Rbt.Current_Directory>
/home/itssahil/PROJECTS/Mol_Feturizer/New_Systems/rnas/3E5E

>  <Rbt.Executable>
rbdock ($Id: //depot/dev/client3/rdock/2013.1/src/exe/rbdock.cxx#4 $)

>  <Rbt.Library>
libRbt.so (2013.1, Build901 2013/11/27)

>  <Rbt.Parameter_File>
/export/apps/rDock/src/rDock_2013.1_src/data/scripts/dock_solv.prm

>  <Rbt.Receptor>
prm/pocket_docking_2.prm

>  <SCORE>
-18.6259

>  <SCORE.INTER>
-16.1727

>  <SCORE.INTER.CONST>
1

>  <SCORE.INTER.POLAR>
0

>  <SCORE.INTER.ROT>
7

>  <SCORE.INTER.SOLV>
17.4655

>  <SCORE.INTER.VDW>
-24.8703

>  <SCORE.INTER.norm>
-0.622027

>  <SCORE.INTRA>
-2.94845

>  <SCORE.INTRA.DIHEDRAL>
-4.71711

>  <SCORE.INTRA.DIHEDRAL.0>
10.1225

>  <SCORE.INTRA.POLAR>
0

>  <SCORE.INTRA.POLAR.0>
0

>  <SCORE.INTRA.REPUL>
0

>  <SCORE.INTRA.REPUL.0>
0

>  <SCORE.INTRA.SOLV>
-0.398089

>  <SCORE.INTRA.SOLV.lig_0>
-49.9393

>  <SCORE.INTRA.VDW>
-0.390854

>  <SCORE.INTRA.VDW.0>
-1.75437

>  <SCORE.INTRA.norm>
-0.113402

>  <SCORE.RESTR>
0.495254

>  <SCORE.RESTR.CAVITY>
0.495254

>  <SCORE.RESTR.norm>
0.0190482

>  <SCORE.SYSTEM>
0

>  <SCORE.SYSTEM.CONST>
0

>  <SCORE.SYSTEM.DIHEDRAL>
0

>  <SCORE.SYSTEM.SOLV>
0

>  <SCORE.SYSTEM.norm>
0

>  <SCORE.heavy>
26

>  <SCORE.norm>
-0.716381

>  <RMSD>
1.480

$$$$
ligand
 OpenBabel11021811473D
libRbt.so/2013.1/901 2013/11/27
 26 28  0  0  0  0  0  0  0  0999 V2000
  -14.2426    5.2365  -18.5786 N   0  0  0  0  0  0  0  0  0  0  0  0
  -13.6388    6.5072  -18.1589 C   0  0  2  0  0  0  0  0  0  0  0  0
  -14.1532    6.8792  -16.7932 C   0  0  0  0  0  0  0  0  0  0  0  0
  -13.8929    7.9617  -16.3226 O   0  0  0  0  0  0  0  0  0  0  0  0
  -14.0096    7.6022  -19.1604 C   0  0  0  0  0  0  0  0  0  0  0  0
  -13.1709    8.8494  -18.8868 C   0  0  0  0  0  0  0  0  0  0  0  0
  -13.3132   10.2206  -19.8786 S   0  0  0  0  0  0  0  0  0  0  0  0
  -12.6390   11.9001  -19.9548 C   0  0  0  0  0  0  0  0  0  0  0  0
  -12.9522   12.6591  -21.2500 C   0  0  1  0  0  0  0  0  0  0  0  0
  -12.4636   13.9879  -21.2294 O   0  0  0  0  0  0  0  0  0  0  0  0
  -12.2521   12.0565  -22.4450 C   0  0  1  0  0  0  0  0  0  0  0  0
  -13.0198   12.4605  -23.5576 O   0  0  0  0  0  0  0  0  0  0  0  0
  -10.9156   12.7578  -22.5159 C   0  0  1  0  0  0  0  0  0  0  0  0
  -10.5971   13.0391  -23.8613 O   0  0  0  0  0  0  0  0  0  0  0  0
  -11.1587   14.0539  -21.7733 C   0  0  2  0  0  0  0  0  0  0  0  0
  -14.8997    6.0076  -16.0954 O   0  0  0  0  0  0  0  0  0  0  0  0
   -6.9552   16.6979  -20.1755 N   0  0  0  0  0  0  0  0  0  0  0  0
   -7.5362   16.7016  -21.4215 C   0  0  0  0  0  0  0  0  0  0  0  0
   -8.6426   15.9209  -21.6551 N   0  0  0  0  0  0  0  0  0  0  0  0
   -9.1634   15.1551  -20.6765 C   0  0  0  0  0  0  0  0  0  0  0  0
   -8.5955   15.1373  -19.4165 C   0  0  0  0  0  0  0  0  0  0  0  0
   -7.4740   15.9208  -19.1706 C   0  0  0  0  0  0  0  0  0  0  0  0
   -6.8946   15.9306  -17.9766 N   0  0  0  0  0  0  0  0  0  0  0  0
   -9.3115   14.2924  -18.6413 N   0  0  0  0  0  0  0  0  0  0  0  0
  -10.3153   13.7879  -19.3850 C   0  0  0  0  0  0  0  0  0  0  0  0
  -10.2327   14.3031  -20.6534 N   0  0  0  0  0  0  0  0  0  0  0  0
  2  1  1  6  0  0  0
  2  3  1  0  0  0  0
  2  5  1  0  0  0  0
  3  4  1  0  0  0  0
  3 16  1  0  0  0  0
  5  6  1  0  0  0  0
  6  7  1  0  0  0  0
  7  8  1  0  0  0  0
  9  8  1  1  0  0  0
  9 10  1  0  0  0  0
  9 11  1  0  0  0  0
 10 15  1  0  0  0  0
 11 12  1  6  0  0  0
 11 13  1  0  0  0  0
 13 14  1  6  0  0  0
 13 15  1  0  0  0  0
 15 26  1  1  0  0  0
 17 18  2  0  0  0  0
 17 22  1  0  0  0  0
 18 19  1  0  0  0  0
 19 20  2  0  0  0  0
 20 21  1  0  0  0  0
 20 26  1  0  0  0  0
 21 22  2  0  0  0  0
 21 24  1  0  0  0  0
 22 23  1  0  0  0  0
 24 25  2  0  0  0  0
 25 26  1  0  0  0  0
M  END
>  <CHROM.1>
-172.04691425,-168.97778185,177.57396437,176.96385000,169.92621683,176.89802968
-138.86384479,-11.43540467,11.97313094,-19.98656065,2.45523425,0.81651261
2.09713206

>  <Name>
ligand

>  <RI>
0

>  <Rbt.Current_Directory>
/home/itssahil/PROJECTS/Mol_Feturizer/New_Systems/rnas/3E5E

>  <Rbt.Executable>
rbdock ($Id: //depot/dev/client3/rdock/2013.1/src/exe/rbdock.cxx#4 $)

>  <Rbt.Library>
libRbt.so (2013.1, Build901 2013/11/27)

>  <Rbt.Parameter_File>
/export/apps/rDock/src/rDock_2013.1_src/data/scripts/dock_solv.prm

>  <Rbt.Receptor>
prm/pocket_docking_4.prm

>  <SCORE>
-20.1058

>  <SCORE.INTER>
-17.3097

>  <SCORE.INTER.CONST>
1

>  <SCORE.INTER.POLAR>
0

>  <SCORE.INTER.ROT>
7

>  <SCORE.INTER.SOLV>
17.6116

>  <SCORE.INTER.VDW>
-25.677

>  <SCORE.INTER.norm>
-0.665758

>  <SCORE.INTRA>
-2.79605

>  <SCORE.INTRA.DIHEDRAL>
-6.62869

>  <SCORE.INTRA.DIHEDRAL.0>
10.1225

>  <SCORE.INTRA.POLAR>
0

>  <SCORE.INTRA.POLAR.0>
0

>  <SCORE.INTRA.REPUL>
0

>  <SCORE.INTRA.REPUL.0>
0

>  <SCORE.INTRA.SOLV>
-0.596169

>  <SCORE.INTRA.SOLV.lig_0>
-49.9393

>  <SCORE.INTRA.VDW>
0.816375

>  <SCORE.INTRA.VDW.0>
-1.75437

>  <SCORE.INTRA.norm>
-0.107541

>  <SCORE.RESTR>
0

>  <SCORE.RESTR.CAVITY>
0

>  <SCORE.RESTR.norm>
0

>  <SCORE.SYSTEM>
0

>  <SCORE.SYSTEM.CONST>
0

>  <SCORE.SYSTEM.DIHEDRAL>
0

>  <SCORE.SYSTEM.SOLV>
0

>  <SCORE.SYSTEM.norm>
0

>  <SCORE.heavy>
26

>  <SCORE.norm>
-0.773298

>  <RMSD>
1.500

$$$$
ligand
 OpenBabel11021811473D
libRbt.so/2013.1/901 2013/11/27
 26 28  0  0  0  0  0  0  0  0999 V2000
  -15.7754    8.4806  -17.0988 N   0  0  0  0  0  0  0  0  0  0  0  0
  -16.1198    7.3407  -17.9575 C   0  0  2  0  0  0  0  0  0  0  0  0
  -16.8598    6.3089  -17.1476 C   0  0  0  0  0  0  0  0  0  0  0  0
  -16.4403    5.9751  -16.0642 O   0  0  0  0  0  0  0  0  0  0  0  0
  -14.8391    6.7242  -18.5229 C   0  0  0  0  0  0  0  0  0  0  0  0
  -14.1712    7.7167  -19.4729 C   0  0  0  0  0  0  0  0  0  0  0  0
  -13.6551    9.2346  -18.9131 S   0  0  0  0  0  0  0  0  0  0  0  0
  -12.5604   10.5689  -19.4629 C   0  0  0  0  0  0  0  0  0  0  0  0
  -12.7927   11.0364  -20.9049 C   0  0  1  0  0  0  0  0  0  0  0  0
  -12.4328   12.3921  -21.0982 O   0  0  0  0  0  0  0  0  0  0  0  0
  -11.9096   10.3053  -21.8883 C   0  0  1  0  0  0  0  0  0  0  0  0
  -12.5798   10.4093  -23.1254 O   0  0  0  0  0  0  0  0  0  0  0  0
  -10.6432   11.1256  -21.9689 C   0  0  1  0  0  0  0  0  0  0  0  0
  -10.2013   11.1875  -23.3074 O   0  0  0  0  0  0  0  0  0  0  0  0
  -11.0862   12.5013  -21.5196 C   0  0  2  0  0  0  0  0  0  0  0  0
  -17.9853    5.7565  -17.6292 O   0  0  0  0  0  0  0  0  0  0  0  0
   -7.9375   16.3432  -19.9261 N   0  0  0  0  0  0  0  0  0  0  0  0
   -8.4472   16.1318  -21.1853 C   0  0  0  0  0  0  0  0  0  0  0  0
   -9.2571   15.0457  -21.4146 N   0  0  0  0  0  0  0  0  0  0  0  0
   -9.5573   14.1890  -20.4190 C   0  0  0  0  0  0  0  0  0  0  0  0
   -9.0564   14.3834  -19.1455 C   0  0  0  0  0  0  0  0  0  0  0  0
   -8.2334   15.4771  -18.9038 C   0  0  0  0  0  0  0  0  0  0  0  0
   -7.7276   15.6993  -17.6970 N   0  0  0  0  0  0  0  0  0  0  0  0
   -9.5115   13.3859  -18.3548 N   0  0  0  0  0  0  0  0  0  0  0  0
  -10.2886   12.5780  -19.1022 C   0  0  0  0  0  0  0  0  0  0  0  0
  -10.3196   13.0542  -20.3880 N   0  0  0  0  0  0  0  0  0  0  0  0
  2  1  1  1  0  0  0
  2  3  1  0  0  0  0
  2  5  1  0  0  0  0
  3  4  1  0  0  0  0
  3 16  1  0  0  0  0
  5  6  1  0  0  0  0
  6  7  1  0  0  0  0
  7  8  1  0  0  0  0
  9  8  1  1  0  0  0
  9 10  1  0  0  0  0
  9 11  1  0  0  0  0
 10 15  1  0  0  0  0
 11 12  1  6  0  0  0
 11 13  1  0  0  0  0
 13 14  1  6  0  0  0
 13 15  1  0  0  0  0
 15 26  1  1  0  0  0
 17 18  2  0  0  0  0
 17 22  1  0  0  0  0
 18 19  1  0  0  0  0
 19 20  2  0  0  0  0
 20 21  1  0  0  0  0
 20 26  1  0  0  0  0
 21 22  2  0  0  0  0
 21 24  1  0  0  0  0
 22 23  1  0  0  0  0
 24 25  2  0  0  0  0
 25 26  1  0  0  0  0
M  END
>  <CHROM.1>
-46.90444864,-66.50413688,60.66981185,163.77217043,49.67331637,151.91526580
-123.56815290,-12.11503735,11.07732290,-19.68924667,-3.03983480,-0.84914725
-1.73730316

>  <Name>
ligand

>  <RI>
0

>  <Rbt.Current_Directory>
/home/itssahil/PROJECTS/Mol_Feturizer/New_Systems/rnas/3E5E

>  <Rbt.Executable>
rbdock ($Id: //depot/dev/client3/rdock/2013.1/src/exe/rbdock.cxx#4 $)

>  <Rbt.Library>
libRbt.so (2013.1, Build901 2013/11/27)

>  <Rbt.Parameter_File>
/export/apps/rDock/src/rDock_2013.1_src/data/scripts/dock_solv.prm

>  <Rbt.Receptor>
prm/pocket_docking_2.prm

>  <SCORE>
-13.1103

>  <SCORE.INTER>
-11.5319

>  <SCORE.INTER.CONST>
1

>  <SCORE.INTER.POLAR>
0

>  <SCORE.INTER.ROT>
7

>  <SCORE.INTER.SOLV>
14.3612

>  <SCORE.INTER.VDW>
-20.7417

>  <SCORE.INTER.norm>
-0.443534

>  <SCORE.INTRA>
-1.58706

>  <SCORE.INTRA.DIHEDRAL>
-4.35151

>  <SCORE.INTRA.DIHEDRAL.0>
10.1225

>  <SCORE.INTRA.POLAR>
0

>  <SCORE.INTRA.POLAR.0>
0

>  <SCORE.INTRA.REPUL>
0

>  <SCORE.INTRA.REPUL.0>
0

>  <SCORE.INTRA.SOLV>
1.45486

>  <SCORE.INTRA.SOLV.lig_0>
-49.9393

>  <SCORE.INTRA.VDW>
-0.138732

>  <SCORE.INTRA.VDW.0>
-1.75437

>  <SCORE.INTRA.norm>
-0.0610407

>  <SCORE.RESTR>
0.00860105

>  <SCORE.RESTR.CAVITY>
0.00860105

>  <SCORE.RESTR.norm>
0.00033081

>  <SCORE.SYSTEM>
0

>  <SCORE.SYSTEM.CONST>
0

>  <SCORE.SYSTEM.DIHEDRAL>
0

>  <SCORE.SYSTEM.SOLV>
0

>  <SCORE.SYSTEM.norm>
0

>  <SCORE.heavy>
26

>  <SCORE.norm>
-0.504244

>  <RMSD>
1.501

$$$$
ligand
 OpenBabel11021811473D
libRbt.so/2013.1/901 2013/11/27
 26 28  0  0  0  0  0  0  0  0999 V2000
  -15.2654    8.1772  -19.6652 N   0  0  0  0  0  0  0  0  0  0  0  0
  -15.5362    8.5876  -18.2818 C   0  0  2  0  0  0  0  0  0  0  0  0
  -17.0239    8.6936  -18.0729 C   0  0  0  0  0  0  0  0  0  0  0  0
  -17.7488    8.9532  -19.0047 O   0  0  0  0  0  0  0  0  0  0  0  0
  -14.8848    9.9461  -18.0172 C   0  0  0  0  0  0  0  0  0  0  0  0
  -13.3655    9.7888  -17.9996 C   0  0  0  0  0  0  0  0  0  0  0  0
  -12.5225    9.3853  -19.4176 S   0  0  0  0  0  0  0  0  0  0  0  0
  -11.7698   10.2434  -20.8241 C   0  0  0  0  0  0  0  0  0  0  0  0
  -12.7071   11.2040  -21.5660 C   0  0  1  0  0  0  0  0  0  0  0  0
  -12.8339   12.4514  -20.9082 O   0  0  0  0  0  0  0  0  0  0  0  0
  -12.1686   11.5876  -22.9241 C   0  0  1  0  0  0  0  0  0  0  0  0
  -13.3026   11.9761  -23.6680 O   0  0  0  0  0  0  0  0  0  0  0  0
  -11.3217   12.8152  -22.6817 C   0  0  1  0  0  0  0  0  0  0  0  0
  -11.5246   13.7457  -23.7227 O   0  0  0  0  0  0  0  0  0  0  0  0
  -11.8756   13.3750  -21.3893 C   0  0  2  0  0  0  0  0  0  0  0  0
  -17.5466    8.5025  -16.8506 O   0  0  0  0  0  0  0  0  0  0  0  0
   -7.6140   15.9861  -19.8943 N   0  0  0  0  0  0  0  0  0  0  0  0
   -8.2834   16.0703  -21.0921 C   0  0  0  0  0  0  0  0  0  0  0  0
   -9.3901   15.2845  -21.3062 N   0  0  0  0  0  0  0  0  0  0  0  0
   -9.8256   14.4356  -20.3549 C   0  0  0  0  0  0  0  0  0  0  0  0
   -9.1681   14.3360  -19.1432 C   0  0  0  0  0  0  0  0  0  0  0  0
   -8.0456   15.1240  -18.9178 C   0  0  0  0  0  0  0  0  0  0  0  0
   -7.3818   15.0571  -17.7704 N   0  0  0  0  0  0  0  0  0  0  0  0
   -9.8117   13.4191  -18.3865 N   0  0  0  0  0  0  0  0  0  0  0  0
  -10.8576   12.9493  -19.0939 C   0  0  0  0  0  0  0  0  0  0  0  0
  -10.8756   13.5602  -20.3218 N   0  0  0  0  0  0  0  0  0  0  0  0
  2  1  1  6  0  0  0
  2  3  1  0  0  0  0
  2  5  1  0  0  0  0
  3  4  1  0  0  0  0
  3 16  1  0  0  0  0
  5  6  1  0  0  0  0
  6  7  1  0  0  0  0
  7  8  1  0  0  0  0
  9  8  1  1  0  0  0
  9 10  1  0  0  0  0
  9 11  1  0  0  0  0
 10 15  1  0  0  0  0
 11 12  1  6  0  0  0
 11 13  1  0  0  0  0
 13 14  1  6  0  0  0
 13 15  1  0  0  0  0
 15 26  1  1  0  0  0
 17 18  2  0  0  0  0
 17 22  1  0  0  0  0
 18 19  1  0  0  0  0
 19 20  2  0  0  0  0
 20 21  1  0  0  0  0
 20 26  1  0  0  0  0
 21 22  2  0  0  0  0
 21 24  1  0  0  0  0
 22 23  1  0  0  0  0
 24 25  2  0  0  0  0
 25 26  1  0  0  0  0
M  END
>  <CHROM.1>
-27.79616650,-69.41099309,67.23734870,87.83561670,-53.89730759,80.37700004
-175.77108843,-12.15571016,11.94240624,-20.04111796,2.83034136,0.67443011
1.76920486

>  <Name>
ligand

>  <RI>
0

>  <Rbt.Current_Directory>
/home/itssahil/PROJECTS/Mol_Feturizer/New_Systems/rnas/3E5E

>  <Rbt.Executable>
rbdock ($Id: //depot/dev/client3/rdock/2013.1/src/exe/rbdock.cxx#4 $)

>  <Rbt.Library>
libRbt.so (2013.1, Build901 2013/11/27)

>  <Rbt.Parameter_File>
/export/apps/rDock/src/rDock_2013.1_src/data/scripts/dock_solv.prm

>  <Rbt.Receptor>
prm/pocket_docking_3.prm

>  <SCORE>
-17.1146

>  <SCORE.INTER>
-14.7957

>  <SCORE.INTER.CONST>
1

>  <SCORE.INTER.POLAR>
0

>  <SCORE.INTER.ROT>
7

>  <SCORE.INTER.SOLV>
17.543

>  <SCORE.INTER.VDW>
-23.9781

>  <SCORE.INTER.norm>
-0.569065

>  <SCORE.INTRA>
-2.32097

>  <SCORE.INTRA.DIHEDRAL>
-4.38973

>  <SCORE.INTRA.DIHEDRAL.0>
10.1225

>  <SCORE.INTRA.POLAR>
0

>  <SCORE.INTRA.POLAR.0>
0

>  <SCORE.INTRA.REPUL>
0

>  <SCORE.INTRA.REPUL.0>
0

>  <SCORE.INTRA.SOLV>
1.81124

>  <SCORE.INTRA.SOLV.lig_0>
-49.9393

>  <SCORE.INTRA.VDW>
-1.03172

>  <SCORE.INTRA.VDW.0>
-1.75437

>  <SCORE.INTRA.norm>
-0.0892681

>  <SCORE.RESTR>
0.00204996

>  <SCORE.RESTR.CAVITY>
0.00204996

>  <SCORE.RESTR.norm>
7.88446e-05

>  <SCORE.SYSTEM>
0

>  <SCORE.SYSTEM.CONST>
0

>  <SCORE.SYSTEM.DIHEDRAL>
0

>  <SCORE.SYSTEM.SOLV>
0

>  <SCORE.SYSTEM.norm>
0

>  <SCORE.heavy>
26

>  <SCORE.norm>
-0.658254

>  <RMSD>
1.512

$$$$
ligand
 OpenBabel11021811473D
libRbt.so/2013.1/901 2013/11/27
 26 28  0  0  0  0  0  0  0  0999 V2000
  -16.0446    8.2353  -17.5162 N   0  0  0  0  0  0  0  0  0  0  0  0
  -14.7876    8.2028  -16.7583 C   0  0  2  0  0  0  0  0  0  0  0  0
  -14.9068    9.0967  -15.5521 C   0  0  0  0  0  0  0  0  0  0  0  0
  -13.9118    9.4917  -14.9908 O   0  0  0  0  0  0  0  0  0  0  0  0
  -13.6443    8.6944  -17.6476 C   0  0  0  0  0  0  0  0  0  0  0  0
  -13.8904   10.1510  -18.0368 C   0  0  0  0  0  0  0  0  0  0  0  0
  -12.7161   11.0254  -18.8973 S   0  0  0  0  0  0  0  0  0  0  0  0
  -12.0165   11.0522  -20.5679 C   0  0  0  0  0  0  0  0  0  0  0  0
  -12.6821   12.0472  -21.5263 C   0  0  1  0  0  0  0  0  0  0  0  0
  -12.5409   13.3889  -21.0964 O   0  0  0  0  0  0  0  0  0  0  0  0
  -12.0239   12.0535  -22.8858 C   0  0  1  0  0  0  0  0  0  0  0  0
  -13.0122   12.5430  -23.7656 O   0  0  0  0  0  0  0  0  0  0  0  0
  -10.9262   13.0873  -22.7893 C   0  0  1  0  0  0  0  0  0  0  0  0
  -10.8741   13.8383  -23.9827 O   0  0  0  0  0  0  0  0  0  0  0  0
  -11.3802   13.9773  -21.6525 C   0  0  2  0  0  0  0  0  0  0  0  0
  -16.1190    9.4539  -15.0970 O   0  0  0  0  0  0  0  0  0  0  0  0
   -7.1316   16.5127  -19.9989 N   0  0  0  0  0  0  0  0  0  0  0  0
   -7.7752   16.6349  -21.2075 C   0  0  0  0  0  0  0  0  0  0  0  0
   -8.8830   15.8640  -21.4658 N   0  0  0  0  0  0  0  0  0  0  0  0
   -9.3445   14.9930  -20.5474 C   0  0  0  0  0  0  0  0  0  0  0  0
   -8.7131   14.8551  -19.3256 C   0  0  0  0  0  0  0  0  0  0  0  0
   -7.5897   15.6278  -19.0556 C   0  0  0  0  0  0  0  0  0  0  0  0
   -6.9505   15.5243  -17.8969 N   0  0  0  0  0  0  0  0  0  0  0  0
   -9.3790   13.9231  -18.6077 N   0  0  0  0  0  0  0  0  0  0  0  0
  -10.4134   13.4811  -19.3492 C   0  0  0  0  0  0  0  0  0  0  0  0
  -10.4013   14.1254  -20.5599 N   0  0  0  0  0  0  0  0  0  0  0  0
  2  1  1  6  0  0  0
  2  3  1  0  0  0  0
  2  5  1  0  0  0  0
  3  4  1  0  0  0  0
  3 16  1  0  0  0  0
  5  6  1  0  0  0  0
  6  7  1  0  0  0  0
  7  8  1  0  0  0  0
  9  8  1  1  0  0  0
  9 10  1  0  0  0  0
  9 11  1  0  0  0  0
 10 15  1  0  0  0  0
 11 12  1  6  0  0  0
 11 13  1  0  0  0  0
 13 14  1  6  0  0  0
 13 15  1  0  0  0  0
 15 26  1  1  0  0  0
 17 18  2  0  0  0  0
 17 22  1  0  0  0  0
 18 19  1  0  0  0  0
 19 20  2  0  0  0  0
 20 21  1  0  0  0  0
 20 26  1  0  0  0  0
 21 22  2  0  0  0  0
 21 24  1  0  0  0  0
 22 23  1  0  0  0  0
 24 25  2  0  0  0  0
 25 26  1  0  0  0  0
M  END
>  <CHROM.1>
-160.75631367,63.13228113,173.94347427,70.72317226,93.78249425,62.53064913
-158.50197095,-11.61439642,12.47279075,-19.60853203,2.53879039,0.70960579
1.77980452

>  <Name>
ligand

>  <RI>
0

>  <Rbt.Current_Directory>
/home/itssahil/PROJECTS/Mol_Feturizer/New_Systems/rnas/3E5E

>  <Rbt.Executable>
rbdock ($Id: //depot/dev/client3/rdock/2013.1/src/exe/rbdock.cxx#4 $)

>  <Rbt.Library>
libRbt.so (2013.1, Build901 2013/11/27)

>  <Rbt.Parameter_File>
/export/apps/rDock/src/rDock_2013.1_src/data/scripts/dock_solv.prm

>  <Rbt.Receptor>
prm/pocket_docking_3.prm

>  <SCORE>
-19.6741

>  <SCORE.INTER>
-17.6637

>  <SCORE.INTER.CONST>
1

>  <SCORE.INTER.POLAR>
0

>  <SCORE.INTER.ROT>
7

>  <SCORE.INTER.SOLV>
17.7965

>  <SCORE.INTER.VDW>
-25.9746

>  <SCORE.INTER.norm>
-0.679372

>  <SCORE.INTRA>
-2.01342

>  <SCORE.INTRA.DIHEDRAL>
-5.51654

>  <SCORE.INTRA.DIHEDRAL.0>
10.1225

>  <SCORE.INTRA.POLAR>
0

>  <SCORE.INTRA.POLAR.0>
0

>  <SCORE.INTRA.REPUL>
0

>  <SCORE.INTRA.REPUL.0>
0

>  <SCORE.INTRA.SOLV>
0.183318

>  <SCORE.INTRA.SOLV.lig_0>
-49.9393

>  <SCORE.INTRA.VDW>
0.653191

>  <SCORE.INTRA.VDW.0>
-1.75437

>  <SCORE.INTRA.norm>
-0.0774392

>  <SCORE.RESTR>
0.00305391

>  <SCORE.RESTR.CAVITY>
0.00305391

>  <SCORE.RESTR.norm>
0.000117458

>  <SCORE.SYSTEM>
0

>  <SCORE.SYSTEM.CONST>
0

>  <SCORE.SYSTEM.DIHEDRAL>
0

>  <SCORE.SYSTEM.SOLV>
0

>  <SCORE.SYSTEM.norm>
0

>  <SCORE.heavy>
26

>  <SCORE.norm>
-0.756694

>  <RMSD>
1.515

$$$$
ligand
 OpenBabel11021811473D
libRbt.so/2013.1/901 2013/11/27
 26 28  0  0  0  0  0  0  0  0999 V2000
  -13.3311    5.5606  -17.3309 N   0  0  0  0  0  0  0  0  0  0  0  0
  -13.3715    6.9920  -17.6547 C   0  0  2  0  0  0  0  0  0  0  0  0
  -14.1060    7.7311  -16.5673 C   0  0  0  0  0  0  0  0  0  0  0  0
  -15.0561    7.2192  -16.0229 O   0  0  0  0  0  0  0  0  0  0  0  0
  -14.0953    7.1922  -18.9873 C   0  0  0  0  0  0  0  0  0  0  0  0
  -14.1489    8.6821  -19.3202 C   0  0  0  0  0  0  0  0  0  0  0  0
  -12.7183    9.5824  -19.4848 S   0  0  0  0  0  0  0  0  0  0  0  0
  -12.2232   11.3244  -19.5217 C   0  0  0  0  0  0  0  0  0  0  0  0
  -12.7886   12.1274  -20.6995 C   0  0  1  0  0  0  0  0  0  0  0  0
  -12.4533   13.5012  -20.6276 O   0  0  0  0  0  0  0  0  0  0  0  0
  -12.1906   11.6987  -22.0186 C   0  0  1  0  0  0  0  0  0  0  0  0
  -13.1397   12.0823  -22.9894 O   0  0  0  0  0  0  0  0  0  0  0  0
  -10.9623   12.5607  -22.1951 C   0  0  1  0  0  0  0  0  0  0  0  0
  -10.8589   12.9711  -23.5410 O   0  0  0  0  0  0  0  0  0  0  0  0
  -11.2480   13.7631  -21.3214 C   0  0  2  0  0  0  0  0  0  0  0  0
  -13.7078    8.9610  -16.2029 O   0  0  0  0  0  0  0  0  0  0  0  0
   -7.0275   16.5990  -20.1555 N   0  0  0  0  0  0  0  0  0  0  0  0
   -7.7449   16.5888  -21.3283 C   0  0  0  0  0  0  0  0  0  0  0  0
   -8.8305   15.7554  -21.4510 N   0  0  0  0  0  0  0  0  0  0  0  0
   -9.1988   14.9512  -20.4347 C   0  0  0  0  0  0  0  0  0  0  0  0
   -8.4922   14.9463  -19.2468 C   0  0  0  0  0  0  0  0  0  0  0  0
   -7.3905   15.7832  -19.1135 C   0  0  0  0  0  0  0  0  0  0  0  0
   -6.6813   15.8074  -17.9919 N   0  0  0  0  0  0  0  0  0  0  0  0
   -9.0734   14.0558  -18.4122 N   0  0  0  0  0  0  0  0  0  0  0  0
  -10.1284   13.5100  -19.0480 C   0  0  0  0  0  0  0  0  0  0  0  0
  -10.2150   14.0451  -20.3078 N   0  0  0  0  0  0  0  0  0  0  0  0
  2  1  1  1  0  0  0
  2  3  1  0  0  0  0
  2  5  1  0  0  0  0
  3  4  1  0  0  0  0
  3 16  1  0  0  0  0
  5  6  1  0  0  0  0
  6  7  1  0  0  0  0
  7  8  1  0  0  0  0
  9  8  1  1  0  0  0
  9 10  1  0  0  0  0
  9 11  1  0  0  0  0
 10 15  1  0  0  0  0
 11 12  1  6  0  0  0
 11 13  1  0  0  0  0
 13 14  1  6  0  0  0
 13 15  1  0  0  0  0
 15 26  1  1  0  0  0
 17 18  2  0  0  0  0
 17 22  1  0  0  0  0
 18 19  1  0  0  0  0
 19 20  2  0  0  0  0
 20 21  1  0  0  0  0
 20 26  1  0  0  0  0
 21 22  2  0  0  0  0
 21 24  1  0  0  0  0
 22 23  1  0  0  0  0
 24 25  2  0  0  0  0
 25 26  1  0  0  0  0
M  END
>  <CHROM.1>
-36.38970876,179.51631353,59.26949104,-164.21776884,-63.77372149,175.63899803
-144.14706180,-11.36356967,11.87592589,-19.68477855,-2.49646820,-0.80770088
-1.09520318

>  <Name>
ligand

>  <RI>
0

>  <Rbt.Current_Directory>
/home/itssahil/PROJECTS/Mol_Feturizer/New_Systems/rnas/3E5E

>  <Rbt.Executable>
rbdock ($Id: //depot/dev/client3/rdock/2013.1/src/exe/rbdock.cxx#4 $)

>  <Rbt.Library>
libRbt.so (2013.1, Build901 2013/11/27)

>  <Rbt.Parameter_File>
/export/apps/rDock/src/rDock_2013.1_src/data/scripts/dock_solv.prm

>  <Rbt.Receptor>
prm/pocket_docking_3.prm

>  <SCORE>
-21.1464

>  <SCORE.INTER>
-17.2355

>  <SCORE.INTER.CONST>
1

>  <SCORE.INTER.POLAR>
0

>  <SCORE.INTER.ROT>
7

>  <SCORE.INTER.SOLV>
19.5425

>  <SCORE.INTER.VDW>
-26.2712

>  <SCORE.INTER.norm>
-0.662904

>  <SCORE.INTRA>
-3.91094

>  <SCORE.INTRA.DIHEDRAL>
-6.85291

>  <SCORE.INTRA.DIHEDRAL.0>
10.1225

>  <SCORE.INTRA.POLAR>
0

>  <SCORE.INTRA.POLAR.0>
0

>  <SCORE.INTRA.REPUL>
0

>  <SCORE.INTRA.REPUL.0>
0

>  <SCORE.INTRA.SOLV>
-0.516292

>  <SCORE.INTRA.SOLV.lig_0>
-49.9393

>  <SCORE.INTRA.VDW>
-0.226334

>  <SCORE.INTRA.VDW.0>
-1.75437

>  <SCORE.INTRA.norm>
-0.150421

>  <SCORE.RESTR>
0

>  <SCORE.RESTR.CAVITY>
0

>  <SCORE.RESTR.norm>
0

>  <SCORE.SYSTEM>
0

>  <SCORE.SYSTEM.CONST>
0

>  <SCORE.SYSTEM.DIHEDRAL>
0

>  <SCORE.SYSTEM.SOLV>
0

>  <SCORE.SYSTEM.norm>
0

>  <SCORE.heavy>
26

>  <SCORE.norm>
-0.813325

>  <RMSD>
1.518

$$$$
ligand
 OpenBabel11021811473D
libRbt.so/2013.1/901 2013/11/27
 26 28  0  0  0  0  0  0  0  0999 V2000
  -13.1208    5.5319  -17.3001 N   0  0  0  0  0  0  0  0  0  0  0  0
  -13.2480    6.9500  -17.6587 C   0  0  2  0  0  0  0  0  0  0  0  0
  -14.0420    7.6656  -16.5977 C   0  0  0  0  0  0  0  0  0  0  0  0
  -13.7394    8.7890  -16.2699 O   0  0  0  0  0  0  0  0  0  0  0  0
  -13.9659    7.0724  -19.0038 C   0  0  0  0  0  0  0  0  0  0  0  0
  -14.0789    8.5461  -19.3897 C   0  0  0  0  0  0  0  0  0  0  0  0
  -12.6869    9.5050  -19.5543 S   0  0  0  0  0  0  0  0  0  0  0  0
  -12.2592   11.2652  -19.5511 C   0  0  0  0  0  0  0  0  0  0  0  0
  -12.8159   12.0629  -20.7367 C   0  0  1  0  0  0  0  0  0  0  0  0
  -12.5106   13.4429  -20.6507 O   0  0  0  0  0  0  0  0  0  0  0  0
  -12.1810   11.6539  -22.0448 C   0  0  1  0  0  0  0  0  0  0  0  0
  -13.1168   12.0232  -23.0339 O   0  0  0  0  0  0  0  0  0  0  0  0
  -10.9673   12.5420  -22.1905 C   0  0  1  0  0  0  0  0  0  0  0  0
  -10.8436   12.9619  -23.5318 O   0  0  0  0  0  0  0  0  0  0  0  0
  -11.2964   13.7333  -21.3170 C   0  0  2  0  0  0  0  0  0  0  0  0
  -15.0856    7.0553  -16.0125 O   0  0  0  0  0  0  0  0  0  0  0  0
   -7.1154   16.5954  -20.0755 N   0  0  0  0  0  0  0  0  0  0  0  0
   -7.8013   16.5685  -21.2666 C   0  0  0  0  0  0  0  0  0  0  0  0
   -8.8812   15.7306  -21.4075 N   0  0  0  0  0  0  0  0  0  0  0  0
   -9.2744   14.9382  -20.3913 C   0  0  0  0  0  0  0  0  0  0  0  0
   -8.5996   14.9502  -19.1851 C   0  0  0  0  0  0  0  0  0  0  0  0
   -7.5038   15.7918  -19.0333 C   0  0  0  0  0  0  0  0  0  0  0  0
   -6.8247   15.8320  -17.8936 N   0  0  0  0  0  0  0  0  0  0  0  0
   -9.2005   14.0686  -18.3550 N   0  0  0  0  0  0  0  0  0  0  0  0
  -10.2369   13.5119  -19.0117 C   0  0  0  0  0  0  0  0  0  0  0  0
  -10.2914   14.0309  -20.2800 N   0  0  0  0  0  0  0  0  0  0  0  0
  2  1  1  1  0  0  0
  2  3  1  0  0  0  0
  2  5  1  0  0  0  0
  3  4  1  0  0  0  0
  3 16  1  0  0  0  0
  5  6  1  0  0  0  0
  6  7  1  0  0  0  0
  7  8  1  0  0  0  0
  9  8  1  1  0  0  0
  9 10  1  0  0  0  0
  9 11  1  0  0  0  0
 10 15  1  0  0  0  0
 11 12  1  6  0  0  0
 11 13  1  0  0  0  0
 13 14  1  6  0  0  0
 13 15  1  0  0  0  0
 15 26  1  1  0  0  0
 17 18  2  0  0  0  0
 17 22  1  0  0  0  0
 18 19  1  0  0  0  0
 19 20  2  0  0  0  0
 20 21  1  0  0  0  0
 20 26  1  0  0  0  0
 21 22  2  0  0  0  0
 21 24  1  0  0  0  0
 22 23  1  0  0  0  0
 24 25  2  0  0  0  0
 25 26  1  0  0  0  0
M  END
>  <CHROM.1>
141.99286981,-179.07565950,58.48810065,-159.93545572,-66.85145040,176.99237791
-145.63012459,-11.37937219,11.82693376,-19.68127246,-2.49301652,-0.82982796
-1.09151186

>  <Name>
ligand

>  <RI>
0

>  <Rbt.Current_Directory>
/home/itssahil/PROJECTS/Mol_Feturizer/New_Systems/rnas/3E5E

>  <Rbt.Executable>
rbdock ($Id: //depot/dev/client3/rdock/2013.1/src/exe/rbdock.cxx#4 $)

>  <Rbt.Library>
libRbt.so (2013.1, Build901 2013/11/27)

>  <Rbt.Parameter_File>
/export/apps/rDock/src/rDock_2013.1_src/data/scripts/dock_solv.prm

>  <Rbt.Receptor>
prm/pocket_docking_5.prm

>  <SCORE>
-21.0277

>  <SCORE.INTER>
-17.1682

>  <SCORE.INTER.CONST>
1

>  <SCORE.INTER.POLAR>
0

>  <SCORE.INTER.ROT>
7

>  <SCORE.INTER.SOLV>
20.41

>  <SCORE.INTER.VDW>
-26.5154

>  <SCORE.INTER.norm>
-0.660314

>  <SCORE.INTRA>
-3.86369

>  <SCORE.INTRA.DIHEDRAL>
-6.59655

>  <SCORE.INTRA.DIHEDRAL.0>
10.1225

>  <SCORE.INTRA.POLAR>
0

>  <SCORE.INTRA.POLAR.0>
0

>  <SCORE.INTRA.REPUL>
0

>  <SCORE.INTRA.REPUL.0>
0

>  <SCORE.INTRA.SOLV>
-0.464915

>  <SCORE.INTRA.SOLV.lig_0>
-49.9393

>  <SCORE.INTRA.VDW>
-0.332957

>  <SCORE.INTRA.VDW.0>
-1.75437

>  <SCORE.INTRA.norm>
-0.148603

>  <SCORE.RESTR>
0.00414396

>  <SCORE.RESTR.CAVITY>
0.00414396

>  <SCORE.RESTR.norm>
0.000159383

>  <SCORE.SYSTEM>
0

>  <SCORE.SYSTEM.CONST>
0

>  <SCORE.SYSTEM.DIHEDRAL>
0

>  <SCORE.SYSTEM.SOLV>
0

>  <SCORE.SYSTEM.norm>
0

>  <SCORE.heavy>
26

>  <SCORE.norm>
-0.808758

>  <RMSD>
1.523

$$$$
ligand
 OpenBabel11021811473D
libRbt.so/2013.1/901 2013/11/27
 26 28  0  0  0  0  0  0  0  0999 V2000
  -13.9958    8.5558  -16.2532 N   0  0  0  0  0  0  0  0  0  0  0  0
  -14.4149    7.8493  -17.4701 C   0  0  2  0  0  0  0  0  0  0  0  0
  -13.5411    6.6396  -17.6730 C   0  0  0  0  0  0  0  0  0  0  0  0
  -12.8803    6.2097  -16.7567 O   0  0  0  0  0  0  0  0  0  0  0  0
  -14.2806    8.7843  -18.6732 C   0  0  0  0  0  0  0  0  0  0  0  0
  -12.8125    9.1596  -18.8665 C   0  0  0  0  0  0  0  0  0  0  0  0
  -12.3384   10.1554  -20.1579 S   0  0  0  0  0  0  0  0  0  0  0  0
  -10.8683   10.4184  -21.1829 C   0  0  0  0  0  0  0  0  0  0  0  0
  -11.1162   11.2198  -22.4667 C   0  0  1  0  0  0  0  0  0  0  0  0
  -11.2568   12.6069  -22.2194 O   0  0  0  0  0  0  0  0  0  0  0  0
   -9.9385   11.1592  -23.4106 C   0  0  1  0  0  0  0  0  0  0  0  0
  -10.4798   11.4317  -24.6847 O   0  0  0  0  0  0  0  0  0  0  0  0
   -9.0553   12.3201  -23.0166 C   0  0  1  0  0  0  0  0  0  0  0  0
   -8.5408   12.9404  -24.1746 O   0  0  0  0  0  0  0  0  0  0  0  0
  -10.0083   13.2659  -22.3184 C   0  0  2  0  0  0  0  0  0  0  0  0
  -13.4929    6.0385  -18.8731 O   0  0  0  0  0  0  0  0  0  0  0  0
   -7.4394   16.7422  -19.3978 N   0  0  0  0  0  0  0  0  0  0  0  0
   -7.5552   16.7057  -20.7672 C   0  0  0  0  0  0  0  0  0  0  0  0
   -8.2703   15.6931  -21.3597 N   0  0  0  0  0  0  0  0  0  0  0  0
   -8.8594   14.7387  -20.6131 C   0  0  0  0  0  0  0  0  0  0  0  0
   -8.7564   14.7569  -19.2349 C   0  0  0  0  0  0  0  0  0  0  0  0
   -8.0324   15.7751  -18.6257 C   0  0  0  0  0  0  0  0  0  0  0  0
   -7.9046   15.8286  -17.3057 N   0  0  0  0  0  0  0  0  0  0  0  0
   -9.4338   13.6943  -18.7456 N   0  0  0  0  0  0  0  0  0  0  0  0
   -9.9618   13.0177  -19.7842 C   0  0  0  0  0  0  0  0  0  0  0  0
   -9.6065   13.6445  -20.9512 N   0  0  0  0  0  0  0  0  0  0  0  0
  2  1  1  1  0  0  0
  2  3  1  0  0  0  0
  2  5  1  0  0  0  0
  3  4  1  0  0  0  0
  3 16  1  0  0  0  0
  5  6  1  0  0  0  0
  6  7  1  0  0  0  0
  7  8  1  0  0  0  0
  9  8  1  1  0  0  0
  9 10  1  0  0  0  0
  9 11  1  0  0  0  0
 10 15  1  0  0  0  0
 11 12  1  6  0  0  0
 11 13  1  0  0  0  0
 13 14  1  6  0  0  0
 13 15  1  0  0  0  0
 15 26  1  1  0  0  0
 17 18  2  0  0  0  0
 17 22  1  0  0  0  0
 18 19  1  0  0  0  0
 19 20  2  0  0  0  0
 20 21  1  0  0  0  0
 20 26  1  0  0  0  0
 21 22  2  0  0  0  0
 21 24  1  0  0  0  0
 22 23  1  0  0  0  0
 24 25  2  0  0  0  0
 25 26  1  0  0  0  0
M  END
>  <CHROM.1>
17.22089112,63.33642809,178.16785149,-152.04871953,164.73741448,76.43105690
-149.01299544,-10.70759327,11.71462041,-20.22378823,-3.00287360,-0.99273430
-1.75825711

>  <Name>
ligand

>  <RI>
0

>  <Rbt.Current_Directory>
/home/itssahil/PROJECTS/Mol_Feturizer/New_Systems/rnas/3E5E

>  <Rbt.Executable>
rbdock ($Id: //depot/dev/client3/rdock/2013.1/src/exe/rbdock.cxx#4 $)

>  <Rbt.Library>
libRbt.so (2013.1, Build901 2013/11/27)

>  <Rbt.Parameter_File>
/export/apps/rDock/src/rDock_2013.1_src/data/scripts/dock_solv.prm

>  <Rbt.Receptor>
prm/pocket_docking_5.prm

>  <SCORE>
-16.7074

>  <SCORE.INTER>
-15

>  <SCORE.INTER.CONST>
1

>  <SCORE.INTER.POLAR>
0

>  <SCORE.INTER.ROT>
7

>  <SCORE.INTER.SOLV>
19.1422

>  <SCORE.INTER.VDW>
-24.6474

>  <SCORE.INTER.norm>
-0.576924

>  <SCORE.INTRA>
-1.70734

>  <SCORE.INTRA.DIHEDRAL>
-4.90144

>  <SCORE.INTRA.DIHEDRAL.0>
10.1225

>  <SCORE.INTRA.POLAR>
0

>  <SCORE.INTRA.POLAR.0>
0

>  <SCORE.INTRA.REPUL>
0

>  <SCORE.INTRA.REPUL.0>
0

>  <SCORE.INTRA.SOLV>
0.088185

>  <SCORE.INTRA.SOLV.lig_0>
-49.9393

>  <SCORE.INTRA.VDW>
0.699284

>  <SCORE.INTRA.VDW.0>
-1.75437

>  <SCORE.INTRA.norm>
-0.065667

>  <SCORE.RESTR>
0

>  <SCORE.RESTR.CAVITY>
0

>  <SCORE.RESTR.norm>
0

>  <SCORE.SYSTEM>
0

>  <SCORE.SYSTEM.CONST>
0

>  <SCORE.SYSTEM.DIHEDRAL>
0

>  <SCORE.SYSTEM.SOLV>
0

>  <SCORE.SYSTEM.norm>
0

>  <SCORE.heavy>
26

>  <SCORE.norm>
-0.642591

>  <RMSD>
1.536

$$$$
ligand
 OpenBabel11021811473D
libRbt.so/2013.1/901 2013/11/27
 26 28  0  0  0  0  0  0  0  0999 V2000
  -14.2929    7.6786  -16.3863 N   0  0  0  0  0  0  0  0  0  0  0  0
  -14.2076    9.0433  -15.8518 C   0  0  2  0  0  0  0  0  0  0  0  0
  -15.2542    9.2298  -14.7849 C   0  0  0  0  0  0  0  0  0  0  0  0
  -15.1014   10.0675  -13.9271 O   0  0  0  0  0  0  0  0  0  0  0  0
  -14.4441   10.0479  -16.9808 C   0  0  0  0  0  0  0  0  0  0  0  0
  -13.3485    9.8984  -18.0347 C   0  0  0  0  0  0  0  0  0  0  0  0
  -13.2579   10.9748  -19.3451 S   0  0  0  0  0  0  0  0  0  0  0  0
  -12.3104   11.1482  -20.8792 C   0  0  0  0  0  0  0  0  0  0  0  0
  -12.8169   12.2431  -21.8259 C   0  0  1  0  0  0  0  0  0  0  0  0
  -12.5868   13.5450  -21.3190 O   0  0  0  0  0  0  0  0  0  0  0  0
  -12.0684   12.2506  -23.1379 C   0  0  1  0  0  0  0  0  0  0  0  0
  -12.9461   12.8688  -24.0533 O   0  0  0  0  0  0  0  0  0  0  0  0
  -10.8923   13.1731  -22.9174 C   0  0  1  0  0  0  0  0  0  0  0  0
  -10.6912   13.9696  -24.0645 O   0  0  0  0  0  0  0  0  0  0  0  0
  -11.3426   14.0484  -21.7678 C   0  0  2  0  0  0  0  0  0  0  0  0
  -16.3573    8.4636  -14.7839 O   0  0  0  0  0  0  0  0  0  0  0  0
   -7.1103   16.2292  -19.6357 N   0  0  0  0  0  0  0  0  0  0  0  0
   -7.6677   16.4853  -20.8661 C   0  0  0  0  0  0  0  0  0  0  0  0
   -8.7871   15.7925  -21.2599 N   0  0  0  0  0  0  0  0  0  0  0  0
   -9.3435   14.8682  -20.4530 C   0  0  0  0  0  0  0  0  0  0  0  0
   -8.7999   14.5958  -19.2117 C   0  0  0  0  0  0  0  0  0  0  0  0
   -7.6656   15.2886  -18.8051 C   0  0  0  0  0  0  0  0  0  0  0  0
   -7.1086   15.0557  -17.6231 N   0  0  0  0  0  0  0  0  0  0  0  0
   -9.5495   13.6377  -18.6222 N   0  0  0  0  0  0  0  0  0  0  0  0
  -10.5505   13.3104  -19.4626 C   0  0  0  0  0  0  0  0  0  0  0  0
  -10.4323   14.0555  -20.6080 N   0  0  0  0  0  0  0  0  0  0  0  0
  2  1  1  6  0  0  0
  2  3  1  0  0  0  0
  2  5  1  0  0  0  0
  3  4  1  0  0  0  0
  3 16  1  0  0  0  0
  5  6  1  0  0  0  0
  6  7  1  0  0  0  0
  7  8  1  0  0  0  0
  9  8  1  1  0  0  0
  9 10  1  0  0  0  0
  9 11  1  0  0  0  0
 10 15  1  0  0  0  0
 11 12  1  6  0  0  0
 11 13  1  0  0  0  0
 13 14  1  6  0  0  0
 13 15  1  0  0  0  0
 15 26  1  1  0  0  0
 17 18  2  0  0  0  0
 17 22  1  0  0  0  0
 18 19  1  0  0  0  0
 19 20  2  0  0  0  0
 20 21  1  0  0  0  0
 20 26  1  0  0  0  0
 21 22  2  0  0  0  0
 21 24  1  0  0  0  0
 22 23  1  0  0  0  0
 24 25  2  0  0  0  0
 25 26  1  0  0  0  0
M  END
>  <CHROM.1>
155.60403978,-62.41506624,-174.38401721,-172.86326152,170.68984046,69.79614737
-155.01021627,-11.67804446,12.47598819,-19.47828859,-2.43106592,-0.67589906
-1.37245824

>  <Name>
ligand

>  <RI>
0

>  <Rbt.Current_Directory>
/home/itssahil/PROJECTS/Mol_Feturizer/New_Systems/rnas/3E5E

>  <Rbt.Executable>
rbdock ($Id: //depot/dev/client3/rdock/2013.1/src/exe/rbdock.cxx#4 $)

>  <Rbt.Library>
libRbt.so (2013.1, Build901 2013/11/27)

>  <Rbt.Parameter_File>
/export/apps/rDock/src/rDock_2013.1_src/data/scripts/dock_solv.prm

>  <Rbt.Receptor>
prm/pocket_docking_5.prm

>  <SCORE>
-20.5751

>  <SCORE.INTER>
-16.9616

>  <SCORE.INTER.CONST>
1

>  <SCORE.INTER.POLAR>
0

>  <SCORE.INTER.ROT>
7

>  <SCORE.INTER.SOLV>
21.3563

>  <SCORE.INTER.VDW>
-26.6932

>  <SCORE.INTER.norm>
-0.652371

>  <SCORE.INTRA>
-3.61348

>  <SCORE.INTRA.DIHEDRAL>
-6.61077

>  <SCORE.INTRA.DIHEDRAL.0>
10.1225

>  <SCORE.INTRA.POLAR>
0

>  <SCORE.INTRA.POLAR.0>
0

>  <SCORE.INTRA.REPUL>
0

>  <SCORE.INTRA.REPUL.0>
0

>  <SCORE.INTRA.SOLV>
0.167015

>  <SCORE.INTRA.SOLV.lig_0>
-49.9393

>  <SCORE.INTRA.VDW>
-0.391607

>  <SCORE.INTRA.VDW.0>
-1.75437

>  <SCORE.INTRA.norm>
-0.13898

>  <SCORE.RESTR>
0

>  <SCORE.RESTR.CAVITY>
0

>  <SCORE.RESTR.norm>
0

>  <SCORE.SYSTEM>
0

>  <SCORE.SYSTEM.CONST>
0

>  <SCORE.SYSTEM.DIHEDRAL>
0

>  <SCORE.SYSTEM.SOLV>
0

>  <SCORE.SYSTEM.norm>
0

>  <SCORE.heavy>
26

>  <SCORE.norm>
-0.791351

>  <RMSD>
1.537

$$$$
ligand
 OpenBabel11021811473D
libRbt.so/2013.1/901 2013/11/27
 26 28  0  0  0  0  0  0  0  0999 V2000
  -16.1031    6.7704  -17.9271 N   0  0  0  0  0  0  0  0  0  0  0  0
  -14.7112    7.0901  -18.2676 C   0  0  2  0  0  0  0  0  0  0  0  0
  -13.8862    7.1399  -17.0086 C   0  0  0  0  0  0  0  0  0  0  0  0
  -14.1543    7.9372  -16.1406 O   0  0  0  0  0  0  0  0  0  0  0  0
  -14.6577    8.4490  -18.9677 C   0  0  0  0  0  0  0  0  0  0  0  0
  -13.2286    8.7299  -19.4284 C   0  0  0  0  0  0  0  0  0  0  0  0
  -12.8802   10.0920  -20.3809 S   0  0  0  0  0  0  0  0  0  0  0  0
  -12.6206   11.8687  -20.1418 C   0  0  0  0  0  0  0  0  0  0  0  0
  -12.9646   12.7369  -21.3582 C   0  0  1  0  0  0  0  0  0  0  0  0
  -12.5004   14.0675  -21.2213 O   0  0  0  0  0  0  0  0  0  0  0  0
  -12.2691   12.2601  -22.6114 C   0  0  1  0  0  0  0  0  0  0  0  0
  -13.0585   12.7493  -23.6734 O   0  0  0  0  0  0  0  0  0  0  0  0
  -10.9468   12.9910  -22.6327 C   0  0  1  0  0  0  0  0  0  0  0  0
  -10.6511   13.4005  -23.9501 O   0  0  0  0  0  0  0  0  0  0  0  0
  -11.2041   14.2086  -21.7715 C   0  0  2  0  0  0  0  0  0  0  0  0
  -12.8500    6.3002  -16.8500 O   0  0  0  0  0  0  0  0  0  0  0  0
   -6.8835   16.5926  -20.0797 N   0  0  0  0  0  0  0  0  0  0  0  0
   -7.4628   16.6701  -21.3240 C   0  0  0  0  0  0  0  0  0  0  0  0
   -8.6041   15.9510  -21.5857 N   0  0  0  0  0  0  0  0  0  0  0  0
   -9.1606   15.1740  -20.6361 C   0  0  0  0  0  0  0  0  0  0  0  0
   -8.5951   15.0824  -19.3782 C   0  0  0  0  0  0  0  0  0  0  0  0
   -7.4386   15.8032  -19.1042 C   0  0  0  0  0  0  0  0  0  0  0  0
   -6.8602   15.7412  -17.9112 N   0  0  0  0  0  0  0  0  0  0  0  0
   -9.3501   14.2432  -18.6346 N   0  0  0  0  0  0  0  0  0  0  0  0
  -10.3757   13.8141  -19.3957 C   0  0  0  0  0  0  0  0  0  0  0  0
  -10.2683   14.3723  -20.6439 N   0  0  0  0  0  0  0  0  0  0  0  0
  2  1  1  1  0  0  0
  2  3  1  0  0  0  0
  2  5  1  0  0  0  0
  3  4  1  0  0  0  0
  3 16  1  0  0  0  0
  5  6  1  0  0  0  0
  6  7  1  0  0  0  0
  7  8  1  0  0  0  0
  9  8  1  1  0  0  0
  9 10  1  0  0  0  0
  9 11  1  0  0  0  0
 10 15  1  0  0  0  0
 11 12  1  6  0  0  0
 11 13  1  0  0  0  0
 13 14  1  6  0  0  0
 13 15  1  0  0  0  0
 15 26  1  1  0  0  0
 17 18  2  0  0  0  0
 17 22  1  0  0  0  0
 18 19  1  0  0  0  0
 19 20  2  0  0  0  0
 20 21  1  0  0  0  0
 20 26  1  0  0  0  0
 21 22  2  0  0  0  0
 21 24  1  0  0  0  0
 22 23  1  0  0  0  0
 24 25  2  0  0  0  0
 25 26  1  0  0  0  0
M  END
>  <CHROM.1>
-60.68253328,-175.23698657,173.63844874,79.74379148,-152.99567566,-168.21381757
-143.78452776,-11.45086948,12.12549490,-20.06551109,2.45509245,0.75369048
2.12951335

>  <Name>
ligand

>  <RI>
0

>  <Rbt.Current_Directory>
/home/itssahil/PROJECTS/Mol_Feturizer/New_Systems/rnas/3E5E

>  <Rbt.Executable>
rbdock ($Id: //depot/dev/client3/rdock/2013.1/src/exe/rbdock.cxx#4 $)

>  <Rbt.Library>
libRbt.so (2013.1, Build901 2013/11/27)

>  <Rbt.Parameter_File>
/export/apps/rDock/src/rDock_2013.1_src/data/scripts/dock_solv.prm

>  <Rbt.Receptor>
prm/pocket_docking_3.prm

>  <SCORE>
-19.8049

>  <SCORE.INTER>
-17.123

>  <SCORE.INTER.CONST>
1

>  <SCORE.INTER.POLAR>
0

>  <SCORE.INTER.ROT>
7

>  <SCORE.INTER.SOLV>
17.1094

>  <SCORE.INTER.VDW>
-25.3851

>  <SCORE.INTER.norm>
-0.658576

>  <SCORE.INTRA>
-2.6819

>  <SCORE.INTRA.DIHEDRAL>
-4.98726

>  <SCORE.INTRA.DIHEDRAL.0>
10.1225

>  <SCORE.INTRA.POLAR>
0

>  <SCORE.INTRA.POLAR.0>
0

>  <SCORE.INTRA.REPUL>
0

>  <SCORE.INTRA.REPUL.0>
0

>  <SCORE.INTRA.SOLV>
-0.608223

>  <SCORE.INTRA.SOLV.lig_0>
-49.9393

>  <SCORE.INTRA.VDW>
0.115843

>  <SCORE.INTRA.VDW.0>
-1.75437

>  <SCORE.INTRA.norm>
-0.10315

>  <SCORE.RESTR>
0

>  <SCORE.RESTR.CAVITY>
0

>  <SCORE.RESTR.norm>
0

>  <SCORE.SYSTEM>
0

>  <SCORE.SYSTEM.CONST>
0

>  <SCORE.SYSTEM.DIHEDRAL>
0

>  <SCORE.SYSTEM.SOLV>
0

>  <SCORE.SYSTEM.norm>
0

>  <SCORE.heavy>
26

>  <SCORE.norm>
-0.761726

>  <RMSD>
1.539

$$$$
ligand
 OpenBabel11021811473D
libRbt.so/2013.1/901 2013/11/27
 26 28  0  0  0  0  0  0  0  0999 V2000
  -16.2140    7.7951  -17.5186 N   0  0  0  0  0  0  0  0  0  0  0  0
  -15.1466    7.9574  -18.5136 C   0  0  2  0  0  0  0  0  0  0  0  0
  -13.8735    8.3655  -17.8203 C   0  0  0  0  0  0  0  0  0  0  0  0
  -12.8291    7.8291  -18.1077 O   0  0  0  0  0  0  0  0  0  0  0  0
  -15.5489    9.0367  -19.5201 C   0  0  0  0  0  0  0  0  0  0  0  0
  -14.5333    9.0749  -20.6606 C   0  0  0  0  0  0  0  0  0  0  0  0
  -13.0458    9.8711  -20.4661 S   0  0  0  0  0  0  0  0  0  0  0  0
  -12.4376   11.5732  -20.3490 C   0  0  0  0  0  0  0  0  0  0  0  0
  -12.7159   12.4404  -21.5828 C   0  0  1  0  0  0  0  0  0  0  0  0
  -12.3021   13.7827  -21.4046 O   0  0  0  0  0  0  0  0  0  0  0  0
  -11.9161   11.9933  -22.7836 C   0  0  1  0  0  0  0  0  0  0  0  0
  -12.6388   12.4677  -23.8986 O   0  0  0  0  0  0  0  0  0  0  0  0
  -10.6177   12.7619  -22.7029 C   0  0  1  0  0  0  0  0  0  0  0  0
  -10.2375   13.1897  -23.9925 O   0  0  0  0  0  0  0  0  0  0  0  0
  -10.9734   13.9651  -21.8565 C   0  0  2  0  0  0  0  0  0  0  0  0
  -13.8975    9.3240  -16.8797 O   0  0  0  0  0  0  0  0  0  0  0  0
   -7.0523   16.6728  -19.7334 N   0  0  0  0  0  0  0  0  0  0  0  0
   -7.5637   16.7769  -21.0053 C   0  0  0  0  0  0  0  0  0  0  0  0
   -8.6002   15.9597  -21.3875 N   0  0  0  0  0  0  0  0  0  0  0  0
   -9.1201   15.0608  -20.5291 C   0  0  0  0  0  0  0  0  0  0  0  0
   -8.6216   14.9402  -19.2456 C   0  0  0  0  0  0  0  0  0  0  0  0
   -7.5710   15.7598  -18.8500 C   0  0  0  0  0  0  0  0  0  0  0  0
   -7.0594   15.6747  -17.6283 N   0  0  0  0  0  0  0  0  0  0  0  0
   -9.3196   13.9731  -18.6094 N   0  0  0  0  0  0  0  0  0  0  0  0
  -10.2449   13.4920  -19.4624 C   0  0  0  0  0  0  0  0  0  0  0  0
  -10.1287   14.1470  -20.6618 N   0  0  0  0  0  0  0  0  0  0  0  0
  2  1  1  1  0  0  0
  2  3  1  0  0  0  0
  2  5  1  0  0  0  0
  3  4  1  0  0  0  0
  3 16  1  0  0  0  0
  5  6  1  0  0  0  0
  6  7  1  0  0  0  0
  7  8  1  0  0  0  0
  9  8  1  1  0  0  0
  9 10  1  0  0  0  0
  9 11  1  0  0  0  0
 10 15  1  0  0  0  0
 11 12  1  6  0  0  0
 11 13  1  0  0  0  0
 13 14  1  6  0  0  0
 13 15  1  0  0  0  0
 15 26  1  1  0  0  0
 17 18  2  0  0  0  0
 17 22  1  0  0  0  0
 18 19  1  0  0  0  0
 19 20  2  0  0  0  0
 20 21  1  0  0  0  0
 20 26  1  0  0  0  0
 21 22  2  0  0  0  0
 21 24  1  0  0  0  0
 22 23  1  0  0  0  0
 24 25  2  0  0  0  0
 25 26  1  0  0  0  0
M  END
>  <CHROM.1>
134.65651446,-172.32757872,-79.72188084,-71.94354790,-60.86432135,175.99228236
-137.86851727,-11.47305323,12.25909312,-20.23496285,-2.76091549,-0.78324890
-1.26641666

>  <Name>
ligand

>  <RI>
0

>  <Rbt.Current_Directory>
/home/itssahil/PROJECTS/Mol_Feturizer/New_Systems/rnas/3E5E

>  <Rbt.Executable>
rbdock ($Id: //depot/dev/client3/rdock/2013.1/src/exe/rbdock.cxx#4 $)

>  <Rbt.Library>
libRbt.so (2013.1, Build901 2013/11/27)

>  <Rbt.Parameter_File>
/export/apps/rDock/src/rDock_2013.1_src/data/scripts/dock_solv.prm

>  <Rbt.Receptor>
prm/pocket_docking_2.prm

>  <SCORE>
-19.1071

>  <SCORE.INTER>
-15.3708

>  <SCORE.INTER.CONST>
1

>  <SCORE.INTER.POLAR>
0

>  <SCORE.INTER.ROT>
7

>  <SCORE.INTER.SOLV>
16.537

>  <SCORE.INTER.VDW>
-24.0262

>  <SCORE.INTER.norm>
-0.591183

>  <SCORE.INTRA>
-3.76985

>  <SCORE.INTRA.DIHEDRAL>
-5.4736

>  <SCORE.INTRA.DIHEDRAL.0>
10.1225

>  <SCORE.INTRA.POLAR>
0

>  <SCORE.INTRA.POLAR.0>
0

>  <SCORE.INTRA.REPUL>
0

>  <SCORE.INTRA.REPUL.0>
0

>  <SCORE.INTRA.SOLV>
-0.43967

>  <SCORE.INTRA.SOLV.lig_0>
-49.9393

>  <SCORE.INTRA.VDW>
-0.813218

>  <SCORE.INTRA.VDW.0>
-1.75437

>  <SCORE.INTRA.norm>
-0.144994

>  <SCORE.RESTR>
0.0334856

>  <SCORE.RESTR.CAVITY>
0.0334856

>  <SCORE.RESTR.norm>
0.00128791

>  <SCORE.SYSTEM>
0

>  <SCORE.SYSTEM.CONST>
0

>  <SCORE.SYSTEM.DIHEDRAL>
0

>  <SCORE.SYSTEM.SOLV>
0

>  <SCORE.SYSTEM.norm>
0

>  <SCORE.heavy>
26

>  <SCORE.norm>
-0.734889

>  <RMSD>
1.560

$$$$
ligand
 OpenBabel11021811473D
libRbt.so/2013.1/901 2013/11/27
 26 28  0  0  0  0  0  0  0  0999 V2000
  -15.5784    8.3316  -17.0384 N   0  0  0  0  0  0  0  0  0  0  0  0
  -14.4447    8.8919  -16.2925 C   0  0  2  0  0  0  0  0  0  0  0  0
  -14.8887    9.2453  -14.8974 C   0  0  0  0  0  0  0  0  0  0  0  0
  -16.0660    9.2676  -14.6244 O   0  0  0  0  0  0  0  0  0  0  0  0
  -13.9403   10.1496  -17.0021 C   0  0  0  0  0  0  0  0  0  0  0  0
  -13.3361    9.7663  -18.3518 C   0  0  0  0  0  0  0  0  0  0  0  0
  -12.5853   10.9375  -19.3259 S   0  0  0  0  0  0  0  0  0  0  0  0
  -11.7540   11.0167  -20.9333 C   0  0  0  0  0  0  0  0  0  0  0  0
  -12.3601   12.0220  -21.9202 C   0  0  1  0  0  0  0  0  0  0  0  0
  -12.3246   13.3497  -21.4295 O   0  0  0  0  0  0  0  0  0  0  0  0
  -11.5649   12.1103  -23.2013 C   0  0  1  0  0  0  0  0  0  0  0  0
  -12.4772   12.5945  -24.1624 O   0  0  0  0  0  0  0  0  0  0  0  0
  -10.5305   13.1832  -22.9520 C   0  0  1  0  0  0  0  0  0  0  0  0
  -10.3882   13.9835  -24.1052 O   0  0  0  0  0  0  0  0  0  0  0  0
  -11.1397   14.0069  -21.8381 C   0  0  2  0  0  0  0  0  0  0  0  0
  -13.9771    9.5386  -13.9557 O   0  0  0  0  0  0  0  0  0  0  0  0
   -7.0855   16.5178  -19.7233 N   0  0  0  0  0  0  0  0  0  0  0  0
   -7.5899   16.6425  -20.9961 C   0  0  0  0  0  0  0  0  0  0  0  0
   -8.6669   15.8783  -21.3757 N   0  0  0  0  0  0  0  0  0  0  0  0
   -9.2332   15.0112  -20.5139 C   0  0  0  0  0  0  0  0  0  0  0  0
   -8.7425   14.8708  -19.2294 C   0  0  0  0  0  0  0  0  0  0  0  0
   -7.6512   15.6368  -18.8364 C   0  0  0  0  0  0  0  0  0  0  0  0
   -7.1455   15.5307  -17.6139 N   0  0  0  0  0  0  0  0  0  0  0  0
   -9.4900   13.9438  -18.5896 N   0  0  0  0  0  0  0  0  0  0  0  0
  -10.4383   13.5074  -19.4413 C   0  0  0  0  0  0  0  0  0  0  0  0
  -10.2876   14.1502  -20.6435 N   0  0  0  0  0  0  0  0  0  0  0  0
  2  1  1  6  0  0  0
  2  3  1  0  0  0  0
  2  5  1  0  0  0  0
  3  4  1  0  0  0  0
  3 16  1  0  0  0  0
  5  6  1  0  0  0  0
  6  7  1  0  0  0  0
  7  8  1  0  0  0  0
  9  8  1  1  0  0  0
  9 10  1  0  0  0  0
  9 11  1  0  0  0  0
 10 15  1  0  0  0  0
 11 12  1  6  0  0  0
 11 13  1  0  0  0  0
 13 14  1  6  0  0  0
 13 15  1  0  0  0  0
 15 26  1  1  0  0  0
 17 18  2  0  0  0  0
 17 22  1  0  0  0  0
 18 19  1  0  0  0  0
 19 20  2  0  0  0  0
 20 21  1  0  0  0  0
 20 26  1  0  0  0  0
 21 22  2  0  0  0  0
 21 24  1  0  0  0  0
 22 23  1  0  0  0  0
 24 25  2  0  0  0  0
 25 26  1  0  0  0  0
M  END
>  <CHROM.1>
-12.58705378,-66.78120460,-175.45731110,-179.80097568,123.48820884,60.39335621
-162.12143630,-11.44413023,12.54754672,-19.56351121,2.50038197,0.73578642
1.68146804

>  <Name>
ligand

>  <RI>
0

>  <Rbt.Current_Directory>
/home/itssahil/PROJECTS/Mol_Feturizer/New_Systems/rnas/3E5E

>  <Rbt.Executable>
rbdock ($Id: //depot/dev/client3/rdock/2013.1/src/exe/rbdock.cxx#4 $)

>  <Rbt.Library>
libRbt.so (2013.1, Build901 2013/11/27)

>  <Rbt.Parameter_File>
/export/apps/rDock/src/rDock_2013.1_src/data/scripts/dock_solv.prm

>  <Rbt.Receptor>
prm/pocket_docking_4.prm

>  <SCORE>
-21.2405

>  <SCORE.INTER>
-18.535

>  <SCORE.INTER.CONST>
1

>  <SCORE.INTER.POLAR>
0

>  <SCORE.INTER.ROT>
7

>  <SCORE.INTER.SOLV>
18.3867

>  <SCORE.INTER.VDW>
-26.7522

>  <SCORE.INTER.norm>
-0.712884

>  <SCORE.INTRA>
-2.70725

>  <SCORE.INTRA.DIHEDRAL>
-4.70988

>  <SCORE.INTRA.DIHEDRAL.0>
10.1225

>  <SCORE.INTRA.POLAR>
0

>  <SCORE.INTRA.POLAR.0>
0

>  <SCORE.INTRA.REPUL>
0

>  <SCORE.INTRA.REPUL.0>
0

>  <SCORE.INTRA.SOLV>
0.120032

>  <SCORE.INTRA.SOLV.lig_0>
-49.9393

>  <SCORE.INTRA.VDW>
-0.412329

>  <SCORE.INTRA.VDW.0>
-1.75437

>  <SCORE.INTRA.norm>
-0.104125

>  <SCORE.RESTR>
0.00171891

>  <SCORE.RESTR.CAVITY>
0.00171891

>  <SCORE.RESTR.norm>
6.61119e-05

>  <SCORE.SYSTEM>
0

>  <SCORE.SYSTEM.CONST>
0

>  <SCORE.SYSTEM.DIHEDRAL>
0

>  <SCORE.SYSTEM.SOLV>
0

>  <SCORE.SYSTEM.norm>
0

>  <SCORE.heavy>
26

>  <SCORE.norm>
-0.816944

>  <RMSD>
1.561

$$$$
ligand
 OpenBabel11021811473D
libRbt.so/2013.1/901 2013/11/27
 26 28  0  0  0  0  0  0  0  0999 V2000
  -14.0890    7.4000  -16.6996 N   0  0  0  0  0  0  0  0  0  0  0  0
  -14.0208    8.8315  -16.3808 C   0  0  2  0  0  0  0  0  0  0  0  0
  -14.4900    9.0526  -14.9669 C   0  0  0  0  0  0  0  0  0  0  0  0
  -15.0540    8.1652  -14.3707 O   0  0  0  0  0  0  0  0  0  0  0  0
  -14.9172    9.6108  -17.3445 C   0  0  0  0  0  0  0  0  0  0  0  0
  -14.3287    9.5478  -18.7528 C   0  0  0  0  0  0  0  0  0  0  0  0
  -12.8817   10.3567  -19.1214 S   0  0  0  0  0  0  0  0  0  0  0  0
  -11.9454   10.8310  -20.5976 C   0  0  0  0  0  0  0  0  0  0  0  0
  -12.6415   11.8611  -21.4955 C   0  0  1  0  0  0  0  0  0  0  0  0
  -12.5442   13.1777  -20.9837 O   0  0  0  0  0  0  0  0  0  0  0  0
  -11.9821   11.9720  -22.8499 C   0  0  1  0  0  0  0  0  0  0  0  0
  -12.9845   12.4825  -23.7013 O   0  0  0  0  0  0  0  0  0  0  0  0
  -10.9184   13.0326  -22.6866 C   0  0  1  0  0  0  0  0  0  0  0  0
  -10.8890   13.8566  -23.8315 O   0  0  0  0  0  0  0  0  0  0  0  0
  -11.4023   13.8361  -21.4989 C   0  0  2  0  0  0  0  0  0  0  0  0
  -14.2849   10.2370  -14.3678 O   0  0  0  0  0  0  0  0  0  0  0  0
   -7.1542   16.3039  -19.7447 N   0  0  0  0  0  0  0  0  0  0  0  0
   -7.7892   16.4637  -20.9535 C   0  0  0  0  0  0  0  0  0  0  0  0
   -8.8985   15.7056  -21.2413 N   0  0  0  0  0  0  0  0  0  0  0  0
   -9.3698   14.8104  -20.3515 C   0  0  0  0  0  0  0  0  0  0  0  0
   -8.7472   14.6345  -19.1300 C   0  0  0  0  0  0  0  0  0  0  0  0
   -7.6223   15.3940  -18.8304 C   0  0  0  0  0  0  0  0  0  0  0  0
   -6.9913   15.2543  -17.6711 N   0  0  0  0  0  0  0  0  0  0  0  0
   -9.4218   13.6851  -18.4438 N   0  0  0  0  0  0  0  0  0  0  0  0
  -10.4531   13.2692  -19.2046 C   0  0  0  0  0  0  0  0  0  0  0  0
  -10.4302   13.9482  -20.3960 N   0  0  0  0  0  0  0  0  0  0  0  0
  2  1  1  6  0  0  0
  2  3  1  0  0  0  0
  2  5  1  0  0  0  0
  3  4  1  0  0  0  0
  3 16  1  0  0  0  0
  5  6  1  0  0  0  0
  6  7  1  0  0  0  0
  7  8  1  0  0  0  0
  9  8  1  1  0  0  0
  9 10  1  0  0  0  0
  9 11  1  0  0  0  0
 10 15  1  0  0  0  0
 11 12  1  6  0  0  0
 11 13  1  0  0  0  0
 13 14  1  6  0  0  0
 13 15  1  0  0  0  0
 15 26  1  1  0  0  0
 17 18  2  0  0  0  0
 17 22  1  0  0  0  0
 18 19  1  0  0  0  0
 19 20  2  0  0  0  0
 20 21  1  0  0  0  0
 20 26  1  0  0  0  0
 21 22  2  0  0  0  0
 21 24  1  0  0  0  0
 22 23  1  0  0  0  0
 24 25  2  0  0  0  0
 25 26  1  0  0  0  0
M  END
>  <CHROM.1>
-12.53841935,-67.94581358,-69.07808778,-166.94550381,65.73488706,77.94270155
-161.31173746,-11.55494105,12.28637574,-19.42819151,-2.46688304,-0.73509764
-1.34834765

>  <Name>
ligand

>  <RI>
0

>  <Rbt.Current_Directory>
/home/itssahil/PROJECTS/Mol_Feturizer/New_Systems/rnas/3E5E

>  <Rbt.Executable>
rbdock ($Id: //depot/dev/client3/rdock/2013.1/src/exe/rbdock.cxx#4 $)

>  <Rbt.Library>
libRbt.so (2013.1, Build901 2013/11/27)

>  <Rbt.Parameter_File>
/export/apps/rDock/src/rDock_2013.1_src/data/scripts/dock_solv.prm

>  <Rbt.Receptor>
prm/pocket_docking_5.prm

>  <SCORE>
-21.0948

>  <SCORE.INTER>
-18.1262

>  <SCORE.INTER.CONST>
1

>  <SCORE.INTER.POLAR>
0

>  <SCORE.INTER.ROT>
7

>  <SCORE.INTER.SOLV>
19.8348

>  <SCORE.INTER.VDW>
-26.9624

>  <SCORE.INTER.norm>
-0.697163

>  <SCORE.INTRA>
-2.9686

>  <SCORE.INTRA.DIHEDRAL>
-5.3847

>  <SCORE.INTRA.DIHEDRAL.0>
10.1225

>  <SCORE.INTRA.POLAR>
0

>  <SCORE.INTRA.POLAR.0>
0

>  <SCORE.INTRA.REPUL>
0

>  <SCORE.INTRA.REPUL.0>
0

>  <SCORE.INTRA.SOLV>
0.540607

>  <SCORE.INTRA.SOLV.lig_0>
-49.9393

>  <SCORE.INTRA.VDW>
-0.546555

>  <SCORE.INTRA.VDW.0>
-1.75437

>  <SCORE.INTRA.norm>
-0.114177

>  <SCORE.RESTR>
0

>  <SCORE.RESTR.CAVITY>
0

>  <SCORE.RESTR.norm>
0

>  <SCORE.SYSTEM>
0

>  <SCORE.SYSTEM.CONST>
0

>  <SCORE.SYSTEM.DIHEDRAL>
0

>  <SCORE.SYSTEM.SOLV>
0

>  <SCORE.SYSTEM.norm>
0

>  <SCORE.heavy>
26

>  <SCORE.norm>
-0.81134

>  <RMSD>
1.566

$$$$
ligand
 OpenBabel11021811473D
libRbt.so/2013.1/901 2013/11/27
 26 28  0  0  0  0  0  0  0  0999 V2000
  -14.7235    8.3510  -19.7918 N   0  0  0  0  0  0  0  0  0  0  0  0
  -13.5753    8.2593  -18.8815 C   0  0  2  0  0  0  0  0  0  0  0  0
  -13.8973    7.3027  -17.7638 C   0  0  0  0  0  0  0  0  0  0  0  0
  -13.0129    6.8750  -17.0596 O   0  0  0  0  0  0  0  0  0  0  0  0
  -13.2750    9.6419  -18.3001 C   0  0  0  0  0  0  0  0  0  0  0  0
  -12.7577   10.5594  -19.4065 C   0  0  0  0  0  0  0  0  0  0  0  0
  -11.4277   10.1006  -20.3577 S   0  0  0  0  0  0  0  0  0  0  0  0
  -10.3727   10.8325  -21.6353 C   0  0  0  0  0  0  0  0  0  0  0  0
  -11.1124   11.7073  -22.6548 C   0  0  1  0  0  0  0  0  0  0  0  0
  -11.6175   12.8983  -22.0793 O   0  0  0  0  0  0  0  0  0  0  0  0
  -10.1931   12.2158  -23.7400 C   0  0  1  0  0  0  0  0  0  0  0  0
  -11.0413   12.4999  -24.8310 O   0  0  0  0  0  0  0  0  0  0  0  0
   -9.6471   13.5235  -23.2156 C   0  0  1  0  0  0  0  0  0  0  0  0
   -9.5970   14.4707  -24.2601 O   0  0  0  0  0  0  0  0  0  0  0  0
  -10.6796   13.9517  -22.1952 C   0  0  2  0  0  0  0  0  0  0  0  0
  -15.1673    6.9215  -17.5498 O   0  0  0  0  0  0  0  0  0  0  0  0
   -7.2026   16.6433  -19.3881 N   0  0  0  0  0  0  0  0  0  0  0  0
   -7.3779   16.6484  -20.7517 C   0  0  0  0  0  0  0  0  0  0  0  0
   -8.3485   15.8538  -21.3126 N   0  0  0  0  0  0  0  0  0  0  0  0
   -9.1294   15.0729  -20.5408 C   0  0  0  0  0  0  0  0  0  0  0  0
   -8.9707   15.0534  -19.1679 C   0  0  0  0  0  0  0  0  0  0  0  0
   -7.9895   15.8509  -18.5907 C   0  0  0  0  0  0  0  0  0  0  0  0
   -7.8003   15.8597  -17.2770 N   0  0  0  0  0  0  0  0  0  0  0  0
   -9.8746   14.1923  -18.6495 N   0  0  0  0  0  0  0  0  0  0  0  0
  -10.5969   13.6792  -19.6644 C   0  0  0  0  0  0  0  0  0  0  0  0
  -10.1414   14.2055  -20.8462 N   0  0  0  0  0  0  0  0  0  0  0  0
  2  1  1  6  0  0  0
  2  3  1  0  0  0  0
  2  5  1  0  0  0  0
  3  4  1  0  0  0  0
  3 16  1  0  0  0  0
  5  6  1  0  0  0  0
  6  7  1  0  0  0  0
  7  8  1  0  0  0  0
  9  8  1  1  0  0  0
  9 10  1  0  0  0  0
  9 11  1  0  0  0  0
 10 15  1  0  0  0  0
 11 12  1  6  0  0  0
 11 13  1  0  0  0  0
 13 14  1  6  0  0  0
 13 15  1  0  0  0  0
 15 26  1  1  0  0  0
 17 18  2  0  0  0  0
 17 22  1  0  0  0  0
 18 19  1  0  0  0  0
 19 20  2  0  0  0  0
 20 21  1  0  0  0  0
 20 26  1  0  0  0  0
 21 22  2  0  0  0  0
 21 24  1  0  0  0  0
 22 23  1  0  0  0  0
 24 25  2  0  0  0  0
 25 26  1  0  0  0  0
M  END
>  <CHROM.1>
165.14177930,-68.00530181,-54.32893919,-173.41804489,-39.46641763,68.01046835
174.40791531,-10.85033637,12.23078192,-20.40831446,2.81252323,0.94991498
1.65978775

>  <Name>
ligand

>  <RI>
0

>  <Rbt.Current_Directory>
/home/itssahil/PROJECTS/Mol_Feturizer/New_Systems/rnas/3E5E

>  <Rbt.Executable>
rbdock ($Id: //depot/dev/client3/rdock/2013.1/src/exe/rbdock.cxx#4 $)

>  <Rbt.Library>
libRbt.so (2013.1, Build901 2013/11/27)

>  <Rbt.Parameter_File>
/export/apps/rDock/src/rDock_2013.1_src/data/scripts/dock_solv.prm

>  <Rbt.Receptor>
prm/pocket_docking_6.prm

>  <SCORE>
-19.9323

>  <SCORE.INTER>
-16.3793

>  <SCORE.INTER.CONST>
1

>  <SCORE.INTER.POLAR>
0

>  <SCORE.INTER.ROT>
7

>  <SCORE.INTER.SOLV>
18.3835

>  <SCORE.INTER.VDW>
-25.314

>  <SCORE.INTER.norm>
-0.629974

>  <SCORE.INTRA>
-3.5748

>  <SCORE.INTRA.DIHEDRAL>
-6.16295

>  <SCORE.INTRA.DIHEDRAL.0>
10.1225

>  <SCORE.INTRA.POLAR>
0

>  <SCORE.INTRA.POLAR.0>
0

>  <SCORE.INTRA.REPUL>
0

>  <SCORE.INTRA.REPUL.0>
0

>  <SCORE.INTRA.SOLV>
0.89568

>  <SCORE.INTRA.SOLV.lig_0>
-49.9393

>  <SCORE.INTRA.VDW>
-0.941169

>  <SCORE.INTRA.VDW.0>
-1.75437

>  <SCORE.INTRA.norm>
-0.137492

>  <SCORE.RESTR>
0.0218282

>  <SCORE.RESTR.CAVITY>
0.0218282

>  <SCORE.RESTR.norm>
0.000839544

>  <SCORE.SYSTEM>
0

>  <SCORE.SYSTEM.CONST>
0

>  <SCORE.SYSTEM.DIHEDRAL>
0

>  <SCORE.SYSTEM.SOLV>
0

>  <SCORE.SYSTEM.norm>
0

>  <SCORE.heavy>
26

>  <SCORE.norm>
-0.766627

>  <RMSD>
1.599

$$$$
ligand
 OpenBabel11021811473D
libRbt.so/2013.1/901 2013/11/27
 26 28  0  0  0  0  0  0  0  0999 V2000
  -14.2521    8.3747  -15.9585 N   0  0  0  0  0  0  0  0  0  0  0  0
  -14.3106    8.1914  -17.4140 C   0  0  2  0  0  0  0  0  0  0  0  0
  -13.5213    6.9671  -17.7968 C   0  0  0  0  0  0  0  0  0  0  0  0
  -12.8200    6.4191  -16.9789 O   0  0  0  0  0  0  0  0  0  0  0  0
  -13.7165    9.4194  -18.1059 C   0  0  0  0  0  0  0  0  0  0  0  0
  -14.1456    9.4366  -19.5719 C   0  0  0  0  0  0  0  0  0  0  0  0
  -13.5228   10.6004  -20.6405 S   0  0  0  0  0  0  0  0  0  0  0  0
  -12.9993   12.3335  -20.5840 C   0  0  0  0  0  0  0  0  0  0  0  0
  -12.8852   13.0143  -21.9534 C   0  0  1  0  0  0  0  0  0  0  0  0
  -12.1980   14.2505  -21.8869 O   0  0  0  0  0  0  0  0  0  0  0  0
  -12.0481   12.2101  -22.9197 C   0  0  1  0  0  0  0  0  0  0  0  0
  -12.4706   12.6262  -24.1999 O   0  0  0  0  0  0  0  0  0  0  0  0
  -10.6312   12.6921  -22.7121 C   0  0  1  0  0  0  0  0  0  0  0  0
   -9.9792   12.8026  -23.9585 O   0  0  0  0  0  0  0  0  0  0  0  0
  -10.8127   14.0703  -22.1137 C   0  0  2  0  0  0  0  0  0  0  0  0
  -13.5937    6.4844  -19.0480 O   0  0  0  0  0  0  0  0  0  0  0  0
   -7.0915   16.7113  -19.5856 N   0  0  0  0  0  0  0  0  0  0  0  0
   -7.4198   16.7753  -20.9191 C   0  0  0  0  0  0  0  0  0  0  0  0
   -8.4326   15.9846  -21.4060 N   0  0  0  0  0  0  0  0  0  0  0  0
   -9.1066   15.1503  -20.5906 C   0  0  0  0  0  0  0  0  0  0  0  0
   -8.7935   15.0710  -19.2467 C   0  0  0  0  0  0  0  0  0  0  0  0
   -7.7684   15.8642  -18.7447 C   0  0  0  0  0  0  0  0  0  0  0  0
   -7.4321   15.8166  -17.4616 N   0  0  0  0  0  0  0  0  0  0  0  0
   -9.6168   14.1653  -18.6729 N   0  0  0  0  0  0  0  0  0  0  0  0
  -10.4396   13.6828  -19.6244 C   0  0  0  0  0  0  0  0  0  0  0  0
  -10.1304   14.2740  -20.8226 N   0  0  0  0  0  0  0  0  0  0  0  0
  2  1  1  1  0  0  0
  2  3  1  0  0  0  0
  2  5  1  0  0  0  0
  3  4  1  0  0  0  0
  3 16  1  0  0  0  0
  5  6  1  0  0  0  0
  6  7  1  0  0  0  0
  7  8  1  0  0  0  0
  9  8  1  1  0  0  0
  9 10  1  0  0  0  0
  9 11  1  0  0  0  0
 10 15  1  0  0  0  0
 11 12  1  6  0  0  0
 11 13  1  0  0  0  0
 13 14  1  6  0  0  0
 13 15  1  0  0  0  0
 15 26  1  1  0  0  0
 17 18  2  0  0  0  0
 17 22  1  0  0  0  0
 18 19  1  0  0  0  0
 19 20  2  0  0  0  0
 20 21  1  0  0  0  0
 20 26  1  0  0  0  0
 21 22  2  0  0  0  0
 21 24  1  0  0  0  0
 22 23  1  0  0  0  0
 24 25  2  0  0  0  0
 25 26  1  0  0  0  0
M  END
>  <CHROM.1>
-10.07343220,-163.00662979,-174.14627771,-34.13697013,-163.21164510,-166.82049480
-125.61069043,-11.34100295,12.25633450,-20.16946096,-2.53452206,-0.84252346
-1.12151884

>  <Name>
ligand

>  <RI>
0

>  <Rbt.Current_Directory>
/home/itssahil/PROJECTS/Mol_Feturizer/New_Systems/rnas/3E5E

>  <Rbt.Executable>
rbdock ($Id: //depot/dev/client3/rdock/2013.1/src/exe/rbdock.cxx#4 $)

>  <Rbt.Library>
libRbt.so (2013.1, Build901 2013/11/27)

>  <Rbt.Parameter_File>
/export/apps/rDock/src/rDock_2013.1_src/data/scripts/dock_solv.prm

>  <Rbt.Receptor>
prm/pocket_docking_3.prm

>  <SCORE>
-20.1391

>  <SCORE.INTER>
-17.7346

>  <SCORE.INTER.CONST>
1

>  <SCORE.INTER.POLAR>
0

>  <SCORE.INTER.ROT>
7

>  <SCORE.INTER.SOLV>
20.5852

>  <SCORE.INTER.VDW>
-26.9515

>  <SCORE.INTER.norm>
-0.682101

>  <SCORE.INTRA>
-2.40771

>  <SCORE.INTRA.DIHEDRAL>
-4.18804

>  <SCORE.INTRA.DIHEDRAL.0>
10.1225

>  <SCORE.INTRA.POLAR>
0

>  <SCORE.INTRA.POLAR.0>
0

>  <SCORE.INTRA.REPUL>
0

>  <SCORE.INTRA.REPUL.0>
0

>  <SCORE.INTRA.SOLV>
-0.578724

>  <SCORE.INTRA.SOLV.lig_0>
-49.9393

>  <SCORE.INTRA.VDW>
-0.0243263

>  <SCORE.INTRA.VDW.0>
-1.75437

>  <SCORE.INTRA.norm>
-0.0926041

>  <SCORE.RESTR>
0.00321707

>  <SCORE.RESTR.CAVITY>
0.00321707

>  <SCORE.RESTR.norm>
0.000123733

>  <SCORE.SYSTEM>
0

>  <SCORE.SYSTEM.CONST>
0

>  <SCORE.SYSTEM.DIHEDRAL>
0

>  <SCORE.SYSTEM.SOLV>
0

>  <SCORE.SYSTEM.norm>
0

>  <SCORE.heavy>
26

>  <SCORE.norm>
-0.774581

>  <RMSD>
1.606

$$$$
ligand
 OpenBabel11021811473D
libRbt.so/2013.1/901 2013/11/27
 26 28  0  0  0  0  0  0  0  0999 V2000
  -17.4164    8.3575  -16.2664 N   0  0  0  0  0  0  0  0  0  0  0  0
  -16.3271    8.7961  -17.1477 C   0  0  2  0  0  0  0  0  0  0  0  0
  -16.4115    8.0543  -18.4556 C   0  0  0  0  0  0  0  0  0  0  0  0
  -16.0236    8.5772  -19.4741 O   0  0  0  0  0  0  0  0  0  0  0  0
  -14.9826    8.5029  -16.4797 C   0  0  0  0  0  0  0  0  0  0  0  0
  -13.9672    9.5691  -16.8867 C   0  0  0  0  0  0  0  0  0  0  0  0
  -13.6423    9.8715  -18.5260 S   0  0  0  0  0  0  0  0  0  0  0  0
  -12.2159   10.3006  -19.5566 C   0  0  0  0  0  0  0  0  0  0  0  0
  -12.5691   10.8838  -20.9303 C   0  0  1  0  0  0  0  0  0  0  0  0
  -12.3571   12.2823  -20.9945 O   0  0  0  0  0  0  0  0  0  0  0  0
  -11.6702   10.3520  -22.0214 C   0  0  1  0  0  0  0  0  0  0  0  0
  -12.4114   10.5090  -23.2115 O   0  0  0  0  0  0  0  0  0  0  0  0
  -10.4981   11.3044  -22.0680 C   0  0  1  0  0  0  0  0  0  0  0  0
  -10.1354   11.5466  -23.4098 O   0  0  0  0  0  0  0  0  0  0  0  0
  -11.0521   12.5739  -21.4580 C   0  0  2  0  0  0  0  0  0  0  0  0
  -16.9203    6.8118  -18.4924 O   0  0  0  0  0  0  0  0  0  0  0  0
   -7.8777   16.3405  -19.7406 N   0  0  0  0  0  0  0  0  0  0  0  0
   -8.3830   16.1696  -21.0077 C   0  0  0  0  0  0  0  0  0  0  0  0
   -9.2013   15.0978  -21.2717 N   0  0  0  0  0  0  0  0  0  0  0  0
   -9.5140   14.2158  -20.3024 C   0  0  0  0  0  0  0  0  0  0  0  0
   -9.0177   14.3693  -19.0215 C   0  0  0  0  0  0  0  0  0  0  0  0
   -8.1863   15.4483  -18.7448 C   0  0  0  0  0  0  0  0  0  0  0  0
   -7.6845   15.6314  -17.5298 N   0  0  0  0  0  0  0  0  0  0  0  0
   -9.4854   13.3538  -18.2618 N   0  0  0  0  0  0  0  0  0  0  0  0
  -10.2659   12.5745  -19.0356 C   0  0  0  0  0  0  0  0  0  0  0  0
  -10.2864   13.0874  -20.3074 N   0  0  0  0  0  0  0  0  0  0  0  0
  2  1  1  1  0  0  0
  2  3  1  0  0  0  0
  2  5  1  0  0  0  0
  3  4  1  0  0  0  0
  3 16  1  0  0  0  0
  5  6  1  0  0  0  0
  6  7  1  0  0  0  0
  7  8  1  0  0  0  0
  9  8  1  1  0  0  0
  9 10  1  0  0  0  0
  9 11  1  0  0  0  0
 10 15  1  0  0  0  0
 11 12  1  6  0  0  0
 11 13  1  0  0  0  0
 13 14  1  6  0  0  0
 13 15  1  0  0  0  0
 15 26  1  1  0  0  0
 17 18  2  0  0  0  0
 17 22  1  0  0  0  0
 18 19  1  0  0  0  0
 19 20  2  0  0  0  0
 20 21  1  0  0  0  0
 20 26  1  0  0  0  0
 21 22  2  0  0  0  0
 21 24  1  0  0  0  0
 22 23  1  0  0  0  0
 24 25  2  0  0  0  0
 25 26  1  0  0  0  0
M  END
>  <CHROM.1>
149.93476308,-147.59634216,-55.69217439,-143.33932466,-161.61482040,105.04851829
-131.83029346,-12.03919635,11.53489744,-19.61635434,-3.07908064,-0.75806199
-1.80791133

>  <Name>
ligand

>  <RI>
0

>  <Rbt.Current_Directory>
/home/itssahil/PROJECTS/Mol_Feturizer/New_Systems/rnas/3E5E

>  <Rbt.Executable>
rbdock ($Id: //depot/dev/client3/rdock/2013.1/src/exe/rbdock.cxx#4 $)

>  <Rbt.Library>
libRbt.so (2013.1, Build901 2013/11/27)

>  <Rbt.Parameter_File>
/export/apps/rDock/src/rDock_2013.1_src/data/scripts/dock_solv.prm

>  <Rbt.Receptor>
prm/pocket_docking_2.prm

>  <SCORE>
-13.0677

>  <SCORE.INTER>
-13.6491

>  <SCORE.INTER.CONST>
1

>  <SCORE.INTER.POLAR>
0

>  <SCORE.INTER.ROT>
7

>  <SCORE.INTER.SOLV>
15.2898

>  <SCORE.INTER.VDW>
-22.4626

>  <SCORE.INTER.norm>
-0.524964

>  <SCORE.INTRA>
0.580628

>  <SCORE.INTRA.DIHEDRAL>
2.59794

>  <SCORE.INTRA.DIHEDRAL.0>
10.1225

>  <SCORE.INTRA.POLAR>
0

>  <SCORE.INTRA.POLAR.0>
0

>  <SCORE.INTRA.REPUL>
0

>  <SCORE.INTRA.REPUL.0>
0

>  <SCORE.INTRA.SOLV>
-0.439627

>  <SCORE.INTRA.SOLV.lig_0>
-49.9393

>  <SCORE.INTRA.VDW>
-0.49853

>  <SCORE.INTRA.VDW.0>
-1.75437

>  <SCORE.INTRA.norm>
0.0223318

>  <SCORE.RESTR>
0.000714221

>  <SCORE.RESTR.CAVITY>
0.000714221

>  <SCORE.RESTR.norm>
2.74701e-05

>  <SCORE.SYSTEM>
0

>  <SCORE.SYSTEM.CONST>
0

>  <SCORE.SYSTEM.DIHEDRAL>
0

>  <SCORE.SYSTEM.SOLV>
0

>  <SCORE.SYSTEM.norm>
0

>  <SCORE.heavy>
26

>  <SCORE.norm>
-0.502604

>  <RMSD>
1.616

$$$$
ligand
 OpenBabel11021811473D
libRbt.so/2013.1/901 2013/11/27
 26 28  0  0  0  0  0  0  0  0999 V2000
  -16.3353    8.1512  -18.8650 N   0  0  0  0  0  0  0  0  0  0  0  0
  -15.0113    7.5774  -19.1360 C   0  0  2  0  0  0  0  0  0  0  0  0
  -14.1506    7.7013  -17.9063 C   0  0  0  0  0  0  0  0  0  0  0  0
  -14.6358    8.0706  -16.8626 O   0  0  0  0  0  0  0  0  0  0  0  0
  -14.3576    8.3312  -20.2953 C   0  0  0  0  0  0  0  0  0  0  0  0
  -14.1596    9.7949  -19.9054 C   0  0  0  0  0  0  0  0  0  0  0  0
  -13.3043   10.8518  -20.9230 S   0  0  0  0  0  0  0  0  0  0  0  0
  -12.7091   12.5622  -20.8895 C   0  0  0  0  0  0  0  0  0  0  0  0
  -12.4363   13.1739  -22.2690 C   0  0  1  0  0  0  0  0  0  0  0  0
  -11.7494   14.4093  -22.1863 O   0  0  0  0  0  0  0  0  0  0  0  0
  -11.5039   12.3196  -23.0949 C   0  0  1  0  0  0  0  0  0  0  0  0
  -11.7767   12.6733  -24.4332 O   0  0  0  0  0  0  0  0  0  0  0  0
  -10.1147   12.8060  -22.7535 C   0  0  1  0  0  0  0  0  0  0  0  0
   -9.3264   12.8521  -23.9228 O   0  0  0  0  0  0  0  0  0  0  0  0
  -10.3492   14.2128  -22.2472 C   0  0  2  0  0  0  0  0  0  0  0  0
  -12.8423    7.4040  -17.9686 O   0  0  0  0  0  0  0  0  0  0  0  0
   -6.4198   16.2833  -19.5111 N   0  0  0  0  0  0  0  0  0  0  0  0
   -6.5397   16.1790  -20.8766 C   0  0  0  0  0  0  0  0  0  0  0  0
   -7.6551   15.5840  -21.4151 N   0  0  0  0  0  0  0  0  0  0  0  0
   -8.6310   15.1046  -20.6194 C   0  0  0  0  0  0  0  0  0  0  0  0
   -8.5311   15.2000  -19.2441 C   0  0  0  0  0  0  0  0  0  0  0  0
   -7.4052   15.7971  -18.6892 C   0  0  0  0  0  0  0  0  0  0  0  0
   -7.2666   15.9058  -17.3737 N   0  0  0  0  0  0  0  0  0  0  0  0
   -9.6368   14.6447  -18.6998 N   0  0  0  0  0  0  0  0  0  0  0  0
  -10.4264   14.2111  -19.7016 C   0  0  0  0  0  0  0  0  0  0  0  0
   -9.8136   14.4778  -20.8993 N   0  0  0  0  0  0  0  0  0  0  0  0
  2  1  1  1  0  0  0
  2  3  1  0  0  0  0
  2  5  1  0  0  0  0
  3  4  1  0  0  0  0
  3 16  1  0  0  0  0
  5  6  1  0  0  0  0
  6  7  1  0  0  0  0
  7  8  1  0  0  0  0
  9  8  1  1  0  0  0
  9 10  1  0  0  0  0
  9 11  1  0  0  0  0
 10 15  1  0  0  0  0
 11 12  1  6  0  0  0
 11 13  1  0  0  0  0
 13 14  1  6  0  0  0
 13 15  1  0  0  0  0
 15 26  1  1  0  0  0
 17 18  2  0  0  0  0
 17 22  1  0  0  0  0
 18 19  1  0  0  0  0
 19 20  2  0  0  0  0
 20 21  1  0  0  0  0
 20 26  1  0  0  0  0
 21 22  2  0  0  0  0
 21 24  1  0  0  0  0
 22 23  1  0  0  0  0
 24 25  2  0  0  0  0
 25 26  1  0  0  0  0
M  END
>  <CHROM.1>
8.57036387,62.10755834,173.42226488,-174.67531261,-158.47312701,-169.21464139
-141.95366573,-11.22341284,12.38789637,-20.46261093,-2.78944808,-0.77862289
-1.28770568

>  <Name>
ligand

>  <RI>
0

>  <Rbt.Current_Directory>
/home/itssahil/PROJECTS/Mol_Feturizer/New_Systems/rnas/3E5E

>  <Rbt.Executable>
rbdock ($Id: //depot/dev/client3/rdock/2013.1/src/exe/rbdock.cxx#4 $)

>  <Rbt.Library>
libRbt.so (2013.1, Build901 2013/11/27)

>  <Rbt.Parameter_File>
/export/apps/rDock/src/rDock_2013.1_src/data/scripts/dock_solv.prm

>  <Rbt.Receptor>
prm/pocket_docking_2.prm

>  <SCORE>
-15.5901

>  <SCORE.INTER>
-13.7894

>  <SCORE.INTER.CONST>
1

>  <SCORE.INTER.POLAR>
0

>  <SCORE.INTER.ROT>
7

>  <SCORE.INTER.SOLV>
17.8291

>  <SCORE.INTER.VDW>
-23.4026

>  <SCORE.INTER.norm>
-0.530361

>  <SCORE.INTRA>
-1.99892

>  <SCORE.INTRA.DIHEDRAL>
-5.99526

>  <SCORE.INTRA.DIHEDRAL.0>
10.1225

>  <SCORE.INTRA.POLAR>
0

>  <SCORE.INTRA.POLAR.0>
0

>  <SCORE.INTRA.REPUL>
0

>  <SCORE.INTRA.REPUL.0>
0

>  <SCORE.INTRA.SOLV>
0.140561

>  <SCORE.INTRA.SOLV.lig_0>
-49.9393

>  <SCORE.INTRA.VDW>
0.92843

>  <SCORE.INTRA.VDW.0>
-1.75437

>  <SCORE.INTRA.norm>
-0.0768815

>  <SCORE.RESTR>
0.198167

>  <SCORE.RESTR.CAVITY>
0.198167

>  <SCORE.RESTR.norm>
0.00762181

>  <SCORE.SYSTEM>
0

>  <SCORE.SYSTEM.CONST>
0

>  <SCORE.SYSTEM.DIHEDRAL>
0

>  <SCORE.SYSTEM.SOLV>
0

>  <SCORE.SYSTEM.norm>
0

>  <SCORE.heavy>
26

>  <SCORE.norm>
-0.599621

>  <RMSD>
1.620

$$$$
ligand
 OpenBabel11021811473D
libRbt.so/2013.1/901 2013/11/27
 26 28  0  0  0  0  0  0  0  0999 V2000
  -16.2119    8.1648  -17.8331 N   0  0  0  0  0  0  0  0  0  0  0  0
  -14.9802    8.1658  -18.6321 C   0  0  2  0  0  0  0  0  0  0  0  0
  -13.7871    8.1564  -17.7131 C   0  0  0  0  0  0  0  0  0  0  0  0
  -12.9851    7.2538  -17.7717 O   0  0  0  0  0  0  0  0  0  0  0  0
  -14.9418    9.4202  -19.5066 C   0  0  0  0  0  0  0  0  0  0  0  0
  -13.7923    9.3101  -20.5067 C   0  0  0  0  0  0  0  0  0  0  0  0
  -13.3688   10.6322  -21.4848 S   0  0  0  0  0  0  0  0  0  0  0  0
  -12.8405   12.3510  -21.2664 C   0  0  0  0  0  0  0  0  0  0  0  0
  -12.5944   13.1174  -22.5716 C   0  0  1  0  0  0  0  0  0  0  0  0
  -11.9828   14.3756  -22.3526 O   0  0  0  0  0  0  0  0  0  0  0  0
  -11.6067   12.4094  -23.4686 C   0  0  1  0  0  0  0  0  0  0  0  0
  -11.8901   12.8836  -24.7668 O   0  0  0  0  0  0  0  0  0  0  0  0
  -10.2514   12.9381  -23.0601 C   0  0  1  0  0  0  0  0  0  0  0  0
   -9.4587   13.1513  -24.2076 O   0  0  0  0  0  0  0  0  0  0  0  0
  -10.5730   14.2686  -22.4146 C   0  0  2  0  0  0  0  0  0  0  0  0
  -13.6141    9.1495  -16.8256 O   0  0  0  0  0  0  0  0  0  0  0  0
   -7.0678   16.6437  -19.3672 N   0  0  0  0  0  0  0  0  0  0  0  0
   -7.2028   16.7321  -20.7325 C   0  0  0  0  0  0  0  0  0  0  0  0
   -8.1896   16.0137  -21.3634 N   0  0  0  0  0  0  0  0  0  0  0  0
   -9.0254   15.2266  -20.6583 C   0  0  0  0  0  0  0  0  0  0  0  0
   -8.9078   15.1239  -19.2850 C   0  0  0  0  0  0  0  0  0  0  0  0
   -7.9108   15.8439  -18.6374 C   0  0  0  0  0  0  0  0  0  0  0  0
   -7.7598   15.7714  -17.3207 N   0  0  0  0  0  0  0  0  0  0  0  0
   -9.8624   14.2762  -18.8406 N   0  0  0  0  0  0  0  0  0  0  0  0
  -10.5761   13.8528  -19.9020 C   0  0  0  0  0  0  0  0  0  0  0  0
  -10.0641   14.4231  -21.0394 N   0  0  0  0  0  0  0  0  0  0  0  0
  2  1  1  1  0  0  0
  2  3  1  0  0  0  0
  2  5  1  0  0  0  0
  3  4  1  0  0  0  0
  3 16  1  0  0  0  0
  5  6  1  0  0  0  0
  6  7  1  0  0  0  0
  7  8  1  0  0  0  0
  9  8  1  1  0  0  0
  9 10  1  0  0  0  0
  9 11  1  0  0  0  0
 10 15  1  0  0  0  0
 11 12  1  6  0  0  0
 11 13  1  0  0  0  0
 13 14  1  6  0  0  0
 13 15  1  0  0  0  0
 15 26  1  1  0  0  0
 17 18  2  0  0  0  0
 17 22  1  0  0  0  0
 18 19  1  0  0  0  0
 19 20  2  0  0  0  0
 20 21  1  0  0  0  0
 20 26  1  0  0  0  0
 21 22  2  0  0  0  0
 21 24  1  0  0  0  0
 22 23  1  0  0  0  0
 24 25  2  0  0  0  0
 25 26  1  0  0  0  0
M  END
>  <CHROM.1>
120.63197299,-170.38574851,-172.21986991,58.06758299,-179.58869990,-170.52760360
-132.87961585,-11.37627652,12.50472088,-20.52278100,-2.75203472,-0.81506698
-1.31826569

>  <Name>
ligand

>  <RI>
0

>  <Rbt.Current_Directory>
/home/itssahil/PROJECTS/Mol_Feturizer/New_Systems/rnas/3E5E

>  <Rbt.Executable>
rbdock ($Id: //depot/dev/client3/rdock/2013.1/src/exe/rbdock.cxx#4 $)

>  <Rbt.Library>
libRbt.so (2013.1, Build901 2013/11/27)

>  <Rbt.Parameter_File>
/export/apps/rDock/src/rDock_2013.1_src/data/scripts/dock_solv.prm

>  <Rbt.Receptor>
prm/pocket_docking_4.prm

>  <SCORE>
-19.4964

>  <SCORE.INTER>
-15.8217

>  <SCORE.INTER.CONST>
1

>  <SCORE.INTER.POLAR>
0

>  <SCORE.INTER.ROT>
7

>  <SCORE.INTER.SOLV>
18.0629

>  <SCORE.INTER.VDW>
-24.8355

>  <SCORE.INTER.norm>
-0.608528

>  <SCORE.INTRA>
-3.68153

>  <SCORE.INTRA.DIHEDRAL>
-6.43175

>  <SCORE.INTRA.DIHEDRAL.0>
10.1225

>  <SCORE.INTRA.POLAR>
0

>  <SCORE.INTRA.POLAR.0>
0

>  <SCORE.INTRA.REPUL>
0

>  <SCORE.INTRA.REPUL.0>
0

>  <SCORE.INTRA.SOLV>
-0.589405

>  <SCORE.INTRA.SOLV.lig_0>
-49.9393

>  <SCORE.INTRA.VDW>
-0.170957

>  <SCORE.INTRA.VDW.0>
-1.75437

>  <SCORE.INTRA.norm>
-0.141597

>  <SCORE.RESTR>
0.00687525

>  <SCORE.RESTR.CAVITY>
0.00687525

>  <SCORE.RESTR.norm>
0.000264433

>  <SCORE.SYSTEM>
0

>  <SCORE.SYSTEM.CONST>
0

>  <SCORE.SYSTEM.DIHEDRAL>
0

>  <SCORE.SYSTEM.SOLV>
0

>  <SCORE.SYSTEM.norm>
0

>  <SCORE.heavy>
26

>  <SCORE.norm>
-0.749861

>  <RMSD>
1.638

$$$$
ligand
 OpenBabel11021811473D
libRbt.so/2013.1/901 2013/11/27
 26 28  0  0  0  0  0  0  0  0999 V2000
  -14.8361    9.6074  -17.7055 N   0  0  0  0  0  0  0  0  0  0  0  0
  -14.1869    8.3780  -18.1772 C   0  0  2  0  0  0  0  0  0  0  0  0
  -13.8952    7.4828  -17.0017 C   0  0  0  0  0  0  0  0  0  0  0  0
  -14.3851    7.7218  -15.9228 O   0  0  0  0  0  0  0  0  0  0  0  0
  -12.8788    8.7330  -18.8862 C   0  0  0  0  0  0  0  0  0  0  0  0
  -13.1863    9.5029  -20.1692 C   0  0  0  0  0  0  0  0  0  0  0  0
  -13.6467   11.1364  -20.1069 S   0  0  0  0  0  0  0  0  0  0  0  0
  -12.8713   12.7602  -20.3142 C   0  0  0  0  0  0  0  0  0  0  0  0
  -12.8942   13.3039  -21.7480 C   0  0  1  0  0  0  0  0  0  0  0  0
  -12.0565   14.4337  -21.9111 O   0  0  0  0  0  0  0  0  0  0  0  0
  -12.3296   12.3145  -22.7398 C   0  0  1  0  0  0  0  0  0  0  0  0
  -12.8966   12.6789  -23.9792 O   0  0  0  0  0  0  0  0  0  0  0  0
  -10.8489   12.6102  -22.7947 C   0  0  1  0  0  0  0  0  0  0  0  0
  -10.3964   12.5262  -24.1285 O   0  0  0  0  0  0  0  0  0  0  0  0
  -10.7589   14.0446  -22.3206 C   0  0  2  0  0  0  0  0  0  0  0  0
  -13.0882    6.4195  -17.1501 O   0  0  0  0  0  0  0  0  0  0  0  0
   -6.8595   16.9203  -20.3869 N   0  0  0  0  0  0  0  0  0  0  0  0
   -7.4455   17.0106  -21.6273 C   0  0  0  0  0  0  0  0  0  0  0  0
   -8.4614   16.1476  -21.9609 N   0  0  0  0  0  0  0  0  0  0  0  0
   -8.8889   15.2170  -21.0854 C   0  0  0  0  0  0  0  0  0  0  0  0
   -8.3143   15.1095  -19.8329 C   0  0  0  0  0  0  0  0  0  0  0  0
   -7.2837   15.9755  -19.4867 C   0  0  0  0  0  0  0  0  0  0  0  0
   -6.7012   15.9046  -18.2962 N   0  0  0  0  0  0  0  0  0  0  0  0
   -8.9286   14.1042  -19.1702 N   0  0  0  0  0  0  0  0  0  0  0  0
   -9.8760   13.5863  -19.9761 C   0  0  0  0  0  0  0  0  0  0  0  0
   -9.8584   14.2567  -21.1725 N   0  0  0  0  0  0  0  0  0  0  0  0
  2  1  1  1  0  0  0
  2  3  1  0  0  0  0
  2  5  1  0  0  0  0
  3  4  1  0  0  0  0
  3 16  1  0  0  0  0
  5  6  1  0  0  0  0
  6  7  1  0  0  0  0
  7  8  1  0  0  0  0
  9  8  1  1  0  0  0
  9 10  1  0  0  0  0
  9 11  1  0  0  0  0
 10 15  1  0  0  0  0
 11 12  1  6  0  0  0
 11 13  1  0  0  0  0
 13 14  1  6  0  0  0
 13 15  1  0  0  0  0
 15 26  1  1  0  0  0
 17 18  2  0  0  0  0
 17 22  1  0  0  0  0
 18 19  1  0  0  0  0
 19 20  2  0  0  0  0
 20 21  1  0  0  0  0
 20 26  1  0  0  0  0
 21 22  2  0  0  0  0
 21 24  1  0  0  0  0
 22 23  1  0  0  0  0
 24 25  2  0  0  0  0
 25 26  1  0  0  0  0
M  END
>  <CHROM.1>
12.15821534,-66.64152697,76.06057817,98.40822270,90.02551604,-168.30381754
-110.07465479,-11.27422966,12.45045350,-20.30674976,-2.45162350,-0.72261277
-1.07131063

>  <Name>
ligand

>  <RI>
0

>  <Rbt.Current_Directory>
/home/itssahil/PROJECTS/Mol_Feturizer/New_Systems/rnas/3E5E

>  <Rbt.Executable>
rbdock ($Id: //depot/dev/client3/rdock/2013.1/src/exe/rbdock.cxx#4 $)

>  <Rbt.Library>
libRbt.so (2013.1, Build901 2013/11/27)

>  <Rbt.Parameter_File>
/export/apps/rDock/src/rDock_2013.1_src/data/scripts/dock_solv.prm

>  <Rbt.Receptor>
prm/pocket_docking_3.prm

>  <SCORE>
-18.3273

>  <SCORE.INTER>
-17.3223

>  <SCORE.INTER.CONST>
1

>  <SCORE.INTER.POLAR>
0

>  <SCORE.INTER.ROT>
7

>  <SCORE.INTER.SOLV>
18.5527

>  <SCORE.INTER.VDW>
-25.9991

>  <SCORE.INTER.norm>
-0.666242

>  <SCORE.INTRA>
-1.00496

>  <SCORE.INTRA.DIHEDRAL>
-2.98264

>  <SCORE.INTRA.DIHEDRAL.0>
10.1225

>  <SCORE.INTRA.POLAR>
0

>  <SCORE.INTRA.POLAR.0>
0

>  <SCORE.INTRA.REPUL>
0

>  <SCORE.INTRA.REPUL.0>
0

>  <SCORE.INTRA.SOLV>
1.39941

>  <SCORE.INTRA.SOLV.lig_0>
-49.9393

>  <SCORE.INTRA.VDW>
-0.213344

>  <SCORE.INTRA.VDW.0>
-1.75437

>  <SCORE.INTRA.norm>
-0.0386523

>  <SCORE.RESTR>
0

>  <SCORE.RESTR.CAVITY>
0

>  <SCORE.RESTR.norm>
0

>  <SCORE.SYSTEM>
0

>  <SCORE.SYSTEM.CONST>
0

>  <SCORE.SYSTEM.DIHEDRAL>
0

>  <SCORE.SYSTEM.SOLV>
0

>  <SCORE.SYSTEM.norm>
0

>  <SCORE.heavy>
26

>  <SCORE.norm>
-0.704895

>  <RMSD>
1.644

$$$$
ligand
 OpenBabel11021811473D
libRbt.so/2013.1/901 2013/11/27
 26 28  0  0  0  0  0  0  0  0999 V2000
  -14.5920    4.8858  -15.8981 N   0  0  0  0  0  0  0  0  0  0  0  0
  -14.6839    6.3438  -16.0446 C   0  0  2  0  0  0  0  0  0  0  0  0
  -16.1310    6.7456  -16.1574 C   0  0  0  0  0  0  0  0  0  0  0  0
  -16.6160    7.4958  -15.3432 O   0  0  0  0  0  0  0  0  0  0  0  0
  -13.9335    6.7769  -17.3052 C   0  0  0  0  0  0  0  0  0  0  0  0
  -13.8405    8.3012  -17.3453 C   0  0  0  0  0  0  0  0  0  0  0  0
  -13.1457    9.0892  -18.6796 S   0  0  0  0  0  0  0  0  0  0  0  0
  -12.6733   10.7736  -19.1495 C   0  0  0  0  0  0  0  0  0  0  0  0
  -12.9367   11.1278  -20.6182 C   0  0  1  0  0  0  0  0  0  0  0  0
  -12.5177   12.4412  -20.9410 O   0  0  0  0  0  0  0  0  0  0  0  0
  -12.1289   10.2699  -21.5632 C   0  0  1  0  0  0  0  0  0  0  0  0
  -12.8397   10.3030  -22.7814 O   0  0  0  0  0  0  0  0  0  0  0  0
  -10.8275   11.0126  -21.7574 C   0  0  1  0  0  0  0  0  0  0  0  0
  -10.4341   10.9365  -23.1103 O   0  0  0  0  0  0  0  0  0  0  0  0
  -11.1843   12.4429  -21.4153 C   0  0  2  0  0  0  0  0  0  0  0  0
  -16.8850    6.2686  -17.1614 O   0  0  0  0  0  0  0  0  0  0  0  0
   -7.8972   16.3170  -20.2320 N   0  0  0  0  0  0  0  0  0  0  0  0
   -8.4781   16.0390  -21.4466 C   0  0  0  0  0  0  0  0  0  0  0  0
   -9.3151   14.9558  -21.5649 N   0  0  0  0  0  0  0  0  0  0  0  0
   -9.5729   14.1664  -20.5040 C   0  0  0  0  0  0  0  0  0  0  0  0
   -9.0003   14.4283  -19.2736 C   0  0  0  0  0  0  0  0  0  0  0  0
   -8.1493   15.5197  -19.1440 C   0  0  0  0  0  0  0  0  0  0  0  0
   -7.5749   15.8053  -17.9821 N   0  0  0  0  0  0  0  0  0  0  0  0
   -9.4259   13.4888  -18.3999 N   0  0  0  0  0  0  0  0  0  0  0  0
  -10.2545   12.6513  -19.0534 C   0  0  0  0  0  0  0  0  0  0  0  0
  -10.3489   13.0494  -20.3625 N   0  0  0  0  0  0  0  0  0  0  0  0
  2  1  1  6  0  0  0
  2  3  1  0  0  0  0
  2  5  1  0  0  0  0
  3  4  1  0  0  0  0
  3 16  1  0  0  0  0
  5  6  1  0  0  0  0
  6  7  1  0  0  0  0
  7  8  1  0  0  0  0
  9  8  1  1  0  0  0
  9 10  1  0  0  0  0
  9 11  1  0  0  0  0
 10 15  1  0  0  0  0
 11 12  1  6  0  0  0
 11 13  1  0  0  0  0
 13 14  1  6  0  0  0
 13 15  1  0  0  0  0
 15 26  1  1  0  0  0
 17 18  2  0  0  0  0
 17 22  1  0  0  0  0
 18 19  1  0  0  0  0
 19 20  2  0  0  0  0
 20 21  1  0  0  0  0
 20 26  1  0  0  0  0
 21 22  2  0  0  0  0
 21 24  1  0  0  0  0
 22 23  1  0  0  0  0
 24 25  2  0  0  0  0
 25 26  1  0  0  0  0
M  END
>  <CHROM.1>
119.96472515,-171.25249494,-176.11809895,-173.21749569,-141.85429581,-178.43170708
-120.87525079,-11.90864198,11.01585149,-19.32681163,-2.78143779,-0.89604507
-1.55526330

>  <Name>
ligand

>  <RI>
0

>  <Rbt.Current_Directory>
/home/itssahil/PROJECTS/Mol_Feturizer/New_Systems/rnas/3E5E

>  <Rbt.Executable>
rbdock ($Id: //depot/dev/client3/rdock/2013.1/src/exe/rbdock.cxx#4 $)

>  <Rbt.Library>
libRbt.so (2013.1, Build901 2013/11/27)

>  <Rbt.Parameter_File>
/export/apps/rDock/src/rDock_2013.1_src/data/scripts/dock_solv.prm

>  <Rbt.Receptor>
prm/pocket_docking_3.prm

>  <SCORE>
-17.7161

>  <SCORE.INTER>
-14.5752

>  <SCORE.INTER.CONST>
1

>  <SCORE.INTER.POLAR>
0

>  <SCORE.INTER.ROT>
7

>  <SCORE.INTER.SOLV>
14.6123

>  <SCORE.INTER.VDW>
-22.8542

>  <SCORE.INTER.norm>
-0.560585

>  <SCORE.INTRA>
-3.14101

>  <SCORE.INTRA.DIHEDRAL>
-5.2756

>  <SCORE.INTRA.DIHEDRAL.0>
10.1225

>  <SCORE.INTRA.POLAR>
0

>  <SCORE.INTRA.POLAR.0>
0

>  <SCORE.INTRA.REPUL>
0

>  <SCORE.INTRA.REPUL.0>
0

>  <SCORE.INTRA.SOLV>
-0.618978

>  <SCORE.INTRA.SOLV.lig_0>
-49.9393

>  <SCORE.INTRA.VDW>
-0.193722

>  <SCORE.INTRA.VDW.0>
-1.75437

>  <SCORE.INTRA.norm>
-0.120808

>  <SCORE.RESTR>
0.000139285

>  <SCORE.RESTR.CAVITY>
0.000139285

>  <SCORE.RESTR.norm>
5.35711e-06

>  <SCORE.SYSTEM>
0

>  <SCORE.SYSTEM.CONST>
0

>  <SCORE.SYSTEM.DIHEDRAL>
0

>  <SCORE.SYSTEM.SOLV>
0

>  <SCORE.SYSTEM.norm>
0

>  <SCORE.heavy>
26

>  <SCORE.norm>
-0.681387

>  <RMSD>
1.649

$$$$
ligand
 OpenBabel11021811473D
libRbt.so/2013.1/901 2013/11/27
 26 28  0  0  0  0  0  0  0  0999 V2000
  -17.3021    7.8607  -16.8948 N   0  0  0  0  0  0  0  0  0  0  0  0
  -15.8952    8.0296  -17.2793 C   0  0  2  0  0  0  0  0  0  0  0  0
  -15.1188    6.7988  -16.8917 C   0  0  0  0  0  0  0  0  0  0  0  0
  -15.4935    6.1121  -15.9702 O   0  0  0  0  0  0  0  0  0  0  0  0
  -15.3139    9.2481  -16.5602 C   0  0  0  0  0  0  0  0  0  0  0  0
  -13.8855    9.4925  -17.0434 C   0  0  0  0  0  0  0  0  0  0  0  0
  -13.5904   10.0444  -18.6221 S   0  0  0  0  0  0  0  0  0  0  0  0
  -12.2070   10.0994  -19.7902 C   0  0  0  0  0  0  0  0  0  0  0  0
  -12.5452   10.7064  -21.1572 C   0  0  1  0  0  0  0  0  0  0  0  0
  -12.4026   12.1151  -21.1734 O   0  0  0  0  0  0  0  0  0  0  0  0
  -11.5860   10.2540  -22.2328 C   0  0  1  0  0  0  0  0  0  0  0  0
  -12.2958   10.4107  -23.4419 O   0  0  0  0  0  0  0  0  0  0  0  0
  -10.4630   11.2647  -22.2121 C   0  0  1  0  0  0  0  0  0  0  0  0
  -10.0703   11.5660  -23.5334 O   0  0  0  0  0  0  0  0  0  0  0  0
  -11.1000   12.4855  -21.5842 C   0  0  2  0  0  0  0  0  0  0  0  0
  -14.0074    6.4642  -17.5676 O   0  0  0  0  0  0  0  0  0  0  0  0
   -8.0184   16.2507  -19.7025 N   0  0  0  0  0  0  0  0  0  0  0  0
   -8.4526   16.0773  -20.9954 C   0  0  0  0  0  0  0  0  0  0  0  0
   -9.2571   15.0063  -21.3017 N   0  0  0  0  0  0  0  0  0  0  0  0
   -9.6252   14.1276  -20.3490 C   0  0  0  0  0  0  0  0  0  0  0  0
   -9.2009   14.2837  -19.0429 C   0  0  0  0  0  0  0  0  0  0  0  0
   -8.3840   15.3619  -18.7231 C   0  0  0  0  0  0  0  0  0  0  0  0
   -7.9503   15.5474  -17.4825 N   0  0  0  0  0  0  0  0  0  0  0  0
   -9.7124   13.2712  -18.3077 N   0  0  0  0  0  0  0  0  0  0  0  0
  -10.4501   12.4913  -19.1217 C   0  0  0  0  0  0  0  0  0  0  0  0
  -10.3985   13.0007  -20.3941 N   0  0  0  0  0  0  0  0  0  0  0  0
  2  1  1  1  0  0  0
  2  3  1  0  0  0  0
  2  5  1  0  0  0  0
  3  4  1  0  0  0  0
  3 16  1  0  0  0  0
  5  6  1  0  0  0  0
  6  7  1  0  0  0  0
  7  8  1  0  0  0  0
  9  8  1  1  0  0  0
  9 10  1  0  0  0  0
  9 11  1  0  0  0  0
 10 15  1  0  0  0  0
 11 12  1  6  0  0  0
 11 13  1  0  0  0  0
 13 14  1  6  0  0  0
 13 15  1  0  0  0  0
 15 26  1  1  0  0  0
 17 18  2  0  0  0  0
 17 22  1  0  0  0  0
 18 19  1  0  0  0  0
 19 20  2  0  0  0  0
 20 21  1  0  0  0  0
 20 26  1  0  0  0  0
 21 22  2  0  0  0  0
 21 24  1  0  0  0  0
 22 23  1  0  0  0  0
 24 25  2  0  0  0  0
 25 26  1  0  0  0  0
M  END
>  <CHROM.1>
-26.81022955,-175.48264507,69.66362080,-160.94889723,178.12916192,86.90618620
-135.60917992,-11.88109524,11.30727690,-19.48537259,-2.96559092,-0.87197304
-1.77334315

>  <Name>
ligand

>  <RI>
0

>  <Rbt.Current_Directory>
/home/itssahil/PROJECTS/Mol_Feturizer/New_Systems/rnas/3E5E

>  <Rbt.Executable>
rbdock ($Id: //depot/dev/client3/rdock/2013.1/src/exe/rbdock.cxx#4 $)

>  <Rbt.Library>
libRbt.so (2013.1, Build901 2013/11/27)

>  <Rbt.Parameter_File>
/export/apps/rDock/src/rDock_2013.1_src/data/scripts/dock_solv.prm

>  <Rbt.Receptor>
prm/pocket_docking_2.prm

>  <SCORE>
-16.608

>  <SCORE.INTER>
-13.9834

>  <SCORE.INTER.CONST>
1

>  <SCORE.INTER.POLAR>
0

>  <SCORE.INTER.ROT>
7

>  <SCORE.INTER.SOLV>
14.8217

>  <SCORE.INTER.VDW>
-22.5295

>  <SCORE.INTER.norm>
-0.537821

>  <SCORE.INTRA>
-2.62932

>  <SCORE.INTRA.DIHEDRAL>
-4.16508

>  <SCORE.INTRA.DIHEDRAL.0>
10.1225

>  <SCORE.INTRA.POLAR>
0

>  <SCORE.INTRA.POLAR.0>
0

>  <SCORE.INTRA.REPUL>
0

>  <SCORE.INTRA.REPUL.0>
0

>  <SCORE.INTRA.SOLV>
-0.591179

>  <SCORE.INTRA.SOLV.lig_0>
-49.9393

>  <SCORE.INTRA.VDW>
-0.251186

>  <SCORE.INTRA.VDW.0>
-1.75437

>  <SCORE.INTRA.norm>
-0.101128

>  <SCORE.RESTR>
0.00465372

>  <SCORE.RESTR.CAVITY>
0.00465372

>  <SCORE.RESTR.norm>
0.000178989

>  <SCORE.SYSTEM>
0

>  <SCORE.SYSTEM.CONST>
0

>  <SCORE.SYSTEM.DIHEDRAL>
0

>  <SCORE.SYSTEM.SOLV>
0

>  <SCORE.SYSTEM.norm>
0

>  <SCORE.heavy>
26

>  <SCORE.norm>
-0.63877

>  <RMSD>
1.652

$$$$
ligand
 OpenBabel11021811473D
libRbt.so/2013.1/901 2013/11/27
 26 28  0  0  0  0  0  0  0  0999 V2000
  -14.2775    8.3352  -16.1200 N   0  0  0  0  0  0  0  0  0  0  0  0
  -14.2800    8.1406  -17.5753 C   0  0  2  0  0  0  0  0  0  0  0  0
  -13.4351    6.9431  -17.9219 C   0  0  0  0  0  0  0  0  0  0  0  0
  -13.4147    6.5245  -19.0556 O   0  0  0  0  0  0  0  0  0  0  0  0
  -13.7069    9.3847  -18.2561 C   0  0  0  0  0  0  0  0  0  0  0  0
  -14.0408    9.3503  -19.7464 C   0  0  0  0  0  0  0  0  0  0  0  0
  -13.5025   10.5850  -20.7808 S   0  0  0  0  0  0  0  0  0  0  0  0
  -13.0043   12.3220  -20.6551 C   0  0  0  0  0  0  0  0  0  0  0  0
  -12.9285   13.0662  -21.9937 C   0  0  1  0  0  0  0  0  0  0  0  0
  -12.3049   14.3318  -21.8740 O   0  0  0  0  0  0  0  0  0  0  0  0
  -12.0539   12.3482  -22.9942 C   0  0  1  0  0  0  0  0  0  0  0  0
  -12.5002   12.7972  -24.2550 O   0  0  0  0  0  0  0  0  0  0  0  0
  -10.6628   12.8925  -22.7664 C   0  0  1  0  0  0  0  0  0  0  0  0
  -10.0204   13.0898  -24.0070 O   0  0  0  0  0  0  0  0  0  0  0  0
  -10.9128   14.2324  -22.1087 C   0  0  2  0  0  0  0  0  0  0  0  0
  -12.7052    6.3372  -16.9710 O   0  0  0  0  0  0  0  0  0  0  0  0
   -7.0348   16.6324  -19.5760 N   0  0  0  0  0  0  0  0  0  0  0  0
   -7.3340   16.6875  -20.9167 C   0  0  0  0  0  0  0  0  0  0  0  0
   -8.3987   15.9679  -21.4032 N   0  0  0  0  0  0  0  0  0  0  0  0
   -9.1516   15.2120  -20.5804 C   0  0  0  0  0  0  0  0  0  0  0  0
   -8.8690   15.1432  -19.2292 C   0  0  0  0  0  0  0  0  0  0  0  0
   -7.7920   15.8646  -18.7275 C   0  0  0  0  0  0  0  0  0  0  0  0
   -7.4827   15.8240  -17.4374 N   0  0  0  0  0  0  0  0  0  0  0  0
   -9.7724   14.3218  -18.6490 N   0  0  0  0  0  0  0  0  0  0  0  0
  -10.6149   13.8818  -19.6039 C   0  0  0  0  0  0  0  0  0  0  0  0
  -10.2385   14.4147  -20.8103 N   0  0  0  0  0  0  0  0  0  0  0  0
  2  1  1  1  0  0  0
  2  3  1  0  0  0  0
  2  5  1  0  0  0  0
  3  4  1  0  0  0  0
  3 16  1  0  0  0  0
  5  6  1  0  0  0  0
  6  7  1  0  0  0  0
  7  8  1  0  0  0  0
  9  8  1  1  0  0  0
  9 10  1  0  0  0  0
  9 11  1  0  0  0  0
 10 15  1  0  0  0  0
 11 12  1  6  0  0  0
 11 13  1  0  0  0  0
 13 14  1  6  0  0  0
 13 15  1  0  0  0  0
 15 26  1  1  0  0  0
 17 18  2  0  0  0  0
 17 22  1  0  0  0  0
 18 19  1  0  0  0  0
 19 20  2  0  0  0  0
 20 21  1  0  0  0  0
 20 26  1  0  0  0  0
 21 22  2  0  0  0  0
 21 24  1  0  0  0  0
 22 23  1  0  0  0  0
 24 25  2  0  0  0  0
 25 26  1  0  0  0  0
M  END
>  <CHROM.1>
172.33163814,-165.14834158,-178.49142955,-24.12321838,-165.60238928,-169.11396838
-134.18702522,-11.34944605,12.30210527,-20.21651133,-2.50098273,-0.83940958
-1.07448882

>  <Name>
ligand

>  <RI>
0

>  <Rbt.Current_Directory>
/home/itssahil/PROJECTS/Mol_Feturizer/New_Systems/rnas/3E5E

>  <Rbt.Executable>
rbdock ($Id: //depot/dev/client3/rdock/2013.1/src/exe/rbdock.cxx#4 $)

>  <Rbt.Library>
libRbt.so (2013.1, Build901 2013/11/27)

>  <Rbt.Parameter_File>
/export/apps/rDock/src/rDock_2013.1_src/data/scripts/dock_solv.prm

>  <Rbt.Receptor>
prm/pocket_docking_3.prm

>  <SCORE>
-20.1016

>  <SCORE.INTER>
-17.8836

>  <SCORE.INTER.CONST>
1

>  <SCORE.INTER.POLAR>
0

>  <SCORE.INTER.ROT>
7

>  <SCORE.INTER.SOLV>
21.1059

>  <SCORE.INTER.VDW>
-27.2244

>  <SCORE.INTER.norm>
-0.687831

>  <SCORE.INTRA>
-2.21804

>  <SCORE.INTRA.DIHEDRAL>
-4.18004

>  <SCORE.INTRA.DIHEDRAL.0>
10.1225

>  <SCORE.INTRA.POLAR>
0

>  <SCORE.INTRA.POLAR.0>
0

>  <SCORE.INTRA.REPUL>
0

>  <SCORE.INTRA.REPUL.0>
0

>  <SCORE.INTRA.SOLV>
-0.542461

>  <SCORE.INTRA.SOLV.lig_0>
-49.9393

>  <SCORE.INTRA.VDW>
0.143213

>  <SCORE.INTRA.VDW.0>
-1.75437

>  <SCORE.INTRA.norm>
-0.0853091

>  <SCORE.RESTR>
0

>  <SCORE.RESTR.CAVITY>
0

>  <SCORE.RESTR.norm>
0

>  <SCORE.SYSTEM>
0

>  <SCORE.SYSTEM.CONST>
0

>  <SCORE.SYSTEM.DIHEDRAL>
0

>  <SCORE.SYSTEM.SOLV>
0

>  <SCORE.SYSTEM.norm>
0

>  <SCORE.heavy>
26

>  <SCORE.norm>
-0.77314

>  <RMSD>
1.667

$$$$
ligand
 OpenBabel11021811473D
libRbt.so/2013.1/901 2013/11/27
 26 28  0  0  0  0  0  0  0  0999 V2000
  -13.2573    5.0229  -16.8508 N   0  0  0  0  0  0  0  0  0  0  0  0
  -13.3736    6.4186  -17.2913 C   0  0  2  0  0  0  0  0  0  0  0  0
  -14.2924    7.1632  -16.3588 C   0  0  0  0  0  0  0  0  0  0  0  0
  -15.2839    6.6231  -15.9271 O   0  0  0  0  0  0  0  0  0  0  0  0
  -13.9435    6.4586  -18.7102 C   0  0  0  0  0  0  0  0  0  0  0  0
  -14.1453    7.9111  -19.1383 C   0  0  0  0  0  0  0  0  0  0  0  0
  -12.8430    9.0011  -19.1360 S   0  0  0  0  0  0  0  0  0  0  0  0
  -12.5634   10.7619  -19.4564 C   0  0  0  0  0  0  0  0  0  0  0  0
  -12.7630   11.1880  -20.9160 C   0  0  1  0  0  0  0  0  0  0  0  0
  -12.3560   12.5239  -21.1495 O   0  0  0  0  0  0  0  0  0  0  0  0
  -11.8931   10.3958  -21.8632 C   0  0  1  0  0  0  0  0  0  0  0  0
  -12.5448   10.4801  -23.1116 O   0  0  0  0  0  0  0  0  0  0  0  0
  -10.5993   11.1709  -21.9545 C   0  0  1  0  0  0  0  0  0  0  0  0
  -10.1398   11.1733  -23.2885 O   0  0  0  0  0  0  0  0  0  0  0  0
  -11.0016   12.5747  -21.5569 C   0  0  2  0  0  0  0  0  0  0  0  0
  -14.0127    8.4291  -16.0080 O   0  0  0  0  0  0  0  0  0  0  0  0
   -7.8273   16.4203  -20.0243 N   0  0  0  0  0  0  0  0  0  0  0  0
   -8.3394   16.1930  -21.2798 C   0  0  0  0  0  0  0  0  0  0  0  0
   -9.1564   15.1088  -21.4919 N   0  0  0  0  0  0  0  0  0  0  0  0
   -9.4612   14.2692  -20.4832 C   0  0  0  0  0  0  0  0  0  0  0  0
   -8.9579   14.4797  -19.2132 C   0  0  0  0  0  0  0  0  0  0  0  0
   -8.1278   15.5717  -18.9887 C   0  0  0  0  0  0  0  0  0  0  0  0
   -7.6195   15.8089  -17.7859 N   0  0  0  0  0  0  0  0  0  0  0  0
   -9.4186   13.4972  -18.4070 N   0  0  0  0  0  0  0  0  0  0  0  0
  -10.2014   12.6830  -19.1415 C   0  0  0  0  0  0  0  0  0  0  0  0
  -10.2306   13.1398  -20.4343 N   0  0  0  0  0  0  0  0  0  0  0  0
  2  1  1  1  0  0  0
  2  3  1  0  0  0  0
  2  5  1  0  0  0  0
  3  4  1  0  0  0  0
  3 16  1  0  0  0  0
  5  6  1  0  0  0  0
  6  7  1  0  0  0  0
  7  8  1  0  0  0  0
  9  8  1  1  0  0  0
  9 10  1  0  0  0  0
  9 11  1  0  0  0  0
 10 15  1  0  0  0  0
 11 12  1  6  0  0  0
 11 13  1  0  0  0  0
 13 14  1  6  0  0  0
 13 15  1  0  0  0  0
 15 26  1  1  0  0  0
 17 18  2  0  0  0  0
 17 22  1  0  0  0  0
 18 19  1  0  0  0  0
 19 20  2  0  0  0  0
 20 21  1  0  0  0  0
 20 26  1  0  0  0  0
 21 22  2  0  0  0  0
 21 24  1  0  0  0  0
 22 23  1  0  0  0  0
 24 25  2  0  0  0  0
 25 26  1  0  0  0  0
M  END
>  <CHROM.1>
-39.11202188,176.56883288,57.16186236,-176.35030888,-67.47928817,-171.82388620
-121.56754962,-11.47335722,11.12099847,-19.59583738,-2.75761506,-0.97213302
-1.46227246

>  <Name>
ligand

>  <RI>
0

>  <Rbt.Current_Directory>
/home/itssahil/PROJECTS/Mol_Feturizer/New_Systems/rnas/3E5E

>  <Rbt.Executable>
rbdock ($Id: //depot/dev/client3/rdock/2013.1/src/exe/rbdock.cxx#4 $)

>  <Rbt.Library>
libRbt.so (2013.1, Build901 2013/11/27)

>  <Rbt.Parameter_File>
/export/apps/rDock/src/rDock_2013.1_src/data/scripts/dock_solv.prm

>  <Rbt.Receptor>
prm/pocket_docking_3.prm

>  <SCORE>
-20.3493

>  <SCORE.INTER>
-16.5235

>  <SCORE.INTER.CONST>
1

>  <SCORE.INTER.POLAR>
0

>  <SCORE.INTER.ROT>
7

>  <SCORE.INTER.SOLV>
17.007

>  <SCORE.INTER.VDW>
-24.9513

>  <SCORE.INTER.norm>
-0.635519

>  <SCORE.INTRA>
-3.8258

>  <SCORE.INTRA.DIHEDRAL>
-6.98266

>  <SCORE.INTRA.DIHEDRAL.0>
10.1225

>  <SCORE.INTRA.POLAR>
0

>  <SCORE.INTRA.POLAR.0>
0

>  <SCORE.INTRA.REPUL>
0

>  <SCORE.INTRA.REPUL.0>
0

>  <SCORE.INTRA.SOLV>
-0.464155

>  <SCORE.INTRA.SOLV.lig_0>
-49.9393

>  <SCORE.INTRA.VDW>
-0.102395

>  <SCORE.INTRA.VDW.0>
-1.75437

>  <SCORE.INTRA.norm>
-0.147146

>  <SCORE.RESTR>
0

>  <SCORE.RESTR.CAVITY>
0

>  <SCORE.RESTR.norm>
0

>  <SCORE.SYSTEM>
0

>  <SCORE.SYSTEM.CONST>
0

>  <SCORE.SYSTEM.DIHEDRAL>
0

>  <SCORE.SYSTEM.SOLV>
0

>  <SCORE.SYSTEM.norm>
0

>  <SCORE.heavy>
26

>  <SCORE.norm>
-0.782665

>  <RMSD>
1.669

$$$$
ligand
 OpenBabel11021811473D
libRbt.so/2013.1/901 2013/11/27
 26 28  0  0  0  0  0  0  0  0999 V2000
  -14.4929    8.2697  -17.8144 N   0  0  0  0  0  0  0  0  0  0  0  0
  -13.5681    9.3055  -17.3376 C   0  0  2  0  0  0  0  0  0  0  0  0
  -13.7708    9.5164  -15.8602 C   0  0  0  0  0  0  0  0  0  0  0  0
  -13.0595   10.2840  -15.2553 O   0  0  0  0  0  0  0  0  0  0  0  0
  -13.8409   10.6133  -18.0826 C   0  0  0  0  0  0  0  0  0  0  0  0
  -13.4734   10.4475  -19.5560 C   0  0  0  0  0  0  0  0  0  0  0  0
  -11.8558   10.2253  -20.0231 S   0  0  0  0  0  0  0  0  0  0  0  0
  -10.7805   10.6867  -21.4058 C   0  0  0  0  0  0  0  0  0  0  0  0
  -11.4378   11.5908  -22.4558 C   0  0  1  0  0  0  0  0  0  0  0  0
  -11.7803   12.8625  -21.9359 O   0  0  0  0  0  0  0  0  0  0  0  0
  -10.4944   11.9271  -23.5865 C   0  0  1  0  0  0  0  0  0  0  0  0
  -11.3322   12.2550  -24.6732 O   0  0  0  0  0  0  0  0  0  0  0  0
   -9.7812   13.1843  -23.1461 C   0  0  1  0  0  0  0  0  0  0  0  0
   -9.6466   14.0630  -24.2418 O   0  0  0  0  0  0  0  0  0  0  0  0
  -10.7262   13.7869  -22.1291 C   0  0  2  0  0  0  0  0  0  0  0  0
  -14.7404    8.8498  -15.2126 O   0  0  0  0  0  0  0  0  0  0  0  0
   -7.3007   16.6669  -19.4486 N   0  0  0  0  0  0  0  0  0  0  0  0
   -7.5629   16.6985  -20.7978 C   0  0  0  0  0  0  0  0  0  0  0  0
   -8.5014   15.8448  -21.3255 N   0  0  0  0  0  0  0  0  0  0  0  0
   -9.1669   14.9803  -20.5350 C   0  0  0  0  0  0  0  0  0  0  0  0
   -8.9194   14.9326  -19.1759 C   0  0  0  0  0  0  0  0  0  0  0  0
   -7.9696   15.7897  -18.6326 C   0  0  0  0  0  0  0  0  0  0  0  0
   -7.6978   15.7745  -17.3335 N   0  0  0  0  0  0  0  0  0  0  0  0
   -9.7171   13.9858  -18.6333 N   0  0  0  0  0  0  0  0  0  0  0  0
  -10.4602   13.4463  -19.6193 C   0  0  0  0  0  0  0  0  0  0  0  0
  -10.1245   14.0430  -20.8077 N   0  0  0  0  0  0  0  0  0  0  0  0
  2  1  1  6  0  0  0
  2  3  1  0  0  0  0
  2  5  1  0  0  0  0
  3  4  1  0  0  0  0
  3 16  1  0  0  0  0
  5  6  1  0  0  0  0
  6  7  1  0  0  0  0
  7  8  1  0  0  0  0
  9  8  1  1  0  0  0
  9 10  1  0  0  0  0
  9 11  1  0  0  0  0
 10 15  1  0  0  0  0
 11 12  1  6  0  0  0
 11 13  1  0  0  0  0
 13 14  1  6  0  0  0
 13 15  1  0  0  0  0
 15 26  1  1  0  0  0
 17 18  2  0  0  0  0
 17 22  1  0  0  0  0
 18 19  1  0  0  0  0
 19 20  2  0  0  0  0
 20 21  1  0  0  0  0
 20 26  1  0  0  0  0
 21 22  2  0  0  0  0
 21 24  1  0  0  0  0
 22 23  1  0  0  0  0
 24 25  2  0  0  0  0
 25 26  1  0  0  0  0
M  END
>  <CHROM.1>
176.34566053,-66.85031689,-66.95673881,-145.22031792,3.79898142,64.99360771
-172.85167944,-10.96987466,12.50779174,-19.97751677,2.67497742,0.86931895
1.50901837

>  <Name>
ligand

>  <RI>
0

>  <Rbt.Current_Directory>
/home/itssahil/PROJECTS/Mol_Feturizer/New_Systems/rnas/3E5E

>  <Rbt.Executable>
rbdock ($Id: //depot/dev/client3/rdock/2013.1/src/exe/rbdock.cxx#4 $)

>  <Rbt.Library>
libRbt.so (2013.1, Build901 2013/11/27)

>  <Rbt.Parameter_File>
/export/apps/rDock/src/rDock_2013.1_src/data/scripts/dock_solv.prm

>  <Rbt.Receptor>
prm/pocket_docking_5.prm

>  <SCORE>
-20.1099

>  <SCORE.INTER>
-18.0997

>  <SCORE.INTER.CONST>
1

>  <SCORE.INTER.POLAR>
0

>  <SCORE.INTER.ROT>
7

>  <SCORE.INTER.SOLV>
18.3872

>  <SCORE.INTER.VDW>
-26.4622

>  <SCORE.INTER.norm>
-0.696142

>  <SCORE.INTRA>
-2.01021

>  <SCORE.INTRA.DIHEDRAL>
-3.06491

>  <SCORE.INTRA.DIHEDRAL.0>
10.1225

>  <SCORE.INTRA.POLAR>
0

>  <SCORE.INTRA.POLAR.0>
0

>  <SCORE.INTRA.REPUL>
0

>  <SCORE.INTRA.REPUL.0>
0

>  <SCORE.INTRA.SOLV>
0.755428

>  <SCORE.INTRA.SOLV.lig_0>
-49.9393

>  <SCORE.INTRA.VDW>
-0.855472

>  <SCORE.INTRA.VDW.0>
-1.75437

>  <SCORE.INTRA.norm>
-0.0773159

>  <SCORE.RESTR>
0

>  <SCORE.RESTR.CAVITY>
0

>  <SCORE.RESTR.norm>
0

>  <SCORE.SYSTEM>
0

>  <SCORE.SYSTEM.CONST>
0

>  <SCORE.SYSTEM.DIHEDRAL>
0

>  <SCORE.SYSTEM.SOLV>
0

>  <SCORE.SYSTEM.norm>
0

>  <SCORE.heavy>
26

>  <SCORE.norm>
-0.773458

>  <RMSD>
1.672

$$$$
ligand
 OpenBabel11021811473D
libRbt.so/2013.1/901 2013/11/27
 26 28  0  0  0  0  0  0  0  0999 V2000
  -14.6618    8.1062  -15.9585 N   0  0  0  0  0  0  0  0  0  0  0  0
  -14.4963    8.0305  -17.4153 C   0  0  2  0  0  0  0  0  0  0  0  0
  -13.5321    6.9239  -17.7530 C   0  0  0  0  0  0  0  0  0  0  0  0
  -12.8027    6.4754  -16.8998 O   0  0  0  0  0  0  0  0  0  0  0  0
  -13.9495    9.3610  -17.9353 C   0  0  0  0  0  0  0  0  0  0  0  0
  -13.8380    9.3069  -19.4578 C   0  0  0  0  0  0  0  0  0  0  0  0
  -13.7632   10.7376  -20.3698 S   0  0  0  0  0  0  0  0  0  0  0  0
  -12.8442   12.2984  -20.3489 C   0  0  0  0  0  0  0  0  0  0  0  0
  -12.9798   13.1400  -21.6236 C   0  0  1  0  0  0  0  0  0  0  0  0
  -12.2850   14.3706  -21.5354 O   0  0  0  0  0  0  0  0  0  0  0  0
  -12.3391   12.4712  -22.8168 C   0  0  1  0  0  0  0  0  0  0  0  0
  -12.9873   13.0305  -23.9382 O   0  0  0  0  0  0  0  0  0  0  0  0
  -10.9055   12.9484  -22.8156 C   0  0  1  0  0  0  0  0  0  0  0  0
  -10.4930   13.2181  -24.1376 O   0  0  0  0  0  0  0  0  0  0  0  0
  -10.9661   14.2418  -22.0321 C   0  0  2  0  0  0  0  0  0  0  0  0
  -13.4797    6.4358  -19.0032 O   0  0  0  0  0  0  0  0  0  0  0  0
   -6.8099   16.6021  -19.9418 N   0  0  0  0  0  0  0  0  0  0  0  0
   -7.3750   16.8165  -21.1766 C   0  0  0  0  0  0  0  0  0  0  0  0
   -8.4705   16.0796  -21.5572 N   0  0  0  0  0  0  0  0  0  0  0  0
   -8.9960   15.1522  -20.7332 C   0  0  0  0  0  0  0  0  0  0  0  0
   -8.4441   14.9213  -19.4872 C   0  0  0  0  0  0  0  0  0  0  0  0
   -7.3337   15.6590  -19.0937 C   0  0  0  0  0  0  0  0  0  0  0  0
   -6.7698   15.4668  -17.9077 N   0  0  0  0  0  0  0  0  0  0  0  0
   -9.1615   13.9497  -18.8799 N   0  0  0  0  0  0  0  0  0  0  0  0
  -10.1506   13.5736  -19.7137 C   0  0  0  0  0  0  0  0  0  0  0  0
  -10.0569   14.3009  -20.8728 N   0  0  0  0  0  0  0  0  0  0  0  0
  2  1  1  1  0  0  0
  2  3  1  0  0  0  0
  2  5  1  0  0  0  0
  3  4  1  0  0  0  0
  3 16  1  0  0  0  0
  5  6  1  0  0  0  0
  6  7  1  0  0  0  0
  7  8  1  0  0  0  0
  9  8  1  1  0  0  0
  9 10  1  0  0  0  0
  9 11  1  0  0  0  0
 10 15  1  0  0  0  0
 11 12  1  6  0  0  0
 11 13  1  0  0  0  0
 13 14  1  6  0  0  0
 13 15  1  0  0  0  0
 15 26  1  1  0  0  0
 17 18  2  0  0  0  0
 17 22  1  0  0  0  0
 18 19  1  0  0  0  0
 19 20  2  0  0  0  0
 20 21  1  0  0  0  0
 20 26  1  0  0  0  0
 21 22  2  0  0  0  0
 21 24  1  0  0  0  0
 22 23  1  0  0  0  0
 24 25  2  0  0  0  0
 25 26  1  0  0  0  0
M  END
>  <CHROM.1>
-17.23032431,-177.37765630,159.70991861,48.50705718,167.46331555,177.73263334
-126.21330537,-11.35242621,12.27729107,-20.16722301,-2.40967606,-0.71973959
-0.97357747

>  <Name>
ligand

>  <RI>
0

>  <Rbt.Current_Directory>
/home/itssahil/PROJECTS/Mol_Feturizer/New_Systems/rnas/3E5E

>  <Rbt.Executable>
rbdock ($Id: //depot/dev/client3/rdock/2013.1/src/exe/rbdock.cxx#4 $)

>  <Rbt.Library>
libRbt.so (2013.1, Build901 2013/11/27)

>  <Rbt.Parameter_File>
/export/apps/rDock/src/rDock_2013.1_src/data/scripts/dock_solv.prm

>  <Rbt.Receptor>
prm/pocket_docking_3.prm

>  <SCORE>
-21.0208

>  <SCORE.INTER>
-18.2852

>  <SCORE.INTER.CONST>
1

>  <SCORE.INTER.POLAR>
0

>  <SCORE.INTER.ROT>
7

>  <SCORE.INTER.SOLV>
20.1655

>  <SCORE.INTER.VDW>
-27.1786

>  <SCORE.INTER.norm>
-0.703276

>  <SCORE.INTRA>
-2.73563

>  <SCORE.INTRA.DIHEDRAL>
-5.47199

>  <SCORE.INTRA.DIHEDRAL.0>
10.1225

>  <SCORE.INTRA.POLAR>
0

>  <SCORE.INTRA.POLAR.0>
0

>  <SCORE.INTRA.REPUL>
0

>  <SCORE.INTRA.REPUL.0>
0

>  <SCORE.INTRA.SOLV>
-0.655326

>  <SCORE.INTRA.SOLV.lig_0>
-49.9393

>  <SCORE.INTRA.VDW>
0.328027

>  <SCORE.INTRA.VDW.0>
-1.75437

>  <SCORE.INTRA.norm>
-0.105217

>  <SCORE.RESTR>
0

>  <SCORE.RESTR.CAVITY>
0

>  <SCORE.RESTR.norm>
0

>  <SCORE.SYSTEM>
0

>  <SCORE.SYSTEM.CONST>
0

>  <SCORE.SYSTEM.DIHEDRAL>
0

>  <SCORE.SYSTEM.SOLV>
0

>  <SCORE.SYSTEM.norm>
0

>  <SCORE.heavy>
26

>  <SCORE.norm>
-0.808492

>  <RMSD>
1.682

$$$$
ligand
 OpenBabel11021811473D
libRbt.so/2013.1/901 2013/11/27
 26 28  0  0  0  0  0  0  0  0999 V2000
  -16.7487    8.2353  -18.3635 N   0  0  0  0  0  0  0  0  0  0  0  0
  -15.6821    7.5946  -17.5840 C   0  0  2  0  0  0  0  0  0  0  0  0
  -14.8836    8.6502  -16.8656 C   0  0  0  0  0  0  0  0  0  0  0  0
  -15.0629    9.8192  -17.1152 O   0  0  0  0  0  0  0  0  0  0  0  0
  -14.7646    6.8115  -18.5245 C   0  0  0  0  0  0  0  0  0  0  0  0
  -14.1860    7.7561  -19.5765 C   0  0  0  0  0  0  0  0  0  0  0  0
  -12.9217    8.8188  -19.1813 S   0  0  0  0  0  0  0  0  0  0  0  0
  -12.4838   10.5527  -19.4691 C   0  0  0  0  0  0  0  0  0  0  0  0
  -12.6461   11.0232  -20.9196 C   0  0  1  0  0  0  0  0  0  0  0  0
  -12.2869   12.3822  -21.0905 O   0  0  0  0  0  0  0  0  0  0  0  0
  -11.7090   10.3018  -21.8592 C   0  0  1  0  0  0  0  0  0  0  0  0
  -12.3165   10.4051  -23.1284 O   0  0  0  0  0  0  0  0  0  0  0  0
  -10.4463   11.1315  -21.8731 C   0  0  1  0  0  0  0  0  0  0  0  0
   -9.9376   11.2010  -23.1873 O   0  0  0  0  0  0  0  0  0  0  0  0
  -10.9215   12.5024  -21.4428 C   0  0  2  0  0  0  0  0  0  0  0  0
  -13.9692    8.2938  -15.9485 O   0  0  0  0  0  0  0  0  0  0  0  0
   -7.8899   16.3642  -19.6792 N   0  0  0  0  0  0  0  0  0  0  0  0
   -8.3341   16.1537  -20.9632 C   0  0  0  0  0  0  0  0  0  0  0  0
   -9.1221   15.0618  -21.2367 N   0  0  0  0  0  0  0  0  0  0  0  0
   -9.4643   14.1984  -20.2607 C   0  0  0  0  0  0  0  0  0  0  0  0
   -9.0295   14.3917  -18.9630 C   0  0  0  0  0  0  0  0  0  0  0  0
   -8.2291   15.4914  -18.6763 C   0  0  0  0  0  0  0  0  0  0  0  0
   -7.7862   15.7128  -17.4448 N   0  0  0  0  0  0  0  0  0  0  0  0
   -9.5149   13.3871  -18.1997 N   0  0  0  0  0  0  0  0  0  0  0  0
  -10.2466   12.5758  -18.9881 C   0  0  0  0  0  0  0  0  0  0  0  0
  -10.2174   13.0571  -20.2721 N   0  0  0  0  0  0  0  0  0  0  0  0
  2  1  1  6  0  0  0
  2  3  1  0  0  0  0
  2  5  1  0  0  0  0
  3  4  1  0  0  0  0
  3 16  1  0  0  0  0
  5  6  1  0  0  0  0
  6  7  1  0  0  0  0
  7  8  1  0  0  0  0
  9  8  1  1  0  0  0
  9 10  1  0  0  0  0
  9 11  1  0  0  0  0
 10 15  1  0  0  0  0
 11 12  1  6  0  0  0
 11 13  1  0  0  0  0
 13 14  1  6  0  0  0
 13 15  1  0  0  0  0
 15 26  1  1  0  0  0
 17 18  2  0  0  0  0
 17 22  1  0  0  0  0
 18 19  1  0  0  0  0
 19 20  2  0  0  0  0
 20 21  1  0  0  0  0
 20 26  1  0  0  0  0
 21 22  2  0  0  0  0
 21 24  1  0  0  0  0
 22 23  1  0  0  0  0
 24 25  2  0  0  0  0
 25 26  1  0  0  0  0
M  END
>  <CHROM.1>
-9.14251319,57.96300601,76.69354304,-136.04145213,-46.71888937,-179.80339435
-123.47477900,-11.70477860,11.39586441,-19.63856465,-3.11608625,-0.85515098
-1.79886313

>  <Name>
ligand

>  <RI>
0

>  <Rbt.Current_Directory>
/home/itssahil/PROJECTS/Mol_Feturizer/New_Systems/rnas/3E5E

>  <Rbt.Executable>
rbdock ($Id: //depot/dev/client3/rdock/2013.1/src/exe/rbdock.cxx#4 $)

>  <Rbt.Library>
libRbt.so (2013.1, Build901 2013/11/27)

>  <Rbt.Parameter_File>
/export/apps/rDock/src/rDock_2013.1_src/data/scripts/dock_solv.prm

>  <Rbt.Receptor>
prm/pocket_docking_2.prm

>  <SCORE>
-16.0306

>  <SCORE.INTER>
-14.2499

>  <SCORE.INTER.CONST>
1

>  <SCORE.INTER.POLAR>
0

>  <SCORE.INTER.ROT>
7

>  <SCORE.INTER.SOLV>
15.7356

>  <SCORE.INTER.VDW>
-23.0118

>  <SCORE.INTER.norm>
-0.548075

>  <SCORE.INTRA>
-1.78514

>  <SCORE.INTRA.DIHEDRAL>
-4.11946

>  <SCORE.INTRA.DIHEDRAL.0>
10.1225

>  <SCORE.INTRA.POLAR>
0

>  <SCORE.INTRA.POLAR.0>
0

>  <SCORE.INTRA.REPUL>
0

>  <SCORE.INTRA.REPUL.0>
0

>  <SCORE.INTRA.SOLV>
0.783479

>  <SCORE.INTRA.SOLV.lig_0>
-49.9393

>  <SCORE.INTRA.VDW>
-0.11715

>  <SCORE.INTRA.VDW.0>
-1.75437

>  <SCORE.INTRA.norm>
-0.0686592

>  <SCORE.RESTR>
0.00445837

>  <SCORE.RESTR.CAVITY>
0.00445837

>  <SCORE.RESTR.norm>
0.000171476

>  <SCORE.SYSTEM>
0

>  <SCORE.SYSTEM.CONST>
0

>  <SCORE.SYSTEM.DIHEDRAL>
0

>  <SCORE.SYSTEM.SOLV>
0

>  <SCORE.SYSTEM.norm>
0

>  <SCORE.heavy>
26

>  <SCORE.norm>
-0.616563

>  <RMSD>
1.695

$$$$
ligand
 OpenBabel11021811473D
libRbt.so/2013.1/901 2013/11/27
 26 28  0  0  0  0  0  0  0  0999 V2000
  -15.9805    8.0854  -16.6646 N   0  0  0  0  0  0  0  0  0  0  0  0
  -14.7621    8.4296  -17.4079 C   0  0  2  0  0  0  0  0  0  0  0  0
  -14.1296    9.6512  -16.7948 C   0  0  0  0  0  0  0  0  0  0  0  0
  -14.2686   10.7319  -17.3179 O   0  0  0  0  0  0  0  0  0  0  0  0
  -15.1201    8.7173  -18.8669 C   0  0  0  0  0  0  0  0  0  0  0  0
  -13.8778    8.5495  -19.7399 C   0  0  0  0  0  0  0  0  0  0  0  0
  -12.5499    9.5932  -19.5624 S   0  0  0  0  0  0  0  0  0  0  0  0
  -12.2456   11.3760  -19.4620 C   0  0  0  0  0  0  0  0  0  0  0  0
  -12.7742   12.1852  -20.6526 C   0  0  1  0  0  0  0  0  0  0  0  0
  -12.4264   13.5554  -20.5719 O   0  0  0  0  0  0  0  0  0  0  0  0
  -12.1491   11.7507  -21.9571 C   0  0  1  0  0  0  0  0  0  0  0  0
  -13.0704   12.1445  -22.9503 O   0  0  0  0  0  0  0  0  0  0  0  0
  -10.9079   12.6000  -22.1035 C   0  0  1  0  0  0  0  0  0  0  0  0
  -10.7679   13.0097  -23.4464 O   0  0  0  0  0  0  0  0  0  0  0  0
  -11.2020   13.8049  -21.2363 C   0  0  2  0  0  0  0  0  0  0  0  0
  -13.4080    9.5407  -15.6673 O   0  0  0  0  0  0  0  0  0  0  0  0
   -6.9707   16.5831  -19.9747 N   0  0  0  0  0  0  0  0  0  0  0  0
   -7.6584   16.5787  -21.1651 C   0  0  0  0  0  0  0  0  0  0  0  0
   -8.7527   15.7609  -21.3121 N   0  0  0  0  0  0  0  0  0  0  0  0
   -9.1585   14.9664  -20.3025 C   0  0  0  0  0  0  0  0  0  0  0  0
   -8.4822   14.9560  -19.0971 C   0  0  0  0  0  0  0  0  0  0  0  0
   -7.3719   15.7771  -18.9392 C   0  0  0  0  0  0  0  0  0  0  0  0
   -6.6909   15.7954  -17.8001 N   0  0  0  0  0  0  0  0  0  0  0  0
   -9.0974   14.0775  -18.2741 N   0  0  0  0  0  0  0  0  0  0  0  0
  -10.1440   13.5447  -18.9344 C   0  0  0  0  0  0  0  0  0  0  0  0
  -10.1909   14.0759  -20.1980 N   0  0  0  0  0  0  0  0  0  0  0  0
  2  1  1  1  0  0  0
  2  3  1  0  0  0  0
  2  5  1  0  0  0  0
  3  4  1  0  0  0  0
  3 16  1  0  0  0  0
  5  6  1  0  0  0  0
  6  7  1  0  0  0  0
  7  8  1  0  0  0  0
  9  8  1  1  0  0  0
  9 10  1  0  0  0  0
  9 11  1  0  0  0  0
 10 15  1  0  0  0  0
 11 12  1  6  0  0  0
 11 13  1  0  0  0  0
 13 14  1  6  0  0  0
 13 15  1  0  0  0  0
 15 26  1  1  0  0  0
 17 18  2  0  0  0  0
 17 22  1  0  0  0  0
 18 19  1  0  0  0  0
 19 20  2  0  0  0  0
 20 21  1  0  0  0  0
 20 26  1  0  0  0  0
 21 22  2  0  0  0  0
 21 24  1  0  0  0  0
 22 23  1  0  0  0  0
 24 25  2  0  0  0  0
 25 26  1  0  0  0  0
M  END
>  <CHROM.1>
-101.78543174,-158.55327083,-65.46002143,-48.74498203,-56.41130254,-175.71335206
-144.50694892,-11.45716165,12.32654640,-19.63683499,-2.75973845,-0.76167379
-1.37012848

>  <Name>
ligand

>  <RI>
0

>  <Rbt.Current_Directory>
/home/itssahil/PROJECTS/Mol_Feturizer/New_Systems/rnas/3E5E

>  <Rbt.Executable>
rbdock ($Id: //depot/dev/client3/rdock/2013.1/src/exe/rbdock.cxx#4 $)

>  <Rbt.Library>
libRbt.so (2013.1, Build901 2013/11/27)

>  <Rbt.Parameter_File>
/export/apps/rDock/src/rDock_2013.1_src/data/scripts/dock_solv.prm

>  <Rbt.Receptor>
prm/pocket_docking_4.prm

>  <SCORE>
-20.2232

>  <SCORE.INTER>
-17.4498

>  <SCORE.INTER.CONST>
1

>  <SCORE.INTER.POLAR>
0

>  <SCORE.INTER.ROT>
7

>  <SCORE.INTER.SOLV>
17.6109

>  <SCORE.INTER.VDW>
-25.7702

>  <SCORE.INTER.norm>
-0.671145

>  <SCORE.INTRA>
-2.77341

>  <SCORE.INTRA.DIHEDRAL>
-5.24383

>  <SCORE.INTRA.DIHEDRAL.0>
10.1225

>  <SCORE.INTRA.POLAR>
0

>  <SCORE.INTRA.POLAR.0>
0

>  <SCORE.INTRA.REPUL>
0

>  <SCORE.INTRA.REPUL.0>
0

>  <SCORE.INTRA.SOLV>
-0.390969

>  <SCORE.INTRA.SOLV.lig_0>
-49.9393

>  <SCORE.INTRA.VDW>
0.0439913

>  <SCORE.INTRA.VDW.0>
-1.75437

>  <SCORE.INTRA.norm>
-0.106669

>  <SCORE.RESTR>
0

>  <SCORE.RESTR.CAVITY>
0

>  <SCORE.RESTR.norm>
0

>  <SCORE.SYSTEM>
0

>  <SCORE.SYSTEM.CONST>
0

>  <SCORE.SYSTEM.DIHEDRAL>
0

>  <SCORE.SYSTEM.SOLV>
0

>  <SCORE.SYSTEM.norm>
0

>  <SCORE.heavy>
26

>  <SCORE.norm>
-0.777815

>  <RMSD>
1.712

$$$$
ligand
 OpenBabel11021811473D
libRbt.so/2013.1/901 2013/11/27
 26 28  0  0  0  0  0  0  0  0999 V2000
  -14.4875    7.6389  -16.1345 N   0  0  0  0  0  0  0  0  0  0  0  0
  -14.2655    7.4894  -17.5781 C   0  0  2  0  0  0  0  0  0  0  0  0
  -13.4018    6.2815  -17.8296 C   0  0  0  0  0  0  0  0  0  0  0  0
  -13.3963    5.7576  -18.9188 O   0  0  0  0  0  0  0  0  0  0  0  0
  -13.5668    8.7386  -18.1176 C   0  0  0  0  0  0  0  0  0  0  0  0
  -13.6830    8.7707  -19.6405 C   0  0  0  0  0  0  0  0  0  0  0  0
  -13.0034   10.0466  -20.5318 S   0  0  0  0  0  0  0  0  0  0  0  0
  -12.6340   11.8040  -20.2954 C   0  0  0  0  0  0  0  0  0  0  0  0
  -12.9561   12.6953  -21.5011 C   0  0  1  0  0  0  0  0  0  0  0  0
  -12.4935   14.0227  -21.3309 O   0  0  0  0  0  0  0  0  0  0  0  0
  -12.2390   12.2416  -22.7506 C   0  0  1  0  0  0  0  0  0  0  0  0
  -13.0093   12.7514  -23.8169 O   0  0  0  0  0  0  0  0  0  0  0  0
  -10.9161   12.9715  -22.7349 C   0  0  1  0  0  0  0  0  0  0  0  0
  -10.5971   13.4055  -24.0390 O   0  0  0  0  0  0  0  0  0  0  0  0
  -11.1878   14.1729  -21.8555 C   0  0  2  0  0  0  0  0  0  0  0  0
  -12.6384    5.7835  -16.8430 O   0  0  0  0  0  0  0  0  0  0  0  0
   -6.9216   16.5544  -20.0274 N   0  0  0  0  0  0  0  0  0  0  0  0
   -7.4820   16.6610  -21.2782 C   0  0  0  0  0  0  0  0  0  0  0  0
   -8.6108   15.9374  -21.5785 N   0  0  0  0  0  0  0  0  0  0  0  0
   -9.1735   15.1276  -20.6604 C   0  0  0  0  0  0  0  0  0  0  0  0
   -8.6269   15.0063  -19.3967 C   0  0  0  0  0  0  0  0  0  0  0  0
   -7.4831   15.7315  -19.0838 C   0  0  0  0  0  0  0  0  0  0  0  0
   -6.9230   15.6417  -17.8838 N   0  0  0  0  0  0  0  0  0  0  0  0
   -9.3841   14.1381  -18.6895 N   0  0  0  0  0  0  0  0  0  0  0  0
  -10.3926   13.7198  -19.4789 C   0  0  0  0  0  0  0  0  0  0  0  0
  -10.2718   14.3145  -20.7089 N   0  0  0  0  0  0  0  0  0  0  0  0
  2  1  1  1  0  0  0
  2  3  1  0  0  0  0
  2  5  1  0  0  0  0
  3  4  1  0  0  0  0
  3 16  1  0  0  0  0
  5  6  1  0  0  0  0
  6  7  1  0  0  0  0
  7  8  1  0  0  0  0
  9  8  1  1  0  0  0
  9 10  1  0  0  0  0
  9 11  1  0  0  0  0
 10 15  1  0  0  0  0
 11 12  1  6  0  0  0
 11 13  1  0  0  0  0
 13 14  1  6  0  0  0
 13 15  1  0  0  0  0
 15 26  1  1  0  0  0
 17 18  2  0  0  0  0
 17 22  1  0  0  0  0
 18 19  1  0  0  0  0
 19 20  2  0  0  0  0
 20 21  1  0  0  0  0
 20 26  1  0  0  0  0
 21 22  2  0  0  0  0
 21 24  1  0  0  0  0
 22 23  1  0  0  0  0
 24 25  2  0  0  0  0
 25 26  1  0  0  0  0
M  END
>  <CHROM.1>
159.43943481,-164.22957958,179.87060604,-29.44915173,-138.32122148,-172.42984397
-142.90822577,-11.30729195,12.00853597,-20.14785319,-2.36411569,-0.79233905
-0.92747037

>  <Name>
ligand

>  <RI>
0

>  <Rbt.Current_Directory>
/home/itssahil/PROJECTS/Mol_Feturizer/New_Systems/rnas/3E5E

>  <Rbt.Executable>
rbdock ($Id: //depot/dev/client3/rdock/2013.1/src/exe/rbdock.cxx#4 $)

>  <Rbt.Library>
libRbt.so (2013.1, Build901 2013/11/27)

>  <Rbt.Parameter_File>
/export/apps/rDock/src/rDock_2013.1_src/data/scripts/dock_solv.prm

>  <Rbt.Receptor>
prm/pocket_docking_7.prm

>  <SCORE>
-20.3825

>  <SCORE.INTER>
-18.4025

>  <SCORE.INTER.CONST>
1

>  <SCORE.INTER.POLAR>
0

>  <SCORE.INTER.ROT>
7

>  <SCORE.INTER.SOLV>
19.496

>  <SCORE.INTER.VDW>
-27.0336

>  <SCORE.INTER.norm>
-0.707787

>  <SCORE.INTRA>
-1.98008

>  <SCORE.INTRA.DIHEDRAL>
-3.03761

>  <SCORE.INTRA.DIHEDRAL.0>
10.1225

>  <SCORE.INTRA.POLAR>
0

>  <SCORE.INTRA.POLAR.0>
0

>  <SCORE.INTRA.REPUL>
0

>  <SCORE.INTRA.REPUL.0>
0

>  <SCORE.INTRA.SOLV>
-0.555679

>  <SCORE.INTRA.SOLV.lig_0>
-49.9393

>  <SCORE.INTRA.VDW>
-0.183433

>  <SCORE.INTRA.VDW.0>
-1.75437

>  <SCORE.INTRA.norm>
-0.0761568

>  <SCORE.RESTR>
0

>  <SCORE.RESTR.CAVITY>
0

>  <SCORE.RESTR.norm>
0

>  <SCORE.SYSTEM>
0

>  <SCORE.SYSTEM.CONST>
0

>  <SCORE.SYSTEM.DIHEDRAL>
0

>  <SCORE.SYSTEM.SOLV>
0

>  <SCORE.SYSTEM.norm>
0

>  <SCORE.heavy>
26

>  <SCORE.norm>
-0.783944

>  <RMSD>
1.715

$$$$
ligand
 OpenBabel11021811473D
libRbt.so/2013.1/901 2013/11/27
 26 28  0  0  0  0  0  0  0  0999 V2000
  -16.4694    8.6740  -16.4039 N   0  0  0  0  0  0  0  0  0  0  0  0
  -15.2409    8.0358  -15.9149 C   0  0  2  0  0  0  0  0  0  0  0  0
  -15.1471    8.2080  -14.4217 C   0  0  0  0  0  0  0  0  0  0  0  0
  -15.1329    9.3166  -13.9401 O   0  0  0  0  0  0  0  0  0  0  0  0
  -14.0286    8.6880  -16.5817 C   0  0  0  0  0  0  0  0  0  0  0  0
  -14.0854    8.4491  -18.0895 C   0  0  0  0  0  0  0  0  0  0  0  0
  -12.9181    9.1319  -19.1167 S   0  0  0  0  0  0  0  0  0  0  0  0
  -12.2409   10.7724  -19.4790 C   0  0  0  0  0  0  0  0  0  0  0  0
  -12.3532   11.2032  -20.9465 C   0  0  1  0  0  0  0  0  0  0  0  0
  -11.9860   12.5566  -21.1421 O   0  0  0  0  0  0  0  0  0  0  0  0
  -11.3861   10.4555  -21.8337 C   0  0  1  0  0  0  0  0  0  0  0  0
  -11.9501   10.5245  -23.1250 O   0  0  0  0  0  0  0  0  0  0  0  0
  -10.1222   11.2834  -21.8274 C   0  0  1  0  0  0  0  0  0  0  0  0
   -9.5691   11.3165  -23.1250 O   0  0  0  0  0  0  0  0  0  0  0  0
  -10.6093   12.6660  -21.4511 C   0  0  2  0  0  0  0  0  0  0  0  0
  -15.0765    7.1301  -13.6236 O   0  0  0  0  0  0  0  0  0  0  0  0
   -7.6155   16.5610  -19.6960 N   0  0  0  0  0  0  0  0  0  0  0  0
   -8.0141   16.3140  -20.9883 C   0  0  0  0  0  0  0  0  0  0  0  0
   -8.7997   15.2192  -21.2572 N   0  0  0  0  0  0  0  0  0  0  0  0
   -9.1837   14.3883  -20.2685 C   0  0  0  0  0  0  0  0  0  0  0  0
   -8.7950   14.6186  -18.9623 C   0  0  0  0  0  0  0  0  0  0  0  0
   -7.9975   15.7215  -18.6800 C   0  0  0  0  0  0  0  0  0  0  0  0
   -7.5981   15.9778  -17.4405 N   0  0  0  0  0  0  0  0  0  0  0  0
   -9.3153   13.6410  -18.1871 N   0  0  0  0  0  0  0  0  0  0  0  0
  -10.0238   12.8105  -18.9767 C   0  0  0  0  0  0  0  0  0  0  0  0
   -9.9442   13.2519  -20.2728 N   0  0  0  0  0  0  0  0  0  0  0  0
  2  1  1  6  0  0  0
  2  3  1  0  0  0  0
  2  5  1  0  0  0  0
  3  4  1  0  0  0  0
  3 16  1  0  0  0  0
  5  6  1  0  0  0  0
  6  7  1  0  0  0  0
  7  8  1  0  0  0  0
  9  8  1  1  0  0  0
  9 10  1  0  0  0  0
  9 11  1  0  0  0  0
 10 15  1  0  0  0  0
 11 12  1  6  0  0  0
 11 13  1  0  0  0  0
 13 14  1  6  0  0  0
 13 15  1  0  0  0  0
 15 26  1  1  0  0  0
 17 18  2  0  0  0  0
 17 22  1  0  0  0  0
 18 19  1  0  0  0  0
 19 20  2  0  0  0  0
 20 21  1  0  0  0  0
 20 26  1  0  0  0  0
 21 22  2  0  0  0  0
 21 24  1  0  0  0  0
 22 23  1  0  0  0  0
 24 25  2  0  0  0  0
 25 26  1  0  0  0  0
M  END
>  <CHROM.1>
-58.82391508,-63.03803398,176.44867104,-54.45713082,-122.92573399,171.63976135
-123.87162052,-11.52123188,11.58649499,-19.06128572,-2.83543770,-0.86609916
-1.80856858

>  <Name>
ligand

>  <RI>
0

>  <Rbt.Current_Directory>
/home/itssahil/PROJECTS/Mol_Feturizer/New_Systems/rnas/3E5E

>  <Rbt.Executable>
rbdock ($Id: //depot/dev/client3/rdock/2013.1/src/exe/rbdock.cxx#4 $)

>  <Rbt.Library>
libRbt.so (2013.1, Build901 2013/11/27)

>  <Rbt.Parameter_File>
/export/apps/rDock/src/rDock_2013.1_src/data/scripts/dock_solv.prm

>  <Rbt.Receptor>
prm/pocket_docking_4.prm

>  <SCORE>
-18.7612

>  <SCORE.INTER>
-16.3793

>  <SCORE.INTER.CONST>
1

>  <SCORE.INTER.POLAR>
0

>  <SCORE.INTER.ROT>
7

>  <SCORE.INTER.SOLV>
16.3589

>  <SCORE.INTER.VDW>
-24.6392

>  <SCORE.INTER.norm>
-0.629975

>  <SCORE.INTRA>
-2.38183

>  <SCORE.INTRA.DIHEDRAL>
-4.64745

>  <SCORE.INTRA.DIHEDRAL.0>
10.1225

>  <SCORE.INTRA.POLAR>
0

>  <SCORE.INTRA.POLAR.0>
0

>  <SCORE.INTRA.REPUL>
0

>  <SCORE.INTRA.REPUL.0>
0

>  <SCORE.INTRA.SOLV>
0.0972293

>  <SCORE.INTRA.SOLV.lig_0>
-49.9393

>  <SCORE.INTRA.VDW>
-0.106716

>  <SCORE.INTRA.VDW.0>
-1.75437

>  <SCORE.INTRA.norm>
-0.0916087

>  <SCORE.RESTR>
0

>  <SCORE.RESTR.CAVITY>
0

>  <SCORE.RESTR.norm>
0

>  <SCORE.SYSTEM>
0

>  <SCORE.SYSTEM.CONST>
0

>  <SCORE.SYSTEM.DIHEDRAL>
0

>  <SCORE.SYSTEM.SOLV>
0

>  <SCORE.SYSTEM.norm>
0

>  <SCORE.heavy>
26

>  <SCORE.norm>
-0.721584

>  <RMSD>
1.716

$$$$
ligand
 OpenBabel11021811473D
libRbt.so/2013.1/901 2013/11/27
 26 28  0  0  0  0  0  0  0  0999 V2000
  -14.5028    6.5418  -20.4561 N   0  0  0  0  0  0  0  0  0  0  0  0
  -13.9643    7.4734  -19.4572 C   0  0  2  0  0  0  0  0  0  0  0  0
  -13.8932    6.7865  -18.1188 C   0  0  0  0  0  0  0  0  0  0  0  0
  -14.5764    5.8134  -17.9009 O   0  0  0  0  0  0  0  0  0  0  0  0
  -14.8783    8.6957  -19.3563 C   0  0  0  0  0  0  0  0  0  0  0  0
  -14.1740    9.7956  -18.5641 C   0  0  0  0  0  0  0  0  0  0  0  0
  -12.6832   10.4179  -19.0879 S   0  0  0  0  0  0  0  0  0  0  0  0
  -11.8677   10.8119  -20.6566 C   0  0  0  0  0  0  0  0  0  0  0  0
  -12.5959   11.8538  -21.5144 C   0  0  1  0  0  0  0  0  0  0  0  0
  -12.5155   13.1569  -20.9663 O   0  0  0  0  0  0  0  0  0  0  0  0
  -11.9588   12.0157  -22.8743 C   0  0  1  0  0  0  0  0  0  0  0  0
  -12.9830   12.5313  -23.6962 O   0  0  0  0  0  0  0  0  0  0  0  0
  -10.9126   13.0912  -22.6957 C   0  0  1  0  0  0  0  0  0  0  0  0
  -10.9155   13.9480  -23.8167 O   0  0  0  0  0  0  0  0  0  0  0  0
  -11.3937   13.8512  -21.4785 C   0  0  2  0  0  0  0  0  0  0  0  0
  -13.0726    7.2560  -17.1647 O   0  0  0  0  0  0  0  0  0  0  0  0
   -7.1530   16.3325  -19.7255 N   0  0  0  0  0  0  0  0  0  0  0  0
   -7.8070   16.5123  -20.9213 C   0  0  0  0  0  0  0  0  0  0  0  0
   -8.9105   15.7467  -21.2115 N   0  0  0  0  0  0  0  0  0  0  0  0
   -9.3578   14.8249  -20.3366 C   0  0  0  0  0  0  0  0  0  0  0  0
   -8.7158   14.6286  -19.1284 C   0  0  0  0  0  0  0  0  0  0  0  0
   -7.5966   15.3955  -18.8265 C   0  0  0  0  0  0  0  0  0  0  0  0
   -6.9476   15.2370  -17.6796 N   0  0  0  0  0  0  0  0  0  0  0  0
   -9.3686   13.6547  -18.4555 N   0  0  0  0  0  0  0  0  0  0  0  0
  -10.4052   13.2433  -19.2115 C   0  0  0  0  0  0  0  0  0  0  0  0
  -10.4076   13.9502  -20.3868 N   0  0  0  0  0  0  0  0  0  0  0  0
  2  1  1  6  0  0  0
  2  3  1  0  0  0  0
  2  5  1  0  0  0  0
  3  4  1  0  0  0  0
  3 16  1  0  0  0  0
  5  6  1  0  0  0  0
  6  7  1  0  0  0  0
  7  8  1  0  0  0  0
  9  8  1  1  0  0  0
  9 10  1  0  0  0  0
  9 11  1  0  0  0  0
 10 15  1  0  0  0  0
 11 12  1  6  0  0  0
 11 13  1  0  0  0  0
 13 14  1  6  0  0  0
 13 15  1  0  0  0  0
 15 26  1  1  0  0  0
 17 18  2  0  0  0  0
 17 22  1  0  0  0  0
 18 19  1  0  0  0  0
 19 20  2  0  0  0  0
 20 21  1  0  0  0  0
 20 26  1  0  0  0  0
 21 22  2  0  0  0  0
 21 24  1  0  0  0  0
 22 23  1  0  0  0  0
 24 25  2  0  0  0  0
 25 26  1  0  0  0  0
M  END
>  <CHROM.1>
-21.03982576,-167.46594093,58.66652517,36.77546347,59.83899941,71.29466607
-161.76293146,-11.43992253,11.89782669,-20.10976104,2.53444031,0.80432378
2.15438474

>  <Name>
ligand

>  <RI>
0

>  <Rbt.Current_Directory>
/home/itssahil/PROJECTS/Mol_Feturizer/New_Systems/rnas/3E5E

>  <Rbt.Executable>
rbdock ($Id: //depot/dev/client3/rdock/2013.1/src/exe/rbdock.cxx#4 $)

>  <Rbt.Library>
libRbt.so (2013.1, Build901 2013/11/27)

>  <Rbt.Parameter_File>
/export/apps/rDock/src/rDock_2013.1_src/data/scripts/dock_solv.prm

>  <Rbt.Receptor>
prm/pocket_docking_5.prm

>  <SCORE>
-20.2557

>  <SCORE.INTER>
-16.4462

>  <SCORE.INTER.CONST>
1

>  <SCORE.INTER.POLAR>
0

>  <SCORE.INTER.ROT>
7

>  <SCORE.INTER.SOLV>
18.9913

>  <SCORE.INTER.VDW>
-25.5612

>  <SCORE.INTER.norm>
-0.632545

>  <SCORE.INTRA>
-3.80952

>  <SCORE.INTRA.DIHEDRAL>
-5.49551

>  <SCORE.INTRA.DIHEDRAL.0>
10.1225

>  <SCORE.INTRA.POLAR>
0

>  <SCORE.INTRA.POLAR.0>
0

>  <SCORE.INTRA.REPUL>
0

>  <SCORE.INTRA.REPUL.0>
0

>  <SCORE.INTRA.SOLV>
-0.375837

>  <SCORE.INTRA.SOLV.lig_0>
-49.9393

>  <SCORE.INTRA.VDW>
-0.873843

>  <SCORE.INTRA.VDW.0>
-1.75437

>  <SCORE.INTRA.norm>
-0.14652

>  <SCORE.RESTR>
0

>  <SCORE.RESTR.CAVITY>
0

>  <SCORE.RESTR.norm>
0

>  <SCORE.SYSTEM>
0

>  <SCORE.SYSTEM.CONST>
0

>  <SCORE.SYSTEM.DIHEDRAL>
0

>  <SCORE.SYSTEM.SOLV>
0

>  <SCORE.SYSTEM.norm>
0

>  <SCORE.heavy>
26

>  <SCORE.norm>
-0.779065

>  <RMSD>
1.720

$$$$
ligand
 OpenBabel11021811473D
libRbt.so/2013.1/901 2013/11/27
 26 28  0  0  0  0  0  0  0  0999 V2000
  -14.4217    5.9512  -16.0664 N   0  0  0  0  0  0  0  0  0  0  0  0
  -13.7993    7.1217  -16.6974 C   0  0  2  0  0  0  0  0  0  0  0  0
  -14.3546    8.3781  -16.0798 C   0  0  0  0  0  0  0  0  0  0  0  0
  -15.5483    8.5077  -15.9408 O   0  0  0  0  0  0  0  0  0  0  0  0
  -14.1016    7.1126  -18.1968 C   0  0  0  0  0  0  0  0  0  0  0  0
  -13.2691    8.1883  -18.8918 C   0  0  0  0  0  0  0  0  0  0  0  0
  -13.6199    9.8341  -18.6630 S   0  0  0  0  0  0  0  0  0  0  0  0
  -12.9386   11.4360  -19.1641 C   0  0  0  0  0  0  0  0  0  0  0  0
  -12.9671   11.7013  -20.6743 C   0  0  1  0  0  0  0  0  0  0  0  0
  -12.3143   12.9083  -21.0235 O   0  0  0  0  0  0  0  0  0  0  0  0
  -12.1951   10.6594  -21.4488 C   0  0  1  0  0  0  0  0  0  0  0  0
  -12.7419   10.6941  -22.7489 O   0  0  0  0  0  0  0  0  0  0  0  0
  -10.7806   11.1859  -21.5191 C   0  0  1  0  0  0  0  0  0  0  0  0
  -10.2455   10.9411  -22.8015 O   0  0  0  0  0  0  0  0  0  0  0  0
  -10.9498   12.6764  -21.3190 C   0  0  2  0  0  0  0  0  0  0  0  0
  -13.5242    9.3572  -15.6852 O   0  0  0  0  0  0  0  0  0  0  0  0
   -7.6851   16.4721  -19.8532 N   0  0  0  0  0  0  0  0  0  0  0  0
   -8.2071   16.2384  -21.1034 C   0  0  0  0  0  0  0  0  0  0  0  0
   -9.0487   15.1696  -21.2970 N   0  0  0  0  0  0  0  0  0  0  0  0
   -9.3680   14.3514  -20.2753 C   0  0  0  0  0  0  0  0  0  0  0  0
   -8.8552   14.5687  -19.0103 C   0  0  0  0  0  0  0  0  0  0  0  0
   -8.0002   15.6452  -18.8045 C   0  0  0  0  0  0  0  0  0  0  0  0
   -7.4820   15.8881  -17.6070 N   0  0  0  0  0  0  0  0  0  0  0  0
   -9.3343   13.6083  -18.1885 N   0  0  0  0  0  0  0  0  0  0  0  0
  -10.1379   12.8013  -18.9083 C   0  0  0  0  0  0  0  0  0  0  0  0
  -10.1620   13.2403  -20.2075 N   0  0  0  0  0  0  0  0  0  0  0  0
  2  1  1  1  0  0  0
  2  3  1  0  0  0  0
  2  5  1  0  0  0  0
  3  4  1  0  0  0  0
  3 16  1  0  0  0  0
  5  6  1  0  0  0  0
  6  7  1  0  0  0  0
  7  8  1  0  0  0  0
  9  8  1  1  0  0  0
  9 10  1  0  0  0  0
  9 11  1  0  0  0  0
 10 15  1  0  0  0  0
 11 12  1  6  0  0  0
 11 13  1  0  0  0  0
 13 14  1  6  0  0  0
 13 15  1  0  0  0  0
 15 26  1  1  0  0  0
 17 18  2  0  0  0  0
 17 22  1  0  0  0  0
 18 19  1  0  0  0  0
 19 20  2  0  0  0  0
 20 21  1  0  0  0  0
 20 26  1  0  0  0  0
 21 22  2  0  0  0  0
 21 24  1  0  0  0  0
 22 23  1  0  0  0  0
 24 25  2  0  0  0  0
 25 26  1  0  0  0  0
M  END
>  <CHROM.1>
-47.73090413,-170.58376392,-70.79429671,176.68717197,63.50235047,-174.57108095
-109.96227681,-11.57394348,11.54467963,-19.28734204,-2.79833418,-0.89788197
-1.53475145

>  <Name>
ligand

>  <RI>
0

>  <Rbt.Current_Directory>
/home/itssahil/PROJECTS/Mol_Feturizer/New_Systems/rnas/3E5E

>  <Rbt.Executable>
rbdock ($Id: //depot/dev/client3/rdock/2013.1/src/exe/rbdock.cxx#4 $)

>  <Rbt.Library>
libRbt.so (2013.1, Build901 2013/11/27)

>  <Rbt.Parameter_File>
/export/apps/rDock/src/rDock_2013.1_src/data/scripts/dock_solv.prm

>  <Rbt.Receptor>
prm/pocket_docking_7.prm

>  <SCORE>
-21.1327

>  <SCORE.INTER>
-16.9834

>  <SCORE.INTER.CONST>
1

>  <SCORE.INTER.POLAR>
0

>  <SCORE.INTER.ROT>
7

>  <SCORE.INTER.SOLV>
17.5628

>  <SCORE.INTER.VDW>
-25.4432

>  <SCORE.INTER.norm>
-0.65321

>  <SCORE.INTRA>
-4.14921

>  <SCORE.INTRA.DIHEDRAL>
-6.5552

>  <SCORE.INTRA.DIHEDRAL.0>
10.1225

>  <SCORE.INTRA.POLAR>
0

>  <SCORE.INTRA.POLAR.0>
0

>  <SCORE.INTRA.REPUL>
0

>  <SCORE.INTRA.REPUL.0>
0

>  <SCORE.INTRA.SOLV>
-0.404649

>  <SCORE.INTRA.SOLV.lig_0>
-49.9393

>  <SCORE.INTRA.VDW>
-0.669286

>  <SCORE.INTRA.VDW.0>
-1.75437

>  <SCORE.INTRA.norm>
-0.159585

>  <SCORE.RESTR>
0

>  <SCORE.RESTR.CAVITY>
0

>  <SCORE.RESTR.norm>
0

>  <SCORE.SYSTEM>
0

>  <SCORE.SYSTEM.CONST>
0

>  <SCORE.SYSTEM.DIHEDRAL>
0

>  <SCORE.SYSTEM.SOLV>
0

>  <SCORE.SYSTEM.norm>
0

>  <SCORE.heavy>
26

>  <SCORE.norm>
-0.812795

>  <RMSD>
1.734

$$$$
ligand
 OpenBabel11021811473D
libRbt.so/2013.1/901 2013/11/27
 26 28  0  0  0  0  0  0  0  0999 V2000
  -15.8200    8.3729  -17.6238 N   0  0  0  0  0  0  0  0  0  0  0  0
  -14.5296    8.2011  -16.9449 C   0  0  2  0  0  0  0  0  0  0  0  0
  -14.1495    9.4866  -16.2586 C   0  0  0  0  0  0  0  0  0  0  0  0
  -13.8987    9.4902  -15.0761 O   0  0  0  0  0  0  0  0  0  0  0  0
  -13.4582    7.8348  -17.9734 C   0  0  0  0  0  0  0  0  0  0  0  0
  -13.5040    8.8275  -19.1336 C   0  0  0  0  0  0  0  0  0  0  0  0
  -12.0866    9.5921  -19.6725 S   0  0  0  0  0  0  0  0  0  0  0  0
  -11.4827   10.3958  -21.1793 C   0  0  0  0  0  0  0  0  0  0  0  0
  -12.4722   11.3725  -21.8263 C   0  0  1  0  0  0  0  0  0  0  0  0
  -12.6611   12.5428  -21.0520 O   0  0  0  0  0  0  0  0  0  0  0  0
  -11.9603   11.9122  -23.1410 C   0  0  1  0  0  0  0  0  0  0  0  0
  -13.1163   12.3101  -23.8450 O   0  0  0  0  0  0  0  0  0  0  0  0
  -11.1777   13.1536  -22.7815 C   0  0  1  0  0  0  0  0  0  0  0  0
  -11.4335   14.1677  -23.7285 O   0  0  0  0  0  0  0  0  0  0  0  0
  -11.7544   13.5573  -21.4417 C   0  0  2  0  0  0  0  0  0  0  0  0
  -14.0916   10.6312  -16.9590 O   0  0  0  0  0  0  0  0  0  0  0  0
   -7.4936   16.0838  -19.8061 N   0  0  0  0  0  0  0  0  0  0  0  0
   -8.1547   16.2230  -21.0034 C   0  0  0  0  0  0  0  0  0  0  0  0
   -9.2628   15.4517  -21.2588 N   0  0  0  0  0  0  0  0  0  0  0  0
   -9.7076   14.5635  -20.3486 C   0  0  0  0  0  0  0  0  0  0  0  0
   -9.0585   14.4082  -19.1382 C   0  0  0  0  0  0  0  0  0  0  0  0
   -7.9346   15.1813  -18.8712 C   0  0  0  0  0  0  0  0  0  0  0  0
   -7.2787   15.0615  -17.7236 N   0  0  0  0  0  0  0  0  0  0  0  0
   -9.7103   13.4616  -18.4267 N   0  0  0  0  0  0  0  0  0  0  0  0
  -10.7532   13.0273  -19.1608 C   0  0  0  0  0  0  0  0  0  0  0  0
  -10.7609   13.6916  -20.3607 N   0  0  0  0  0  0  0  0  0  0  0  0
  2  1  1  6  0  0  0
  2  3  1  0  0  0  0
  2  5  1  0  0  0  0
  3  4  1  0  0  0  0
  3 16  1  0  0  0  0
  5  6  1  0  0  0  0
  6  7  1  0  0  0  0
  7  8  1  0  0  0  0
  9  8  1  1  0  0  0
  9 10  1  0  0  0  0
  9 11  1  0  0  0  0
 10 15  1  0  0  0  0
 11 12  1  6  0  0  0
 11 13  1  0  0  0  0
 13 14  1  6  0  0  0
 13 15  1  0  0  0  0
 15 26  1  1  0  0  0
 17 18  2  0  0  0  0
 17 22  1  0  0  0  0
 18 19  1  0  0  0  0
 19 20  2  0  0  0  0
 20 21  1  0  0  0  0
 20 26  1  0  0  0  0
 21 22  2  0  0  0  0
 21 24  1  0  0  0  0
 22 23  1  0  0  0  0
 24 25  2  0  0  0  0
 25 26  1  0  0  0  0
M  END
>  <CHROM.1>
124.97012531,50.55032457,129.86870698,157.36089196,45.29167854,69.61460755
179.81125493,-11.55879698,12.08729896,-19.80280559,2.56390265,0.79421235
1.82854263

>  <Name>
ligand

>  <RI>
0

>  <Rbt.Current_Directory>
/home/itssahil/PROJECTS/Mol_Feturizer/New_Systems/rnas/3E5E

>  <Rbt.Executable>
rbdock ($Id: //depot/dev/client3/rdock/2013.1/src/exe/rbdock.cxx#4 $)

>  <Rbt.Library>
libRbt.so (2013.1, Build901 2013/11/27)

>  <Rbt.Parameter_File>
/export/apps/rDock/src/rDock_2013.1_src/data/scripts/dock_solv.prm

>  <Rbt.Receptor>
prm/pocket_docking_3.prm

>  <SCORE>
-19.024

>  <SCORE.INTER>
-18.8331

>  <SCORE.INTER.CONST>
1

>  <SCORE.INTER.POLAR>
0

>  <SCORE.INTER.ROT>
7

>  <SCORE.INTER.SOLV>
18.9061

>  <SCORE.INTER.VDW>
-27.1241

>  <SCORE.INTER.norm>
-0.724349

>  <SCORE.INTRA>
-0.192298

>  <SCORE.INTRA.DIHEDRAL>
-0.510382

>  <SCORE.INTRA.DIHEDRAL.0>
10.1225

>  <SCORE.INTRA.POLAR>
0

>  <SCORE.INTRA.POLAR.0>
0

>  <SCORE.INTRA.REPUL>
0

>  <SCORE.INTRA.REPUL.0>
0

>  <SCORE.INTRA.SOLV>
0.455642

>  <SCORE.INTRA.SOLV.lig_0>
-49.9393

>  <SCORE.INTRA.VDW>
-0.164928

>  <SCORE.INTRA.VDW.0>
-1.75437

>  <SCORE.INTRA.norm>
-0.00739608

>  <SCORE.RESTR>
0.00133984

>  <SCORE.RESTR.CAVITY>
0.00133984

>  <SCORE.RESTR.norm>
5.15322e-05

>  <SCORE.SYSTEM>
0

>  <SCORE.SYSTEM.CONST>
0

>  <SCORE.SYSTEM.DIHEDRAL>
0

>  <SCORE.SYSTEM.SOLV>
0

>  <SCORE.SYSTEM.norm>
0

>  <SCORE.heavy>
26

>  <SCORE.norm>
-0.731694

>  <RMSD>
1.739

$$$$
ligand
 OpenBabel11021811473D
libRbt.so/2013.1/901 2013/11/27
 26 28  0  0  0  0  0  0  0  0999 V2000
  -14.9419    8.2716  -16.3471 N   0  0  0  0  0  0  0  0  0  0  0  0
  -14.4671    8.3467  -17.7344 C   0  0  2  0  0  0  0  0  0  0  0  0
  -13.5787    7.1657  -18.0244 C   0  0  0  0  0  0  0  0  0  0  0  0
  -13.4781    6.7469  -19.1538 O   0  0  0  0  0  0  0  0  0  0  0  0
  -13.6769    9.6414  -17.9324 C   0  0  0  0  0  0  0  0  0  0  0  0
  -13.2736    9.7737  -19.3998 C   0  0  0  0  0  0  0  0  0  0  0  0
  -12.5682   11.2072  -19.9758 S   0  0  0  0  0  0  0  0  0  0  0  0
  -13.0591   12.9279  -20.2576 C   0  0  0  0  0  0  0  0  0  0  0  0
  -12.9698   13.3898  -21.7171 C   0  0  1  0  0  0  0  0  0  0  0  0
  -12.0279   14.4315  -21.8977 O   0  0  0  0  0  0  0  0  0  0  0  0
  -12.4527   12.3008  -22.6271 C   0  0  1  0  0  0  0  0  0  0  0  0
  -12.9294   12.6427  -23.9102 O   0  0  0  0  0  0  0  0  0  0  0  0
  -10.9505   12.4629  -22.6247 C   0  0  1  0  0  0  0  0  0  0  0  0
  -10.4488   12.2650  -23.9284 O   0  0  0  0  0  0  0  0  0  0  0  0
  -10.7535   13.9085  -22.2222 C   0  0  2  0  0  0  0  0  0  0  0  0
  -12.8992    6.5746  -17.0280 O   0  0  0  0  0  0  0  0  0  0  0  0
   -6.9400   16.7796  -20.1180 N   0  0  0  0  0  0  0  0  0  0  0  0
   -7.4899   16.8892  -21.3732 C   0  0  0  0  0  0  0  0  0  0  0  0
   -8.4874   16.0241  -21.7536 N   0  0  0  0  0  0  0  0  0  0  0  0
   -8.9319   15.0727  -20.9095 C   0  0  0  0  0  0  0  0  0  0  0  0
   -8.3935   14.9455  -19.6428 C   0  0  0  0  0  0  0  0  0  0  0  0
   -7.3817   15.8136  -19.2493 C   0  0  0  0  0  0  0  0  0  0  0  0
   -6.8339   15.7242  -18.0437 N   0  0  0  0  0  0  0  0  0  0  0  0
   -9.0177   13.9219  -19.0183 N   0  0  0  0  0  0  0  0  0  0  0  0
   -9.9360   13.4118  -19.8619 C   0  0  0  0  0  0  0  0  0  0  0  0
   -9.8893   14.1058  -21.0440 N   0  0  0  0  0  0  0  0  0  0  0  0
  2  1  1  1  0  0  0
  2  3  1  0  0  0  0
  2  5  1  0  0  0  0
  3  4  1  0  0  0  0
  3 16  1  0  0  0  0
  5  6  1  0  0  0  0
  6  7  1  0  0  0  0
  7  8  1  0  0  0  0
  9  8  1  1  0  0  0
  9 10  1  0  0  0  0
  9 11  1  0  0  0  0
 10 15  1  0  0  0  0
 11 12  1  6  0  0  0
 11 13  1  0  0  0  0
 13 14  1  6  0  0  0
 13 15  1  0  0  0  0
 15 26  1  1  0  0  0
 17 18  2  0  0  0  0
 17 22  1  0  0  0  0
 18 19  1  0  0  0  0
 19 20  2  0  0  0  0
 20 21  1  0  0  0  0
 20 26  1  0  0  0  0
 21 22  2  0  0  0  0
 21 24  1  0  0  0  0
 22 23  1  0  0  0  0
 24 25  2  0  0  0  0
 25 26  1  0  0  0  0
M  END
>  <CHROM.1>
152.71531649,-175.68899663,171.66517087,-67.89410868,-118.52879154,-116.81424783
-102.99195661,-11.21547494,12.33717285,-20.23315489,-2.46294413,-0.76007219
-1.04354648

>  <Name>
ligand

>  <RI>
0

>  <Rbt.Current_Directory>
/home/itssahil/PROJECTS/Mol_Feturizer/New_Systems/rnas/3E5E

>  <Rbt.Executable>
rbdock ($Id: //depot/dev/client3/rdock/2013.1/src/exe/rbdock.cxx#4 $)

>  <Rbt.Library>
libRbt.so (2013.1, Build901 2013/11/27)

>  <Rbt.Parameter_File>
/export/apps/rDock/src/rDock_2013.1_src/data/scripts/dock_solv.prm

>  <Rbt.Receptor>
prm/pocket_docking_3.prm

>  <SCORE>
-18.4649

>  <SCORE.INTER>
-19.2322

>  <SCORE.INTER.CONST>
1

>  <SCORE.INTER.POLAR>
0

>  <SCORE.INTER.ROT>
7

>  <SCORE.INTER.SOLV>
18.2525

>  <SCORE.INTER.VDW>
-27.1723

>  <SCORE.INTER.norm>
-0.739701

>  <SCORE.INTRA>
0.767308

>  <SCORE.INTRA.DIHEDRAL>
0.462884

>  <SCORE.INTRA.DIHEDRAL.0>
10.1225

>  <SCORE.INTRA.POLAR>
0

>  <SCORE.INTRA.POLAR.0>
0

>  <SCORE.INTRA.REPUL>
0

>  <SCORE.INTRA.REPUL.0>
0

>  <SCORE.INTRA.SOLV>
-0.330876

>  <SCORE.INTRA.SOLV.lig_0>
-49.9393

>  <SCORE.INTRA.VDW>
0.701304

>  <SCORE.INTRA.VDW.0>
-1.75437

>  <SCORE.INTRA.norm>
0.0295118

>  <SCORE.RESTR>
0

>  <SCORE.RESTR.CAVITY>
0

>  <SCORE.RESTR.norm>
0

>  <SCORE.SYSTEM>
0

>  <SCORE.SYSTEM.CONST>
0

>  <SCORE.SYSTEM.DIHEDRAL>
0

>  <SCORE.SYSTEM.SOLV>
0

>  <SCORE.SYSTEM.norm>
0

>  <SCORE.heavy>
26

>  <SCORE.norm>
-0.710189

>  <RMSD>
1.739

$$$$
ligand
 OpenBabel11021811473D
libRbt.so/2013.1/901 2013/11/27
 26 28  0  0  0  0  0  0  0  0999 V2000
  -15.4507    4.9246  -17.9350 N   0  0  0  0  0  0  0  0  0  0  0  0
  -14.2693    5.7870  -18.0623 C   0  0  2  0  0  0  0  0  0  0  0  0
  -13.7006    6.0624  -16.6952 C   0  0  0  0  0  0  0  0  0  0  0  0
  -14.3847    6.5909  -15.8504 O   0  0  0  0  0  0  0  0  0  0  0  0
  -14.6711    7.1063  -18.7239 C   0  0  0  0  0  0  0  0  0  0  0  0
  -13.4461    8.0111  -18.8434 C   0  0  0  0  0  0  0  0  0  0  0  0
  -13.5233    9.4565  -19.7317 S   0  0  0  0  0  0  0  0  0  0  0  0
  -12.4991   10.9265  -19.9984 C   0  0  0  0  0  0  0  0  0  0  0  0
  -12.4516   11.4208  -21.4493 C   0  0  1  0  0  0  0  0  0  0  0  0
  -11.9839   12.7534  -21.5514 O   0  0  0  0  0  0  0  0  0  0  0  0
  -11.4575   10.6456  -22.2814 C   0  0  1  0  0  0  0  0  0  0  0  0
  -11.8975   10.8024  -23.6126 O   0  0  0  0  0  0  0  0  0  0  0  0
  -10.1497   11.3867  -22.1278 C   0  0  1  0  0  0  0  0  0  0  0  0
   -9.4812   11.4335  -23.3694 O   0  0  0  0  0  0  0  0  0  0  0  0
  -10.5808   12.7829  -21.7338 C   0  0  2  0  0  0  0  0  0  0  0  0
  -12.4318    5.7235  -16.4139 O   0  0  0  0  0  0  0  0  0  0  0  0
   -7.6969   16.5214  -19.5156 N   0  0  0  0  0  0  0  0  0  0  0  0
   -8.0154   16.3724  -20.8447 C   0  0  0  0  0  0  0  0  0  0  0  0
   -8.7840   15.3047  -21.2414 N   0  0  0  0  0  0  0  0  0  0  0  0
   -9.2290   14.4055  -20.3421 C   0  0  0  0  0  0  0  0  0  0  0  0
   -8.9212   14.5368  -19.0010 C   0  0  0  0  0  0  0  0  0  0  0  0
   -8.1415   15.6115  -18.5898 C   0  0  0  0  0  0  0  0  0  0  0  0
   -7.8190   15.7736  -17.3125 N   0  0  0  0  0  0  0  0  0  0  0  0
   -9.4893   13.5077  -18.3335 N   0  0  0  0  0  0  0  0  0  0  0  0
  -10.1486   12.7415  -19.2243 C   0  0  0  0  0  0  0  0  0  0  0  0
   -9.9890   13.2767  -20.4769 N   0  0  0  0  0  0  0  0  0  0  0  0
  2  1  1  1  0  0  0
  2  3  1  0  0  0  0
  2  5  1  0  0  0  0
  3  4  1  0  0  0  0
  3 16  1  0  0  0  0
  5  6  1  0  0  0  0
  6  7  1  0  0  0  0
  7  8  1  0  0  0  0
  9  8  1  1  0  0  0
  9 10  1  0  0  0  0
  9 11  1  0  0  0  0
 10 15  1  0  0  0  0
 11 12  1  6  0  0  0
 11 13  1  0  0  0  0
 13 14  1  6  0  0  0
 13 15  1  0  0  0  0
 15 26  1  1  0  0  0
 17 18  2  0  0  0  0
 17 22  1  0  0  0  0
 18 19  1  0  0  0  0
 19 20  2  0  0  0  0
 20 21  1  0  0  0  0
 20 26  1  0  0  0  0
 21 22  2  0  0  0  0
 21 24  1  0  0  0  0
 22 23  1  0  0  0  0
 24 25  2  0  0  0  0
 25 26  1  0  0  0  0
M  END
>  <CHROM.1>
-58.57133813,179.38619823,171.36379365,169.89585669,138.68399199,162.67990050
-119.60459256,-11.35282259,11.11288288,-19.75305490,-2.73204292,-0.96521311
-1.36360185

>  <Name>
ligand

>  <RI>
0

>  <Rbt.Current_Directory>
/home/itssahil/PROJECTS/Mol_Feturizer/New_Systems/rnas/3E5E

>  <Rbt.Executable>
rbdock ($Id: //depot/dev/client3/rdock/2013.1/src/exe/rbdock.cxx#4 $)

>  <Rbt.Library>
libRbt.so (2013.1, Build901 2013/11/27)

>  <Rbt.Parameter_File>
/export/apps/rDock/src/rDock_2013.1_src/data/scripts/dock_solv.prm

>  <Rbt.Receptor>
prm/pocket_docking_4.prm

>  <SCORE>
-16.8153

>  <SCORE.INTER>
-14.5649

>  <SCORE.INTER.CONST>
1

>  <SCORE.INTER.POLAR>
0

>  <SCORE.INTER.ROT>
7

>  <SCORE.INTER.SOLV>
15.6277

>  <SCORE.INTER.VDW>
-23.1858

>  <SCORE.INTER.norm>
-0.560188

>  <SCORE.INTRA>
-2.25402

>  <SCORE.INTRA.DIHEDRAL>
-4.13997

>  <SCORE.INTRA.DIHEDRAL.0>
10.1225

>  <SCORE.INTRA.POLAR>
0

>  <SCORE.INTRA.POLAR.0>
0

>  <SCORE.INTRA.REPUL>
0

>  <SCORE.INTRA.REPUL.0>
0

>  <SCORE.INTRA.SOLV>
-0.708641

>  <SCORE.INTRA.SOLV.lig_0>
-49.9393

>  <SCORE.INTRA.VDW>
0.170281

>  <SCORE.INTRA.VDW.0>
-1.75437

>  <SCORE.INTRA.norm>
-0.0866932

>  <SCORE.RESTR>
0.00362274

>  <SCORE.RESTR.CAVITY>
0.00362274

>  <SCORE.RESTR.norm>
0.000139336

>  <SCORE.SYSTEM>
0

>  <SCORE.SYSTEM.CONST>
0

>  <SCORE.SYSTEM.DIHEDRAL>
0

>  <SCORE.SYSTEM.SOLV>
0

>  <SCORE.SYSTEM.norm>
0

>  <SCORE.heavy>
26

>  <SCORE.norm>
-0.646741

>  <RMSD>
1.741

$$$$
ligand
 OpenBabel11021811473D
libRbt.so/2013.1/901 2013/11/27
 26 28  0  0  0  0  0  0  0  0999 V2000
  -16.1410    8.3089  -18.2964 N   0  0  0  0  0  0  0  0  0  0  0  0
  -14.8735    8.2957  -19.0372 C   0  0  2  0  0  0  0  0  0  0  0  0
  -13.7250    8.3760  -18.0663 C   0  0  0  0  0  0  0  0  0  0  0  0
  -13.0435    7.4008  -17.8530 O   0  0  0  0  0  0  0  0  0  0  0  0
  -14.8258    9.4949  -19.9856 C   0  0  0  0  0  0  0  0  0  0  0  0
  -13.5818    9.3992  -20.8671 C   0  0  0  0  0  0  0  0  0  0  0  0
  -13.0921   10.7197  -21.8160 S   0  0  0  0  0  0  0  0  0  0  0  0
  -12.4167   12.3811  -21.5611 C   0  0  0  0  0  0  0  0  0  0  0  0
  -12.1143   13.1554  -22.8498 C   0  0  1  0  0  0  0  0  0  0  0  0
  -11.5130   14.4121  -22.5968 O   0  0  0  0  0  0  0  0  0  0  0  0
  -11.0886   12.4528  -23.7074 C   0  0  1  0  0  0  0  0  0  0  0  0
  -11.3155   12.9350  -25.0137 O   0  0  0  0  0  0  0  0  0  0  0  0
   -9.7524   12.9788  -23.2373 C   0  0  1  0  0  0  0  0  0  0  0  0
   -8.9106   13.1989  -24.3480 O   0  0  0  0  0  0  0  0  0  0  0  0
  -10.1018   14.3054  -22.5982 C   0  0  2  0  0  0  0  0  0  0  0  0
  -13.4583    9.5308  -17.4343 O   0  0  0  0  0  0  0  0  0  0  0  0
   -6.4006   16.1957  -19.4451 N   0  0  0  0  0  0  0  0  0  0  0  0
   -6.4384   16.2214  -20.8191 C   0  0  0  0  0  0  0  0  0  0  0  0
   -7.5026   15.6545  -21.4781 N   0  0  0  0  0  0  0  0  0  0  0  0
   -8.5079   15.0767  -20.7921 C   0  0  0  0  0  0  0  0  0  0  0  0
   -8.4904   15.0406  -19.4105 C   0  0  0  0  0  0  0  0  0  0  0  0
   -7.4168   15.6083  -18.7343 C   0  0  0  0  0  0  0  0  0  0  0  0
   -7.3576   15.5923  -17.4085 N   0  0  0  0  0  0  0  0  0  0  0  0
   -9.6085   14.4084  -18.9892 N   0  0  0  0  0  0  0  0  0  0  0  0
  -10.3257   14.0550  -20.0736 C   0  0  0  0  0  0  0  0  0  0  0  0
   -9.6531   14.4513  -21.2013 N   0  0  0  0  0  0  0  0  0  0  0  0
  2  1  1  1  0  0  0
  2  3  1  0  0  0  0
  2  5  1  0  0  0  0
  3  4  1  0  0  0  0
  3 16  1  0  0  0  0
  5  6  1  0  0  0  0
  6  7  1  0  0  0  0
  7  8  1  0  0  0  0
  9  8  1  1  0  0  0
  9 10  1  0  0  0  0
  9 11  1  0  0  0  0
 10 15  1  0  0  0  0
 11 12  1  6  0  0  0
 11 13  1  0  0  0  0
 13 14  1  6  0  0  0
 13 15  1  0  0  0  0
 15 26  1  1  0  0  0
 17 18  2  0  0  0  0
 17 22  1  0  0  0  0
 18 19  1  0  0  0  0
 19 20  2  0  0  0  0
 20 21  1  0  0  0  0
 20 26  1  0  0  0  0
 21 22  2  0  0  0  0
 21 24  1  0  0  0  0
 22 23  1  0  0  0  0
 24 25  2  0  0  0  0
 25 26  1  0  0  0  0
M  END
>  <CHROM.1>
106.98388303,-173.76390954,-168.45663693,68.40991299,178.27764996,-176.34901091
-144.04824233,-11.00741521,12.51447507,-20.76459040,-2.82157259,-0.76360843
-1.35713489

>  <Name>
ligand

>  <RI>
0

>  <Rbt.Current_Directory>
/home/itssahil/PROJECTS/Mol_Feturizer/New_Systems/rnas/3E5E

>  <Rbt.Executable>
rbdock ($Id: //depot/dev/client3/rdock/2013.1/src/exe/rbdock.cxx#4 $)

>  <Rbt.Library>
libRbt.so (2013.1, Build901 2013/11/27)

>  <Rbt.Parameter_File>
/export/apps/rDock/src/rDock_2013.1_src/data/scripts/dock_solv.prm

>  <Rbt.Receptor>
prm/pocket_docking_2.prm

>  <SCORE>
-17.8535

>  <SCORE.INTER>
-14.2629

>  <SCORE.INTER.CONST>
1

>  <SCORE.INTER.POLAR>
0

>  <SCORE.INTER.ROT>
7

>  <SCORE.INTER.SOLV>
17.5298

>  <SCORE.INTER.VDW>
-23.6185

>  <SCORE.INTER.norm>
-0.548573

>  <SCORE.INTRA>
-3.59064

>  <SCORE.INTRA.DIHEDRAL>
-6.5094

>  <SCORE.INTRA.DIHEDRAL.0>
10.1225

>  <SCORE.INTRA.POLAR>
0

>  <SCORE.INTRA.POLAR.0>
0

>  <SCORE.INTRA.REPUL>
0

>  <SCORE.INTRA.REPUL.0>
0

>  <SCORE.INTRA.SOLV>
-0.624134

>  <SCORE.INTRA.SOLV.lig_0>
-49.9393

>  <SCORE.INTRA.VDW>
-0.0238675

>  <SCORE.INTRA.VDW.0>
-1.75437

>  <SCORE.INTRA.norm>
-0.138101

>  <SCORE.RESTR>
0

>  <SCORE.RESTR.CAVITY>
0

>  <SCORE.RESTR.norm>
0

>  <SCORE.SYSTEM>
0

>  <SCORE.SYSTEM.CONST>
0

>  <SCORE.SYSTEM.DIHEDRAL>
0

>  <SCORE.SYSTEM.SOLV>
0

>  <SCORE.SYSTEM.norm>
0

>  <SCORE.heavy>
26

>  <SCORE.norm>
-0.686675

>  <RMSD>
1.788

$$$$
ligand
 OpenBabel11021811473D
libRbt.so/2013.1/901 2013/11/27
 26 28  0  0  0  0  0  0  0  0999 V2000
  -14.5643    6.1388  -19.3566 N   0  0  0  0  0  0  0  0  0  0  0  0
  -13.9760    7.4642  -19.5866 C   0  0  2  0  0  0  0  0  0  0  0  0
  -14.1997    8.3287  -18.3738 C   0  0  0  0  0  0  0  0  0  0  0  0
  -15.2733    8.3262  -17.8185 O   0  0  0  0  0  0  0  0  0  0  0  0
  -14.6385    8.1108  -20.8043 C   0  0  0  0  0  0  0  0  0  0  0  0
  -13.8242    9.3266  -21.2427 C   0  0  0  0  0  0  0  0  0  0  0  0
  -13.8065   10.7396  -20.3009 S   0  0  0  0  0  0  0  0  0  0  0  0
  -12.9146   12.3157  -20.2585 C   0  0  0  0  0  0  0  0  0  0  0  0
  -12.9865   13.1286  -21.5568 C   0  0  1  0  0  0  0  0  0  0  0  0
  -12.2351   14.3267  -21.4867 O   0  0  0  0  0  0  0  0  0  0  0  0
  -12.3572   12.3987  -22.7198 C   0  0  1  0  0  0  0  0  0  0  0  0
  -12.9573   12.9582  -23.8675 O   0  0  0  0  0  0  0  0  0  0  0  0
  -10.9025   12.8070  -22.7030 C   0  0  1  0  0  0  0  0  0  0  0  0
  -10.4537   13.0215  -24.0233 O   0  0  0  0  0  0  0  0  0  0  0  0
  -10.9151   14.1222  -21.9543 C   0  0  2  0  0  0  0  0  0  0  0  0
  -13.2073    9.1055  -17.9095 O   0  0  0  0  0  0  0  0  0  0  0  0
   -6.8567   16.5254  -19.7254 N   0  0  0  0  0  0  0  0  0  0  0  0
   -7.4090   16.7638  -20.9616 C   0  0  0  0  0  0  0  0  0  0  0  0
   -8.4781   16.0102  -21.3825 N   0  0  0  0  0  0  0  0  0  0  0  0
   -8.9903   15.0433  -20.5964 C   0  0  0  0  0  0  0  0  0  0  0  0
   -8.4509   14.7876  -19.3497 C   0  0  0  0  0  0  0  0  0  0  0  0
   -7.3672   15.5421  -18.9158 C   0  0  0  0  0  0  0  0  0  0  0  0
   -6.8159   15.3274  -17.7277 N   0  0  0  0  0  0  0  0  0  0  0  0
   -9.1504   13.7783  -18.7847 N   0  0  0  0  0  0  0  0  0  0  0  0
  -10.1163   13.4026  -19.6455 C   0  0  0  0  0  0  0  0  0  0  0  0
  -10.0253   14.1686  -20.7795 N   0  0  0  0  0  0  0  0  0  0  0  0
  2  1  1  1  0  0  0
  2  3  1  0  0  0  0
  2  5  1  0  0  0  0
  3  4  1  0  0  0  0
  3 16  1  0  0  0  0
  5  6  1  0  0  0  0
  6  7  1  0  0  0  0
  7  8  1  0  0  0  0
  9  8  1  1  0  0  0
  9 10  1  0  0  0  0
  9 11  1  0  0  0  0
 10 15  1  0  0  0  0
 11 12  1  6  0  0  0
 11 13  1  0  0  0  0
 13 14  1  6  0  0  0
 13 15  1  0  0  0  0
 15 26  1  1  0  0  0
 17 18  2  0  0  0  0
 17 22  1  0  0  0  0
 18 19  1  0  0  0  0
 19 20  2  0  0  0  0
 20 21  1  0  0  0  0
 20 26  1  0  0  0  0
 21 22  2  0  0  0  0
 21 24  1  0  0  0  0
 22 23  1  0  0  0  0
 24 25  2  0  0  0  0
 25 26  1  0  0  0  0
M  END
>  <CHROM.1>
-43.08318933,-166.94661353,-70.99754213,171.50786395,56.11927118,-177.89605279
-120.78537082,-11.47451895,12.31076399,-20.47228595,-2.69154039,-0.75810812
-1.05708998

>  <Name>
ligand

>  <RI>
0

>  <Rbt.Current_Directory>
/home/itssahil/PROJECTS/Mol_Feturizer/New_Systems/rnas/3E5E

>  <Rbt.Executable>
rbdock ($Id: //depot/dev/client3/rdock/2013.1/src/exe/rbdock.cxx#4 $)

>  <Rbt.Library>
libRbt.so (2013.1, Build901 2013/11/27)

>  <Rbt.Parameter_File>
/export/apps/rDock/src/rDock_2013.1_src/data/scripts/dock_solv.prm

>  <Rbt.Receptor>
prm/blind_docking_40.prm

>  <SCORE>
-20.11

>  <SCORE.INTER>
-16.1277

>  <SCORE.INTER.CONST>
1

>  <SCORE.INTER.POLAR>
0

>  <SCORE.INTER.ROT>
7

>  <SCORE.INTER.SOLV>
18.7557

>  <SCORE.INTER.VDW>
-25.2704

>  <SCORE.INTER.norm>
-0.620297

>  <SCORE.INTRA>
-3.98253

>  <SCORE.INTRA.DIHEDRAL>
-6.15652

>  <SCORE.INTRA.DIHEDRAL.0>
10.1225

>  <SCORE.INTRA.POLAR>
0

>  <SCORE.INTRA.POLAR.0>
0

>  <SCORE.INTRA.REPUL>
0

>  <SCORE.INTRA.REPUL.0>
0

>  <SCORE.INTRA.SOLV>
-0.410896

>  <SCORE.INTRA.SOLV.lig_0>
-49.9393

>  <SCORE.INTRA.VDW>
-0.698822

>  <SCORE.INTRA.VDW.0>
-1.75437

>  <SCORE.INTRA.norm>
-0.153174

>  <SCORE.RESTR>
0.00025753

>  <SCORE.RESTR.CAVITY>
0.00025753

>  <SCORE.RESTR.norm>
9.905e-06

>  <SCORE.SYSTEM>
0

>  <SCORE.SYSTEM.CONST>
0

>  <SCORE.SYSTEM.DIHEDRAL>
0

>  <SCORE.SYSTEM.SOLV>
0

>  <SCORE.SYSTEM.norm>
0

>  <SCORE.heavy>
26

>  <SCORE.norm>
-0.773461

>  <RMSD>
1.791

$$$$
ligand
 OpenBabel11021811473D
libRbt.so/2013.1/901 2013/11/27
 26 28  0  0  0  0  0  0  0  0999 V2000
  -15.2809    6.7101  -19.3226 N   0  0  0  0  0  0  0  0  0  0  0  0
  -15.0500    8.1577  -19.4032 C   0  0  2  0  0  0  0  0  0  0  0  0
  -15.8365    8.7270  -20.5546 C   0  0  0  0  0  0  0  0  0  0  0  0
  -16.1524    8.0179  -21.4810 O   0  0  0  0  0  0  0  0  0  0  0  0
  -13.5596    8.4240  -19.6213 C   0  0  0  0  0  0  0  0  0  0  0  0
  -13.2865    9.9225  -19.5051 C   0  0  0  0  0  0  0  0  0  0  0  0
  -11.7782   10.5627  -19.9514 S   0  0  0  0  0  0  0  0  0  0  0  0
  -10.7960   10.7625  -21.4602 C   0  0  0  0  0  0  0  0  0  0  0  0
  -11.4326   11.6634  -22.5255 C   0  0  1  0  0  0  0  0  0  0  0  0
  -11.7776   12.9396  -22.0183 O   0  0  0  0  0  0  0  0  0  0  0  0
  -10.4699   11.9893  -23.6429 C   0  0  1  0  0  0  0  0  0  0  0  0
  -11.2889   12.3146  -24.7446 O   0  0  0  0  0  0  0  0  0  0  0  0
   -9.7583   13.2459  -23.1984 C   0  0  1  0  0  0  0  0  0  0  0  0
   -9.6024   14.1178  -24.2967 O   0  0  0  0  0  0  0  0  0  0  0  0
  -10.7166   13.8583  -22.1999 C   0  0  2  0  0  0  0  0  0  0  0  0
  -16.1855   10.0240  -20.5545 O   0  0  0  0  0  0  0  0  0  0  0  0
   -7.2611   16.6806  -19.4966 N   0  0  0  0  0  0  0  0  0  0  0  0
   -7.4944   16.6964  -20.8514 C   0  0  0  0  0  0  0  0  0  0  0  0
   -8.4473   15.8622  -21.3843 N   0  0  0  0  0  0  0  0  0  0  0  0
   -9.1549   15.0321  -20.5935 C   0  0  0  0  0  0  0  0  0  0  0  0
   -8.9371   15.0008  -19.2290 C   0  0  0  0  0  0  0  0  0  0  0  0
   -7.9731   15.8383  -18.6802 C   0  0  0  0  0  0  0  0  0  0  0  0
   -7.7287   15.8377  -17.3756 N   0  0  0  0  0  0  0  0  0  0  0  0
   -9.7743   14.0880  -18.6874 N   0  0  0  0  0  0  0  0  0  0  0  0
  -10.5129   13.5539  -19.6796 C   0  0  0  0  0  0  0  0  0  0  0  0
  -10.1347   14.1194  -20.8706 N   0  0  0  0  0  0  0  0  0  0  0  0
  2  1  1  6  0  0  0
  2  3  1  0  0  0  0
  2  5  1  0  0  0  0
  3  4  1  0  0  0  0
  3 16  1  0  0  0  0
  5  6  1  0  0  0  0
  6  7  1  0  0  0  0
  7  8  1  0  0  0  0
  9  8  1  1  0  0  0
  9 10  1  0  0  0  0
  9 11  1  0  0  0  0
 10 15  1  0  0  0  0
 11 12  1  6  0  0  0
 11 13  1  0  0  0  0
 13 14  1  6  0  0  0
 13 15  1  0  0  0  0
 15 26  1  1  0  0  0
 17 18  2  0  0  0  0
 17 22  1  0  0  0  0
 18 19  1  0  0  0  0
 19 20  2  0  0  0  0
 20 21  1  0  0  0  0
 20 26  1  0  0  0  0
 21 22  2  0  0  0  0
 21 24  1  0  0  0  0
 22 23  1  0  0  0  0
 24 25  2  0  0  0  0
 25 26  1  0  0  0  0
M  END
>  <CHROM.1>
-24.30915645,-171.92099150,-169.73743683,65.90983642,63.13750226,54.21687913
-174.50144250,-11.28065916,12.30458180,-20.83646704,-3.11690023,-0.81916253
-1.53796311

>  <Name>
ligand

>  <RI>
0

>  <Rbt.Current_Directory>
/home/itssahil/PROJECTS/Mol_Feturizer/New_Systems/rnas/3E5E

>  <Rbt.Executable>
rbdock ($Id: //depot/dev/client3/rdock/2013.1/src/exe/rbdock.cxx#4 $)

>  <Rbt.Library>
libRbt.so (2013.1, Build901 2013/11/27)

>  <Rbt.Parameter_File>
/export/apps/rDock/src/rDock_2013.1_src/data/scripts/dock_solv.prm

>  <Rbt.Receptor>
prm/pocket_docking_4.prm

>  <SCORE>
-19.0712

>  <SCORE.INTER>
-14.8309

>  <SCORE.INTER.CONST>
1

>  <SCORE.INTER.POLAR>
0

>  <SCORE.INTER.ROT>
7

>  <SCORE.INTER.SOLV>
17.0269

>  <SCORE.INTER.VDW>
-23.8296

>  <SCORE.INTER.norm>
-0.570419

>  <SCORE.INTRA>
-4.24029

>  <SCORE.INTRA.DIHEDRAL>
-6.58586

>  <SCORE.INTRA.DIHEDRAL.0>
10.1225

>  <SCORE.INTRA.POLAR>
0

>  <SCORE.INTRA.POLAR.0>
0

>  <SCORE.INTRA.REPUL>
0

>  <SCORE.INTRA.REPUL.0>
0

>  <SCORE.INTRA.SOLV>
-0.479827

>  <SCORE.INTRA.SOLV.lig_0>
-49.9393

>  <SCORE.INTRA.VDW>
-0.70745

>  <SCORE.INTRA.VDW.0>
-1.75437

>  <SCORE.INTRA.norm>
-0.163088

>  <SCORE.RESTR>
0

>  <SCORE.RESTR.CAVITY>
0

>  <SCORE.RESTR.norm>
0

>  <SCORE.SYSTEM>
0

>  <SCORE.SYSTEM.CONST>
0

>  <SCORE.SYSTEM.DIHEDRAL>
0

>  <SCORE.SYSTEM.SOLV>
0

>  <SCORE.SYSTEM.norm>
0

>  <SCORE.heavy>
26

>  <SCORE.norm>
-0.733507

>  <RMSD>
1.799

$$$$
ligand
 OpenBabel11021811473D
libRbt.so/2013.1/901 2013/11/27
 26 28  0  0  0  0  0  0  0  0999 V2000
  -13.9270    7.8191  -16.3936 N   0  0  0  0  0  0  0  0  0  0  0  0
  -14.6381    6.7552  -17.1133 C   0  0  2  0  0  0  0  0  0  0  0  0
  -14.6350    5.4995  -16.2819 C   0  0  0  0  0  0  0  0  0  0  0  0
  -13.6102    5.1165  -15.7679 O   0  0  0  0  0  0  0  0  0  0  0  0
  -13.9381    6.4870  -18.4467 C   0  0  0  0  0  0  0  0  0  0  0  0
  -13.9482    7.7586  -19.2932 C   0  0  0  0  0  0  0  0  0  0  0  0
  -12.8611    9.0219  -18.9673 S   0  0  0  0  0  0  0  0  0  0  0  0
  -12.6918   10.7831  -19.3552 C   0  0  0  0  0  0  0  0  0  0  0  0
  -12.8533   11.1315  -20.8399 C   0  0  1  0  0  0  0  0  0  0  0  0
  -12.4139   12.4442  -21.1380 O   0  0  0  0  0  0  0  0  0  0  0  0
  -11.9815   10.2709  -21.7235 C   0  0  1  0  0  0  0  0  0  0  0  0
  -12.6063   10.2988  -22.9881 O   0  0  0  0  0  0  0  0  0  0  0  0
  -10.6702   11.0141  -21.8301 C   0  0  1  0  0  0  0  0  0  0  0  0
  -10.1842   10.9334  -23.1523 O   0  0  0  0  0  0  0  0  0  0  0  0
  -11.0509   12.4454  -21.5189 C   0  0  2  0  0  0  0  0  0  0  0  0
  -15.7704    4.8021  -16.1128 O   0  0  0  0  0  0  0  0  0  0  0  0
   -7.9837   16.4146  -20.0866 N   0  0  0  0  0  0  0  0  0  0  0  0
   -8.4958   16.1460  -21.3338 C   0  0  0  0  0  0  0  0  0  0  0  0
   -9.2814   15.0338  -21.5182 N   0  0  0  0  0  0  0  0  0  0  0  0
   -9.5555   14.2069  -20.4904 C   0  0  0  0  0  0  0  0  0  0  0  0
   -9.0516   14.4589  -19.2282 C   0  0  0  0  0  0  0  0  0  0  0  0
   -8.2530   15.5795  -19.0317 C   0  0  0  0  0  0  0  0  0  0  0  0
   -7.7452   15.8568  -17.8372 N   0  0  0  0  0  0  0  0  0  0  0  0
   -9.4783   13.4803  -18.3989 N   0  0  0  0  0  0  0  0  0  0  0  0
  -10.2408   12.6281  -19.1113 C   0  0  0  0  0  0  0  0  0  0  0  0
  -10.2907   13.0566  -20.4132 N   0  0  0  0  0  0  0  0  0  0  0  0
  2  1  1  1  0  0  0
  2  3  1  0  0  0  0
  2  5  1  0  0  0  0
  3  4  1  0  0  0  0
  3 16  1  0  0  0  0
  5  6  1  0  0  0  0
  6  7  1  0  0  0  0
  7  8  1  0  0  0  0
  9  8  1  1  0  0  0
  9 10  1  0  0  0  0
  9 11  1  0  0  0  0
 10 15  1  0  0  0  0
 11 12  1  6  0  0  0
 11 13  1  0  0  0  0
 13 14  1  6  0  0  0
 13 15  1  0  0  0  0
 15 26  1  1  0  0  0
 17 18  2  0  0  0  0
 17 22  1  0  0  0  0
 18 19  1  0  0  0  0
 19 20  2  0  0  0  0
 20 21  1  0  0  0  0
 20 26  1  0  0  0  0
 21 22  2  0  0  0  0
 21 24  1  0  0  0  0
 22 23  1  0  0  0  0
 24 25  2  0  0  0  0
 25 26  1  0  0  0  0
M  END
>  <CHROM.1>
-47.06961847,-60.37108083,77.56893348,-162.34766139,-49.58910660,-166.34011857
-117.77660457,-11.60882594,10.91469065,-19.52786944,-2.68556216,-0.96934032
-1.39023122

>  <Name>
ligand

>  <RI>
0

>  <Rbt.Current_Directory>
/home/itssahil/PROJECTS/Mol_Feturizer/New_Systems/rnas/3E5E

>  <Rbt.Executable>
rbdock ($Id: //depot/dev/client3/rdock/2013.1/src/exe/rbdock.cxx#4 $)

>  <Rbt.Library>
libRbt.so (2013.1, Build901 2013/11/27)

>  <Rbt.Parameter_File>
/export/apps/rDock/src/rDock_2013.1_src/data/scripts/dock_solv.prm

>  <Rbt.Receptor>
prm/pocket_docking_3.prm

>  <SCORE>
-16.7069

>  <SCORE.INTER>
-14.6562

>  <SCORE.INTER.CONST>
1

>  <SCORE.INTER.POLAR>
0

>  <SCORE.INTER.ROT>
7

>  <SCORE.INTER.SOLV>
17.9209

>  <SCORE.INTER.VDW>
-24.0111

>  <SCORE.INTER.norm>
-0.563701

>  <SCORE.INTRA>
-2.05182

>  <SCORE.INTRA.DIHEDRAL>
-5.04708

>  <SCORE.INTRA.DIHEDRAL.0>
10.1225

>  <SCORE.INTRA.POLAR>
0

>  <SCORE.INTRA.POLAR.0>
0

>  <SCORE.INTRA.REPUL>
0

>  <SCORE.INTRA.REPUL.0>
0

>  <SCORE.INTRA.SOLV>
1.60034

>  <SCORE.INTRA.SOLV.lig_0>
-49.9393

>  <SCORE.INTRA.VDW>
-0.328442

>  <SCORE.INTRA.VDW.0>
-1.75437

>  <SCORE.INTRA.norm>
-0.078916

>  <SCORE.RESTR>
0.00111967

>  <SCORE.RESTR.CAVITY>
0.00111967

>  <SCORE.RESTR.norm>
4.30642e-05

>  <SCORE.SYSTEM>
0

>  <SCORE.SYSTEM.CONST>
0

>  <SCORE.SYSTEM.DIHEDRAL>
0

>  <SCORE.SYSTEM.SOLV>
0

>  <SCORE.SYSTEM.norm>
0

>  <SCORE.heavy>
26

>  <SCORE.norm>
-0.642574

>  <RMSD>
1.803

$$$$
ligand
 OpenBabel11021811473D
libRbt.so/2013.1/901 2013/11/27
 26 28  0  0  0  0  0  0  0  0999 V2000
  -14.3718    7.8718  -16.5709 N   0  0  0  0  0  0  0  0  0  0  0  0
  -14.0270    7.2692  -17.8646 C   0  0  2  0  0  0  0  0  0  0  0  0
  -13.1436    6.0705  -17.6392 C   0  0  0  0  0  0  0  0  0  0  0  0
  -12.6116    5.9038  -16.5667 O   0  0  0  0  0  0  0  0  0  0  0  0
  -13.2862    8.2958  -18.7230 C   0  0  0  0  0  0  0  0  0  0  0  0
  -14.2684    9.3617  -19.2053 C   0  0  0  0  0  0  0  0  0  0  0  0
  -13.7691   10.5686  -20.2908 S   0  0  0  0  0  0  0  0  0  0  0  0
  -12.8103   12.1047  -20.2447 C   0  0  0  0  0  0  0  0  0  0  0  0
  -12.9683   12.9970  -21.4819 C   0  0  1  0  0  0  0  0  0  0  0  0
  -12.3029   14.2389  -21.3412 O   0  0  0  0  0  0  0  0  0  0  0  0
  -12.3140   12.3958  -22.7033 C   0  0  1  0  0  0  0  0  0  0  0  0
  -12.9773   12.9872  -23.7990 O   0  0  0  0  0  0  0  0  0  0  0  0
  -10.8921   12.9067  -22.6825 C   0  0  1  0  0  0  0  0  0  0  0  0
  -10.4886   13.2429  -23.9921 O   0  0  0  0  0  0  0  0  0  0  0  0
  -10.9822   14.1633  -21.8439 C   0  0  2  0  0  0  0  0  0  0  0  0
  -12.9437    5.1866  -18.6306 O   0  0  0  0  0  0  0  0  0  0  0  0
   -6.8402   16.4881  -19.6869 N   0  0  0  0  0  0  0  0  0  0  0  0
   -7.4075   16.7352  -20.9145 C   0  0  0  0  0  0  0  0  0  0  0  0
   -8.4984   16.0026  -21.3163 N   0  0  0  0  0  0  0  0  0  0  0  0
   -9.0172   15.0479  -20.5197 C   0  0  0  0  0  0  0  0  0  0  0  0
   -8.4629   14.7838  -19.2813 C   0  0  0  0  0  0  0  0  0  0  0  0
   -7.3572   15.5170  -18.8668 C   0  0  0  0  0  0  0  0  0  0  0  0
   -6.7911   15.2935  -17.6873 N   0  0  0  0  0  0  0  0  0  0  0  0
   -9.1735   13.7901  -18.7027 N   0  0  0  0  0  0  0  0  0  0  0  0
  -10.1607   13.4323  -19.5468 C   0  0  0  0  0  0  0  0  0  0  0  0
  -10.0726   14.1941  -20.6839 N   0  0  0  0  0  0  0  0  0  0  0  0
  2  1  1  1  0  0  0
  2  3  1  0  0  0  0
  2  5  1  0  0  0  0
  3  4  1  0  0  0  0
  3 16  1  0  0  0  0
  5  6  1  0  0  0  0
  6  7  1  0  0  0  0
  7  8  1  0  0  0  0
  9  8  1  1  0  0  0
  9 10  1  0  0  0  0
  9 11  1  0  0  0  0
 10 15  1  0  0  0  0
 11 12  1  6  0  0  0
 11 13  1  0  0  0  0
 13 14  1  6  0  0  0
 13 15  1  0  0  0  0
 15 26  1  1  0  0  0
 17 18  2  0  0  0  0
 17 22  1  0  0  0  0
 18 19  1  0  0  0  0
 19 20  2  0  0  0  0
 20 21  1  0  0  0  0
 20 26  1  0  0  0  0
 21 22  2  0  0  0  0
 21 24  1  0  0  0  0
 22 23  1  0  0  0  0
 24 25  2  0  0  0  0
 25 26  1  0  0  0  0
M  END
>  <CHROM.1>
-15.03933512,-72.29433462,-174.77223276,-76.57511751,-165.09234216,174.32383630
-127.47346446,-11.27878849,12.01668093,-20.06609027,-2.30312059,-0.71183034
-0.82122014

>  <Name>
ligand

>  <RI>
0

>  <Rbt.Current_Directory>
/home/itssahil/PROJECTS/Mol_Feturizer/New_Systems/rnas/3E5E

>  <Rbt.Executable>
rbdock ($Id: //depot/dev/client3/rdock/2013.1/src/exe/rbdock.cxx#4 $)

>  <Rbt.Library>
libRbt.so (2013.1, Build901 2013/11/27)

>  <Rbt.Parameter_File>
/export/apps/rDock/src/rDock_2013.1_src/data/scripts/dock_solv.prm

>  <Rbt.Receptor>
prm/pocket_docking_4.prm

>  <SCORE>
-22.148

>  <SCORE.INTER>
-19.0526

>  <SCORE.INTER.CONST>
1

>  <SCORE.INTER.POLAR>
0

>  <SCORE.INTER.ROT>
7

>  <SCORE.INTER.SOLV>
20.7668

>  <SCORE.INTER.VDW>
-27.8907

>  <SCORE.INTER.norm>
-0.732794

>  <SCORE.INTRA>
-3.09534

>  <SCORE.INTRA.DIHEDRAL>
-5.81616

>  <SCORE.INTRA.DIHEDRAL.0>
10.1225

>  <SCORE.INTRA.POLAR>
0

>  <SCORE.INTRA.POLAR.0>
0

>  <SCORE.INTRA.REPUL>
0

>  <SCORE.INTRA.REPUL.0>
0

>  <SCORE.INTRA.SOLV>
-0.047266

>  <SCORE.INTRA.SOLV.lig_0>
-49.9393

>  <SCORE.INTRA.VDW>
-0.16363

>  <SCORE.INTRA.VDW.0>
-1.75437

>  <SCORE.INTRA.norm>
-0.119052

>  <SCORE.RESTR>
0

>  <SCORE.RESTR.CAVITY>
0

>  <SCORE.RESTR.norm>
0

>  <SCORE.SYSTEM>
0

>  <SCORE.SYSTEM.CONST>
0

>  <SCORE.SYSTEM.DIHEDRAL>
0

>  <SCORE.SYSTEM.SOLV>
0

>  <SCORE.SYSTEM.norm>
0

>  <SCORE.heavy>
26

>  <SCORE.norm>
-0.851846

>  <RMSD>
1.828

$$$$
ligand
 OpenBabel11021811473D
libRbt.so/2013.1/901 2013/11/27
 26 28  0  0  0  0  0  0  0  0999 V2000
  -14.9529    6.7781  -15.9489 N   0  0  0  0  0  0  0  0  0  0  0  0
  -14.3471    6.8618  -17.2836 C   0  0  2  0  0  0  0  0  0  0  0  0
  -13.2187    5.8696  -17.3846 C   0  0  0  0  0  0  0  0  0  0  0  0
  -12.5559    5.6054  -16.4088 O   0  0  0  0  0  0  0  0  0  0  0  0
  -13.8069    8.2749  -17.5096 C   0  0  0  0  0  0  0  0  0  0  0  0
  -13.3210    8.4109  -18.9515 C   0  0  0  0  0  0  0  0  0  0  0  0
  -12.4530    9.7848  -19.4445 S   0  0  0  0  0  0  0  0  0  0  0  0
  -11.6999   10.4259  -20.9620 C   0  0  0  0  0  0  0  0  0  0  0  0
  -12.5690   11.4230  -21.7380 C   0  0  1  0  0  0  0  0  0  0  0  0
  -12.6770   12.6722  -21.0801 O   0  0  0  0  0  0  0  0  0  0  0  0
  -11.9600   11.7907  -23.0704 C   0  0  1  0  0  0  0  0  0  0  0  0
  -13.0466   12.2235  -23.8594 O   0  0  0  0  0  0  0  0  0  0  0  0
  -11.0792   12.9852  -22.7869 C   0  0  1  0  0  0  0  0  0  0  0  0
  -11.2035   13.9260  -23.8310 O   0  0  0  0  0  0  0  0  0  0  0  0
  -11.6658   13.5610  -21.5162 C   0  0  2  0  0  0  0  0  0  0  0  0
  -12.9457    5.2789  -18.5596 O   0  0  0  0  0  0  0  0  0  0  0  0
   -7.4636   16.1120  -19.7703 N   0  0  0  0  0  0  0  0  0  0  0  0
   -8.0891   16.2414  -20.9877 C   0  0  0  0  0  0  0  0  0  0  0  0
   -9.1866   15.4648  -21.2712 N   0  0  0  0  0  0  0  0  0  0  0  0
   -9.6557   14.5810  -20.3689 C   0  0  0  0  0  0  0  0  0  0  0  0
   -9.0426   14.4356  -19.1387 C   0  0  0  0  0  0  0  0  0  0  0  0
   -7.9296   15.2140  -18.8433 C   0  0  0  0  0  0  0  0  0  0  0  0
   -7.3079   15.1037  -17.6758 N   0  0  0  0  0  0  0  0  0  0  0  0
   -9.7124   13.4913  -18.4408 N   0  0  0  0  0  0  0  0  0  0  0  0
  -10.7316   13.0490  -19.2030 C   0  0  0  0  0  0  0  0  0  0  0  0
  -10.7054   13.7056  -20.4068 N   0  0  0  0  0  0  0  0  0  0  0  0
  2  1  1  1  0  0  0
  2  3  1  0  0  0  0
  2  5  1  0  0  0  0
  3  4  1  0  0  0  0
  3 16  1  0  0  0  0
  5  6  1  0  0  0  0
  6  7  1  0  0  0  0
  7  8  1  0  0  0  0
  9  8  1  1  0  0  0
  9 10  1  0  0  0  0
  9 11  1  0  0  0  0
 10 15  1  0  0  0  0
 11 12  1  6  0  0  0
 11 13  1  0  0  0  0
 13 14  1  6  0  0  0
 13 15  1  0  0  0  0
 15 26  1  1  0  0  0
 17 18  2  0  0  0  0
 17 22  1  0  0  0  0
 18 19  1  0  0  0  0
 19 20  2  0  0  0  0
 20 21  1  0  0  0  0
 20 26  1  0  0  0  0
 21 22  2  0  0  0  0
 21 24  1  0  0  0  0
 22 23  1  0  0  0  0
 24 25  2  0  0  0  0
 25 26  1  0  0  0  0
M  END
>  <CHROM.1>
-32.75003382,-173.57019562,-170.70107458,-179.12865780,96.86066775,71.34853690
-172.88046921,-11.40462182,11.48214013,-19.86504023,-2.30147058,-0.85181361
-0.95657574

>  <Name>
ligand

>  <RI>
0

>  <Rbt.Current_Directory>
/home/itssahil/PROJECTS/Mol_Feturizer/New_Systems/rnas/3E5E

>  <Rbt.Executable>
rbdock ($Id: //depot/dev/client3/rdock/2013.1/src/exe/rbdock.cxx#4 $)

>  <Rbt.Library>
libRbt.so (2013.1, Build901 2013/11/27)

>  <Rbt.Parameter_File>
/export/apps/rDock/src/rDock_2013.1_src/data/scripts/dock_solv.prm

>  <Rbt.Receptor>
prm/pocket_docking_7.prm

>  <SCORE>
-22.2585

>  <SCORE.INTER>
-19.0451

>  <SCORE.INTER.CONST>
1

>  <SCORE.INTER.POLAR>
0

>  <SCORE.INTER.ROT>
7

>  <SCORE.INTER.SOLV>
18.4983

>  <SCORE.INTER.VDW>
-27.1295

>  <SCORE.INTER.norm>
-0.732504

>  <SCORE.INTRA>
-3.21341

>  <SCORE.INTRA.DIHEDRAL>
-4.839

>  <SCORE.INTRA.DIHEDRAL.0>
10.1225

>  <SCORE.INTRA.POLAR>
0

>  <SCORE.INTRA.POLAR.0>
0

>  <SCORE.INTRA.REPUL>
0

>  <SCORE.INTRA.REPUL.0>
0

>  <SCORE.INTRA.SOLV>
-0.590064

>  <SCORE.INTRA.SOLV.lig_0>
-49.9393

>  <SCORE.INTRA.VDW>
-0.498883

>  <SCORE.INTRA.VDW.0>
-1.75437

>  <SCORE.INTRA.norm>
-0.123593

>  <SCORE.RESTR>
0

>  <SCORE.RESTR.CAVITY>
0

>  <SCORE.RESTR.norm>
0

>  <SCORE.SYSTEM>
0

>  <SCORE.SYSTEM.CONST>
0

>  <SCORE.SYSTEM.DIHEDRAL>
0

>  <SCORE.SYSTEM.SOLV>
0

>  <SCORE.SYSTEM.norm>
0

>  <SCORE.heavy>
26

>  <SCORE.norm>
-0.856097

>  <RMSD>
1.853

$$$$
ligand
 OpenBabel11021811473D
libRbt.so/2013.1/901 2013/11/27
 26 28  0  0  0  0  0  0  0  0999 V2000
  -13.7544    8.6011  -20.6552 N   0  0  0  0  0  0  0  0  0  0  0  0
  -14.7897    8.3351  -19.6487 C   0  0  2  0  0  0  0  0  0  0  0  0
  -16.0105    9.1620  -19.9554 C   0  0  0  0  0  0  0  0  0  0  0  0
  -16.9372    9.1838  -19.1796 O   0  0  0  0  0  0  0  0  0  0  0  0
  -14.2583    8.7032  -18.2624 C   0  0  0  0  0  0  0  0  0  0  0  0
  -14.0400   10.2130  -18.1838 C   0  0  0  0  0  0  0  0  0  0  0  0
  -12.6961   10.9316  -18.9332 S   0  0  0  0  0  0  0  0  0  0  0  0
  -11.9594   11.0064  -20.5863 C   0  0  0  0  0  0  0  0  0  0  0  0
  -12.6391   11.9888  -21.5478 C   0  0  1  0  0  0  0  0  0  0  0  0
  -12.5610   13.3286  -21.0963 O   0  0  0  0  0  0  0  0  0  0  0  0
  -11.9481   12.0403  -22.8899 C   0  0  1  0  0  0  0  0  0  0  0  0
  -12.9325   12.5040  -23.7879 O   0  0  0  0  0  0  0  0  0  0  0  0
  -10.8941   13.1141  -22.7516 C   0  0  1  0  0  0  0  0  0  0  0  0
  -10.8416   13.8837  -23.9329 O   0  0  0  0  0  0  0  0  0  0  0  0
  -11.4105   13.9692  -21.6147 C   0  0  2  0  0  0  0  0  0  0  0  0
  -16.0721    9.8740  -21.0926 O   0  0  0  0  0  0  0  0  0  0  0  0
   -7.1447   16.4528  -19.9268 N   0  0  0  0  0  0  0  0  0  0  0  0
   -7.7424   16.5376  -21.1620 C   0  0  0  0  0  0  0  0  0  0  0  0
   -8.8640   15.7885  -21.4246 N   0  0  0  0  0  0  0  0  0  0  0  0
   -9.3835   14.9749  -20.4847 C   0  0  0  0  0  0  0  0  0  0  0  0
   -8.7990   14.8753  -19.2361 C   0  0  0  0  0  0  0  0  0  0  0  0
   -7.6622   15.6264  -18.9614 C   0  0  0  0  0  0  0  0  0  0  0  0
   -7.0667   15.5581  -17.7772 N   0  0  0  0  0  0  0  0  0  0  0  0
   -9.5178   13.9976  -18.5010 N   0  0  0  0  0  0  0  0  0  0  0  0
  -10.5393   13.5523  -19.2582 C   0  0  0  0  0  0  0  0  0  0  0  0
  -10.4657   14.1391  -20.4956 N   0  0  0  0  0  0  0  0  0  0  0  0
  2  1  1  6  0  0  0
  2  3  1  0  0  0  0
  2  5  1  0  0  0  0
  3  4  1  0  0  0  0
  3 16  1  0  0  0  0
  5  6  1  0  0  0  0
  6  7  1  0  0  0  0
  7  8  1  0  0  0  0
  9  8  1  1  0  0  0
  9 10  1  0  0  0  0
  9 11  1  0  0  0  0
 10 15  1  0  0  0  0
 11 12  1  6  0  0  0
 11 13  1  0  0  0  0
 13 14  1  6  0  0  0
 13 15  1  0  0  0  0
 15 26  1  1  0  0  0
 17 18  2  0  0  0  0
 17 22  1  0  0  0  0
 18 19  1  0  0  0  0
 19 20  2  0  0  0  0
 20 21  1  0  0  0  0
 20 26  1  0  0  0  0
 21 22  2  0  0  0  0
 21 24  1  0  0  0  0
 22 23  1  0  0  0  0
 24 25  2  0  0  0  0
 25 26  1  0  0  0  0
M  END
>  <CHROM.1>
-173.31010583,66.41032613,-76.23160358,55.68007534,79.25963227,62.37326012
-163.76442283,-11.72886420,12.48537927,-20.40295169,2.90603049,0.71268403
1.86649590

>  <Name>
ligand

>  <RI>
0

>  <Rbt.Current_Directory>
/home/itssahil/PROJECTS/Mol_Feturizer/New_Systems/rnas/3E5E

>  <Rbt.Executable>
rbdock ($Id: //depot/dev/client3/rdock/2013.1/src/exe/rbdock.cxx#4 $)

>  <Rbt.Library>
libRbt.so (2013.1, Build901 2013/11/27)

>  <Rbt.Parameter_File>
/export/apps/rDock/src/rDock_2013.1_src/data/scripts/dock_solv.prm

>  <Rbt.Receptor>
prm/pocket_docking_6.prm

>  <SCORE>
-18.4649

>  <SCORE.INTER>
-17.0714

>  <SCORE.INTER.CONST>
1

>  <SCORE.INTER.POLAR>
0

>  <SCORE.INTER.ROT>
7

>  <SCORE.INTER.SOLV>
18.8812

>  <SCORE.INTER.VDW>
-25.9413

>  <SCORE.INTER.norm>
-0.656592

>  <SCORE.INTRA>
-1.39351

>  <SCORE.INTRA.DIHEDRAL>
-5.64099

>  <SCORE.INTRA.DIHEDRAL.0>
10.1225

>  <SCORE.INTRA.POLAR>
0

>  <SCORE.INTRA.POLAR.0>
0

>  <SCORE.INTRA.REPUL>
0

>  <SCORE.INTRA.REPUL.0>
0

>  <SCORE.INTRA.SOLV>
3.1571

>  <SCORE.INTRA.SOLV.lig_0>
-49.9393

>  <SCORE.INTRA.VDW>
-0.15157

>  <SCORE.INTRA.VDW.0>
-1.75437

>  <SCORE.INTRA.norm>
-0.0535967

>  <SCORE.RESTR>
0

>  <SCORE.RESTR.CAVITY>
0

>  <SCORE.RESTR.norm>
0

>  <SCORE.SYSTEM>
0

>  <SCORE.SYSTEM.CONST>
0

>  <SCORE.SYSTEM.DIHEDRAL>
0

>  <SCORE.SYSTEM.SOLV>
0

>  <SCORE.SYSTEM.norm>
0

>  <SCORE.heavy>
26

>  <SCORE.norm>
-0.710189

>  <RMSD>
1.871

$$$$
ligand
 OpenBabel11021811473D
libRbt.so/2013.1/901 2013/11/27
 26 28  0  0  0  0  0  0  0  0999 V2000
  -15.8462    6.5457  -17.3068 N   0  0  0  0  0  0  0  0  0  0  0  0
  -14.6303    5.7886  -17.6293 C   0  0  2  0  0  0  0  0  0  0  0  0
  -13.7629    5.6878  -16.4022 C   0  0  0  0  0  0  0  0  0  0  0  0
  -12.5714    5.5185  -16.5156 O   0  0  0  0  0  0  0  0  0  0  0  0
  -13.8627    6.5076  -18.7400 C   0  0  0  0  0  0  0  0  0  0  0  0
  -13.5600    7.9406  -18.3060 C   0  0  0  0  0  0  0  0  0  0  0  0
  -12.7930    9.0210  -19.3683 S   0  0  0  0  0  0  0  0  0  0  0  0
  -12.5807   10.8114  -19.5429 C   0  0  0  0  0  0  0  0  0  0  0  0
  -12.8375   11.3534  -20.9543 C   0  0  1  0  0  0  0  0  0  0  0  0
  -12.4337   12.7031  -21.0968 O   0  0  0  0  0  0  0  0  0  0  0  0
  -12.0109   10.6381  -21.9967 C   0  0  1  0  0  0  0  0  0  0  0  0
  -12.7126   10.8232  -23.2065 O   0  0  0  0  0  0  0  0  0  0  0  0
  -10.7181   11.4159  -22.0788 C   0  0  1  0  0  0  0  0  0  0  0  0
  -10.3133   11.5243  -23.4261 O   0  0  0  0  0  0  0  0  0  0  0  0
  -11.0968   12.7840  -21.5540 C   0  0  2  0  0  0  0  0  0  0  0  0
  -14.3126    5.7831  -15.1805 O   0  0  0  0  0  0  0  0  0  0  0  0
   -7.7447   16.4197  -19.8932 N   0  0  0  0  0  0  0  0  0  0  0  0
   -8.2957   16.2829  -21.1453 C   0  0  0  0  0  0  0  0  0  0  0  0
   -9.1574   15.2425  -21.3960 N   0  0  0  0  0  0  0  0  0  0  0  0
   -9.4683   14.3581  -20.4284 C   0  0  0  0  0  0  0  0  0  0  0  0
   -8.9264   14.4776  -19.1624 C   0  0  0  0  0  0  0  0  0  0  0  0
   -8.0510   15.5246  -18.8992 C   0  0  0  0  0  0  0  0  0  0  0  0
   -7.5046   15.6743  -17.6989 N   0  0  0  0  0  0  0  0  0  0  0  0
   -9.4034   13.4677  -18.4008 N   0  0  0  0  0  0  0  0  0  0  0  0
  -10.2339   12.7254  -19.1586 C   0  0  0  0  0  0  0  0  0  0  0  0
  -10.2779   13.2561  -20.4225 N   0  0  0  0  0  0  0  0  0  0  0  0
  2  1  1  1  0  0  0
  2  3  1  0  0  0  0
  2  5  1  0  0  0  0
  3  4  1  0  0  0  0
  3 16  1  0  0  0  0
  5  6  1  0  0  0  0
  6  7  1  0  0  0  0
  7  8  1  0  0  0  0
  9  8  1  1  0  0  0
  9 10  1  0  0  0  0
  9 11  1  0  0  0  0
 10 15  1  0  0  0  0
 11 12  1  6  0  0  0
 11 13  1  0  0  0  0
 13 14  1  6  0  0  0
 13 15  1  0  0  0  0
 15 26  1  1  0  0  0
 17 18  2  0  0  0  0
 17 22  1  0  0  0  0
 18 19  1  0  0  0  0
 19 20  2  0  0  0  0
 20 21  1  0  0  0  0
 20 26  1  0  0  0  0
 21 22  2  0  0  0  0
 21 24  1  0  0  0  0
 22 23  1  0  0  0  0
 24 25  2  0  0  0  0
 25 26  1  0  0  0  0
M  END
>  <CHROM.1>
-155.46021437,56.29974488,-176.43300449,160.98518631,-132.89942892,-169.54447501
-124.05380369,-11.48748277,11.03118905,-19.60431292,-2.53293776,-0.92188908
-1.19024556

>  <Name>
ligand

>  <RI>
0

>  <Rbt.Current_Directory>
/home/itssahil/PROJECTS/Mol_Feturizer/New_Systems/rnas/3E5E

>  <Rbt.Executable>
rbdock ($Id: //depot/dev/client3/rdock/2013.1/src/exe/rbdock.cxx#4 $)

>  <Rbt.Library>
libRbt.so (2013.1, Build901 2013/11/27)

>  <Rbt.Parameter_File>
/export/apps/rDock/src/rDock_2013.1_src/data/scripts/dock_solv.prm

>  <Rbt.Receptor>
prm/pocket_docking_3.prm

>  <SCORE>
-16.8823

>  <SCORE.INTER>
-16.111

>  <SCORE.INTER.CONST>
1

>  <SCORE.INTER.POLAR>
0

>  <SCORE.INTER.ROT>
7

>  <SCORE.INTER.SOLV>
15.3355

>  <SCORE.INTER.VDW>
-24.1191

>  <SCORE.INTER.norm>
-0.619653

>  <SCORE.INTRA>
-0.771347

>  <SCORE.INTRA.DIHEDRAL>
-4.22448

>  <SCORE.INTRA.DIHEDRAL.0>
10.1225

>  <SCORE.INTRA.POLAR>
0

>  <SCORE.INTRA.POLAR.0>
0

>  <SCORE.INTRA.REPUL>
0

>  <SCORE.INTRA.REPUL.0>
0

>  <SCORE.INTRA.SOLV>
0.310546

>  <SCORE.INTRA.SOLV.lig_0>
-49.9393

>  <SCORE.INTRA.VDW>
1.18562

>  <SCORE.INTRA.VDW.0>
-1.75437

>  <SCORE.INTRA.norm>
-0.0296672

>  <SCORE.RESTR>
0

>  <SCORE.RESTR.CAVITY>
0

>  <SCORE.RESTR.norm>
0

>  <SCORE.SYSTEM>
0

>  <SCORE.SYSTEM.CONST>
0

>  <SCORE.SYSTEM.DIHEDRAL>
0

>  <SCORE.SYSTEM.SOLV>
0

>  <SCORE.SYSTEM.norm>
0

>  <SCORE.heavy>
26

>  <SCORE.norm>
-0.64932

>  <RMSD>
1.875

$$$$
ligand
 OpenBabel11021811473D
libRbt.so/2013.1/901 2013/11/27
 26 28  0  0  0  0  0  0  0  0999 V2000
  -15.1270    7.1692  -15.8263 N   0  0  0  0  0  0  0  0  0  0  0  0
  -14.7740    8.2953  -16.6997 C   0  0  2  0  0  0  0  0  0  0  0  0
  -14.1579    7.7703  -17.9697 C   0  0  0  0  0  0  0  0  0  0  0  0
  -14.6628    8.0255  -19.0378 O   0  0  0  0  0  0  0  0  0  0  0  0
  -13.7720    9.2013  -15.9821 C   0  0  0  0  0  0  0  0  0  0  0  0
  -13.7751   10.5828  -16.6340 C   0  0  0  0  0  0  0  0  0  0  0  0
  -13.4923   10.7523  -18.3000 S   0  0  0  0  0  0  0  0  0  0  0  0
  -12.3128   10.1425  -19.5320 C   0  0  0  0  0  0  0  0  0  0  0  0
  -12.5878   10.6056  -20.9678 C   0  0  1  0  0  0  0  0  0  0  0  0
  -12.3966   11.9989  -21.1324 O   0  0  0  0  0  0  0  0  0  0  0  0
  -11.6121   10.0084  -21.9541 C   0  0  1  0  0  0  0  0  0  0  0  0
  -12.2786   10.0528  -23.1968 O   0  0  0  0  0  0  0  0  0  0  0  0
  -10.4562   10.9803  -22.0052 C   0  0  1  0  0  0  0  0  0  0  0  0
  -10.0130   11.1222  -23.3371 O   0  0  0  0  0  0  0  0  0  0  0  0
  -11.0700   12.2817  -21.5362 C   0  0  2  0  0  0  0  0  0  0  0  0
  -13.0481    7.0156  -17.9167 O   0  0  0  0  0  0  0  0  0  0  0  0
   -8.1178   16.2705  -19.9276 N   0  0  0  0  0  0  0  0  0  0  0  0
   -8.5435   15.9916  -21.2048 C   0  0  0  0  0  0  0  0  0  0  0  0
   -9.3117   14.8756  -21.4340 N   0  0  0  0  0  0  0  0  0  0  0  0
   -9.6526   14.0551  -20.4212 C   0  0  0  0  0  0  0  0  0  0  0  0
   -9.2362   14.3174  -19.1296 C   0  0  0  0  0  0  0  0  0  0  0  0
   -8.4558   15.4419  -18.8875 C   0  0  0  0  0  0  0  0  0  0  0  0
   -8.0310   15.7291  -17.6633 N   0  0  0  0  0  0  0  0  0  0  0  0
   -9.7155   13.3433  -18.3242 N   0  0  0  0  0  0  0  0  0  0  0  0
  -10.4256   12.4837  -19.0806 C   0  0  0  0  0  0  0  0  0  0  0  0
  -10.3883   12.9030  -20.3859 N   0  0  0  0  0  0  0  0  0  0  0  0
  2  1  1  1  0  0  0
  2  3  1  0  0  0  0
  2  5  1  0  0  0  0
  3  4  1  0  0  0  0
  3 16  1  0  0  0  0
  5  6  1  0  0  0  0
  6  7  1  0  0  0  0
  7  8  1  0  0  0  0
  9  8  1  1  0  0  0
  9 10  1  0  0  0  0
  9 11  1  0  0  0  0
 10 15  1  0  0  0  0
 11 12  1  6  0  0  0
 11 13  1  0  0  0  0
 13 14  1  6  0  0  0
 13 15  1  0  0  0  0
 15 26  1  1  0  0  0
 17 18  2  0  0  0  0
 17 22  1  0  0  0  0
 18 19  1  0  0  0  0
 19 20  2  0  0  0  0
 20 21  1  0  0  0  0
 20 26  1  0  0  0  0
 21 22  2  0  0  0  0
 21 24  1  0  0  0  0
 22 23  1  0  0  0  0
 24 25  2  0  0  0  0
 25 26  1  0  0  0  0
M  END
>  <CHROM.1>
121.01981944,-160.12312897,-55.30814910,-47.09561147,177.54676488,67.29457363
-130.88394685,-11.60040437,11.45985586,-19.52195344,-3.03511236,-0.92322356
-1.83655590

>  <Name>
ligand

>  <RI>
0

>  <Rbt.Current_Directory>
/home/itssahil/PROJECTS/Mol_Feturizer/New_Systems/rnas/3E5E

>  <Rbt.Executable>
rbdock ($Id: //depot/dev/client3/rdock/2013.1/src/exe/rbdock.cxx#4 $)

>  <Rbt.Library>
libRbt.so (2013.1, Build901 2013/11/27)

>  <Rbt.Parameter_File>
/export/apps/rDock/src/rDock_2013.1_src/data/scripts/dock_solv.prm

>  <Rbt.Receptor>
prm/pocket_docking_5.prm

>  <SCORE>
-21.2567

>  <SCORE.INTER>
-17.1254

>  <SCORE.INTER.CONST>
1

>  <SCORE.INTER.POLAR>
0

>  <SCORE.INTER.ROT>
7

>  <SCORE.INTER.SOLV>
17.1487

>  <SCORE.INTER.VDW>
-25.3998

>  <SCORE.INTER.norm>
-0.658671

>  <SCORE.INTRA>
-4.13129

>  <SCORE.INTRA.DIHEDRAL>
-5.35579

>  <SCORE.INTRA.DIHEDRAL.0>
10.1225

>  <SCORE.INTRA.POLAR>
0

>  <SCORE.INTRA.POLAR.0>
0

>  <SCORE.INTRA.REPUL>
0

>  <SCORE.INTRA.REPUL.0>
0

>  <SCORE.INTRA.SOLV>
-0.378532

>  <SCORE.INTRA.SOLV.lig_0>
-49.9393

>  <SCORE.INTRA.VDW>
-1.26412

>  <SCORE.INTRA.VDW.0>
-1.75437

>  <SCORE.INTRA.norm>
-0.158896

>  <SCORE.RESTR>
3.11617e-05

>  <SCORE.RESTR.CAVITY>
3.11617e-05

>  <SCORE.RESTR.norm>
1.19853e-06

>  <SCORE.SYSTEM>
0

>  <SCORE.SYSTEM.CONST>
0

>  <SCORE.SYSTEM.DIHEDRAL>
0

>  <SCORE.SYSTEM.SOLV>
0

>  <SCORE.SYSTEM.norm>
0

>  <SCORE.heavy>
26

>  <SCORE.norm>
-0.817565

>  <RMSD>
1.887

$$$$
ligand
 OpenBabel11021811473D
libRbt.so/2013.1/901 2013/11/27
 26 28  0  0  0  0  0  0  0  0999 V2000
  -12.7351    5.2995  -16.7765 N   0  0  0  0  0  0  0  0  0  0  0  0
  -13.3990    6.6023  -16.9091 C   0  0  2  0  0  0  0  0  0  0  0  0
  -14.7114    6.5731  -16.1711 C   0  0  0  0  0  0  0  0  0  0  0  0
  -15.4287    5.6034  -16.2500 O   0  0  0  0  0  0  0  0  0  0  0  0
  -13.6512    6.8967  -18.3888 C   0  0  0  0  0  0  0  0  0  0  0  0
  -14.4254    8.2067  -18.5238 C   0  0  0  0  0  0  0  0  0  0  0  0
  -13.7395    9.6723  -18.0084 S   0  0  0  0  0  0  0  0  0  0  0  0
  -12.8117   11.0498  -18.7315 C   0  0  0  0  0  0  0  0  0  0  0  0
  -13.1792   11.3790  -20.1835 C   0  0  1  0  0  0  0  0  0  0  0  0
  -12.6916   12.6443  -20.5910 O   0  0  0  0  0  0  0  0  0  0  0  0
  -12.5288   10.4309  -21.1631 C   0  0  1  0  0  0  0  0  0  0  0  0
  -13.3424   10.4835  -22.3144 O   0  0  0  0  0  0  0  0  0  0  0  0
  -11.1971   11.0609  -21.4989 C   0  0  1  0  0  0  0  0  0  0  0  0
  -10.9351   10.9126  -22.8773 O   0  0  0  0  0  0  0  0  0  0  0  0
  -11.4105   12.5250  -21.1805 C   0  0  2  0  0  0  0  0  0  0  0  0
  -15.0877    7.6257  -15.4265 O   0  0  0  0  0  0  0  0  0  0  0  0
   -7.8787   16.2776  -20.3687 N   0  0  0  0  0  0  0  0  0  0  0  0
   -8.6052   16.0291  -21.5091 C   0  0  0  0  0  0  0  0  0  0  0  0
   -9.4867   14.9754  -21.5345 N   0  0  0  0  0  0  0  0  0  0  0  0
   -9.6469   14.1863  -20.4543 C   0  0  0  0  0  0  0  0  0  0  0  0
   -8.9274   14.4188  -19.2973 C   0  0  0  0  0  0  0  0  0  0  0  0
   -8.0305   15.4802  -19.2623 C   0  0  0  0  0  0  0  0  0  0  0  0
   -7.3164   15.7368  -18.1734 N   0  0  0  0  0  0  0  0  0  0  0  0
   -9.2810   13.4868  -18.3843 N   0  0  0  0  0  0  0  0  0  0  0  0
  -10.2076   12.6828  -18.9413 C   0  0  0  0  0  0  0  0  0  0  0  0
  -10.4389   13.0946  -20.2289 N   0  0  0  0  0  0  0  0  0  0  0  0
  2  1  1  6  0  0  0
  2  3  1  0  0  0  0
  2  5  1  0  0  0  0
  3  4  1  0  0  0  0
  3 16  1  0  0  0  0
  5  6  1  0  0  0  0
  6  7  1  0  0  0  0
  7  8  1  0  0  0  0
  9  8  1  1  0  0  0
  9 10  1  0  0  0  0
  9 11  1  0  0  0  0
 10 15  1  0  0  0  0
 11 12  1  6  0  0  0
 11 13  1  0  0  0  0
 13 14  1  6  0  0  0
 13 15  1  0  0  0  0
 15 26  1  1  0  0  0
 17 18  2  0  0  0  0
 17 22  1  0  0  0  0
 18 19  1  0  0  0  0
 19 20  2  0  0  0  0
 20 21  1  0  0  0  0
 20 26  1  0  0  0  0
 21 22  2  0  0  0  0
 21 24  1  0  0  0  0
 22 23  1  0  0  0  0
 24 25  2  0  0  0  0
 25 26  1  0  0  0  0
M  END
>  <CHROM.1>
-42.25653297,176.21693274,63.35368550,95.01400081,33.21791985,165.07042860
-117.10627047,-11.77527602,11.10522377,-19.28238180,-2.55594682,-0.87606530
-1.24988025

>  <Name>
ligand

>  <RI>
0

>  <Rbt.Current_Directory>
/home/itssahil/PROJECTS/Mol_Feturizer/New_Systems/rnas/3E5E

>  <Rbt.Executable>
rbdock ($Id: //depot/dev/client3/rdock/2013.1/src/exe/rbdock.cxx#4 $)

>  <Rbt.Library>
libRbt.so (2013.1, Build901 2013/11/27)

>  <Rbt.Parameter_File>
/export/apps/rDock/src/rDock_2013.1_src/data/scripts/dock_solv.prm

>  <Rbt.Receptor>
prm/pocket_docking_5.prm

>  <SCORE>
-17.7626

>  <SCORE.INTER>
-15.1193

>  <SCORE.INTER.CONST>
1

>  <SCORE.INTER.POLAR>
0

>  <SCORE.INTER.ROT>
7

>  <SCORE.INTER.SOLV>
18.4438

>  <SCORE.INTER.VDW>
-24.4941

>  <SCORE.INTER.norm>
-0.581512

>  <SCORE.INTRA>
-2.66399

>  <SCORE.INTRA.DIHEDRAL>
-4.1016

>  <SCORE.INTRA.DIHEDRAL.0>
10.1225

>  <SCORE.INTRA.POLAR>
0

>  <SCORE.INTRA.POLAR.0>
0

>  <SCORE.INTRA.REPUL>
0

>  <SCORE.INTRA.REPUL.0>
0

>  <SCORE.INTRA.SOLV>
-0.539031

>  <SCORE.INTRA.SOLV.lig_0>
-49.9393

>  <SCORE.INTRA.VDW>
-0.343676

>  <SCORE.INTRA.VDW.0>
-1.75437

>  <SCORE.INTRA.norm>
-0.102461

>  <SCORE.RESTR>
0.0206833

>  <SCORE.RESTR.CAVITY>
0.0206833

>  <SCORE.RESTR.norm>
0.000795511

>  <SCORE.SYSTEM>
0

>  <SCORE.SYSTEM.CONST>
0

>  <SCORE.SYSTEM.DIHEDRAL>
0

>  <SCORE.SYSTEM.SOLV>
0

>  <SCORE.SYSTEM.norm>
0

>  <SCORE.heavy>
26

>  <SCORE.norm>
-0.683177

>  <RMSD>
1.912

$$$$
ligand
 OpenBabel11021811473D
libRbt.so/2013.1/901 2013/11/27
 26 28  0  0  0  0  0  0  0  0999 V2000
  -14.8668    7.3089  -20.1903 N   0  0  0  0  0  0  0  0  0  0  0  0
  -14.4829    8.4309  -19.3247 C   0  0  2  0  0  0  0  0  0  0  0  0
  -15.7017    9.2546  -19.0023 C   0  0  0  0  0  0  0  0  0  0  0  0
  -16.5530    9.4303  -19.8423 O   0  0  0  0  0  0  0  0  0  0  0  0
  -13.4537    9.3020  -20.0470 C   0  0  0  0  0  0  0  0  0  0  0  0
  -14.0176    9.7460  -21.3955 C   0  0  0  0  0  0  0  0  0  0  0  0
  -13.1882   10.8826  -22.3464 S   0  0  0  0  0  0  0  0  0  0  0  0
  -12.5311   12.5611  -22.1675 C   0  0  0  0  0  0  0  0  0  0  0  0
  -11.8896   13.1376  -23.4355 C   0  0  1  0  0  0  0  0  0  0  0  0
  -11.1419   14.3120  -23.1771 O   0  0  0  0  0  0  0  0  0  0  0  0
  -10.8620   12.2024  -24.0279 C   0  0  1  0  0  0  0  0  0  0  0  0
  -10.7798   12.5677  -25.3882 O   0  0  0  0  0  0  0  0  0  0  0  0
   -9.5578   12.5738  -23.3614 C   0  0  1  0  0  0  0  0  0  0  0  0
   -8.5140   12.5453  -24.3102 O   0  0  0  0  0  0  0  0  0  0  0  0
   -9.7884   13.9990  -22.9074 C   0  0  2  0  0  0  0  0  0  0  0  0
  -15.8431    9.7973  -17.7818 O   0  0  0  0  0  0  0  0  0  0  0  0
   -6.6220   16.0769  -19.3199 N   0  0  0  0  0  0  0  0  0  0  0  0
   -6.4395   16.0205  -20.6813 C   0  0  0  0  0  0  0  0  0  0  0  0
   -7.3897   15.4145  -21.4675 N   0  0  0  0  0  0  0  0  0  0  0  0
   -8.4968   14.8779  -20.9183 C   0  0  0  0  0  0  0  0  0  0  0  0
   -8.7005   14.9244  -19.5520 C   0  0  0  0  0  0  0  0  0  0  0  0
   -7.7438   15.5322  -18.7474 C   0  0  0  0  0  0  0  0  0  0  0  0
   -7.8974   15.5955  -17.4306 N   0  0  0  0  0  0  0  0  0  0  0  0
   -9.8771   14.3177  -19.2785 N   0  0  0  0  0  0  0  0  0  0  0  0
  -10.4149   13.8996  -20.4409 C   0  0  0  0  0  0  0  0  0  0  0  0
   -9.5673   14.2284  -21.4678 N   0  0  0  0  0  0  0  0  0  0  0  0
  2  1  1  6  0  0  0
  2  3  1  0  0  0  0
  2  5  1  0  0  0  0
  3  4  1  0  0  0  0
  3 16  1  0  0  0  0
  5  6  1  0  0  0  0
  6  7  1  0  0  0  0
  7  8  1  0  0  0  0
  9  8  1  1  0  0  0
  9 10  1  0  0  0  0
  9 11  1  0  0  0  0
 10 15  1  0  0  0  0
 11 12  1  6  0  0  0
 11 13  1  0  0  0  0
 13 14  1  6  0  0  0
 13 15  1  0  0  0  0
 15 26  1  1  0  0  0
 17 18  2  0  0  0  0
 17 22  1  0  0  0  0
 18 19  1  0  0  0  0
 19 20  2  0  0  0  0
 20 21  1  0  0  0  0
 20 26  1  0  0  0  0
 21 22  2  0  0  0  0
 21 24  1  0  0  0  0
 22 23  1  0  0  0  0
 24 25  2  0  0  0  0
 25 26  1  0  0  0  0
M  END
>  <CHROM.1>
-37.30492256,55.29542893,172.31967999,-55.22996941,-177.81410512,-167.13229383
-134.94873421,-11.20022174,12.50356984,-21.18318371,-3.13577958,-0.70385925
-1.67724112

>  <Name>
ligand

>  <RI>
0

>  <Rbt.Current_Directory>
/home/itssahil/PROJECTS/Mol_Feturizer/New_Systems/rnas/3E5E

>  <Rbt.Executable>
rbdock ($Id: //depot/dev/client3/rdock/2013.1/src/exe/rbdock.cxx#4 $)

>  <Rbt.Library>
libRbt.so (2013.1, Build901 2013/11/27)

>  <Rbt.Parameter_File>
/export/apps/rDock/src/rDock_2013.1_src/data/scripts/dock_solv.prm

>  <Rbt.Receptor>
prm/pocket_docking_3.prm

>  <SCORE>
-16.0522

>  <SCORE.INTER>
-13.5568

>  <SCORE.INTER.CONST>
1

>  <SCORE.INTER.POLAR>
0

>  <SCORE.INTER.ROT>
7

>  <SCORE.INTER.SOLV>
17.1952

>  <SCORE.INTER.VDW>
-23.0363

>  <SCORE.INTER.norm>
-0.521417

>  <SCORE.INTRA>
-2.49538

>  <SCORE.INTRA.DIHEDRAL>
-6.41341

>  <SCORE.INTRA.DIHEDRAL.0>
10.1225

>  <SCORE.INTRA.POLAR>
0

>  <SCORE.INTRA.POLAR.0>
0

>  <SCORE.INTRA.REPUL>
0

>  <SCORE.INTRA.REPUL.0>
0

>  <SCORE.INTRA.SOLV>
0.235493

>  <SCORE.INTRA.SOLV.lig_0>
-49.9393

>  <SCORE.INTRA.VDW>
0.593579

>  <SCORE.INTRA.VDW.0>
-1.75437

>  <SCORE.INTRA.norm>
-0.0959761

>  <SCORE.RESTR>
0

>  <SCORE.RESTR.CAVITY>
0

>  <SCORE.RESTR.norm>
0

>  <SCORE.SYSTEM>
0

>  <SCORE.SYSTEM.CONST>
0

>  <SCORE.SYSTEM.DIHEDRAL>
0

>  <SCORE.SYSTEM.SOLV>
0

>  <SCORE.SYSTEM.norm>
0

>  <SCORE.heavy>
26

>  <SCORE.norm>
-0.617393

>  <RMSD>
1.921

$$$$
ligand
 OpenBabel11021811473D
libRbt.so/2013.1/901 2013/11/27
 26 28  0  0  0  0  0  0  0  0999 V2000
  -14.8973    6.6282  -15.2002 N   0  0  0  0  0  0  0  0  0  0  0  0
  -14.5731    6.5895  -16.6316 C   0  0  2  0  0  0  0  0  0  0  0  0
  -13.6765    5.4121  -16.9104 C   0  0  0  0  0  0  0  0  0  0  0  0
  -14.0128    4.5716  -17.7114 O   0  0  0  0  0  0  0  0  0  0  0  0
  -13.8568    7.8821  -17.0263 C   0  0  0  0  0  0  0  0  0  0  0  0
  -13.6274    7.8978  -18.5366 C   0  0  0  0  0  0  0  0  0  0  0  0
  -12.6256    9.0713  -19.2459 S   0  0  0  0  0  0  0  0  0  0  0  0
  -12.6033   10.8702  -19.4563 C   0  0  0  0  0  0  0  0  0  0  0  0
  -12.7564   11.3487  -20.9052 C   0  0  1  0  0  0  0  0  0  0  0  0
  -12.3406   12.6912  -21.0780 O   0  0  0  0  0  0  0  0  0  0  0  0
  -11.8582   10.5888  -21.8524 C   0  0  1  0  0  0  0  0  0  0  0  0
  -12.4704   10.7192  -23.1168 O   0  0  0  0  0  0  0  0  0  0  0  0
  -10.5613   11.3636  -21.8754 C   0  0  1  0  0  0  0  0  0  0  0  0
  -10.0601   11.4126  -23.1934 O   0  0  0  0  0  0  0  0  0  0  0  0
  -10.9740   12.7532  -21.4406 C   0  0  2  0  0  0  0  0  0  0  0  0
  -12.5034    5.2930  -16.2674 O   0  0  0  0  0  0  0  0  0  0  0  0
   -7.7041   16.4341  -19.7166 N   0  0  0  0  0  0  0  0  0  0  0  0
   -8.1585   16.2366  -20.9990 C   0  0  0  0  0  0  0  0  0  0  0  0
   -9.0145   15.1942  -21.2612 N   0  0  0  0  0  0  0  0  0  0  0  0
   -9.4132   14.3668  -20.2756 C   0  0  0  0  0  0  0  0  0  0  0  0
   -8.9692   14.5479  -18.9792 C   0  0  0  0  0  0  0  0  0  0  0  0
   -8.1005   15.5974  -18.7039 C   0  0  0  0  0  0  0  0  0  0  0  0
   -7.6465   15.8051  -17.4741 N   0  0  0  0  0  0  0  0  0  0  0  0
   -9.5195   13.5860  -18.2050 N   0  0  0  0  0  0  0  0  0  0  0  0
  -10.3003   12.8136  -18.9853 C   0  0  0  0  0  0  0  0  0  0  0  0
  -10.2379   13.2760  -20.2750 N   0  0  0  0  0  0  0  0  0  0  0  0
  2  1  1  1  0  0  0
  2  3  1  0  0  0  0
  2  5  1  0  0  0  0
  3  4  1  0  0  0  0
  3 16  1  0  0  0  0
  5  6  1  0  0  0  0
  6  7  1  0  0  0  0
  7  8  1  0  0  0  0
  9  8  1  1  0  0  0
  9 10  1  0  0  0  0
  9 11  1  0  0  0  0
 10 15  1  0  0  0  0
 11 12  1  6  0  0  0
 11 13  1  0  0  0  0
 13 14  1  6  0  0  0
 13 15  1  0  0  0  0
 15 26  1  1  0  0  0
 17 18  2  0  0  0  0
 17 22  1  0  0  0  0
 18 19  1  0  0  0  0
 19 20  2  0  0  0  0
 20 21  1  0  0  0  0
 20 26  1  0  0  0  0
 21 22  2  0  0  0  0
 21 24  1  0  0  0  0
 22 23  1  0  0  0  0
 24 25  2  0  0  0  0
 25 26  1  0  0  0  0
M  END
>  <CHROM.1>
122.32155844,-175.09133018,-169.55488248,-64.27318419,-113.30605478,-162.28091657
-125.01841298,-11.37778778,11.04873403,-19.44326215,-2.62054240,-0.98684229
-1.30172594

>  <Name>
ligand

>  <RI>
0

>  <Rbt.Current_Directory>
/home/itssahil/PROJECTS/Mol_Feturizer/New_Systems/rnas/3E5E

>  <Rbt.Executable>
rbdock ($Id: //depot/dev/client3/rdock/2013.1/src/exe/rbdock.cxx#4 $)

>  <Rbt.Library>
libRbt.so (2013.1, Build901 2013/11/27)

>  <Rbt.Parameter_File>
/export/apps/rDock/src/rDock_2013.1_src/data/scripts/dock_solv.prm

>  <Rbt.Receptor>
prm/pocket_docking_6.prm

>  <SCORE>
-18.6417

>  <SCORE.INTER>
-16.5493

>  <SCORE.INTER.CONST>
1

>  <SCORE.INTER.POLAR>
0

>  <SCORE.INTER.ROT>
7

>  <SCORE.INTER.SOLV>
17.233

>  <SCORE.INTER.VDW>
-25.0439

>  <SCORE.INTER.norm>
-0.636513

>  <SCORE.INTRA>
-2.09232

>  <SCORE.INTRA.DIHEDRAL>
-3.47742

>  <SCORE.INTRA.DIHEDRAL.0>
10.1225

>  <SCORE.INTRA.POLAR>
0

>  <SCORE.INTRA.POLAR.0>
0

>  <SCORE.INTRA.REPUL>
0

>  <SCORE.INTRA.REPUL.0>
0

>  <SCORE.INTRA.SOLV>
-0.556054

>  <SCORE.INTRA.SOLV.lig_0>
-49.9393

>  <SCORE.INTRA.VDW>
-0.0755828

>  <SCORE.INTRA.VDW.0>
-1.75437

>  <SCORE.INTRA.norm>
-0.0804739

>  <SCORE.RESTR>
0

>  <SCORE.RESTR.CAVITY>
0

>  <SCORE.RESTR.norm>
0

>  <SCORE.SYSTEM>
0

>  <SCORE.SYSTEM.CONST>
0

>  <SCORE.SYSTEM.DIHEDRAL>
0

>  <SCORE.SYSTEM.SOLV>
0

>  <SCORE.SYSTEM.norm>
0

>  <SCORE.heavy>
26

>  <SCORE.norm>
-0.716987

>  <RMSD>
1.923

$$$$
ligand
 OpenBabel11021811473D
libRbt.so/2013.1/901 2013/11/27
 26 28  0  0  0  0  0  0  0  0999 V2000
  -14.3695    9.3920  -17.0143 N   0  0  0  0  0  0  0  0  0  0  0  0
  -14.3664   10.0391  -18.3322 C   0  0  2  0  0  0  0  0  0  0  0  0
  -15.2138    9.2383  -19.2854 C   0  0  0  0  0  0  0  0  0  0  0  0
  -15.1286    8.0327  -19.3044 O   0  0  0  0  0  0  0  0  0  0  0  0
  -12.9326   10.1116  -18.8603 C   0  0  0  0  0  0  0  0  0  0  0  0
  -12.8946   10.9805  -20.1161 C   0  0  0  0  0  0  0  0  0  0  0  0
  -12.9100   12.6744  -19.9952 S   0  0  0  0  0  0  0  0  0  0  0  0
  -13.1818   14.0971  -21.0829 C   0  0  0  0  0  0  0  0  0  0  0  0
  -12.5730   13.9594  -22.4837 C   0  0  1  0  0  0  0  0  0  0  0  0
  -11.2569   14.4768  -22.5543 O   0  0  0  0  0  0  0  0  0  0  0  0
  -12.3937   12.5145  -22.8857 C   0  0  1  0  0  0  0  0  0  0  0  0
  -12.3700   12.5302  -24.2963 O   0  0  0  0  0  0  0  0  0  0  0  0
  -11.0154   12.1356  -22.3962 C   0  0  1  0  0  0  0  0  0  0  0  0
  -10.3711   11.3347  -23.3627 O   0  0  0  0  0  0  0  0  0  0  0  0
  -10.3027   13.4663  -22.2873 C   0  0  2  0  0  0  0  0  0  0  0  0
  -16.0633    9.8629  -20.1174 O   0  0  0  0  0  0  0  0  0  0  0  0
   -7.3714   16.7403  -19.4762 N   0  0  0  0  0  0  0  0  0  0  0  0
   -7.6596   16.8002  -20.8191 C   0  0  0  0  0  0  0  0  0  0  0  0
   -8.4479   15.8283  -21.3866 N   0  0  0  0  0  0  0  0  0  0  0  0
   -8.9415   14.8205  -20.6410 C   0  0  0  0  0  0  0  0  0  0  0  0
   -8.6649   14.7418  -19.2890 C   0  0  0  0  0  0  0  0  0  0  0  0
   -7.8657   15.7180  -18.7058 C   0  0  0  0  0  0  0  0  0  0  0  0
   -7.5718   15.6786  -17.4121 N   0  0  0  0  0  0  0  0  0  0  0  0
   -9.2793   13.6439  -18.7945 N   0  0  0  0  0  0  0  0  0  0  0  0
   -9.9370   13.0397  -19.8032 C   0  0  0  0  0  0  0  0  0  0  0  0
   -9.7297   13.7492  -20.9585 N   0  0  0  0  0  0  0  0  0  0  0  0
  2  1  1  1  0  0  0
  2  3  1  0  0  0  0
  2  5  1  0  0  0  0
  3  4  1  0  0  0  0
  3 16  1  0  0  0  0
  5  6  1  0  0  0  0
  6  7  1  0  0  0  0
  7  8  1  0  0  0  0
  9  8  1  1  0  0  0
  9 10  1  0  0  0  0
  9 11  1  0  0  0  0
 10 15  1  0  0  0  0
 11 12  1  6  0  0  0
 11 13  1  0  0  0  0
 13 14  1  6  0  0  0
 13 15  1  0  0  0  0
 15 26  1  1  0  0  0
 17 18  2  0  0  0  0
 17 22  1  0  0  0  0
 18 19  1  0  0  0  0
 19 20  2  0  0  0  0
 20 21  1  0  0  0  0
 20 26  1  0  0  0  0
 21 22  2  0  0  0  0
 21 24  1  0  0  0  0
 22 23  1  0  0  0  0
 24 25  2  0  0  0  0
 25 26  1  0  0  0  0
M  END
>  <CHROM.1>
-43.52923312,-170.85266483,78.93665554,-165.69145273,-39.67407816,-91.21220603
-67.31881467,-11.42667413,12.82206521,-20.47174728,-2.93805111,-0.72475516
-1.37738949

>  <Name>
ligand

>  <RI>
0

>  <Rbt.Current_Directory>
/home/itssahil/PROJECTS/Mol_Feturizer/New_Systems/rnas/3E5E

>  <Rbt.Executable>
rbdock ($Id: //depot/dev/client3/rdock/2013.1/src/exe/rbdock.cxx#4 $)

>  <Rbt.Library>
libRbt.so (2013.1, Build901 2013/11/27)

>  <Rbt.Parameter_File>
/export/apps/rDock/src/rDock_2013.1_src/data/scripts/dock_solv.prm

>  <Rbt.Receptor>
prm/pocket_docking_3.prm

>  <SCORE>
-19.3296

>  <SCORE.INTER>
-18.1671

>  <SCORE.INTER.CONST>
1

>  <SCORE.INTER.POLAR>
0

>  <SCORE.INTER.ROT>
7

>  <SCORE.INTER.SOLV>
21.3299

>  <SCORE.INTER.VDW>
-27.488

>  <SCORE.INTER.norm>
-0.698736

>  <SCORE.INTRA>
-1.16244

>  <SCORE.INTRA.DIHEDRAL>
-2.24276

>  <SCORE.INTRA.DIHEDRAL.0>
10.1225

>  <SCORE.INTRA.POLAR>
0

>  <SCORE.INTRA.POLAR.0>
0

>  <SCORE.INTRA.REPUL>
0

>  <SCORE.INTRA.REPUL.0>
0

>  <SCORE.INTRA.SOLV>
-0.0325042

>  <SCORE.INTRA.SOLV.lig_0>
-49.9393

>  <SCORE.INTRA.VDW>
-0.0248028

>  <SCORE.INTRA.VDW.0>
-1.75437

>  <SCORE.INTRA.norm>
-0.0447091

>  <SCORE.RESTR>
0

>  <SCORE.RESTR.CAVITY>
0

>  <SCORE.RESTR.norm>
0

>  <SCORE.SYSTEM>
0

>  <SCORE.SYSTEM.CONST>
0

>  <SCORE.SYSTEM.DIHEDRAL>
0

>  <SCORE.SYSTEM.SOLV>
0

>  <SCORE.SYSTEM.norm>
0

>  <SCORE.heavy>
26

>  <SCORE.norm>
-0.743445

>  <RMSD>
1.930

$$$$
ligand
 OpenBabel11021811473D
libRbt.so/2013.1/901 2013/11/27
 26 28  0  0  0  0  0  0  0  0999 V2000
  -13.1851    4.8747  -16.6999 N   0  0  0  0  0  0  0  0  0  0  0  0
  -14.3011    5.7910  -16.4345 C   0  0  2  0  0  0  0  0  0  0  0  0
  -15.5462    4.9939  -16.1474 C   0  0  0  0  0  0  0  0  0  0  0  0
  -15.8935    4.1196  -16.9063 O   0  0  0  0  0  0  0  0  0  0  0  0
  -14.5333    6.6783  -17.6586 C   0  0  0  0  0  0  0  0  0  0  0  0
  -13.3794    7.6698  -17.7965 C   0  0  0  0  0  0  0  0  0  0  0  0
  -13.3696    8.8147  -19.0509 S   0  0  0  0  0  0  0  0  0  0  0  0
  -12.8024   10.5146  -19.3147 C   0  0  0  0  0  0  0  0  0  0  0  0
  -13.2882   11.1579  -20.6193 C   0  0  1  0  0  0  0  0  0  0  0  0
  -12.9423   12.5281  -20.7078 O   0  0  0  0  0  0  0  0  0  0  0  0
  -12.6180   10.5577  -21.8326 C   0  0  1  0  0  0  0  0  0  0  0  0
  -13.5037   10.8137  -22.9006 O   0  0  0  0  0  0  0  0  0  0  0  0
  -11.3718   11.3850  -22.0462 C   0  0  1  0  0  0  0  0  0  0  0  0
  -11.1844   11.6147  -23.4256 O   0  0  0  0  0  0  0  0  0  0  0  0
  -11.6951   12.6925  -21.3562 C   0  0  2  0  0  0  0  0  0  0  0  0
  -16.2736    5.2553  -15.0490 O   0  0  0  0  0  0  0  0  0  0  0  0
   -7.9349   16.0839  -20.1018 N   0  0  0  0  0  0  0  0  0  0  0  0
   -8.6349   15.9919  -21.2815 C   0  0  0  0  0  0  0  0  0  0  0  0
   -9.5884   15.0135  -21.4287 N   0  0  0  0  0  0  0  0  0  0  0  0
   -9.8446   14.1466  -20.4297 C   0  0  0  0  0  0  0  0  0  0  0  0
   -9.1532   14.2219  -19.2352 C   0  0  0  0  0  0  0  0  0  0  0  0
   -8.1843   15.2058  -19.0772 C   0  0  0  0  0  0  0  0  0  0  0  0
   -7.4941   15.3114  -17.9485 N   0  0  0  0  0  0  0  0  0  0  0  0
   -9.6063   13.2422  -18.4214 N   0  0  0  0  0  0  0  0  0  0  0  0
  -10.5672   12.5620  -19.0765 C   0  0  0  0  0  0  0  0  0  0  0  0
  -10.7208   13.1018  -20.3280 N   0  0  0  0  0  0  0  0  0  0  0  0
  2  1  1  6  0  0  0
  2  3  1  0  0  0  0
  2  5  1  0  0  0  0
  3  4  1  0  0  0  0
  3 16  1  0  0  0  0
  5  6  1  0  0  0  0
  6  7  1  0  0  0  0
  7  8  1  0  0  0  0
  9  8  1  1  0  0  0
  9 10  1  0  0  0  0
  9 11  1  0  0  0  0
 10 15  1  0  0  0  0
 11 12  1  6  0  0  0
 11 13  1  0  0  0  0
 13 14  1  6  0  0  0
 13 15  1  0  0  0  0
 15 26  1  1  0  0  0
 17 18  2  0  0  0  0
 17 22  1  0  0  0  0
 18 19  1  0  0  0  0
 19 20  2  0  0  0  0
 20 21  1  0  0  0  0
 20 26  1  0  0  0  0
 21 22  2  0  0  0  0
 21 24  1  0  0  0  0
 22 23  1  0  0  0  0
 24 25  2  0  0  0  0
 25 26  1  0  0  0  0
M  END
>  <CHROM.1>
-51.06501455,-70.51075799,-178.75335414,146.51993897,-169.57551462,173.46646319
-131.62446328,-11.99950089,10.72580334,-19.41843121,-2.44620769,-0.85397575
-1.11623694

>  <Name>
ligand

>  <RI>
0

>  <Rbt.Current_Directory>
/home/itssahil/PROJECTS/Mol_Feturizer/New_Systems/rnas/3E5E

>  <Rbt.Executable>
rbdock ($Id: //depot/dev/client3/rdock/2013.1/src/exe/rbdock.cxx#4 $)

>  <Rbt.Library>
libRbt.so (2013.1, Build901 2013/11/27)

>  <Rbt.Parameter_File>
/export/apps/rDock/src/rDock_2013.1_src/data/scripts/dock_solv.prm

>  <Rbt.Receptor>
prm/pocket_docking_3.prm

>  <SCORE>
-16.5245

>  <SCORE.INTER>
-13.7468

>  <SCORE.INTER.CONST>
1

>  <SCORE.INTER.POLAR>
0

>  <SCORE.INTER.ROT>
7

>  <SCORE.INTER.SOLV>
15.2201

>  <SCORE.INTER.VDW>
-22.5046

>  <SCORE.INTER.norm>
-0.528725

>  <SCORE.INTRA>
-2.77762

>  <SCORE.INTRA.DIHEDRAL>
-5.18998

>  <SCORE.INTRA.DIHEDRAL.0>
10.1225

>  <SCORE.INTRA.POLAR>
0

>  <SCORE.INTRA.POLAR.0>
0

>  <SCORE.INTRA.REPUL>
0

>  <SCORE.INTRA.REPUL.0>
0

>  <SCORE.INTRA.SOLV>
-0.0326836

>  <SCORE.INTRA.SOLV.lig_0>
-49.9393

>  <SCORE.INTRA.VDW>
-0.166286

>  <SCORE.INTRA.VDW.0>
-1.75437

>  <SCORE.INTRA.norm>
-0.106832

>  <SCORE.RESTR>
0

>  <SCORE.RESTR.CAVITY>
0

>  <SCORE.RESTR.norm>
0

>  <SCORE.SYSTEM>
0

>  <SCORE.SYSTEM.CONST>
0

>  <SCORE.SYSTEM.DIHEDRAL>
0

>  <SCORE.SYSTEM.SOLV>
0

>  <SCORE.SYSTEM.norm>
0

>  <SCORE.heavy>
26

>  <SCORE.norm>
-0.635556

>  <RMSD>
1.956

$$$$
ligand
 OpenBabel11021811473D
libRbt.so/2013.1/901 2013/11/27
 26 28  0  0  0  0  0  0  0  0999 V2000
  -14.2925    7.7425  -18.5469 N   0  0  0  0  0  0  0  0  0  0  0  0
  -13.6156    7.7065  -17.2445 C   0  0  2  0  0  0  0  0  0  0  0  0
  -13.7276    6.3230  -16.6600 C   0  0  0  0  0  0  0  0  0  0  0  0
  -12.7354    5.6515  -16.4998 O   0  0  0  0  0  0  0  0  0  0  0  0
  -14.2736    8.7147  -16.3010 C   0  0  0  0  0  0  0  0  0  0  0  0
  -13.6925   10.1047  -16.5537 C   0  0  0  0  0  0  0  0  0  0  0  0
  -13.6059   10.7311  -18.1298 S   0  0  0  0  0  0  0  0  0  0  0  0
  -12.7453   10.3576  -19.6793 C   0  0  0  0  0  0  0  0  0  0  0  0
  -13.2564   11.1324  -20.9001 C   0  0  1  0  0  0  0  0  0  0  0  0
  -12.9935   12.5207  -20.8080 O   0  0  0  0  0  0  0  0  0  0  0  0
  -12.5392   10.7326  -22.1678 C   0  0  1  0  0  0  0  0  0  0  0  0
  -13.4281   11.0701  -23.2100 O   0  0  0  0  0  0  0  0  0  0  0  0
  -11.3434   11.6524  -22.2530 C   0  0  1  0  0  0  0  0  0  0  0  0
  -11.1568   12.0670  -23.5886 O   0  0  0  0  0  0  0  0  0  0  0  0
  -11.7523   12.8398  -21.4084 C   0  0  2  0  0  0  0  0  0  0  0  0
  -14.9305    5.8327  -16.3184 O   0  0  0  0  0  0  0  0  0  0  0  0
   -7.8962   15.9961  -19.8652 N   0  0  0  0  0  0  0  0  0  0  0  0
   -8.5357   15.9709  -21.0819 C   0  0  0  0  0  0  0  0  0  0  0  0
   -9.5287   15.0480  -21.3060 N   0  0  0  0  0  0  0  0  0  0  0  0
   -9.8821   14.1708  -20.3464 C   0  0  0  0  0  0  0  0  0  0  0  0
   -9.2527   14.1794  -19.1158 C   0  0  0  0  0  0  0  0  0  0  0  0
   -8.2446   15.1068  -18.8800 C   0  0  0  0  0  0  0  0  0  0  0  0
   -7.6113   15.1474  -17.7143 N   0  0  0  0  0  0  0  0  0  0  0  0
   -9.7983   13.2047  -18.3544 N   0  0  0  0  0  0  0  0  0  0  0  0
  -10.7562   12.5927  -19.0776 C   0  0  0  0  0  0  0  0  0  0  0  0
  -10.8148   13.1712  -20.3198 N   0  0  0  0  0  0  0  0  0  0  0  0
  2  1  1  6  0  0  0
  2  3  1  0  0  0  0
  2  5  1  0  0  0  0
  3  4  1  0  0  0  0
  3 16  1  0  0  0  0
  5  6  1  0  0  0  0
  6  7  1  0  0  0  0
  7  8  1  0  0  0  0
  9  8  1  1  0  0  0
  9 10  1  0  0  0  0
  9 11  1  0  0  0  0
 10 15  1  0  0  0  0
 11 12  1  6  0  0  0
 11 13  1  0  0  0  0
 13 14  1  6  0  0  0
 13 15  1  0  0  0  0
 15 26  1  1  0  0  0
 17 18  2  0  0  0  0
 17 22  1  0  0  0  0
 18 19  1  0  0  0  0
 19 20  2  0  0  0  0
 20 21  1  0  0  0  0
 20 26  1  0  0  0  0
 21 22  2  0  0  0  0
 21 24  1  0  0  0  0
 22 23  1  0  0  0  0
 24 25  2  0  0  0  0
 25 26  1  0  0  0  0
M  END
>  <CHROM.1>
114.85113193,-83.22404356,50.04495068,-65.12664769,169.00842781,66.90440388
-140.54877015,-11.80252538,11.39572298,-19.41707419,2.46801514,0.85699398
1.95824955

>  <Name>
ligand

>  <RI>
0

>  <Rbt.Current_Directory>
/home/itssahil/PROJECTS/Mol_Feturizer/New_Systems/rnas/3E5E

>  <Rbt.Executable>
rbdock ($Id: //depot/dev/client3/rdock/2013.1/src/exe/rbdock.cxx#4 $)

>  <Rbt.Library>
libRbt.so (2013.1, Build901 2013/11/27)

>  <Rbt.Parameter_File>
/export/apps/rDock/src/rDock_2013.1_src/data/scripts/dock_solv.prm

>  <Rbt.Receptor>
prm/pocket_docking_3.prm

>  <SCORE>
-19.9292

>  <SCORE.INTER>
-17.9726

>  <SCORE.INTER.CONST>
1

>  <SCORE.INTER.POLAR>
0

>  <SCORE.INTER.ROT>
7

>  <SCORE.INTER.SOLV>
16.7643

>  <SCORE.INTER.VDW>
-25.8365

>  <SCORE.INTER.norm>
-0.691253

>  <SCORE.INTRA>
-1.95662

>  <SCORE.INTRA.DIHEDRAL>
-4.63187

>  <SCORE.INTRA.DIHEDRAL.0>
10.1225

>  <SCORE.INTRA.POLAR>
0

>  <SCORE.INTRA.POLAR.0>
0

>  <SCORE.INTRA.REPUL>
0

>  <SCORE.INTRA.REPUL.0>
0

>  <SCORE.INTRA.SOLV>
2.35878

>  <SCORE.INTRA.SOLV.lig_0>
-49.9393

>  <SCORE.INTRA.VDW>
-0.820071

>  <SCORE.INTRA.VDW.0>
-1.75437

>  <SCORE.INTRA.norm>
-0.0752546

>  <SCORE.RESTR>
0

>  <SCORE.RESTR.CAVITY>
0

>  <SCORE.RESTR.norm>
0

>  <SCORE.SYSTEM>
0

>  <SCORE.SYSTEM.CONST>
0

>  <SCORE.SYSTEM.DIHEDRAL>
0

>  <SCORE.SYSTEM.SOLV>
0

>  <SCORE.SYSTEM.norm>
0

>  <SCORE.heavy>
26

>  <SCORE.norm>
-0.766508

>  <RMSD>
1.977

$$$$
ligand
 OpenBabel11021811473D
libRbt.so/2013.1/901 2013/11/27
 26 28  0  0  0  0  0  0  0  0999 V2000
  -16.0547    7.4442  -21.4396 N   0  0  0  0  0  0  0  0  0  0  0  0
  -16.1052    8.2635  -20.2224 C   0  0  2  0  0  0  0  0  0  0  0  0
  -17.5336    8.3884  -19.7616 C   0  0  0  0  0  0  0  0  0  0  0  0
  -18.4266    7.9121  -20.4224 O   0  0  0  0  0  0  0  0  0  0  0  0
  -15.5412    9.6537  -20.5209 C   0  0  0  0  0  0  0  0  0  0  0  0
  -14.0762    9.5316  -20.9363 C   0  0  0  0  0  0  0  0  0  0  0  0
  -13.1317   10.9201  -21.1896 S   0  0  0  0  0  0  0  0  0  0  0  0
  -11.6330   11.3790  -22.0976 C   0  0  0  0  0  0  0  0  0  0  0  0
  -11.8445   12.4270  -23.1970 C   0  0  1  0  0  0  0  0  0  0  0  0
  -11.8476   13.7491  -22.6901 O   0  0  0  0  0  0  0  0  0  0  0  0
  -10.7072   12.4453  -24.1908 C   0  0  1  0  0  0  0  0  0  0  0  0
  -11.2595   12.9992  -25.3649 O   0  0  0  0  0  0  0  0  0  0  0  0
   -9.7079   13.4305  -23.6307 C   0  0  1  0  0  0  0  0  0  0  0  0
   -9.1736   14.2124  -24.6766 O   0  0  0  0  0  0  0  0  0  0  0  0
  -10.5468   14.3055  -22.7245 C   0  0  2  0  0  0  0  0  0  0  0  0
  -17.8171    9.0316  -18.6171 O   0  0  0  0  0  0  0  0  0  0  0  0
   -7.1765   16.5744  -19.4523 N   0  0  0  0  0  0  0  0  0  0  0  0
   -7.2878   16.7499  -20.8113 C   0  0  0  0  0  0  0  0  0  0  0  0
   -8.2394   16.0462  -21.5094 N   0  0  0  0  0  0  0  0  0  0  0  0
   -9.0639   15.1893  -20.8760 C   0  0  0  0  0  0  0  0  0  0  0  0
   -8.9698   14.9986  -19.5102 C   0  0  0  0  0  0  0  0  0  0  0  0
   -8.0082   15.7030  -18.7952 C   0  0  0  0  0  0  0  0  0  0  0  0
   -7.8806   15.5472  -17.4834 N   0  0  0  0  0  0  0  0  0  0  0  0
   -9.9061   14.0952  -19.1434 N   0  0  0  0  0  0  0  0  0  0  0  0
  -10.5856   13.7227  -20.2456 C   0  0  0  0  0  0  0  0  0  0  0  0
  -10.0696   14.3827  -21.3315 N   0  0  0  0  0  0  0  0  0  0  0  0
  2  1  1  6  0  0  0
  2  3  1  0  0  0  0
  2  5  1  0  0  0  0
  3  4  1  0  0  0  0
  3 16  1  0  0  0  0
  5  6  1  0  0  0  0
  6  7  1  0  0  0  0
  7  8  1  0  0  0  0
  9  8  1  1  0  0  0
  9 10  1  0  0  0  0
  9 11  1  0  0  0  0
 10 15  1  0  0  0  0
 11 12  1  6  0  0  0
 11 13  1  0  0  0  0
 13 14  1  6  0  0  0
 13 15  1  0  0  0  0
 15 26  1  1  0  0  0
 17 18  2  0  0  0  0
 17 22  1  0  0  0  0
 18 19  1  0  0  0  0
 19 20  2  0  0  0  0
 20 21  1  0  0  0  0
 20 26  1  0  0  0  0
 21 22  2  0  0  0  0
 21 24  1  0  0  0  0
 22 23  1  0  0  0  0
 24 25  2  0  0  0  0
 25 26  1  0  0  0  0
M  END
>  <CHROM.1>
-4.03479149,-62.22596776,-174.14866601,-157.21170861,117.22174881,82.85086788
-159.70369738,-11.80793396,12.50475669,-21.23404016,-3.11341096,0.69820142
1.45590978

>  <Name>
ligand

>  <RI>
0

>  <Rbt.Current_Directory>
/home/itssahil/PROJECTS/Mol_Feturizer/New_Systems/rnas/3E5E

>  <Rbt.Executable>
rbdock ($Id: //depot/dev/client3/rdock/2013.1/src/exe/rbdock.cxx#4 $)

>  <Rbt.Library>
libRbt.so (2013.1, Build901 2013/11/27)

>  <Rbt.Parameter_File>
/export/apps/rDock/src/rDock_2013.1_src/data/scripts/dock_solv.prm

>  <Rbt.Receptor>
prm/pocket_docking_7.prm

>  <SCORE>
-15.0915

>  <SCORE.INTER>
-13.8508

>  <SCORE.INTER.CONST>
1

>  <SCORE.INTER.POLAR>
0

>  <SCORE.INTER.ROT>
7

>  <SCORE.INTER.SOLV>
18.6734

>  <SCORE.INTER.VDW>
-23.725

>  <SCORE.INTER.norm>
-0.532724

>  <SCORE.INTRA>
-1.24065

>  <SCORE.INTRA.DIHEDRAL>
-2.37805

>  <SCORE.INTRA.DIHEDRAL.0>
10.1225

>  <SCORE.INTRA.POLAR>
0

>  <SCORE.INTRA.POLAR.0>
0

>  <SCORE.INTRA.REPUL>
0

>  <SCORE.INTRA.REPUL.0>
0

>  <SCORE.INTRA.SOLV>
0.0960509

>  <SCORE.INTRA.SOLV.lig_0>
-49.9393

>  <SCORE.INTRA.VDW>
-0.0996457

>  <SCORE.INTRA.VDW.0>
-1.75437

>  <SCORE.INTRA.norm>
-0.0477172

>  <SCORE.RESTR>
0

>  <SCORE.RESTR.CAVITY>
0

>  <SCORE.RESTR.norm>
0

>  <SCORE.SYSTEM>
0

>  <SCORE.SYSTEM.CONST>
0

>  <SCORE.SYSTEM.DIHEDRAL>
0

>  <SCORE.SYSTEM.SOLV>
0

>  <SCORE.SYSTEM.norm>
0

>  <SCORE.heavy>
26

>  <SCORE.norm>
-0.580441

>  <RMSD>
1.977

$$$$
ligand
 OpenBabel11021811473D
libRbt.so/2013.1/901 2013/11/27
 26 28  0  0  0  0  0  0  0  0999 V2000
  -16.1589    6.7185  -18.6205 N   0  0  0  0  0  0  0  0  0  0  0  0
  -15.1763    6.3269  -19.6388 C   0  0  2  0  0  0  0  0  0  0  0  0
  -14.9705    4.8358  -19.5889 C   0  0  0  0  0  0  0  0  0  0  0  0
  -15.4282    4.1920  -18.6740 O   0  0  0  0  0  0  0  0  0  0  0  0
  -13.8488    7.0355  -19.3642 C   0  0  0  0  0  0  0  0  0  0  0  0
  -14.0003    8.5295  -19.6447 C   0  0  0  0  0  0  0  0  0  0  0  0
  -12.6572    9.5652  -19.5571 S   0  0  0  0  0  0  0  0  0  0  0  0
  -12.3353   11.3468  -19.4984 C   0  0  0  0  0  0  0  0  0  0  0  0
  -12.8673   12.1349  -20.7016 C   0  0  1  0  0  0  0  0  0  0  0  0
  -12.5208   13.5066  -20.6452 O   0  0  0  0  0  0  0  0  0  0  0  0
  -12.2445   11.6787  -21.9999 C   0  0  1  0  0  0  0  0  0  0  0  0
  -13.1683   12.0544  -22.9977 O   0  0  0  0  0  0  0  0  0  0  0  0
  -11.0045   12.5266  -22.1635 C   0  0  1  0  0  0  0  0  0  0  0  0
  -10.8678   12.9133  -23.5134 O   0  0  0  0  0  0  0  0  0  0  0  0
  -11.2981   13.7460  -21.3165 C   0  0  2  0  0  0  0  0  0  0  0  0
  -14.2758    4.2201  -20.5596 O   0  0  0  0  0  0  0  0  0  0  0  0
   -7.1335   16.6293  -20.0689 N   0  0  0  0  0  0  0  0  0  0  0  0
   -7.8320   16.6163  -21.2530 C   0  0  0  0  0  0  0  0  0  0  0  0
   -8.9046   15.7697  -21.3972 N   0  0  0  0  0  0  0  0  0  0  0  0
   -9.2787   14.9555  -20.3911 C   0  0  0  0  0  0  0  0  0  0  0  0
   -8.5911   14.9533  -19.1921 C   0  0  0  0  0  0  0  0  0  0  0  0
   -7.5024   15.8034  -19.0370 C   0  0  0  0  0  0  0  0  0  0  0  0
   -6.8115   15.8307  -17.9041 N   0  0  0  0  0  0  0  0  0  0  0  0
   -9.1739   14.0510  -18.3714 N   0  0  0  0  0  0  0  0  0  0  0  0
  -10.2116   13.4951  -19.0268 C   0  0  0  0  0  0  0  0  0  0  0  0
  -10.2851   14.0358  -20.2851 N   0  0  0  0  0  0  0  0  0  0  0  0
  2  1  1  1  0  0  0
  2  3  1  0  0  0  0
  2  5  1  0  0  0  0
  3  4  1  0  0  0  0
  3 16  1  0  0  0  0
  5  6  1  0  0  0  0
  6  7  1  0  0  0  0
  7  8  1  0  0  0  0
  9  8  1  1  0  0  0
  9 10  1  0  0  0  0
  9 11  1  0  0  0  0
 10 15  1  0  0  0  0
 11 12  1  6  0  0  0
 11 13  1  0  0  0  0
 13 14  1  6  0  0  0
 13 15  1  0  0  0  0
 15 26  1  1  0  0  0
 17 18  2  0  0  0  0
 17 22  1  0  0  0  0
 18 19  1  0  0  0  0
 19 20  2  0  0  0  0
 20 21  1  0  0  0  0
 20 26  1  0  0  0  0
 21 22  2  0  0  0  0
 21 24  1  0  0  0  0
 22 23  1  0  0  0  0
 24 25  2  0  0  0  0
 25 26  1  0  0  0  0
M  END
>  <CHROM.1>
-10.46244535,-69.51733024,-174.79656508,-166.38172863,-59.19038558,-176.48404221
-142.33253642,-11.62862541,11.45787902,-20.20717973,-2.55791598,-0.85145042
-0.91283180

>  <Name>
ligand

>  <RI>
0

>  <Rbt.Current_Directory>
/home/itssahil/PROJECTS/Mol_Feturizer/New_Systems/rnas/3E5E

>  <Rbt.Executable>
rbdock ($Id: //depot/dev/client3/rdock/2013.1/src/exe/rbdock.cxx#4 $)

>  <Rbt.Library>
libRbt.so (2013.1, Build901 2013/11/27)

>  <Rbt.Parameter_File>
/export/apps/rDock/src/rDock_2013.1_src/data/scripts/dock_solv.prm

>  <Rbt.Receptor>
prm/pocket_docking_6.prm

>  <SCORE>
-17.59

>  <SCORE.INTER>
-14.291

>  <SCORE.INTER.CONST>
1

>  <SCORE.INTER.POLAR>
0

>  <SCORE.INTER.ROT>
7

>  <SCORE.INTER.SOLV>
16.5334

>  <SCORE.INTER.VDW>
-23.3051

>  <SCORE.INTER.norm>
-0.549654

>  <SCORE.INTRA>
-3.312

>  <SCORE.INTRA.DIHEDRAL>
-6.52637

>  <SCORE.INTRA.DIHEDRAL.0>
10.1225

>  <SCORE.INTRA.POLAR>
0

>  <SCORE.INTRA.POLAR.0>
0

>  <SCORE.INTRA.REPUL>
0

>  <SCORE.INTRA.REPUL.0>
0

>  <SCORE.INTRA.SOLV>
0.0348549

>  <SCORE.INTRA.SOLV.lig_0>
-49.9393

>  <SCORE.INTRA.VDW>
-0.0662414

>  <SCORE.INTRA.VDW.0>
-1.75437

>  <SCORE.INTRA.norm>
-0.127384

>  <SCORE.RESTR>
0.0130129

>  <SCORE.RESTR.CAVITY>
0.0130129

>  <SCORE.RESTR.norm>
0.000500498

>  <SCORE.SYSTEM>
0

>  <SCORE.SYSTEM.CONST>
0

>  <SCORE.SYSTEM.DIHEDRAL>
0

>  <SCORE.SYSTEM.SOLV>
0

>  <SCORE.SYSTEM.norm>
0

>  <SCORE.heavy>
26

>  <SCORE.norm>
-0.676538

>  <RMSD>
2.075

$$$$
ligand
 OpenBabel11021811473D
libRbt.so/2013.1/901 2013/11/27
 26 28  0  0  0  0  0  0  0  0999 V2000
  -16.4569    7.4136  -16.7708 N   0  0  0  0  0  0  0  0  0  0  0  0
  -15.2128    8.1447  -17.0412 C   0  0  2  0  0  0  0  0  0  0  0  0
  -14.0461    7.1959  -16.9582 C   0  0  0  0  0  0  0  0  0  0  0  0
  -14.0663    6.2793  -16.1705 O   0  0  0  0  0  0  0  0  0  0  0  0
  -15.0411    9.2575  -16.0058 C   0  0  0  0  0  0  0  0  0  0  0  0
  -13.7788   10.0578  -16.3213 C   0  0  0  0  0  0  0  0  0  0  0  0
  -13.5176   10.6803  -17.8797 S   0  0  0  0  0  0  0  0  0  0  0  0
  -12.7479   10.1447  -19.4294 C   0  0  0  0  0  0  0  0  0  0  0  0
  -13.2913   10.8333  -20.6873 C   0  0  1  0  0  0  0  0  0  0  0  0
  -13.0502   12.2286  -20.6866 O   0  0  0  0  0  0  0  0  0  0  0  0
  -12.5878   10.3661  -21.9396 C   0  0  1  0  0  0  0  0  0  0  0  0
  -13.4989   10.6236  -22.9856 O   0  0  0  0  0  0  0  0  0  0  0  0
  -11.4092   11.2974  -22.1023 C   0  0  1  0  0  0  0  0  0  0  0  0
  -11.2508   11.6303  -23.4643 O   0  0  0  0  0  0  0  0  0  0  0  0
  -11.8243   12.5289  -21.3268 C   0  0  2  0  0  0  0  0  0  0  0  0
  -12.9807    7.3687  -17.7575 O   0  0  0  0  0  0  0  0  0  0  0  0
   -8.1026   15.9320  -19.9921 N   0  0  0  0  0  0  0  0  0  0  0  0
   -8.7747   15.8360  -21.1876 C   0  0  0  0  0  0  0  0  0  0  0  0
   -9.7221   14.8549  -21.3550 N   0  0  0  0  0  0  0  0  0  0  0  0
   -9.9994   13.9894  -20.3604 C   0  0  0  0  0  0  0  0  0  0  0  0
   -9.3362   14.0687  -19.1503 C   0  0  0  0  0  0  0  0  0  0  0  0
   -8.3736   15.0554  -18.9718 C   0  0  0  0  0  0  0  0  0  0  0  0
   -7.7101   15.1649  -17.8275 N   0  0  0  0  0  0  0  0  0  0  0  0
   -9.8057   13.0895  -18.3453 N   0  0  0  0  0  0  0  0  0  0  0  0
  -10.7495   12.4057  -19.0212 C   0  0  0  0  0  0  0  0  0  0  0  0
  -10.8752   12.9426  -20.2770 N   0  0  0  0  0  0  0  0  0  0  0  0
  2  1  1  1  0  0  0
  2  3  1  0  0  0  0
  2  5  1  0  0  0  0
  3  4  1  0  0  0  0
  3 16  1  0  0  0  0
  5  6  1  0  0  0  0
  6  7  1  0  0  0  0
  7  8  1  0  0  0  0
  9  8  1  1  0  0  0
  9 10  1  0  0  0  0
  9 11  1  0  0  0  0
 10 15  1  0  0  0  0
 11 12  1  6  0  0  0
 11 13  1  0  0  0  0
 13 14  1  6  0  0  0
 13 15  1  0  0  0  0
 15 26  1  1  0  0  0
 17 18  2  0  0  0  0
 17 22  1  0  0  0  0
 18 19  1  0  0  0  0
 19 20  2  0  0  0  0
 20 21  1  0  0  0  0
 20 26  1  0  0  0  0
 21 22  2  0  0  0  0
 21 24  1  0  0  0  0
 22 23  1  0  0  0  0
 24 25  2  0  0  0  0
 25 26  1  0  0  0  0
M  END
>  <CHROM.1>
-33.80828597,-177.56064461,51.32783727,-89.56037743,155.10568489,63.15062879
-137.56785599,-12.00321267,11.38570651,-19.32168850,-2.65528656,-0.84338333
-1.42245495

>  <Name>
ligand

>  <RI>
0

>  <Rbt.Current_Directory>
/home/itssahil/PROJECTS/Mol_Feturizer/New_Systems/rnas/3E5E

>  <Rbt.Executable>
rbdock ($Id: //depot/dev/client3/rdock/2013.1/src/exe/rbdock.cxx#4 $)

>  <Rbt.Library>
libRbt.so (2013.1, Build901 2013/11/27)

>  <Rbt.Parameter_File>
/export/apps/rDock/src/rDock_2013.1_src/data/scripts/dock_solv.prm

>  <Rbt.Receptor>
prm/pocket_docking_3.prm

>  <SCORE>
-20.7897

>  <SCORE.INTER>
-17.4099

>  <SCORE.INTER.CONST>
1

>  <SCORE.INTER.POLAR>
0

>  <SCORE.INTER.ROT>
7

>  <SCORE.INTER.SOLV>
15.0081

>  <SCORE.INTER.VDW>
-24.876

>  <SCORE.INTER.norm>
-0.669613

>  <SCORE.INTRA>
-3.37978

>  <SCORE.INTRA.DIHEDRAL>
-4.94316

>  <SCORE.INTRA.DIHEDRAL.0>
10.1225

>  <SCORE.INTRA.POLAR>
0

>  <SCORE.INTRA.POLAR.0>
0

>  <SCORE.INTRA.REPUL>
0

>  <SCORE.INTRA.REPUL.0>
0

>  <SCORE.INTRA.SOLV>
-0.397517

>  <SCORE.INTRA.SOLV.lig_0>
-49.9393

>  <SCORE.INTRA.VDW>
-0.709443

>  <SCORE.INTRA.VDW.0>
-1.75437

>  <SCORE.INTRA.norm>
-0.129992

>  <SCORE.RESTR>
0

>  <SCORE.RESTR.CAVITY>
0

>  <SCORE.RESTR.norm>
0

>  <SCORE.SYSTEM>
0

>  <SCORE.SYSTEM.CONST>
0

>  <SCORE.SYSTEM.DIHEDRAL>
0

>  <SCORE.SYSTEM.SOLV>
0

>  <SCORE.SYSTEM.norm>
0

>  <SCORE.heavy>
26

>  <SCORE.norm>
-0.799604

>  <RMSD>
2.109

$$$$
ligand
 OpenBabel11021811473D
libRbt.so/2013.1/901 2013/11/27
 26 28  0  0  0  0  0  0  0  0999 V2000
  -15.2717    7.1294  -19.9524 N   0  0  0  0  0  0  0  0  0  0  0  0
  -16.0788    8.2364  -20.4802 C   0  0  2  0  0  0  0  0  0  0  0  0
  -17.4870    7.7596  -20.7203 C   0  0  0  0  0  0  0  0  0  0  0  0
  -17.7147    6.9644  -21.6017 O   0  0  0  0  0  0  0  0  0  0  0  0
  -15.4732    8.7250  -21.7972 C   0  0  0  0  0  0  0  0  0  0  0  0
  -14.0898    9.3170  -21.5342 C   0  0  0  0  0  0  0  0  0  0  0  0
  -13.9039   10.6525  -20.5017 S   0  0  0  0  0  0  0  0  0  0  0  0
  -12.9058   12.1621  -20.4232 C   0  0  0  0  0  0  0  0  0  0  0  0
  -13.0248   13.0745  -21.6500 C   0  0  1  0  0  0  0  0  0  0  0  0
  -12.3446   14.3042  -21.4771 O   0  0  0  0  0  0  0  0  0  0  0  0
  -12.3538   12.4815  -22.8663 C   0  0  1  0  0  0  0  0  0  0  0  0
  -12.9853   13.0985  -23.9667 O   0  0  0  0  0  0  0  0  0  0  0  0
  -10.9254   12.9709  -22.8085 C   0  0  1  0  0  0  0  0  0  0  0  0
  -10.4897   13.3200  -24.1042 O   0  0  0  0  0  0  0  0  0  0  0  0
  -11.0148   14.2164  -21.9534 C   0  0  2  0  0  0  0  0  0  0  0  0
  -18.4919    8.2193  -19.9569 O   0  0  0  0  0  0  0  0  0  0  0  0
   -6.9635   16.5288  -19.6181 N   0  0  0  0  0  0  0  0  0  0  0  0
   -7.5110   16.8152  -20.8462 C   0  0  0  0  0  0  0  0  0  0  0  0
   -8.5789   16.0792  -21.3000 N   0  0  0  0  0  0  0  0  0  0  0  0
   -9.0946   15.0830  -20.5537 C   0  0  0  0  0  0  0  0  0  0  0  0
   -8.5601   14.7790  -19.3158 C   0  0  0  0  0  0  0  0  0  0  0  0
   -7.4776   15.5153  -18.8490 C   0  0  0  0  0  0  0  0  0  0  0  0
   -6.9310   15.2545  -17.6680 N   0  0  0  0  0  0  0  0  0  0  0  0
   -9.2624   13.7491  -18.7928 N   0  0  0  0  0  0  0  0  0  0  0  0
  -10.2252   13.4076  -19.6711 C   0  0  0  0  0  0  0  0  0  0  0  0
  -10.1295   14.2168  -20.7743 N   0  0  0  0  0  0  0  0  0  0  0  0
  2  1  1  6  0  0  0
  2  3  1  0  0  0  0
  2  5  1  0  0  0  0
  3  4  1  0  0  0  0
  3 16  1  0  0  0  0
  5  6  1  0  0  0  0
  6  7  1  0  0  0  0
  7  8  1  0  0  0  0
  9  8  1  1  0  0  0
  9 10  1  0  0  0  0
  9 11  1  0  0  0  0
 10 15  1  0  0  0  0
 11 12  1  6  0  0  0
 11 13  1  0  0  0  0
 13 14  1  6  0  0  0
 13 15  1  0  0  0  0
 15 26  1  1  0  0  0
 17 18  2  0  0  0  0
 17 22  1  0  0  0  0
 18 19  1  0  0  0  0
 19 20  2  0  0  0  0
 20 21  1  0  0  0  0
 20 26  1  0  0  0  0
 21 22  2  0  0  0  0
 21 24  1  0  0  0  0
 22 23  1  0  0  0  0
 24 25  2  0  0  0  0
 25 26  1  0  0  0  0
M  END
>  <CHROM.1>
-68.67795805,-64.78565405,-60.56361832,-141.55340231,56.34063269,173.49164890
-125.01970240,-12.10758963,12.30020551,-20.92299555,-2.96557570,-0.70654022
-1.19316016

>  <Name>
ligand

>  <RI>
0

>  <Rbt.Current_Directory>
/home/itssahil/PROJECTS/Mol_Feturizer/New_Systems/rnas/3E5E

>  <Rbt.Executable>
rbdock ($Id: //depot/dev/client3/rdock/2013.1/src/exe/rbdock.cxx#4 $)

>  <Rbt.Library>
libRbt.so (2013.1, Build901 2013/11/27)

>  <Rbt.Parameter_File>
/export/apps/rDock/src/rDock_2013.1_src/data/scripts/dock_solv.prm

>  <Rbt.Receptor>
prm/pocket_docking_5.prm

>  <SCORE>
-19.457

>  <SCORE.INTER>
-16.8684

>  <SCORE.INTER.CONST>
1

>  <SCORE.INTER.POLAR>
0

>  <SCORE.INTER.ROT>
7

>  <SCORE.INTER.SOLV>
19.0105

>  <SCORE.INTER.VDW>
-25.8491

>  <SCORE.INTER.norm>
-0.648783

>  <SCORE.INTRA>
-2.58869

>  <SCORE.INTRA.DIHEDRAL>
-5.4236

>  <SCORE.INTRA.DIHEDRAL.0>
10.1225

>  <SCORE.INTRA.POLAR>
0

>  <SCORE.INTRA.POLAR.0>
0

>  <SCORE.INTRA.REPUL>
0

>  <SCORE.INTRA.REPUL.0>
0

>  <SCORE.INTRA.SOLV>
0.692664

>  <SCORE.INTRA.SOLV.lig_0>
-49.9393

>  <SCORE.INTRA.VDW>
-0.223217

>  <SCORE.INTRA.VDW.0>
-1.75437

>  <SCORE.INTRA.norm>
-0.0995649

>  <SCORE.RESTR>
0

>  <SCORE.RESTR.CAVITY>
0

>  <SCORE.RESTR.norm>
0

>  <SCORE.SYSTEM>
0

>  <SCORE.SYSTEM.CONST>
0

>  <SCORE.SYSTEM.DIHEDRAL>
0

>  <SCORE.SYSTEM.SOLV>
0

>  <SCORE.SYSTEM.norm>
0

>  <SCORE.heavy>
26

>  <SCORE.norm>
-0.748348

>  <RMSD>
2.109

$$$$
ligand
 OpenBabel11021811473D
libRbt.so/2013.1/901 2013/11/27
 26 28  0  0  0  0  0  0  0  0999 V2000
  -16.6991    6.0322  -15.4481 N   0  0  0  0  0  0  0  0  0  0  0  0
  -16.6244    7.1718  -16.3707 C   0  0  2  0  0  0  0  0  0  0  0  0
  -17.2071    6.7773  -17.7022 C   0  0  0  0  0  0  0  0  0  0  0  0
  -17.9567    7.5282  -18.2812 O   0  0  0  0  0  0  0  0  0  0  0  0
  -15.1626    7.5830  -16.5543 C   0  0  0  0  0  0  0  0  0  0  0  0
  -15.0952    8.8897  -17.3428 C   0  0  0  0  0  0  0  0  0  0  0  0
  -13.5974    9.6030  -17.7060 S   0  0  0  0  0  0  0  0  0  0  0  0
  -12.9836   11.0922  -18.5347 C   0  0  0  0  0  0  0  0  0  0  0  0
  -13.2410   11.1379  -20.0458 C   0  0  1  0  0  0  0  0  0  0  0  0
  -12.7231   12.3105  -20.6471 O   0  0  0  0  0  0  0  0  0  0  0  0
  -12.5197   10.0315  -20.7787 C   0  0  1  0  0  0  0  0  0  0  0  0
  -13.2448    9.8562  -21.9762 O   0  0  0  0  0  0  0  0  0  0  0  0
  -11.1661   10.6050  -21.1280 C   0  0  1  0  0  0  0  0  0  0  0  0
  -10.8017   10.2039  -22.4306 O   0  0  0  0  0  0  0  0  0  0  0  0
  -11.4016   12.0998  -21.1075 C   0  0  2  0  0  0  0  0  0  0  0  0
  -16.8968    5.5893  -18.2466 O   0  0  0  0  0  0  0  0  0  0  0  0
   -8.2475   16.2301  -20.6535 N   0  0  0  0  0  0  0  0  0  0  0  0
   -8.9279   15.8012  -21.7684 C   0  0  0  0  0  0  0  0  0  0  0  0
   -9.7074   14.6722  -21.6935 N   0  0  0  0  0  0  0  0  0  0  0  0
   -9.8125   13.9839  -20.5401 C   0  0  0  0  0  0  0  0  0  0  0  0
   -9.1377   14.3981  -19.4071 C   0  0  0  0  0  0  0  0  0  0  0  0
   -8.3438   15.5371  -19.4731 C   0  0  0  0  0  0  0  0  0  0  0  0
   -7.6755   15.9678  -18.4103 N   0  0  0  0  0  0  0  0  0  0  0  0
   -9.4191   13.5333  -18.4069 N   0  0  0  0  0  0  0  0  0  0  0  0
  -10.2574   12.5940  -18.8865 C   0  0  0  0  0  0  0  0  0  0  0  0
  -10.5036   12.8509  -20.2111 N   0  0  0  0  0  0  0  0  0  0  0  0
  2  1  1  1  0  0  0
  2  3  1  0  0  0  0
  2  5  1  0  0  0  0
  3  4  1  0  0  0  0
  3 16  1  0  0  0  0
  5  6  1  0  0  0  0
  6  7  1  0  0  0  0
  7  8  1  0  0  0  0
  9  8  1  1  0  0  0
  9 10  1  0  0  0  0
  9 11  1  0  0  0  0
 10 15  1  0  0  0  0
 11 12  1  6  0  0  0
 11 13  1  0  0  0  0
 13 14  1  6  0  0  0
 13 15  1  0  0  0  0
 15 26  1  1  0  0  0
 17 18  2  0  0  0  0
 17 22  1  0  0  0  0
 18 19  1  0  0  0  0
 19 20  2  0  0  0  0
 20 21  1  0  0  0  0
 20 26  1  0  0  0  0
 21 22  2  0  0  0  0
 21 24  1  0  0  0  0
 22 23  1  0  0  0  0
 24 25  2  0  0  0  0
 25 26  1  0  0  0  0
M  END
>  <CHROM.1>
135.79588344,-171.63640401,179.93692598,-178.17521986,-67.26930913,-179.04061172
-109.16355166,-12.44450980,11.04969710,-19.30460907,-2.95702351,-0.82311989
-1.69490135

>  <Name>
ligand

>  <RI>
0

>  <Rbt.Current_Directory>
/home/itssahil/PROJECTS/Mol_Feturizer/New_Systems/rnas/3E5E

>  <Rbt.Executable>
rbdock ($Id: //depot/dev/client3/rdock/2013.1/src/exe/rbdock.cxx#4 $)

>  <Rbt.Library>
libRbt.so (2013.1, Build901 2013/11/27)

>  <Rbt.Parameter_File>
/export/apps/rDock/src/rDock_2013.1_src/data/scripts/dock_solv.prm

>  <Rbt.Receptor>
prm/pocket_docking_3.prm

>  <SCORE>
-16.5296

>  <SCORE.INTER>
-12.2749

>  <SCORE.INTER.CONST>
1

>  <SCORE.INTER.POLAR>
0

>  <SCORE.INTER.ROT>
7

>  <SCORE.INTER.SOLV>
14.1186

>  <SCORE.INTER.VDW>
-21.1561

>  <SCORE.INTER.norm>
-0.472111

>  <SCORE.INTRA>
-4.25472

>  <SCORE.INTRA.DIHEDRAL>
-7.10859

>  <SCORE.INTRA.DIHEDRAL.0>
10.1225

>  <SCORE.INTRA.POLAR>
0

>  <SCORE.INTRA.POLAR.0>
0

>  <SCORE.INTRA.REPUL>
0

>  <SCORE.INTRA.REPUL.0>
0

>  <SCORE.INTRA.SOLV>
-0.595548

>  <SCORE.INTRA.SOLV.lig_0>
-49.9393

>  <SCORE.INTRA.VDW>
-0.402647

>  <SCORE.INTRA.VDW.0>
-1.75437

>  <SCORE.INTRA.norm>
-0.163643

>  <SCORE.RESTR>
0

>  <SCORE.RESTR.CAVITY>
0

>  <SCORE.RESTR.norm>
0

>  <SCORE.SYSTEM>
0

>  <SCORE.SYSTEM.CONST>
0

>  <SCORE.SYSTEM.DIHEDRAL>
0

>  <SCORE.SYSTEM.SOLV>
0

>  <SCORE.SYSTEM.norm>
0

>  <SCORE.heavy>
26

>  <SCORE.norm>
-0.635754

>  <RMSD>
2.124

$$$$
ligand
 OpenBabel11021811473D
libRbt.so/2013.1/901 2013/11/27
 26 28  0  0  0  0  0  0  0  0999 V2000
  -14.1080    9.7132  -14.2851 N   0  0  0  0  0  0  0  0  0  0  0  0
  -15.1985    9.6518  -15.2662 C   0  0  2  0  0  0  0  0  0  0  0  0
  -16.5166    9.5520  -14.5446 C   0  0  0  0  0  0  0  0  0  0  0  0
  -17.4093   10.3240  -14.8054 O   0  0  0  0  0  0  0  0  0  0  0  0
  -15.0108    8.4245  -16.1597 C   0  0  0  0  0  0  0  0  0  0  0  0
  -13.7049    8.5570  -16.9412 C   0  0  0  0  0  0  0  0  0  0  0  0
  -13.5412    9.7317  -18.1567 S   0  0  0  0  0  0  0  0  0  0  0  0
  -12.5657    9.9808  -19.6625 C   0  0  0  0  0  0  0  0  0  0  0  0
  -13.2727   10.7866  -20.7590 C   0  0  1  0  0  0  0  0  0  0  0  0
  -13.2073   12.1826  -20.5312 O   0  0  0  0  0  0  0  0  0  0  0  0
  -12.6012   10.6284  -22.1028 C   0  0  1  0  0  0  0  0  0  0  0  0
  -13.6046   10.9292  -23.0479 O   0  0  0  0  0  0  0  0  0  0  0  0
  -11.5608   11.7228  -22.1567 C   0  0  1  0  0  0  0  0  0  0  0  0
  -11.5358   12.2918  -23.4476 O   0  0  0  0  0  0  0  0  0  0  0  0
  -12.0734   12.7445  -21.1648 C   0  0  2  0  0  0  0  0  0  0  0  0
  -16.7007    8.6067  -13.6083 O   0  0  0  0  0  0  0  0  0  0  0  0
   -8.0469   15.7928  -19.8577 N   0  0  0  0  0  0  0  0  0  0  0  0
   -8.6912   15.7123  -21.0695 C   0  0  0  0  0  0  0  0  0  0  0  0
   -9.7334   14.8305  -21.2251 N   0  0  0  0  0  0  0  0  0  0  0  0
  -10.1303   14.0471  -20.2033 C   0  0  0  0  0  0  0  0  0  0  0  0
   -9.4970   14.1127  -18.9764 C   0  0  0  0  0  0  0  0  0  0  0  0
   -8.4394   14.9990  -18.8095 C   0  0  0  0  0  0  0  0  0  0  0  0
   -7.8007   15.0915  -17.6497 N   0  0  0  0  0  0  0  0  0  0  0  0
  -10.0918   13.2280  -18.1452 N   0  0  0  0  0  0  0  0  0  0  0  0
  -11.0840   12.6170  -18.8215 C   0  0  0  0  0  0  0  0  0  0  0  0
  -11.1155   13.1042  -20.1032 N   0  0  0  0  0  0  0  0  0  0  0  0
  2  1  1  1  0  0  0
  2  3  1  0  0  0  0
  2  5  1  0  0  0  0
  3  4  1  0  0  0  0
  3 16  1  0  0  0  0
  5  6  1  0  0  0  0
  6  7  1  0  0  0  0
  7  8  1  0  0  0  0
  9  8  1  1  0  0  0
  9 10  1  0  0  0  0
  9 11  1  0  0  0  0
 10 15  1  0  0  0  0
 11 12  1  6  0  0  0
 11 13  1  0  0  0  0
 13 14  1  6  0  0  0
 13 15  1  0  0  0  0
 15 26  1  1  0  0  0
 17 18  2  0  0  0  0
 17 22  1  0  0  0  0
 18 19  1  0  0  0  0
 19 20  2  0  0  0  0
 20 21  1  0  0  0  0
 20 26  1  0  0  0  0
 21 22  2  0  0  0  0
 21 24  1  0  0  0  0
 22 23  1  0  0  0  0
 24 25  2  0  0  0  0
 25 26  1  0  0  0  0
M  END
>  <CHROM.1>
127.73549123,-62.68945925,-68.68394370,-154.32058661,148.71809058,80.87854649
-156.52471108,-12.36441283,11.72559831,-18.85967839,-2.58225021,-0.72796178
-1.63880605

>  <Name>
ligand

>  <RI>
0

>  <Rbt.Current_Directory>
/home/itssahil/PROJECTS/Mol_Feturizer/New_Systems/rnas/3E5E

>  <Rbt.Executable>
rbdock ($Id: //depot/dev/client3/rdock/2013.1/src/exe/rbdock.cxx#4 $)

>  <Rbt.Library>
libRbt.so (2013.1, Build901 2013/11/27)

>  <Rbt.Parameter_File>
/export/apps/rDock/src/rDock_2013.1_src/data/scripts/dock_solv.prm

>  <Rbt.Receptor>
prm/pocket_docking_4.prm

>  <SCORE>
-16.8572

>  <SCORE.INTER>
-14.9623

>  <SCORE.INTER.CONST>
1

>  <SCORE.INTER.POLAR>
0

>  <SCORE.INTER.ROT>
7

>  <SCORE.INTER.SOLV>
20.0732

>  <SCORE.INTER.VDW>
-24.9326

>  <SCORE.INTER.norm>
-0.575474

>  <SCORE.INTRA>
-1.89486

>  <SCORE.INTRA.DIHEDRAL>
-3.38291

>  <SCORE.INTRA.DIHEDRAL.0>
10.1225

>  <SCORE.INTRA.POLAR>
0

>  <SCORE.INTRA.POLAR.0>
0

>  <SCORE.INTRA.REPUL>
0

>  <SCORE.INTRA.REPUL.0>
0

>  <SCORE.INTRA.SOLV>
0.652434

>  <SCORE.INTRA.SOLV.lig_0>
-49.9393

>  <SCORE.INTRA.VDW>
-0.529619

>  <SCORE.INTRA.VDW.0>
-1.75437

>  <SCORE.INTRA.norm>
-0.0728791

>  <SCORE.RESTR>
0

>  <SCORE.RESTR.CAVITY>
0

>  <SCORE.RESTR.norm>
0

>  <SCORE.SYSTEM>
0

>  <SCORE.SYSTEM.CONST>
0

>  <SCORE.SYSTEM.DIHEDRAL>
0

>  <SCORE.SYSTEM.SOLV>
0

>  <SCORE.SYSTEM.norm>
0

>  <SCORE.heavy>
26

>  <SCORE.norm>
-0.648353

>  <RMSD>
2.130

$$$$
ligand
 OpenBabel11021811473D
libRbt.so/2013.1/901 2013/11/27
 26 28  0  0  0  0  0  0  0  0999 V2000
  -13.5930    9.3277  -17.3989 N   0  0  0  0  0  0  0  0  0  0  0  0
  -14.4380    9.3686  -18.5988 C   0  0  2  0  0  0  0  0  0  0  0  0
  -15.6156    8.4482  -18.4138 C   0  0  0  0  0  0  0  0  0  0  0  0
  -16.7393    8.8631  -18.5759 O   0  0  0  0  0  0  0  0  0  0  0  0
  -13.6222    8.9172  -19.8114 C   0  0  0  0  0  0  0  0  0  0  0  0
  -12.5682    9.9732  -20.1393 C   0  0  0  0  0  0  0  0  0  0  0  0
  -13.0264   11.5689  -20.4969 S   0  0  0  0  0  0  0  0  0  0  0  0
  -12.2467   13.0876  -21.1024 C   0  0  0  0  0  0  0  0  0  0  0  0
  -11.9992   13.1226  -22.6154 C   0  0  1  0  0  0  0  0  0  0  0  0
  -11.2893   14.2789  -23.0204 O   0  0  0  0  0  0  0  0  0  0  0  0
  -11.1031   11.9951  -23.0706 C   0  0  1  0  0  0  0  0  0  0  0  0
  -11.4042   11.8212  -24.4379 O   0  0  0  0  0  0  0  0  0  0  0  0
   -9.6974   12.5390  -22.9639 C   0  0  1  0  0  0  0  0  0  0  0  0
   -8.9389   12.1176  -24.0765 O   0  0  0  0  0  0  0  0  0  0  0  0
   -9.8947   14.0382  -23.0263 C   0  0  2  0  0  0  0  0  0  0  0  0
  -15.4188    7.1660  -18.0658 O   0  0  0  0  0  0  0  0  0  0  0  0
   -8.8863   13.9644  -17.9086 N   0  0  0  0  0  0  0  0  0  0  0  0
   -9.5401   13.0151  -18.6578 C   0  0  0  0  0  0  0  0  0  0  0  0
   -9.7218   13.2219  -20.0040 N   0  0  0  0  0  0  0  0  0  0  0  0
   -9.2648   14.3427  -20.5958 C   0  0  0  0  0  0  0  0  0  0  0  0
   -8.6040   15.3094  -19.8614 C   0  0  0  0  0  0  0  0  0  0  0  0
   -8.4179   15.1114  -18.4983 C   0  0  0  0  0  0  0  0  0  0  0  0
   -7.7925   16.0156  -17.7547 N   0  0  0  0  0  0  0  0  0  0  0  0
   -8.2603   16.3147  -20.6973 N   0  0  0  0  0  0  0  0  0  0  0  0
   -8.6848   15.9958  -21.9355 C   0  0  0  0  0  0  0  0  0  0  0  0
   -9.3201   14.7812  -21.8898 N   0  0  0  0  0  0  0  0  0  0  0  0
  2  1  1  1  0  0  0
  2  3  1  0  0  0  0
  2  5  1  0  0  0  0
  3  4  1  0  0  0  0
  3 16  1  0  0  0  0
  5  6  1  0  0  0  0
  6  7  1  0  0  0  0
  7  8  1  0  0  0  0
  9  8  1  1  0  0  0
  9 10  1  0  0  0  0
  9 11  1  0  0  0  0
 10 15  1  0  0  0  0
 11 12  1  6  0  0  0
 11 13  1  0  0  0  0
 13 14  1  6  0  0  0
 13 15  1  0  0  0  0
 15 26  1  1  0  0  0
 17 18  2  0  0  0  0
 17 22  1  0  0  0  0
 18 19  1  0  0  0  0
 19 20  2  0  0  0  0
 20 21  1  0  0  0  0
 20 26  1  0  0  0  0
 21 22  2  0  0  0  0
 21 24  1  0  0  0  0
 22 23  1  0  0  0  0
 24 25  2  0  0  0  0
 25 26  1  0  0  0  0
M  END
>  <CHROM.1>
126.68445824,-69.34250265,-58.48590148,-171.57556706,78.16629892,-175.06239147
83.94728807,-11.32259328,12.36546565,-20.55932363,-2.88613168,-0.78834327
-1.57427281

>  <Name>
ligand

>  <RI>
0

>  <Rbt.Current_Directory>
/home/itssahil/PROJECTS/Mol_Feturizer/New_Systems/rnas/3E5E

>  <Rbt.Executable>
rbdock ($Id: //depot/dev/client3/rdock/2013.1/src/exe/rbdock.cxx#4 $)

>  <Rbt.Library>
libRbt.so (2013.1, Build901 2013/11/27)

>  <Rbt.Parameter_File>
/export/apps/rDock/src/rDock_2013.1_src/data/scripts/dock_solv.prm

>  <Rbt.Receptor>
prm/pocket_docking_2.prm

>  <SCORE>
-16.5121

>  <SCORE.INTER>
-13.0436

>  <SCORE.INTER.CONST>
1

>  <SCORE.INTER.POLAR>
0

>  <SCORE.INTER.ROT>
7

>  <SCORE.INTER.SOLV>
20.1536

>  <SCORE.INTER.VDW>
-23.6803

>  <SCORE.INTER.norm>
-0.501678

>  <SCORE.INTRA>
-3.54638

>  <SCORE.INTRA.DIHEDRAL>
-6.26327

>  <SCORE.INTRA.DIHEDRAL.0>
10.1225

>  <SCORE.INTRA.POLAR>
0

>  <SCORE.INTRA.POLAR.0>
0

>  <SCORE.INTRA.REPUL>
0

>  <SCORE.INTRA.REPUL.0>
0

>  <SCORE.INTRA.SOLV>
0.757413

>  <SCORE.INTRA.SOLV.lig_0>
-49.9393

>  <SCORE.INTRA.VDW>
-0.793447

>  <SCORE.INTRA.VDW.0>
-1.75437

>  <SCORE.INTRA.norm>
-0.136399

>  <SCORE.RESTR>
0.0778808

>  <SCORE.RESTR.CAVITY>
0.0778808

>  <SCORE.RESTR.norm>
0.00299542

>  <SCORE.SYSTEM>
0

>  <SCORE.SYSTEM.CONST>
0

>  <SCORE.SYSTEM.DIHEDRAL>
0

>  <SCORE.SYSTEM.SOLV>
0

>  <SCORE.SYSTEM.norm>
0

>  <SCORE.heavy>
26

>  <SCORE.norm>
-0.635082

>  <RMSD>
2.147

$$$$
ligand
 OpenBabel11021811473D
libRbt.so/2013.1/901 2013/11/27
 26 28  0  0  0  0  0  0  0  0999 V2000
  -17.4431    7.6254  -15.6013 N   0  0  0  0  0  0  0  0  0  0  0  0
  -16.4711    8.5883  -16.1338 C   0  0  2  0  0  0  0  0  0  0  0  0
  -16.7033    8.7697  -17.6107 C   0  0  0  0  0  0  0  0  0  0  0  0
  -16.8895    9.8751  -18.0628 O   0  0  0  0  0  0  0  0  0  0  0  0
  -15.0537    8.0629  -15.9000 C   0  0  0  0  0  0  0  0  0  0  0  0
  -14.0435    9.1685  -16.2009 C   0  0  0  0  0  0  0  0  0  0  0  0
  -13.8010    9.7069  -17.7932 S   0  0  0  0  0  0  0  0  0  0  0  0
  -13.0076   11.1011  -18.6344 C   0  0  0  0  0  0  0  0  0  0  0  0
  -13.2267   11.1440  -20.1516 C   0  0  1  0  0  0  0  0  0  0  0  0
  -12.6881   12.3125  -20.7428 O   0  0  0  0  0  0  0  0  0  0  0  0
  -12.4926   10.0322  -20.8633 C   0  0  1  0  0  0  0  0  0  0  0  0
  -13.1881    9.8571  -22.0782 O   0  0  0  0  0  0  0  0  0  0  0  0
  -11.1278   10.5982  -21.1799 C   0  0  1  0  0  0  0  0  0  0  0  0
  -10.7327   10.1918  -22.4719 O   0  0  0  0  0  0  0  0  0  0  0  0
  -11.3565   12.0942  -21.1692 C   0  0  2  0  0  0  0  0  0  0  0  0
  -16.7064    7.7030  -18.4269 O   0  0  0  0  0  0  0  0  0  0  0  0
   -8.2166   16.2262  -20.6385 N   0  0  0  0  0  0  0  0  0  0  0  0
   -8.8738   15.8001  -21.7684 C   0  0  0  0  0  0  0  0  0  0  0  0
   -9.6534   14.6700  -21.7128 N   0  0  0  0  0  0  0  0  0  0  0  0
   -9.7812   13.9781  -20.5638 C   0  0  0  0  0  0  0  0  0  0  0  0
   -9.1300   14.3894  -19.4161 C   0  0  0  0  0  0  0  0  0  0  0  0
   -8.3362   15.5295  -19.4625 C   0  0  0  0  0  0  0  0  0  0  0  0
   -7.6900   15.9575  -18.3850 N   0  0  0  0  0  0  0  0  0  0  0  0
   -9.4307   13.5213  -18.4245 N   0  0  0  0  0  0  0  0  0  0  0  0
  -10.2581   12.5826  -18.9239 C   0  0  0  0  0  0  0  0  0  0  0  0
  -10.4777   12.8433  -20.2524 N   0  0  0  0  0  0  0  0  0  0  0  0
  2  1  1  6  0  0  0
  2  3  1  0  0  0  0
  2  5  1  0  0  0  0
  3  4  1  0  0  0  0
  3 16  1  0  0  0  0
  5  6  1  0  0  0  0
  6  7  1  0  0  0  0
  7  8  1  0  0  0  0
  9  8  1  1  0  0  0
  9 10  1  0  0  0  0
  9 11  1  0  0  0  0
 10 15  1  0  0  0  0
 11 12  1  6  0  0  0
 11 13  1  0  0  0  0
 13 14  1  6  0  0  0
 13 15  1  0  0  0  0
 15 26  1  1  0  0  0
 17 18  2  0  0  0  0
 17 22  1  0  0  0  0
 18 19  1  0  0  0  0
 19 20  2  0  0  0  0
 20 21  1  0  0  0  0
 20 26  1  0  0  0  0
 21 22  2  0  0  0  0
 21 24  1  0  0  0  0
 22 23  1  0  0  0  0
 24 25  2  0  0  0  0
 25 26  1  0  0  0  0
M  END
>  <CHROM.1>
124.89142523,-169.10161332,-69.07893436,166.33469087,-174.05645873,174.75927598
-108.61798050,-12.35459476,11.44671076,-19.26565200,-2.97402719,-0.76697344
-1.81482763

>  <Name>
ligand

>  <RI>
0

>  <Rbt.Current_Directory>
/home/itssahil/PROJECTS/Mol_Feturizer/New_Systems/rnas/3E5E

>  <Rbt.Executable>
rbdock ($Id: //depot/dev/client3/rdock/2013.1/src/exe/rbdock.cxx#4 $)

>  <Rbt.Library>
libRbt.so (2013.1, Build901 2013/11/27)

>  <Rbt.Parameter_File>
/export/apps/rDock/src/rDock_2013.1_src/data/scripts/dock_solv.prm

>  <Rbt.Receptor>
prm/pocket_docking_5.prm

>  <SCORE>
-18.8711

>  <SCORE.INTER>
-14.7749

>  <SCORE.INTER.CONST>
1

>  <SCORE.INTER.POLAR>
0

>  <SCORE.INTER.ROT>
7

>  <SCORE.INTER.SOLV>
15.1147

>  <SCORE.INTER.VDW>
-23.1549

>  <SCORE.INTER.norm>
-0.568266

>  <SCORE.INTRA>
-4.09622

>  <SCORE.INTRA.DIHEDRAL>
-6.27404

>  <SCORE.INTRA.DIHEDRAL.0>
10.1225

>  <SCORE.INTRA.POLAR>
0

>  <SCORE.INTRA.POLAR.0>
0

>  <SCORE.INTRA.REPUL>
0

>  <SCORE.INTRA.REPUL.0>
0

>  <SCORE.INTRA.SOLV>
-0.44241

>  <SCORE.INTRA.SOLV.lig_0>
-49.9393

>  <SCORE.INTRA.VDW>
-0.737997

>  <SCORE.INTRA.VDW.0>
-1.75437

>  <SCORE.INTRA.norm>
-0.157547

>  <SCORE.RESTR>
0

>  <SCORE.RESTR.CAVITY>
0

>  <SCORE.RESTR.norm>
0

>  <SCORE.SYSTEM>
0

>  <SCORE.SYSTEM.CONST>
0

>  <SCORE.SYSTEM.DIHEDRAL>
0

>  <SCORE.SYSTEM.SOLV>
0

>  <SCORE.SYSTEM.norm>
0

>  <SCORE.heavy>
26

>  <SCORE.norm>
-0.725813

>  <RMSD>
2.169

$$$$
ligand
 OpenBabel11021811473D
libRbt.so/2013.1/901 2013/11/27
 26 28  0  0  0  0  0  0  0  0999 V2000
  -15.3720    6.1339  -16.2052 N   0  0  0  0  0  0  0  0  0  0  0  0
  -14.8902    7.2458  -17.0342 C   0  0  2  0  0  0  0  0  0  0  0  0
  -13.5391    6.8986  -17.6017 C   0  0  0  0  0  0  0  0  0  0  0  0
  -13.2930    7.1285  -18.7626 O   0  0  0  0  0  0  0  0  0  0  0  0
  -14.7755    8.5074  -16.1768 C   0  0  0  0  0  0  0  0  0  0  0  0
  -14.7391    9.7377  -17.0816 C   0  0  0  0  0  0  0  0  0  0  0  0
  -13.3080   10.1788  -17.8825 S   0  0  0  0  0  0  0  0  0  0  0  0
  -12.5394    9.9194  -19.5020 C   0  0  0  0  0  0  0  0  0  0  0  0
  -13.2218   10.6553  -20.6615 C   0  0  1  0  0  0  0  0  0  0  0  0
  -13.1268   12.0627  -20.5390 O   0  0  0  0  0  0  0  0  0  0  0  0
  -12.5462   10.3815  -21.9843 C   0  0  1  0  0  0  0  0  0  0  0  0
  -13.5370   10.6317  -22.9570 O   0  0  0  0  0  0  0  0  0  0  0  0
  -11.4814   11.4459  -22.1128 C   0  0  1  0  0  0  0  0  0  0  0  0
  -11.4362   11.9150  -23.4426 O   0  0  0  0  0  0  0  0  0  0  0  0
  -11.9770   12.5504  -21.2046 C   0  0  2  0  0  0  0  0  0  0  0  0
  -12.6069    6.3305  -16.8192 O   0  0  0  0  0  0  0  0  0  0  0  0
   -8.0570   15.7826  -20.0210 N   0  0  0  0  0  0  0  0  0  0  0  0
   -8.7169   15.6533  -21.2202 C   0  0  0  0  0  0  0  0  0  0  0  0
   -9.7248   14.7274  -21.3422 N   0  0  0  0  0  0  0  0  0  0  0  0
  -10.0732   13.9482  -20.2997 C   0  0  0  0  0  0  0  0  0  0  0  0
   -9.4235   14.0624  -19.0851 C   0  0  0  0  0  0  0  0  0  0  0  0
   -8.4002   14.9936  -18.9521 C   0  0  0  0  0  0  0  0  0  0  0  0
   -7.7473   15.1335  -17.8050 N   0  0  0  0  0  0  0  0  0  0  0  0
   -9.9685   13.1703  -18.2280 N   0  0  0  0  0  0  0  0  0  0  0  0
  -10.9458   12.5071  -18.8763 C   0  0  0  0  0  0  0  0  0  0  0  0
  -11.0176   12.9685  -20.1659 N   0  0  0  0  0  0  0  0  0  0  0  0
  2  1  1  1  0  0  0
  2  3  1  0  0  0  0
  2  5  1  0  0  0  0
  3  4  1  0  0  0  0
  3 16  1  0  0  0  0
  5  6  1  0  0  0  0
  6  7  1  0  0  0  0
  7  8  1  0  0  0  0
  9  8  1  1  0  0  0
  9 10  1  0  0  0  0
  9 11  1  0  0  0  0
 10 15  1  0  0  0  0
 11 12  1  6  0  0  0
 11 13  1  0  0  0  0
 13 14  1  6  0  0  0
 13 15  1  0  0  0  0
 15 26  1  1  0  0  0
 17 18  2  0  0  0  0
 17 22  1  0  0  0  0
 18 19  1  0  0  0  0
 19 20  2  0  0  0  0
 20 21  1  0  0  0  0
 20 26  1  0  0  0  0
 21 22  2  0  0  0  0
 21 24  1  0  0  0  0
 22 23  1  0  0  0  0
 24 25  2  0  0  0  0
 25 26  1  0  0  0  0
M  END
>  <CHROM.1>
135.93997133,-161.11414869,-78.86203791,94.66015345,70.39678137,65.28676165
-151.50522036,-11.92504375,11.19000019,-19.40051259,-2.58123016,-0.87794437
-1.28733808

>  <Name>
ligand

>  <RI>
0

>  <Rbt.Current_Directory>
/home/itssahil/PROJECTS/Mol_Feturizer/New_Systems/rnas/3E5E

>  <Rbt.Executable>
rbdock ($Id: //depot/dev/client3/rdock/2013.1/src/exe/rbdock.cxx#4 $)

>  <Rbt.Library>
libRbt.so (2013.1, Build901 2013/11/27)

>  <Rbt.Parameter_File>
/export/apps/rDock/src/rDock_2013.1_src/data/scripts/dock_solv.prm

>  <Rbt.Receptor>
prm/pocket_docking_4.prm

>  <SCORE>
-19.6402

>  <SCORE.INTER>
-16.4369

>  <SCORE.INTER.CONST>
1

>  <SCORE.INTER.POLAR>
0

>  <SCORE.INTER.ROT>
7

>  <SCORE.INTER.SOLV>
15.1699

>  <SCORE.INTER.VDW>
-24.2812

>  <SCORE.INTER.norm>
-0.632188

>  <SCORE.INTRA>
-3.2033

>  <SCORE.INTRA.DIHEDRAL>
-2.98372

>  <SCORE.INTRA.DIHEDRAL.0>
10.1225

>  <SCORE.INTRA.POLAR>
0

>  <SCORE.INTRA.POLAR.0>
0

>  <SCORE.INTRA.REPUL>
0

>  <SCORE.INTRA.REPUL.0>
0

>  <SCORE.INTRA.SOLV>
-0.382729

>  <SCORE.INTRA.SOLV.lig_0>
-49.9393

>  <SCORE.INTRA.VDW>
-1.52008

>  <SCORE.INTRA.VDW.0>
-1.75437

>  <SCORE.INTRA.norm>
-0.123204

>  <SCORE.RESTR>
0

>  <SCORE.RESTR.CAVITY>
0

>  <SCORE.RESTR.norm>
0

>  <SCORE.SYSTEM>
0

>  <SCORE.SYSTEM.CONST>
0

>  <SCORE.SYSTEM.DIHEDRAL>
0

>  <SCORE.SYSTEM.SOLV>
0

>  <SCORE.SYSTEM.norm>
0

>  <SCORE.heavy>
26

>  <SCORE.norm>
-0.755392

>  <RMSD>
2.201

$$$$
ligand
 OpenBabel11021811473D
libRbt.so/2013.1/901 2013/11/27
 26 28  0  0  0  0  0  0  0  0999 V2000
  -15.0414    8.2507  -20.3668 N   0  0  0  0  0  0  0  0  0  0  0  0
  -13.8372    9.0157  -20.0202 C   0  0  2  0  0  0  0  0  0  0  0  0
  -13.5798    8.9015  -18.5407 C   0  0  0  0  0  0  0  0  0  0  0  0
  -12.8397    8.0435  -18.1197 O   0  0  0  0  0  0  0  0  0  0  0  0
  -14.0437   10.4853  -20.3910 C   0  0  0  0  0  0  0  0  0  0  0  0
  -12.8144   11.2932  -19.9788 C   0  0  0  0  0  0  0  0  0  0  0  0
  -12.7841   12.9799  -20.1740 S   0  0  0  0  0  0  0  0  0  0  0  0
  -12.9834   14.1816  -21.5146 C   0  0  0  0  0  0  0  0  0  0  0  0
  -12.1995   13.8545  -22.7914 C   0  0  1  0  0  0  0  0  0  0  0  0
  -10.8493   14.2751  -22.7195 O   0  0  0  0  0  0  0  0  0  0  0  0
  -12.0815   12.3661  -23.0199 C   0  0  1  0  0  0  0  0  0  0  0  0
  -11.8616   12.2278  -24.4066 O   0  0  0  0  0  0  0  0  0  0  0  0
  -10.8186   11.9540  -22.2999 C   0  0  1  0  0  0  0  0  0  0  0  0
  -10.1124   11.0134  -23.0792 O   0  0  0  0  0  0  0  0  0  0  0  0
  -10.0246   13.2398  -22.2187 C   0  0  2  0  0  0  0  0  0  0  0  0
  -14.1743    9.7511  -17.6871 O   0  0  0  0  0  0  0  0  0  0  0  0
   -7.5359   16.7872  -19.3142 N   0  0  0  0  0  0  0  0  0  0  0  0
   -7.6650   16.7510  -20.6824 C   0  0  0  0  0  0  0  0  0  0  0  0
   -8.3540   15.7179  -21.2706 N   0  0  0  0  0  0  0  0  0  0  0  0
   -8.9046   14.7433  -20.5209 C   0  0  0  0  0  0  0  0  0  0  0  0
   -8.7876   14.7608  -19.1437 C   0  0  0  0  0  0  0  0  0  0  0  0
   -8.0897   15.7996  -18.5390 C   0  0  0  0  0  0  0  0  0  0  0  0
   -7.9497   15.8534  -17.2203 N   0  0  0  0  0  0  0  0  0  0  0  0
   -9.4259   13.6759  -18.6508 N   0  0  0  0  0  0  0  0  0  0  0  0
   -9.9432   12.9859  -19.6859 C   0  0  0  0  0  0  0  0  0  0  0  0
   -9.6204   13.6269  -20.8546 N   0  0  0  0  0  0  0  0  0  0  0  0
  2  1  1  1  0  0  0
  2  3  1  0  0  0  0
  2  5  1  0  0  0  0
  3  4  1  0  0  0  0
  3 16  1  0  0  0  0
  5  6  1  0  0  0  0
  6  7  1  0  0  0  0
  7  8  1  0  0  0  0
  9  8  1  1  0  0  0
  9 10  1  0  0  0  0
  9 11  1  0  0  0  0
 10 15  1  0  0  0  0
 11 12  1  6  0  0  0
 11 13  1  0  0  0  0
 13 14  1  6  0  0  0
 13 15  1  0  0  0  0
 15 26  1  1  0  0  0
 17 18  2  0  0  0  0
 17 22  1  0  0  0  0
 18 19  1  0  0  0  0
 19 20  2  0  0  0  0
 20 21  1  0  0  0  0
 20 26  1  0  0  0  0
 21 22  2  0  0  0  0
 21 24  1  0  0  0  0
 22 23  1  0  0  0  0
 24 25  2  0  0  0  0
 25 26  1  0  0  0  0
M  END
>  <CHROM.1>
93.37246859,177.69487100,-176.21428273,-56.95153170,-46.70242511,-82.80392318
-60.84293506,-11.16145080,12.72391360,-20.52148515,-2.95456800,-0.83796903
-1.35500029

>  <Name>
ligand

>  <RI>
0

>  <Rbt.Current_Directory>
/home/itssahil/PROJECTS/Mol_Feturizer/New_Systems/rnas/3E5E

>  <Rbt.Executable>
rbdock ($Id: //depot/dev/client3/rdock/2013.1/src/exe/rbdock.cxx#4 $)

>  <Rbt.Library>
libRbt.so (2013.1, Build901 2013/11/27)

>  <Rbt.Parameter_File>
/export/apps/rDock/src/rDock_2013.1_src/data/scripts/dock_solv.prm

>  <Rbt.Receptor>
prm/pocket_docking_5.prm

>  <SCORE>
-21.376

>  <SCORE.INTER>
-19.4853

>  <SCORE.INTER.CONST>
1

>  <SCORE.INTER.POLAR>
0

>  <SCORE.INTER.ROT>
7

>  <SCORE.INTER.SOLV>
20.0033

>  <SCORE.INTER.VDW>
-27.9247

>  <SCORE.INTER.norm>
-0.749436

>  <SCORE.INTRA>
-1.89064

>  <SCORE.INTRA.DIHEDRAL>
-5.47257

>  <SCORE.INTRA.DIHEDRAL.0>
10.1225

>  <SCORE.INTRA.POLAR>
0

>  <SCORE.INTRA.POLAR.0>
0

>  <SCORE.INTRA.REPUL>
0

>  <SCORE.INTRA.REPUL.0>
0

>  <SCORE.INTRA.SOLV>
-0.0470172

>  <SCORE.INTRA.SOLV.lig_0>
-49.9393

>  <SCORE.INTRA.VDW>
0.86915

>  <SCORE.INTRA.VDW.0>
-1.75437

>  <SCORE.INTRA.norm>
-0.0727171

>  <SCORE.RESTR>
0

>  <SCORE.RESTR.CAVITY>
0

>  <SCORE.RESTR.norm>
0

>  <SCORE.SYSTEM>
0

>  <SCORE.SYSTEM.CONST>
0

>  <SCORE.SYSTEM.DIHEDRAL>
0

>  <SCORE.SYSTEM.SOLV>
0

>  <SCORE.SYSTEM.norm>
0

>  <SCORE.heavy>
26

>  <SCORE.norm>
-0.822153

>  <RMSD>
2.234

$$$$
ligand
 OpenBabel11021811473D
libRbt.so/2013.1/901 2013/11/27
 26 28  0  0  0  0  0  0  0  0999 V2000
  -16.0795    5.7486  -17.9364 N   0  0  0  0  0  0  0  0  0  0  0  0
  -14.9541    5.3315  -18.7819 C   0  0  2  0  0  0  0  0  0  0  0  0
  -14.5967    3.9019  -18.4706 C   0  0  0  0  0  0  0  0  0  0  0  0
  -14.8287    3.4447  -17.3760 O   0  0  0  0  0  0  0  0  0  0  0  0
  -13.7486    6.2315  -18.5052 C   0  0  0  0  0  0  0  0  0  0  0  0
  -14.0499    7.6500  -18.9854 C   0  0  0  0  0  0  0  0  0  0  0  0
  -12.8913    8.8810  -18.8236 S   0  0  0  0  0  0  0  0  0  0  0  0
  -12.7356   10.6412  -19.2221 C   0  0  0  0  0  0  0  0  0  0  0  0
  -12.9411   10.9845  -20.7025 C   0  0  1  0  0  0  0  0  0  0  0  0
  -12.5673   12.3162  -21.0055 O   0  0  0  0  0  0  0  0  0  0  0  0
  -12.0483   10.1658  -21.6048 C   0  0  1  0  0  0  0  0  0  0  0  0
  -12.6979   10.1675  -22.8572 O   0  0  0  0  0  0  0  0  0  0  0  0
  -10.7743   10.9677  -21.7344 C   0  0  1  0  0  0  0  0  0  0  0  0
  -10.3106   10.9114  -23.0658 O   0  0  0  0  0  0  0  0  0  0  0  0
  -11.2133   12.3798  -21.4123 C   0  0  2  0  0  0  0  0  0  0  0  0
  -14.0173    3.1342  -19.4080 O   0  0  0  0  0  0  0  0  0  0  0  0
   -8.0585   16.3226  -20.1026 N   0  0  0  0  0  0  0  0  0  0  0  0
   -8.5495   16.0070  -21.3473 C   0  0  0  0  0  0  0  0  0  0  0  0
   -9.3648   14.9109  -21.4958 N   0  0  0  0  0  0  0  0  0  0  0  0
   -9.6883   14.1453  -20.4354 C   0  0  0  0  0  0  0  0  0  0  0  0
   -9.2063   14.4452  -19.1751 C   0  0  0  0  0  0  0  0  0  0  0  0
   -8.3782   15.5499  -19.0146 C   0  0  0  0  0  0  0  0  0  0  0  0
   -7.8900   15.8717  -17.8231 N   0  0  0  0  0  0  0  0  0  0  0  0
   -9.6825   13.5228  -18.3092 N   0  0  0  0  0  0  0  0  0  0  0  0
  -10.4542   12.6590  -18.9973 C   0  0  0  0  0  0  0  0  0  0  0  0
  -10.4605   13.0228  -20.3197 N   0  0  0  0  0  0  0  0  0  0  0  0
  2  1  1  1  0  0  0
  2  3  1  0  0  0  0
  2  5  1  0  0  0  0
  3  4  1  0  0  0  0
  3 16  1  0  0  0  0
  5  6  1  0  0  0  0
  6  7  1  0  0  0  0
  7  8  1  0  0  0  0
  9  8  1  1  0  0  0
  9 10  1  0  0  0  0
  9 11  1  0  0  0  0
 10 15  1  0  0  0  0
 11 12  1  6  0  0  0
 11 13  1  0  0  0  0
 13 14  1  6  0  0  0
 13 15  1  0  0  0  0
 15 26  1  1  0  0  0
 17 18  2  0  0  0  0
 17 22  1  0  0  0  0
 18 19  1  0  0  0  0
 19 20  2  0  0  0  0
 20 21  1  0  0  0  0
 20 26  1  0  0  0  0
 21 22  2  0  0  0  0
 21 24  1  0  0  0  0
 22 23  1  0  0  0  0
 24 25  2  0  0  0  0
 25 26  1  0  0  0  0
M  END
>  <CHROM.1>
-26.95087749,-67.15133809,-179.55684228,179.21850772,-56.99891664,-168.95161063
-123.59604195,-11.75448860,10.52503683,-19.85016722,-2.86582574,-1.04559092
-1.40921259

>  <Name>
ligand

>  <RI>
0

>  <Rbt.Current_Directory>
/home/itssahil/PROJECTS/Mol_Feturizer/New_Systems/rnas/3E5E

>  <Rbt.Executable>
rbdock ($Id: //depot/dev/client3/rdock/2013.1/src/exe/rbdock.cxx#4 $)

>  <Rbt.Library>
libRbt.so (2013.1, Build901 2013/11/27)

>  <Rbt.Parameter_File>
/export/apps/rDock/src/rDock_2013.1_src/data/scripts/dock_solv.prm

>  <Rbt.Receptor>
prm/pocket_docking_5.prm

>  <SCORE>
-17.6597

>  <SCORE.INTER>
-14.1557

>  <SCORE.INTER.CONST>
1

>  <SCORE.INTER.POLAR>
0

>  <SCORE.INTER.ROT>
7

>  <SCORE.INTER.SOLV>
15.3988

>  <SCORE.INTER.VDW>
-22.8367

>  <SCORE.INTER.norm>
-0.544451

>  <SCORE.INTRA>
-3.51957

>  <SCORE.INTRA.DIHEDRAL>
-6.75018

>  <SCORE.INTRA.DIHEDRAL.0>
10.1225

>  <SCORE.INTRA.POLAR>
0

>  <SCORE.INTRA.POLAR.0>
0

>  <SCORE.INTRA.REPUL>
0

>  <SCORE.INTRA.REPUL.0>
0

>  <SCORE.INTRA.SOLV>
0.112825

>  <SCORE.INTRA.SOLV.lig_0>
-49.9393

>  <SCORE.INTRA.VDW>
-0.2009

>  <SCORE.INTRA.VDW.0>
-1.75437

>  <SCORE.INTRA.norm>
-0.135368

>  <SCORE.RESTR>
0.0156013

>  <SCORE.RESTR.CAVITY>
0.0156013

>  <SCORE.RESTR.norm>
0.00060005

>  <SCORE.SYSTEM>
0

>  <SCORE.SYSTEM.CONST>
0

>  <SCORE.SYSTEM.DIHEDRAL>
0

>  <SCORE.SYSTEM.SOLV>
0

>  <SCORE.SYSTEM.norm>
0

>  <SCORE.heavy>
26

>  <SCORE.norm>
-0.679219

>  <RMSD>
2.402

$$$$
ligand
 OpenBabel11021811473D
libRbt.so/2013.1/901 2013/11/27
 26 28  0  0  0  0  0  0  0  0999 V2000
  -16.9815    9.1878  -14.4314 N   0  0  0  0  0  0  0  0  0  0  0  0
  -15.7922    9.0618  -15.2829 C   0  0  2  0  0  0  0  0  0  0  0  0
  -15.2129    7.6797  -15.1328 C   0  0  0  0  0  0  0  0  0  0  0  0
  -14.5684    7.1927  -16.0320 O   0  0  0  0  0  0  0  0  0  0  0  0
  -14.7517   10.1006  -14.8609 C   0  0  0  0  0  0  0  0  0  0  0  0
  -13.5620   10.0491  -15.8177 C   0  0  0  0  0  0  0  0  0  0  0  0
  -13.7674   10.3832  -17.4700 S   0  0  0  0  0  0  0  0  0  0  0  0
  -12.8617   10.1221  -19.0168 C   0  0  0  0  0  0  0  0  0  0  0  0
  -13.4937   10.7801  -20.2494 C   0  0  1  0  0  0  0  0  0  0  0  0
  -13.2829   12.1799  -20.2828 O   0  0  0  0  0  0  0  0  0  0  0  0
  -12.8564   10.3083  -21.5350 C   0  0  1  0  0  0  0  0  0  0  0  0
  -13.8335   10.5311  -22.5279 O   0  0  0  0  0  0  0  0  0  0  0  0
  -11.7097   11.2609  -21.7811 C   0  0  1  0  0  0  0  0  0  0  0  0
  -11.6401   11.5762  -23.1546 O   0  0  0  0  0  0  0  0  0  0  0  0
  -12.1040   12.4954  -20.9994 C   0  0  2  0  0  0  0  0  0  0  0  0
  -15.4140    6.9856  -14.0006 O   0  0  0  0  0  0  0  0  0  0  0  0
   -8.1529   15.7726  -20.0709 N   0  0  0  0  0  0  0  0  0  0  0  0
   -8.8629   15.6091  -21.2367 C   0  0  0  0  0  0  0  0  0  0  0  0
   -9.8706   14.6766  -21.2909 N   0  0  0  0  0  0  0  0  0  0  0  0
  -10.1700   13.9238  -20.2143 C   0  0  0  0  0  0  0  0  0  0  0  0
   -9.4694   14.0725  -19.0322 C   0  0  0  0  0  0  0  0  0  0  0  0
   -8.4459   15.0108  -18.9678 C   0  0  0  0  0  0  0  0  0  0  0  0
   -7.7451   15.1835  -17.8540 N   0  0  0  0  0  0  0  0  0  0  0  0
   -9.9726   13.2013  -18.1294 N   0  0  0  0  0  0  0  0  0  0  0  0
  -10.9736   12.5175  -18.7174 C   0  0  0  0  0  0  0  0  0  0  0  0
  -11.1030   12.9444  -20.0144 N   0  0  0  0  0  0  0  0  0  0  0  0
  2  1  1  1  0  0  0
  2  3  1  0  0  0  0
  2  5  1  0  0  0  0
  3  4  1  0  0  0  0
  3 16  1  0  0  0  0
  5  6  1  0  0  0  0
  6  7  1  0  0  0  0
  7  8  1  0  0  0  0
  9  8  1  1  0  0  0
  9 10  1  0  0  0  0
  9 11  1  0  0  0  0
 10 15  1  0  0  0  0
 11 12  1  6  0  0  0
 11 13  1  0  0  0  0
 13 14  1  6  0  0  0
 13 15  1  0  0  0  0
 15 26  1  1  0  0  0
 17 18  2  0  0  0  0
 17 22  1  0  0  0  0
 18 19  1  0  0  0  0
 19 20  2  0  0  0  0
 20 21  1  0  0  0  0
 20 26  1  0  0  0  0
 21 22  2  0  0  0  0
 21 24  1  0  0  0  0
 22 23  1  0  0  0  0
 24 25  2  0  0  0  0
 25 26  1  0  0  0  0
M  END
>  <CHROM.1>
153.63411141,-175.35021477,61.51422395,-162.92304306,-174.24770342,75.67930507
-144.27760912,-12.33473686,11.49741415,-18.70222186,-2.55429735,-0.77816766
-1.53794002

>  <Name>
ligand

>  <RI>
0

>  <Rbt.Current_Directory>
/home/itssahil/PROJECTS/Mol_Feturizer/New_Systems/rnas/3E5E

>  <Rbt.Executable>
rbdock ($Id: //depot/dev/client3/rdock/2013.1/src/exe/rbdock.cxx#4 $)

>  <Rbt.Library>
libRbt.so (2013.1, Build901 2013/11/27)

>  <Rbt.Parameter_File>
/export/apps/rDock/src/rDock_2013.1_src/data/scripts/dock_solv.prm

>  <Rbt.Receptor>
prm/pocket_docking_5.prm

>  <SCORE>
-21.0747

>  <SCORE.INTER>
-17.4761

>  <SCORE.INTER.CONST>
1

>  <SCORE.INTER.POLAR>
0

>  <SCORE.INTER.ROT>
7

>  <SCORE.INTER.SOLV>
16.2917

>  <SCORE.INTER.VDW>
-25.348

>  <SCORE.INTER.norm>
-0.672159

>  <SCORE.INTRA>
-3.59856

>  <SCORE.INTRA.DIHEDRAL>
-5.87363

>  <SCORE.INTRA.DIHEDRAL.0>
10.1225

>  <SCORE.INTRA.POLAR>
0

>  <SCORE.INTRA.POLAR.0>
0

>  <SCORE.INTRA.REPUL>
0

>  <SCORE.INTRA.REPUL.0>
0

>  <SCORE.INTRA.SOLV>
-0.47354

>  <SCORE.INTRA.SOLV.lig_0>
-49.9393

>  <SCORE.INTRA.VDW>
-0.424982

>  <SCORE.INTRA.VDW.0>
-1.75437

>  <SCORE.INTRA.norm>
-0.138406

>  <SCORE.RESTR>
0

>  <SCORE.RESTR.CAVITY>
0

>  <SCORE.RESTR.norm>
0

>  <SCORE.SYSTEM>
0

>  <SCORE.SYSTEM.CONST>
0

>  <SCORE.SYSTEM.DIHEDRAL>
0

>  <SCORE.SYSTEM.SOLV>
0

>  <SCORE.SYSTEM.norm>
0

>  <SCORE.heavy>
26

>  <SCORE.norm>
-0.810566

>  <RMSD>
2.434

$$$$
ligand
 OpenBabel11021811473D
libRbt.so/2013.1/901 2013/11/27
 26 28  0  0  0  0  0  0  0  0999 V2000
  -15.1301    4.6208  -18.0175 N   0  0  0  0  0  0  0  0  0  0  0  0
  -14.0041    5.5278  -18.2727 C   0  0  2  0  0  0  0  0  0  0  0  0
  -12.8249    5.1106  -17.4338 C   0  0  0  0  0  0  0  0  0  0  0  0
  -12.6518    5.6054  -16.3447 O   0  0  0  0  0  0  0  0  0  0  0  0
  -14.4096    6.9572  -17.9093 C   0  0  0  0  0  0  0  0  0  0  0  0
  -13.3568    7.9342  -18.4296 C   0  0  0  0  0  0  0  0  0  0  0  0
  -13.5551    9.6082  -18.2235 S   0  0  0  0  0  0  0  0  0  0  0  0
  -12.8415   11.1374  -18.8818 C   0  0  0  0  0  0  0  0  0  0  0  0
  -13.0445   11.3439  -20.3878 C   0  0  1  0  0  0  0  0  0  0  0  0
  -12.5152   12.5766  -20.8406 O   0  0  0  0  0  0  0  0  0  0  0  0
  -12.2879   10.3258  -21.2079 C   0  0  1  0  0  0  0  0  0  0  0  0
  -12.9677   10.2767  -22.4431 O   0  0  0  0  0  0  0  0  0  0  0  0
  -10.9275   10.9395  -21.4436 C   0  0  1  0  0  0  0  0  0  0  0  0
  -10.5128   10.6823  -22.7675 O   0  0  0  0  0  0  0  0  0  0  0  0
  -11.1761   12.4225  -21.2719 C   0  0  2  0  0  0  0  0  0  0  0  0
  -11.9628    4.1903  -17.8961 O   0  0  0  0  0  0  0  0  0  0  0  0
   -7.9493   16.4079  -20.3138 N   0  0  0  0  0  0  0  0  0  0  0  0
   -8.5686   16.0839  -21.4977 C   0  0  0  0  0  0  0  0  0  0  0  0
   -9.3807   14.9772  -21.5565 N   0  0  0  0  0  0  0  0  0  0  0  0
   -9.5771   14.2092  -20.4670 C   0  0  0  0  0  0  0  0  0  0  0  0
   -8.9651   14.5174  -19.2666 C   0  0  0  0  0  0  0  0  0  0  0  0
   -8.1388   15.6330  -19.1974 C   0  0  0  0  0  0  0  0  0  0  0  0
   -7.5283   15.9631  -18.0660 N   0  0  0  0  0  0  0  0  0  0  0  0
   -9.3323   13.5904  -18.3539 N   0  0  0  0  0  0  0  0  0  0  0  0
  -10.1629   12.7155  -18.9538 C   0  0  0  0  0  0  0  0  0  0  0  0
  -10.3175   13.0770  -20.2677 N   0  0  0  0  0  0  0  0  0  0  0  0
  2  1  1  1  0  0  0
  2  3  1  0  0  0  0
  2  5  1  0  0  0  0
  3  4  1  0  0  0  0
  3 16  1  0  0  0  0
  5  6  1  0  0  0  0
  6  7  1  0  0  0  0
  7  8  1  0  0  0  0
  9  8  1  1  0  0  0
  9 10  1  0  0  0  0
  9 11  1  0  0  0  0
 10 15  1  0  0  0  0
 11 12  1  6  0  0  0
 11 13  1  0  0  0  0
 13 14  1  6  0  0  0
 13 15  1  0  0  0  0
 15 26  1  1  0  0  0
 17 18  2  0  0  0  0
 17 22  1  0  0  0  0
 18 19  1  0  0  0  0
 19 20  2  0  0  0  0
 20 21  1  0  0  0  0
 20 26  1  0  0  0  0
 21 22  2  0  0  0  0
 21 24  1  0  0  0  0
 22 23  1  0  0  0  0
 24 25  2  0  0  0  0
 25 26  1  0  0  0  0
M  END
>  <CHROM.1>
-92.78191976,-168.71921218,177.98669117,-165.11732294,62.45903415,177.65393738
-112.29394425,-11.47927870,10.83335771,-19.54204510,2.38629301,0.91476325
2.19437935

>  <Name>
ligand

>  <RI>
0

>  <Rbt.Current_Directory>
/home/itssahil/PROJECTS/Mol_Feturizer/New_Systems/rnas/3E5E

>  <Rbt.Executable>
rbdock ($Id: //depot/dev/client3/rdock/2013.1/src/exe/rbdock.cxx#4 $)

>  <Rbt.Library>
libRbt.so (2013.1, Build901 2013/11/27)

>  <Rbt.Parameter_File>
/export/apps/rDock/src/rDock_2013.1_src/data/scripts/dock_solv.prm

>  <Rbt.Receptor>
prm/pocket_docking_5.prm

>  <SCORE>
-20.4149

>  <SCORE.INTER>
-17.1438

>  <SCORE.INTER.CONST>
1

>  <SCORE.INTER.POLAR>
0

>  <SCORE.INTER.ROT>
7

>  <SCORE.INTER.SOLV>
15.8378

>  <SCORE.INTER.VDW>
-24.9751

>  <SCORE.INTER.norm>
-0.659377

>  <SCORE.INTRA>
-3.29078

>  <SCORE.INTRA.DIHEDRAL>
-6.57765

>  <SCORE.INTRA.DIHEDRAL.0>
10.1225

>  <SCORE.INTRA.POLAR>
0

>  <SCORE.INTRA.POLAR.0>
0

>  <SCORE.INTRA.REPUL>
0

>  <SCORE.INTRA.REPUL.0>
0

>  <SCORE.INTRA.SOLV>
-0.627882

>  <SCORE.INTRA.SOLV.lig_0>
-49.9393

>  <SCORE.INTRA.VDW>
0.311982

>  <SCORE.INTRA.VDW.0>
-1.75437

>  <SCORE.INTRA.norm>
-0.126569

>  <SCORE.RESTR>
0.0197037

>  <SCORE.RESTR.CAVITY>
0.0197037

>  <SCORE.RESTR.norm>
0.000757836

>  <SCORE.SYSTEM>
0

>  <SCORE.SYSTEM.CONST>
0

>  <SCORE.SYSTEM.DIHEDRAL>
0

>  <SCORE.SYSTEM.SOLV>
0

>  <SCORE.SYSTEM.norm>
0

>  <SCORE.heavy>
26

>  <SCORE.norm>
-0.785187

>  <RMSD>
2.475

$$$$
ligand
 OpenBabel11021811473D
libRbt.so/2013.1/901 2013/11/27
 26 28  0  0  0  0  0  0  0  0999 V2000
  -15.2019    8.3276  -19.0612 N   0  0  0  0  0  0  0  0  0  0  0  0
  -13.7866    8.2302  -18.6833 C   0  0  2  0  0  0  0  0  0  0  0  0
  -13.6486    7.3244  -17.4880 C   0  0  0  0  0  0  0  0  0  0  0  0
  -12.8470    6.4198  -17.5035 O   0  0  0  0  0  0  0  0  0  0  0  0
  -13.2561    9.6217  -18.3340 C   0  0  0  0  0  0  0  0  0  0  0  0
  -13.3891   10.5383  -19.5487 C   0  0  0  0  0  0  0  0  0  0  0  0
  -12.7096   12.0947  -19.5349 S   0  0  0  0  0  0  0  0  0  0  0  0
  -12.8203   13.6183  -20.5082 C   0  0  0  0  0  0  0  0  0  0  0  0
  -12.9419   13.4053  -22.0220 C   0  0  1  0  0  0  0  0  0  0  0  0
  -12.2373   14.3840  -22.7639 O   0  0  0  0  0  0  0  0  0  0  0  0
  -12.3003   12.1123  -22.4671 C   0  0  1  0  0  0  0  0  0  0  0  0
  -12.9377   11.7907  -23.6840 O   0  0  0  0  0  0  0  0  0  0  0  0
  -10.8628   12.4670  -22.7683 C   0  0  1  0  0  0  0  0  0  0  0  0
  -10.4409   11.7926  -23.9336 O   0  0  0  0  0  0  0  0  0  0  0  0
  -10.9168   13.9552  -23.0381 C   0  0  2  0  0  0  0  0  0  0  0  0
  -14.4179    7.5190  -16.4044 O   0  0  0  0  0  0  0  0  0  0  0  0
   -8.5608   14.3576  -18.4012 N   0  0  0  0  0  0  0  0  0  0  0  0
   -9.4467   13.3939  -18.8215 C   0  0  0  0  0  0  0  0  0  0  0  0
   -9.9755   13.4660  -20.0877 N   0  0  0  0  0  0  0  0  0  0  0  0
   -9.6336   14.4688  -20.9200 C   0  0  0  0  0  0  0  0  0  0  0  0
   -8.7441   15.4475  -20.5180 C   0  0  0  0  0  0  0  0  0  0  0  0
   -8.2060   15.3856  -19.2380 C   0  0  0  0  0  0  0  0  0  0  0  0
   -7.3515   16.3065  -18.8097 N   0  0  0  0  0  0  0  0  0  0  0  0
   -8.5839   16.3191  -21.5388 N   0  0  0  0  0  0  0  0  0  0  0  0
   -9.3466   15.9047  -22.5692 C   0  0  0  0  0  0  0  0  0  0  0  0
  -10.0136   14.7647  -22.1998 N   0  0  0  0  0  0  0  0  0  0  0  0
  2  1  1  1  0  0  0
  2  3  1  0  0  0  0
  2  5  1  0  0  0  0
  3  4  1  0  0  0  0
  3 16  1  0  0  0  0
  5  6  1  0  0  0  0
  6  7  1  0  0  0  0
  7  8  1  0  0  0  0
  9  8  1  1  0  0  0
  9 10  1  0  0  0  0
  9 11  1  0  0  0  0
 10 15  1  0  0  0  0
 11 12  1  6  0  0  0
 11 13  1  0  0  0  0
 13 14  1  6  0  0  0
 13 15  1  0  0  0  0
 15 26  1  1  0  0  0
 17 18  2  0  0  0  0
 17 22  1  0  0  0  0
 18 19  1  0  0  0  0
 19 20  2  0  0  0  0
 20 21  1  0  0  0  0
 20 26  1  0  0  0  0
 21 22  2  0  0  0  0
 21 24  1  0  0  0  0
 22 23  1  0  0  0  0
 24 25  2  0  0  0  0
 25 26  1  0  0  0  0
M  END
>  <CHROM.1>
129.48870865,-60.36174584,-172.39596670,-165.96210478,-38.33517069,-143.27783753
87.88061328,-11.46628829,12.33422812,-20.38384092,2.40127995,0.80702438,2.04960273

>  <Name>
ligand

>  <RI>
0

>  <Rbt.Current_Directory>
/home/itssahil/PROJECTS/Mol_Feturizer/New_Systems/rnas/3E5E

>  <Rbt.Executable>
rbdock ($Id: //depot/dev/client3/rdock/2013.1/src/exe/rbdock.cxx#4 $)

>  <Rbt.Library>
libRbt.so (2013.1, Build901 2013/11/27)

>  <Rbt.Parameter_File>
/export/apps/rDock/src/rDock_2013.1_src/data/scripts/dock_solv.prm

>  <Rbt.Receptor>
prm/pocket_docking_3.prm

>  <SCORE>
-22.3937

>  <SCORE.INTER>
-20.8032

>  <SCORE.INTER.CONST>
1

>  <SCORE.INTER.POLAR>
0

>  <SCORE.INTER.ROT>
7

>  <SCORE.INTER.SOLV>
17.0355

>  <SCORE.INTER.VDW>
-27.814

>  <SCORE.INTER.norm>
-0.800123

>  <SCORE.INTRA>
-1.59046

>  <SCORE.INTRA.DIHEDRAL>
-2.58993

>  <SCORE.INTRA.DIHEDRAL.0>
10.1225

>  <SCORE.INTRA.POLAR>
0

>  <SCORE.INTRA.POLAR.0>
0

>  <SCORE.INTRA.REPUL>
0

>  <SCORE.INTRA.REPUL.0>
0

>  <SCORE.INTRA.SOLV>
0.47405

>  <SCORE.INTRA.SOLV.lig_0>
-49.9393

>  <SCORE.INTRA.VDW>
-0.532519

>  <SCORE.INTRA.VDW.0>
-1.75437

>  <SCORE.INTRA.norm>
-0.0611715

>  <SCORE.RESTR>
0

>  <SCORE.RESTR.CAVITY>
0

>  <SCORE.RESTR.norm>
0

>  <SCORE.SYSTEM>
0

>  <SCORE.SYSTEM.CONST>
0

>  <SCORE.SYSTEM.DIHEDRAL>
0

>  <SCORE.SYSTEM.SOLV>
0

>  <SCORE.SYSTEM.norm>
0

>  <SCORE.heavy>
26

>  <SCORE.norm>
-0.861295

>  <RMSD>
2.481

$$$$
ligand
 OpenBabel11021811473D
libRbt.so/2013.1/901 2013/11/27
 26 28  0  0  0  0  0  0  0  0999 V2000
  -15.1164    8.2237  -19.1214 N   0  0  0  0  0  0  0  0  0  0  0  0
  -13.7154    8.1942  -18.6832 C   0  0  2  0  0  0  0  0  0  0  0  0
  -13.5854    7.2961  -17.4813 C   0  0  0  0  0  0  0  0  0  0  0  0
  -12.8783    6.3170  -17.5311 O   0  0  0  0  0  0  0  0  0  0  0  0
  -13.2676    9.6095  -18.3144 C   0  0  0  0  0  0  0  0  0  0  0  0
  -13.3151   10.4994  -19.5551 C   0  0  0  0  0  0  0  0  0  0  0  0
  -12.7110   12.0858  -19.5039 S   0  0  0  0  0  0  0  0  0  0  0  0
  -12.8405   13.6056  -20.4809 C   0  0  0  0  0  0  0  0  0  0  0  0
  -12.9571   13.3874  -21.9944 C   0  0  1  0  0  0  0  0  0  0  0  0
  -12.2547   14.3670  -22.7373 O   0  0  0  0  0  0  0  0  0  0  0  0
  -12.3087   12.0959  -22.4338 C   0  0  1  0  0  0  0  0  0  0  0  0
  -12.9413   11.7679  -23.6515 O   0  0  0  0  0  0  0  0  0  0  0  0
  -10.8719   12.4559  -22.7322 C   0  0  1  0  0  0  0  0  0  0  0  0
  -10.4439   11.7798  -23.8943 O   0  0  0  0  0  0  0  0  0  0  0  0
  -10.9316   13.9430  -23.0067 C   0  0  2  0  0  0  0  0  0  0  0  0
  -14.2570    7.5805  -16.3535 O   0  0  0  0  0  0  0  0  0  0  0  0
   -8.5894   14.3690  -18.3649 N   0  0  0  0  0  0  0  0  0  0  0  0
   -9.4698   13.4002  -18.7847 C   0  0  0  0  0  0  0  0  0  0  0  0
   -9.9957   13.4664  -20.0524 N   0  0  0  0  0  0  0  0  0  0  0  0
   -9.6561   14.4683  -20.8867 C   0  0  0  0  0  0  0  0  0  0  0  0
   -8.7720   15.4521  -20.4852 C   0  0  0  0  0  0  0  0  0  0  0  0
   -8.2370   15.3962  -19.2036 C   0  0  0  0  0  0  0  0  0  0  0  0
   -7.3877   16.3222  -18.7758 N   0  0  0  0  0  0  0  0  0  0  0  0
   -8.6131   16.3215  -21.5081 N   0  0  0  0  0  0  0  0  0  0  0  0
   -9.3713   15.9008  -22.5393 C   0  0  0  0  0  0  0  0  0  0  0  0
  -10.0341   14.7588  -22.1683 N   0  0  0  0  0  0  0  0  0  0  0  0
  2  1  1  1  0  0  0
  2  3  1  0  0  0  0
  2  5  1  0  0  0  0
  3  4  1  0  0  0  0
  3 16  1  0  0  0  0
  5  6  1  0  0  0  0
  6  7  1  0  0  0  0
  7  8  1  0  0  0  0
  9  8  1  1  0  0  0
  9 10  1  0  0  0  0
  9 11  1  0  0  0  0
 10 15  1  0  0  0  0
 11 12  1  6  0  0  0
 11 13  1  0  0  0  0
 13 14  1  6  0  0  0
 13 15  1  0  0  0  0
 15 26  1  1  0  0  0
 17 18  2  0  0  0  0
 17 22  1  0  0  0  0
 18 19  1  0  0  0  0
 19 20  2  0  0  0  0
 20 21  1  0  0  0  0
 20 26  1  0  0  0  0
 21 22  2  0  0  0  0
 21 24  1  0  0  0  0
 22 23  1  0  0  0  0
 24 25  2  0  0  0  0
 25 26  1  0  0  0  0
M  END
>  <CHROM.1>
118.99328233,-63.61843802,-173.19456232,-162.90470120,-34.77086735,-142.75391892
87.89732566,-11.46346783,12.32048962,-20.36045526,2.39776612,0.81971890,2.05494513

>  <Name>
ligand

>  <RI>
0

>  <Rbt.Current_Directory>
/home/itssahil/PROJECTS/Mol_Feturizer/New_Systems/rnas/3E5E

>  <Rbt.Executable>
rbdock ($Id: //depot/dev/client3/rdock/2013.1/src/exe/rbdock.cxx#4 $)

>  <Rbt.Library>
libRbt.so (2013.1, Build901 2013/11/27)

>  <Rbt.Parameter_File>
/export/apps/rDock/src/rDock_2013.1_src/data/scripts/dock_solv.prm

>  <Rbt.Receptor>
prm/pocket_docking_3.prm

>  <SCORE>
-22.406

>  <SCORE.INTER>
-20.9996

>  <SCORE.INTER.CONST>
1

>  <SCORE.INTER.POLAR>
0

>  <SCORE.INTER.ROT>
7

>  <SCORE.INTER.SOLV>
17.1965

>  <SCORE.INTER.VDW>
-27.9985

>  <SCORE.INTER.norm>
-0.807676

>  <SCORE.INTRA>
-1.40639

>  <SCORE.INTRA.DIHEDRAL>
-2.1667

>  <SCORE.INTRA.DIHEDRAL.0>
10.1225

>  <SCORE.INTRA.POLAR>
0

>  <SCORE.INTRA.POLAR.0>
0

>  <SCORE.INTRA.REPUL>
0

>  <SCORE.INTRA.REPUL.0>
0

>  <SCORE.INTRA.SOLV>
0.428723

>  <SCORE.INTRA.SOLV.lig_0>
-49.9393

>  <SCORE.INTRA.VDW>
-0.537405

>  <SCORE.INTRA.VDW.0>
-1.75437

>  <SCORE.INTRA.norm>
-0.0540921

>  <SCORE.RESTR>
0

>  <SCORE.RESTR.CAVITY>
0

>  <SCORE.RESTR.norm>
0

>  <SCORE.SYSTEM>
0

>  <SCORE.SYSTEM.CONST>
0

>  <SCORE.SYSTEM.DIHEDRAL>
0

>  <SCORE.SYSTEM.SOLV>
0

>  <SCORE.SYSTEM.norm>
0

>  <SCORE.heavy>
26

>  <SCORE.norm>
-0.861768

>  <RMSD>
2.489

$$$$
ligand
 OpenBabel11021811473D
libRbt.so/2013.1/901 2013/11/27
 26 28  0  0  0  0  0  0  0  0999 V2000
  -15.0690    8.5777  -17.3306 N   0  0  0  0  0  0  0  0  0  0  0  0
  -14.6733    9.4780  -18.4207 C   0  0  2  0  0  0  0  0  0  0  0  0
  -15.3795    9.0715  -19.6873 C   0  0  0  0  0  0  0  0  0  0  0  0
  -16.2852    9.7460  -20.1184 O   0  0  0  0  0  0  0  0  0  0  0  0
  -13.1604    9.3911  -18.6288 C   0  0  0  0  0  0  0  0  0  0  0  0
  -12.7362   10.3828  -19.7105 C   0  0  0  0  0  0  0  0  0  0  0  0
  -13.1029   12.0341  -19.5601 S   0  0  0  0  0  0  0  0  0  0  0  0
  -12.7792   13.5705  -20.4633 C   0  0  0  0  0  0  0  0  0  0  0  0
  -12.9413   13.4668  -21.9847 C   0  0  1  0  0  0  0  0  0  0  0  0
  -12.2489   14.4921  -22.6732 O   0  0  0  0  0  0  0  0  0  0  0  0
  -12.3210   12.2054  -22.5374 C   0  0  1  0  0  0  0  0  0  0  0  0
  -12.9917   11.9750  -23.7570 O   0  0  0  0  0  0  0  0  0  0  0  0
  -10.8890   12.5727  -22.8501 C   0  0  1  0  0  0  0  0  0  0  0  0
  -10.5022   11.9809  -24.0711 O   0  0  0  0  0  0  0  0  0  0  0  0
  -10.9391   14.0767  -23.0118 C   0  0  2  0  0  0  0  0  0  0  0  0
  -15.0054    7.9577  -20.3380 O   0  0  0  0  0  0  0  0  0  0  0  0
   -8.5961   14.2226  -18.3531 N   0  0  0  0  0  0  0  0  0  0  0  0
   -9.5179   13.3110  -18.8105 C   0  0  0  0  0  0  0  0  0  0  0  0
  -10.0358   13.4482  -20.0758 N   0  0  0  0  0  0  0  0  0  0  0  0
   -9.6485   14.4642  -20.8714 C   0  0  0  0  0  0  0  0  0  0  0  0
   -8.7223   15.3913  -20.4317 C   0  0  0  0  0  0  0  0  0  0  0  0
   -8.1948   15.2635  -19.1522 C   0  0  0  0  0  0  0  0  0  0  0  0
   -7.3061   16.1335  -18.6885 N   0  0  0  0  0  0  0  0  0  0  0  0
   -8.5208   16.2902  -21.4210 N   0  0  0  0  0  0  0  0  0  0  0  0
   -9.2936   15.9431  -22.4686 C   0  0  0  0  0  0  0  0  0  0  0  0
  -10.0086   14.8192  -22.1418 N   0  0  0  0  0  0  0  0  0  0  0  0
  2  1  1  1  0  0  0
  2  3  1  0  0  0  0
  2  5  1  0  0  0  0
  3  4  1  0  0  0  0
  3 16  1  0  0  0  0
  5  6  1  0  0  0  0
  6  7  1  0  0  0  0
  7  8  1  0  0  0  0
  9  8  1  1  0  0  0
  9 10  1  0  0  0  0
  9 11  1  0  0  0  0
 10 15  1  0  0  0  0
 11 12  1  6  0  0  0
 11 13  1  0  0  0  0
 13 14  1  6  0  0  0
 13 15  1  0  0  0  0
 15 26  1  1  0  0  0
 17 18  2  0  0  0  0
 17 22  1  0  0  0  0
 18 19  1  0  0  0  0
 19 20  2  0  0  0  0
 20 21  1  0  0  0  0
 20 26  1  0  0  0  0
 21 22  2  0  0  0  0
 21 24  1  0  0  0  0
 22 23  1  0  0  0  0
 24 25  2  0  0  0  0
 25 26  1  0  0  0  0
M  END
>  <CHROM.1>
106.98252221,-176.93554708,56.25655872,176.26447851,43.54956752,-159.11851889
84.48628477,-11.73029067,12.59711570,-20.66143339,-2.78297575,-0.73168732
-1.29266728

>  <Name>
ligand

>  <RI>
0

>  <Rbt.Current_Directory>
/home/itssahil/PROJECTS/Mol_Feturizer/New_Systems/rnas/3E5E

>  <Rbt.Executable>
rbdock ($Id: //depot/dev/client3/rdock/2013.1/src/exe/rbdock.cxx#4 $)

>  <Rbt.Library>
libRbt.so (2013.1, Build901 2013/11/27)

>  <Rbt.Parameter_File>
/export/apps/rDock/src/rDock_2013.1_src/data/scripts/dock_solv.prm

>  <Rbt.Receptor>
prm/pocket_docking_3.prm

>  <SCORE>
-22.5355

>  <SCORE.INTER>
-19.1084

>  <SCORE.INTER.CONST>
1

>  <SCORE.INTER.POLAR>
0

>  <SCORE.INTER.ROT>
7

>  <SCORE.INTER.SOLV>
17.4109

>  <SCORE.INTER.VDW>
-26.8092

>  <SCORE.INTER.norm>
-0.734937

>  <SCORE.INTRA>
-3.42714

>  <SCORE.INTRA.DIHEDRAL>
-5.37419

>  <SCORE.INTRA.DIHEDRAL.0>
10.1225

>  <SCORE.INTRA.POLAR>
0

>  <SCORE.INTRA.POLAR.0>
0

>  <SCORE.INTRA.REPUL>
0

>  <SCORE.INTRA.REPUL.0>
0

>  <SCORE.INTRA.SOLV>
-0.2546

>  <SCORE.INTRA.SOLV.lig_0>
-49.9393

>  <SCORE.INTRA.VDW>
-0.612746

>  <SCORE.INTRA.VDW.0>
-1.75437

>  <SCORE.INTRA.norm>
-0.131813

>  <SCORE.RESTR>
0

>  <SCORE.RESTR.CAVITY>
0

>  <SCORE.RESTR.norm>
0

>  <SCORE.SYSTEM>
0

>  <SCORE.SYSTEM.CONST>
0

>  <SCORE.SYSTEM.DIHEDRAL>
0

>  <SCORE.SYSTEM.SOLV>
0

>  <SCORE.SYSTEM.norm>
0

>  <SCORE.heavy>
26

>  <SCORE.norm>
-0.86675

>  <RMSD>
2.496

$$$$
ligand
 OpenBabel11021811473D
libRbt.so/2013.1/901 2013/11/27
 26 28  0  0  0  0  0  0  0  0999 V2000
  -14.7278    8.1343  -18.7986 N   0  0  0  0  0  0  0  0  0  0  0  0
  -15.6316    9.1997  -19.2499 C   0  0  2  0  0  0  0  0  0  0  0  0
  -17.0215    8.6426  -19.4110 C   0  0  0  0  0  0  0  0  0  0  0  0
  -17.2197    7.7191  -20.1653 O   0  0  0  0  0  0  0  0  0  0  0  0
  -15.1421    9.7481  -20.5913 C   0  0  0  0  0  0  0  0  0  0  0  0
  -13.8141   10.4759  -20.3912 C   0  0  0  0  0  0  0  0  0  0  0  0
  -13.0184   11.1985  -21.7061 S   0  0  0  0  0  0  0  0  0  0  0  0
  -12.3443   12.8223  -22.1418 C   0  0  0  0  0  0  0  0  0  0  0  0
  -11.8342   12.9395  -23.5833 C   0  0  1  0  0  0  0  0  0  0  0  0
  -11.1110   14.1364  -23.8051 O   0  0  0  0  0  0  0  0  0  0  0  0
  -10.8270   11.8650  -23.9186 C   0  0  1  0  0  0  0  0  0  0  0  0
  -10.8739   11.7491  -25.3239 O   0  0  0  0  0  0  0  0  0  0  0  0
   -9.4855   12.4477  -23.5391 C   0  0  1  0  0  0  0  0  0  0  0  0
   -8.5256   12.1060  -24.5151 O   0  0  0  0  0  0  0  0  0  0  0  0
   -9.7289   13.9411  -23.5718 C   0  0  2  0  0  0  0  0  0  0  0  0
  -18.0430    9.1730  -18.7188 O   0  0  0  0  0  0  0  0  0  0  0  0
   -9.5333   13.6067  -18.3695 N   0  0  0  0  0  0  0  0  0  0  0  0
   -9.9909   12.6674  -19.2630 C   0  0  0  0  0  0  0  0  0  0  0  0
   -9.9736   12.9473  -20.6082 N   0  0  0  0  0  0  0  0  0  0  0  0
   -9.5119   14.1300  -21.0590 C   0  0  0  0  0  0  0  0  0  0  0  0
   -9.0463   15.0880  -20.1781 C   0  0  0  0  0  0  0  0  0  0  0  0
   -9.0625   14.8162  -18.8151 C   0  0  0  0  0  0  0  0  0  0  0  0
   -8.6287   15.7091  -17.9341 N   0  0  0  0  0  0  0  0  0  0  0  0
   -8.6494   16.1640  -20.8938 N   0  0  0  0  0  0  0  0  0  0  0  0
   -8.8502   15.8981  -22.1992 C   0  0  0  0  0  0  0  0  0  0  0  0
   -9.3951   14.6453  -22.3202 N   0  0  0  0  0  0  0  0  0  0  0  0
  2  1  1  6  0  0  0
  2  3  1  0  0  0  0
  2  5  1  0  0  0  0
  3  4  1  0  0  0  0
  3 16  1  0  0  0  0
  5  6  1  0  0  0  0
  6  7  1  0  0  0  0
  7  8  1  0  0  0  0
  9  8  1  1  0  0  0
  9 10  1  0  0  0  0
  9 11  1  0  0  0  0
 10 15  1  0  0  0  0
 11 12  1  6  0  0  0
 11 13  1  0  0  0  0
 13 14  1  6  0  0  0
 13 15  1  0  0  0  0
 15 26  1  1  0  0  0
 17 18  2  0  0  0  0
 17 22  1  0  0  0  0
 18 19  1  0  0  0  0
 19 20  2  0  0  0  0
 20 21  1  0  0  0  0
 20 26  1  0  0  0  0
 21 22  2  0  0  0  0
 21 24  1  0  0  0  0
 22 23  1  0  0  0  0
 24 25  2  0  0  0  0
 25 26  1  0  0  0  0
M  END
>  <CHROM.1>
-58.36484214,-67.45010796,-179.91351344,126.30715087,-174.10641430,-169.65811135
86.18743706,-11.75823821,12.25602818,-21.26684087,-3.05150174,-0.69155250
-1.77510163

>  <Name>
ligand

>  <RI>
0

>  <Rbt.Current_Directory>
/home/itssahil/PROJECTS/Mol_Feturizer/New_Systems/rnas/3E5E

>  <Rbt.Executable>
rbdock ($Id: //depot/dev/client3/rdock/2013.1/src/exe/rbdock.cxx#4 $)

>  <Rbt.Library>
libRbt.so (2013.1, Build901 2013/11/27)

>  <Rbt.Parameter_File>
/export/apps/rDock/src/rDock_2013.1_src/data/scripts/dock_solv.prm

>  <Rbt.Receptor>
prm/pocket_docking_4.prm

>  <SCORE>
-15.7077

>  <SCORE.INTER>
-13.1097

>  <SCORE.INTER.CONST>
1

>  <SCORE.INTER.POLAR>
0

>  <SCORE.INTER.ROT>
7

>  <SCORE.INTER.SOLV>
16.4895

>  <SCORE.INTER.VDW>
-22.503

>  <SCORE.INTER.norm>
-0.504219

>  <SCORE.INTRA>
-2.598

>  <SCORE.INTRA.DIHEDRAL>
-4.3277

>  <SCORE.INTRA.DIHEDRAL.0>
10.1225

>  <SCORE.INTRA.POLAR>
0

>  <SCORE.INTRA.POLAR.0>
0

>  <SCORE.INTRA.REPUL>
0

>  <SCORE.INTRA.REPUL.0>
0

>  <SCORE.INTRA.SOLV>
0.152514

>  <SCORE.INTRA.SOLV.lig_0>
-49.9393

>  <SCORE.INTRA.VDW>
-0.510404

>  <SCORE.INTRA.VDW.0>
-1.75437

>  <SCORE.INTRA.norm>
-0.0999229

>  <SCORE.RESTR>
0

>  <SCORE.RESTR.CAVITY>
0

>  <SCORE.RESTR.norm>
0

>  <SCORE.SYSTEM>
0

>  <SCORE.SYSTEM.CONST>
0

>  <SCORE.SYSTEM.DIHEDRAL>
0

>  <SCORE.SYSTEM.SOLV>
0

>  <SCORE.SYSTEM.norm>
0

>  <SCORE.heavy>
26

>  <SCORE.norm>
-0.604142

>  <RMSD>
2.518

$$$$
ligand
 OpenBabel11021811473D
libRbt.so/2013.1/901 2013/11/27
 26 28  0  0  0  0  0  0  0  0999 V2000
  -17.1613    8.0334  -19.8157 N   0  0  0  0  0  0  0  0  0  0  0  0
  -16.5079    8.3469  -21.0925 C   0  0  2  0  0  0  0  0  0  0  0  0
  -16.2097    7.0680  -21.8298 C   0  0  0  0  0  0  0  0  0  0  0  0
  -15.7105    6.1350  -21.2457 O   0  0  0  0  0  0  0  0  0  0  0  0
  -15.2029    9.0989  -20.8252 C   0  0  0  0  0  0  0  0  0  0  0  0
  -14.5434    9.4647  -22.1537 C   0  0  0  0  0  0  0  0  0  0  0  0
  -13.0784   10.3231  -22.1832 S   0  0  0  0  0  0  0  0  0  0  0  0
  -12.4857   11.9850  -21.7735 C   0  0  0  0  0  0  0  0  0  0  0  0
  -12.3920   12.9449  -22.9658 C   0  0  1  0  0  0  0  0  0  0  0  0
  -11.9901   14.2470  -22.5812 O   0  0  0  0  0  0  0  0  0  0  0  0
  -11.3186   12.5317  -23.9449 C   0  0  1  0  0  0  0  0  0  0  0  0
  -11.6994   13.1179  -25.1703 O   0  0  0  0  0  0  0  0  0  0  0  0
  -10.0606   13.2180  -23.4658 C   0  0  1  0  0  0  0  0  0  0  0  0
   -9.3345   13.7061  -24.5727 O   0  0  0  0  0  0  0  0  0  0  0  0
  -10.5832   14.3820  -22.6520 C   0  0  2  0  0  0  0  0  0  0  0  0
  -16.4956    6.9637  -23.1380 O   0  0  0  0  0  0  0  0  0  0  0  0
   -7.1507   16.5957  -19.4067 N   0  0  0  0  0  0  0  0  0  0  0  0
   -7.2858   16.7918  -20.7608 C   0  0  0  0  0  0  0  0  0  0  0  0
   -8.2511   16.1004  -21.4522 N   0  0  0  0  0  0  0  0  0  0  0  0
   -9.0659   15.2355  -20.8172 C   0  0  0  0  0  0  0  0  0  0  0  0
   -8.9479   15.0241  -19.4563 C   0  0  0  0  0  0  0  0  0  0  0  0
   -7.9724   15.7160  -18.7481 C   0  0  0  0  0  0  0  0  0  0  0  0
   -7.8218   15.5403  -17.4412 N   0  0  0  0  0  0  0  0  0  0  0  0
   -9.8793   14.1169  -19.0865 N   0  0  0  0  0  0  0  0  0  0  0  0
  -10.5791   13.7621  -20.1818 C   0  0  0  0  0  0  0  0  0  0  0  0
  -10.0812   14.4375  -21.2668 N   0  0  0  0  0  0  0  0  0  0  0  0
  2  1  1  1  0  0  0
  2  3  1  0  0  0  0
  2  5  1  0  0  0  0
  3  4  1  0  0  0  0
  3 16  1  0  0  0  0
  5  6  1  0  0  0  0
  6  7  1  0  0  0  0
  7  8  1  0  0  0  0
  9  8  1  1  0  0  0
  9 10  1  0  0  0  0
  9 11  1  0  0  0  0
 10 15  1  0  0  0  0
 11 12  1  6  0  0  0
 11 13  1  0  0  0  0
 13 14  1  6  0  0  0
 13 15  1  0  0  0  0
 15 26  1  1  0  0  0
 17 18  2  0  0  0  0
 17 22  1  0  0  0  0
 18 19  1  0  0  0  0
 19 20  2  0  0  0  0
 20 21  1  0  0  0  0
 20 26  1  0  0  0  0
 21 22  2  0  0  0  0
 21 24  1  0  0  0  0
 22 23  1  0  0  0  0
 24 25  2  0  0  0  0
 25 26  1  0  0  0  0
M  END
>  <CHROM.1>
-45.92898677,-178.22670846,179.41055325,-68.33048267,-96.80208977,176.97080106
-141.26822810,-11.76088739,12.30357111,-21.56637801,3.07053654,-0.81057045
-1.50418167

>  <Name>
ligand

>  <RI>
0

>  <Rbt.Current_Directory>
/home/itssahil/PROJECTS/Mol_Feturizer/New_Systems/rnas/3E5E

>  <Rbt.Executable>
rbdock ($Id: //depot/dev/client3/rdock/2013.1/src/exe/rbdock.cxx#4 $)

>  <Rbt.Library>
libRbt.so (2013.1, Build901 2013/11/27)

>  <Rbt.Parameter_File>
/export/apps/rDock/src/rDock_2013.1_src/data/scripts/dock_solv.prm

>  <Rbt.Receptor>
prm/pocket_docking_7.prm

>  <SCORE>
-17.7572

>  <SCORE.INTER>
-14.6618

>  <SCORE.INTER.CONST>
1

>  <SCORE.INTER.POLAR>
0

>  <SCORE.INTER.ROT>
7

>  <SCORE.INTER.SOLV>
19.6542

>  <SCORE.INTER.VDW>
-24.5926

>  <SCORE.INTER.norm>
-0.563914

>  <SCORE.INTRA>
-3.0954

>  <SCORE.INTRA.DIHEDRAL>
-5.5577

>  <SCORE.INTRA.DIHEDRAL.0>
10.1225

>  <SCORE.INTRA.POLAR>
0

>  <SCORE.INTRA.POLAR.0>
0

>  <SCORE.INTRA.REPUL>
0

>  <SCORE.INTRA.REPUL.0>
0

>  <SCORE.INTRA.SOLV>
-0.659871

>  <SCORE.INTRA.SOLV.lig_0>
-49.9393

>  <SCORE.INTRA.VDW>
0.0133831

>  <SCORE.INTRA.VDW.0>
-1.75437

>  <SCORE.INTRA.norm>
-0.119054

>  <SCORE.RESTR>
0

>  <SCORE.RESTR.CAVITY>
0

>  <SCORE.RESTR.norm>
0

>  <SCORE.SYSTEM>
0

>  <SCORE.SYSTEM.CONST>
0

>  <SCORE.SYSTEM.DIHEDRAL>
0

>  <SCORE.SYSTEM.SOLV>
0

>  <SCORE.SYSTEM.norm>
0

>  <SCORE.heavy>
26

>  <SCORE.norm>
-0.682968

>  <RMSD>
2.520

$$$$
ligand
 OpenBabel11021811473D
libRbt.so/2013.1/901 2013/11/27
 26 28  0  0  0  0  0  0  0  0999 V2000
  -14.1837    4.8107  -19.7781 N   0  0  0  0  0  0  0  0  0  0  0  0
  -13.5281    5.6382  -18.7579 C   0  0  2  0  0  0  0  0  0  0  0  0
  -13.8870    5.1233  -17.3889 C   0  0  0  0  0  0  0  0  0  0  0  0
  -13.0308    5.0016  -16.5444 O   0  0  0  0  0  0  0  0  0  0  0  0
  -13.9984    7.0870  -18.8984 C   0  0  0  0  0  0  0  0  0  0  0  0
  -13.3668    7.9375  -17.7979 C   0  0  0  0  0  0  0  0  0  0  0  0
  -13.6300    9.6144  -17.7439 S   0  0  0  0  0  0  0  0  0  0  0  0
  -13.0124   11.0994  -18.5772 C   0  0  0  0  0  0  0  0  0  0  0  0
  -13.2333   11.1225  -20.0946 C   0  0  1  0  0  0  0  0  0  0  0  0
  -12.7022   12.2868  -20.7005 O   0  0  0  0  0  0  0  0  0  0  0  0
  -12.4935   10.0064  -20.7934 C   0  0  1  0  0  0  0  0  0  0  0  0
  -13.1892    9.8124  -22.0053 O   0  0  0  0  0  0  0  0  0  0  0  0
  -11.1324   10.5764  -21.1184 C   0  0  1  0  0  0  0  0  0  0  0  0
  -10.7362   10.1567  -22.4058 O   0  0  0  0  0  0  0  0  0  0  0  0
  -11.3697   12.0711  -21.1257 C   0  0  2  0  0  0  0  0  0  0  0  0
  -15.1585    4.7960  -17.1055 O   0  0  0  0  0  0  0  0  0  0  0  0
   -8.2590   16.2314  -20.6467 N   0  0  0  0  0  0  0  0  0  0  0  0
   -8.9156   15.7884  -21.7704 C   0  0  0  0  0  0  0  0  0  0  0  0
   -9.6868   14.6533  -21.7009 N   0  0  0  0  0  0  0  0  0  0  0  0
   -9.8069   13.9729  -20.5443 C   0  0  0  0  0  0  0  0  0  0  0  0
   -9.1561   14.4012  -19.4025 C   0  0  0  0  0  0  0  0  0  0  0  0
   -8.3708   15.5465  -19.4630 C   0  0  0  0  0  0  0  0  0  0  0  0
   -7.7254   15.9908  -18.3917 N   0  0  0  0  0  0  0  0  0  0  0  0
   -9.4483   13.5417  -18.4010 N   0  0  0  0  0  0  0  0  0  0  0  0
  -10.2699   12.5916  -18.8884 C   0  0  0  0  0  0  0  0  0  0  0  0
  -10.4944   12.8365  -20.2191 N   0  0  0  0  0  0  0  0  0  0  0  0
  2  1  1  6  0  0  0
  2  3  1  0  0  0  0
  2  5  1  0  0  0  0
  3  4  1  0  0  0  0
  3 16  1  0  0  0  0
  5  6  1  0  0  0  0
  6  7  1  0  0  0  0
  7  8  1  0  0  0  0
  9  8  1  1  0  0  0
  9 10  1  0  0  0  0
  9 11  1  0  0  0  0
 10 15  1  0  0  0  0
 11 12  1  6  0  0  0
 11 13  1  0  0  0  0
 13 14  1  6  0  0  0
 13 15  1  0  0  0  0
 15 26  1  1  0  0  0
 17 18  2  0  0  0  0
 17 22  1  0  0  0  0
 18 19  1  0  0  0  0
 19 20  2  0  0  0  0
 20 21  1  0  0  0  0
 20 26  1  0  0  0  0
 21 22  2  0  0  0  0
 21 24  1  0  0  0  0
 22 23  1  0  0  0  0
 24 25  2  0  0  0  0
 25 26  1  0  0  0  0
M  END
>  <CHROM.1>
135.12996691,177.43174515,176.49354938,-78.87758529,59.96788024,-178.46436237
-108.47895405,-11.74273077,10.69485434,-19.52987156,2.72103624,1.02660050
1.81018918

>  <Name>
ligand

>  <RI>
0

>  <Rbt.Current_Directory>
/home/itssahil/PROJECTS/Mol_Feturizer/New_Systems/rnas/3E5E

>  <Rbt.Executable>
rbdock ($Id: //depot/dev/client3/rdock/2013.1/src/exe/rbdock.cxx#4 $)

>  <Rbt.Library>
libRbt.so (2013.1, Build901 2013/11/27)

>  <Rbt.Parameter_File>
/export/apps/rDock/src/rDock_2013.1_src/data/scripts/dock_solv.prm

>  <Rbt.Receptor>
prm/pocket_docking_5.prm

>  <SCORE>
-19.7493

>  <SCORE.INTER>
-15.6206

>  <SCORE.INTER.CONST>
1

>  <SCORE.INTER.POLAR>
0

>  <SCORE.INTER.ROT>
7

>  <SCORE.INTER.SOLV>
17.0717

>  <SCORE.INTER.VDW>
-24.371

>  <SCORE.INTER.norm>
-0.600794

>  <SCORE.INTRA>
-4.12862

>  <SCORE.INTRA.DIHEDRAL>
-6.86253

>  <SCORE.INTRA.DIHEDRAL.0>
10.1225

>  <SCORE.INTRA.POLAR>
0

>  <SCORE.INTRA.POLAR.0>
0

>  <SCORE.INTRA.REPUL>
0

>  <SCORE.INTRA.REPUL.0>
0

>  <SCORE.INTRA.SOLV>
-0.516954

>  <SCORE.INTRA.SOLV.lig_0>
-49.9393

>  <SCORE.INTRA.VDW>
-0.438878

>  <SCORE.INTRA.VDW.0>
-1.75437

>  <SCORE.INTRA.norm>
-0.158793

>  <SCORE.RESTR>
0

>  <SCORE.RESTR.CAVITY>
0

>  <SCORE.RESTR.norm>
0

>  <SCORE.SYSTEM>
0

>  <SCORE.SYSTEM.CONST>
0

>  <SCORE.SYSTEM.DIHEDRAL>
0

>  <SCORE.SYSTEM.SOLV>
0

>  <SCORE.SYSTEM.norm>
0

>  <SCORE.heavy>
26

>  <SCORE.norm>
-0.759587

>  <RMSD>
2.527

$$$$
ligand
 OpenBabel11021811473D
libRbt.so/2013.1/901 2013/11/27
 26 28  0  0  0  0  0  0  0  0999 V2000
  -16.0789    9.1785  -16.3717 N   0  0  0  0  0  0  0  0  0  0  0  0
  -14.7013    8.9192  -15.9353 C   0  0  2  0  0  0  0  0  0  0  0  0
  -14.3136    9.9202  -14.8790 C   0  0  0  0  0  0  0  0  0  0  0  0
  -13.1717    9.9741  -14.4863 O   0  0  0  0  0  0  0  0  0  0  0  0
  -13.7562    9.0464  -17.1313 C   0  0  0  0  0  0  0  0  0  0  0  0
  -13.8394   10.4620  -17.6992 C   0  0  0  0  0  0  0  0  0  0  0  0
  -12.7357   10.9857  -18.8789 S   0  0  0  0  0  0  0  0  0  0  0  0
  -12.3247   12.5210  -19.7479 C   0  0  0  0  0  0  0  0  0  0  0  0
  -12.9279   12.6445  -21.1524 C   0  0  1  0  0  0  0  0  0  0  0  0
  -12.5576   13.8503  -21.7956 O   0  0  0  0  0  0  0  0  0  0  0  0
  -12.4048   11.5827  -22.0907 C   0  0  1  0  0  0  0  0  0  0  0  0
  -13.3907   11.4661  -23.0931 O   0  0  0  0  0  0  0  0  0  0  0  0
  -11.1667   12.1822  -22.7160 C   0  0  1  0  0  0  0  0  0  0  0  0
  -11.1193   11.8524  -24.0870 O   0  0  0  0  0  0  0  0  0  0  0  0
  -11.3815   13.6724  -22.5625 C   0  0  2  0  0  0  0  0  0  0  0  0
  -15.2369   10.7524  -14.3701 O   0  0  0  0  0  0  0  0  0  0  0  0
   -7.4643   17.0842  -23.0409 N   0  0  0  0  0  0  0  0  0  0  0  0
   -8.2919   16.5996  -24.0260 C   0  0  0  0  0  0  0  0  0  0  0  0
   -9.2677   15.6877  -23.7029 N   0  0  0  0  0  0  0  0  0  0  0  0
   -9.4221   15.2663  -22.4325 C   0  0  0  0  0  0  0  0  0  0  0  0
   -8.6016   15.7413  -21.4267 C   0  0  0  0  0  0  0  0  0  0  0  0
   -7.6092   16.6615  -21.7435 C   0  0  0  0  0  0  0  0  0  0  0  0
   -6.7968   17.1403  -20.8095 N   0  0  0  0  0  0  0  0  0  0  0  0
   -8.9736   15.1572  -20.2657 N   0  0  0  0  0  0  0  0  0  0  0  0
  -10.0094   14.3346  -20.5217 C   0  0  0  0  0  0  0  0  0  0  0  0
  -10.2943   14.3808  -21.8625 N   0  0  0  0  0  0  0  0  0  0  0  0
  2  1  1  6  0  0  0
  2  3  1  0  0  0  0
  2  5  1  0  0  0  0
  3  4  1  0  0  0  0
  3 16  1  0  0  0  0
  5  6  1  0  0  0  0
  6  7  1  0  0  0  0
  7  8  1  0  0  0  0
  9  8  1  1  0  0  0
  9 10  1  0  0  0  0
  9 11  1  0  0  0  0
 10 15  1  0  0  0  0
 11 12  1  6  0  0  0
 11 13  1  0  0  0  0
 13 14  1  6  0  0  0
 13 15  1  0  0  0  0
 15 26  1  1  0  0  0
 17 18  2  0  0  0  0
 17 22  1  0  0  0  0
 18 19  1  0  0  0  0
 19 20  2  0  0  0  0
 20 21  1  0  0  0  0
 20 26  1  0  0  0  0
 21 22  2  0  0  0  0
 21 24  1  0  0  0  0
 22 23  1  0  0  0  0
 24 25  2  0  0  0  0
 25 26  1  0  0  0  0
M  END
>  <CHROM.1>
-172.09680284,60.58899839,170.50531243,-174.04184853,-98.97177154,-178.97722065
-130.34416116,-11.60249645,12.78990139,-20.15063954,2.44788567,0.78902647
1.59983245

>  <Name>
ligand

>  <RI>
0

>  <Rbt.Current_Directory>
/home/itssahil/PROJECTS/Mol_Feturizer/New_Systems/rnas/3E5E

>  <Rbt.Executable>
rbdock ($Id: //depot/dev/client3/rdock/2013.1/src/exe/rbdock.cxx#4 $)

>  <Rbt.Library>
libRbt.so (2013.1, Build901 2013/11/27)

>  <Rbt.Parameter_File>
/export/apps/rDock/src/rDock_2013.1_src/data/scripts/dock_solv.prm

>  <Rbt.Receptor>
prm/pocket_docking_5.prm

>  <SCORE>
-18.628

>  <SCORE.INTER>
-16.8928

>  <SCORE.INTER.CONST>
1

>  <SCORE.INTER.POLAR>
0

>  <SCORE.INTER.ROT>
7

>  <SCORE.INTER.SOLV>
14.4744

>  <SCORE.INTER.VDW>
-24.3533

>  <SCORE.INTER.norm>
-0.649724

>  <SCORE.INTRA>
-1.73522

>  <SCORE.INTRA.DIHEDRAL>
-5.22633

>  <SCORE.INTRA.DIHEDRAL.0>
10.1225

>  <SCORE.INTRA.POLAR>
0

>  <SCORE.INTRA.POLAR.0>
0

>  <SCORE.INTRA.REPUL>
0

>  <SCORE.INTRA.REPUL.0>
0

>  <SCORE.INTRA.SOLV>
0.165101

>  <SCORE.INTRA.SOLV.lig_0>
-49.9393

>  <SCORE.INTRA.VDW>
0.795394

>  <SCORE.INTRA.VDW.0>
-1.75437

>  <SCORE.INTRA.norm>
-0.0667393

>  <SCORE.RESTR>
0

>  <SCORE.RESTR.CAVITY>
0

>  <SCORE.RESTR.norm>
0

>  <SCORE.SYSTEM>
0

>  <SCORE.SYSTEM.CONST>
0

>  <SCORE.SYSTEM.DIHEDRAL>
0

>  <SCORE.SYSTEM.SOLV>
0

>  <SCORE.SYSTEM.norm>
0

>  <SCORE.heavy>
26

>  <SCORE.norm>
-0.716463

>  <RMSD>
2.570

$$$$
ligand
 OpenBabel11021811473D
libRbt.so/2013.1/901 2013/11/27
 26 28  0  0  0  0  0  0  0  0999 V2000
  -14.3437    7.2867  -19.5259 N   0  0  0  0  0  0  0  0  0  0  0  0
  -13.3264    7.6337  -18.5257 C   0  0  2  0  0  0  0  0  0  0  0  0
  -13.5508    6.8185  -17.2794 C   0  0  0  0  0  0  0  0  0  0  0  0
  -12.6553    6.1432  -16.8286 O   0  0  0  0  0  0  0  0  0  0  0  0
  -13.4311    9.1220  -18.1885 C   0  0  0  0  0  0  0  0  0  0  0  0
  -12.9271    9.9495  -19.3696 C   0  0  0  0  0  0  0  0  0  0  0  0
  -12.9253   11.6463  -19.2971 S   0  0  0  0  0  0  0  0  0  0  0  0
  -12.2925   13.0327  -20.2761 C   0  0  0  0  0  0  0  0  0  0  0  0
  -12.8213   13.0970  -21.7141 C   0  0  1  0  0  0  0  0  0  0  0  0
  -12.3621   14.2426  -22.4082 O   0  0  0  0  0  0  0  0  0  0  0  0
  -12.3069   11.9564  -22.5601 C   0  0  1  0  0  0  0  0  0  0  0  0
  -13.2485   11.8237  -23.6023 O   0  0  0  0  0  0  0  0  0  0  0  0
  -11.0126   12.4584  -23.1566 C   0  0  1  0  0  0  0  0  0  0  0  0
  -10.9162   12.0429  -24.5015 O   0  0  0  0  0  0  0  0  0  0  0  0
  -11.1611   13.9636  -23.1028 C   0  0  2  0  0  0  0  0  0  0  0  0
  -14.7470    6.8387  -16.6690 O   0  0  0  0  0  0  0  0  0  0  0  0
   -7.3567   17.5123  -23.4868 N   0  0  0  0  0  0  0  0  0  0  0  0
   -8.1977   17.0603  -24.4759 C   0  0  0  0  0  0  0  0  0  0  0  0
   -9.1379   16.1028  -24.1804 N   0  0  0  0  0  0  0  0  0  0  0  0
   -9.2445   15.6052  -22.9329 C   0  0  0  0  0  0  0  0  0  0  0  0
   -8.4097   16.0462  -21.9234 C   0  0  0  0  0  0  0  0  0  0  0  0
   -7.4529   17.0121  -22.2126 C   0  0  0  0  0  0  0  0  0  0  0  0
   -6.6283   17.4609  -21.2744 N   0  0  0  0  0  0  0  0  0  0  0  0
   -8.7321   15.3860  -20.7887 N   0  0  0  0  0  0  0  0  0  0  0  0
   -9.7511   14.5489  -21.0643 C   0  0  0  0  0  0  0  0  0  0  0  0
  -10.0749   14.6630  -22.3921 N   0  0  0  0  0  0  0  0  0  0  0  0
  2  1  1  6  0  0  0
  2  3  1  0  0  0  0
  2  5  1  0  0  0  0
  3  4  1  0  0  0  0
  3 16  1  0  0  0  0
  5  6  1  0  0  0  0
  6  7  1  0  0  0  0
  7  8  1  0  0  0  0
  9  8  1  1  0  0  0
  9 10  1  0  0  0  0
  9 11  1  0  0  0  0
 10 15  1  0  0  0  0
 11 12  1  6  0  0  0
 11 13  1  0  0  0  0
 13 14  1  6  0  0  0
 13 15  1  0  0  0  0
 15 26  1  1  0  0  0
 17 18  2  0  0  0  0
 17 22  1  0  0  0  0
 18 19  1  0  0  0  0
 19 20  2  0  0  0  0
 20 21  1  0  0  0  0
 20 26  1  0  0  0  0
 21 22  2  0  0  0  0
 21 24  1  0  0  0  0
 22 23  1  0  0  0  0
 24 25  2  0  0  0  0
 25 26  1  0  0  0  0
M  END
>  <CHROM.1>
125.05034184,-71.55749271,179.74763834,171.16054272,59.50739938,176.32354127
-121.16180729,-11.28791671,12.50889488,-21.09528605,2.29629309,0.79443382
2.05527673

>  <Name>
ligand

>  <RI>
0

>  <Rbt.Current_Directory>
/home/itssahil/PROJECTS/Mol_Feturizer/New_Systems/rnas/3E5E

>  <Rbt.Executable>
rbdock ($Id: //depot/dev/client3/rdock/2013.1/src/exe/rbdock.cxx#4 $)

>  <Rbt.Library>
libRbt.so (2013.1, Build901 2013/11/27)

>  <Rbt.Parameter_File>
/export/apps/rDock/src/rDock_2013.1_src/data/scripts/dock_solv.prm

>  <Rbt.Receptor>
prm/pocket_docking_4.prm

>  <SCORE>
-19.6745

>  <SCORE.INTER>
-15.789

>  <SCORE.INTER.CONST>
1

>  <SCORE.INTER.POLAR>
0

>  <SCORE.INTER.ROT>
7

>  <SCORE.INTER.SOLV>
13.9601

>  <SCORE.INTER.VDW>
-23.4461

>  <SCORE.INTER.norm>
-0.607271

>  <SCORE.INTRA>
-3.8855

>  <SCORE.INTRA.DIHEDRAL>
-6.72367

>  <SCORE.INTRA.DIHEDRAL.0>
10.1225

>  <SCORE.INTRA.POLAR>
0

>  <SCORE.INTRA.POLAR.0>
0

>  <SCORE.INTRA.REPUL>
0

>  <SCORE.INTRA.REPUL.0>
0

>  <SCORE.INTRA.SOLV>
0.017353

>  <SCORE.INTRA.SOLV.lig_0>
-49.9393

>  <SCORE.INTRA.VDW>
-0.532344

>  <SCORE.INTRA.VDW.0>
-1.75437

>  <SCORE.INTRA.norm>
-0.149442

>  <SCORE.RESTR>
0

>  <SCORE.RESTR.CAVITY>
0

>  <SCORE.RESTR.norm>
0

>  <SCORE.SYSTEM>
0

>  <SCORE.SYSTEM.CONST>
0

>  <SCORE.SYSTEM.DIHEDRAL>
0

>  <SCORE.SYSTEM.SOLV>
0

>  <SCORE.SYSTEM.norm>
0

>  <SCORE.heavy>
26

>  <SCORE.norm>
-0.756713

>  <RMSD>
2.604

$$$$
ligand
 OpenBabel11021811473D
libRbt.so/2013.1/901 2013/11/27
 26 28  0  0  0  0  0  0  0  0999 V2000
  -15.1843    9.6875  -19.7273 N   0  0  0  0  0  0  0  0  0  0  0  0
  -14.0634    8.7580  -19.9156 C   0  0  2  0  0  0  0  0  0  0  0  0
  -14.5027    7.3637  -19.5535 C   0  0  0  0  0  0  0  0  0  0  0  0
  -13.9207    6.4080  -20.0105 O   0  0  0  0  0  0  0  0  0  0  0  0
  -12.8987    9.1765  -19.0167 C   0  0  0  0  0  0  0  0  0  0  0  0
  -12.2068   10.4002  -19.6144 C   0  0  0  0  0  0  0  0  0  0  0  0
  -12.9880   11.9080  -19.6392 S   0  0  0  0  0  0  0  0  0  0  0  0
  -12.8100   13.5002  -20.4842 C   0  0  0  0  0  0  0  0  0  0  0  0
  -12.9729   13.4397  -22.0079 C   0  0  1  0  0  0  0  0  0  0  0  0
  -12.2841   14.4865  -22.6672 O   0  0  0  0  0  0  0  0  0  0  0  0
  -12.3491   12.1966  -22.5971 C   0  0  1  0  0  0  0  0  0  0  0  0
  -13.0201   11.9993  -23.8223 O   0  0  0  0  0  0  0  0  0  0  0  0
  -10.9186   12.5772  -22.9000 C   0  0  1  0  0  0  0  0  0  0  0  0
  -10.5309   12.0218  -24.1378 O   0  0  0  0  0  0  0  0  0  0  0  0
  -10.9733   14.0850  -23.0184 C   0  0  2  0  0  0  0  0  0  0  0  0
  -15.5435    7.1806  -18.7245 O   0  0  0  0  0  0  0  0  0  0  0  0
   -8.6926   14.1489  -18.3271 N   0  0  0  0  0  0  0  0  0  0  0  0
   -9.6208   13.2554  -18.8066 C   0  0  0  0  0  0  0  0  0  0  0  0
  -10.1194   13.4131  -20.0772 N   0  0  0  0  0  0  0  0  0  0  0  0
   -9.7068   14.4317  -20.8566 C   0  0  0  0  0  0  0  0  0  0  0  0
   -8.7738   15.3408  -20.3947 C   0  0  0  0  0  0  0  0  0  0  0  0
   -8.2656   15.1922  -19.1095 C   0  0  0  0  0  0  0  0  0  0  0  0
   -7.3712   16.0445  -18.6246 N   0  0  0  0  0  0  0  0  0  0  0  0
   -8.5460   16.2471  -21.3715 N   0  0  0  0  0  0  0  0  0  0  0  0
   -9.3092   15.9219  -22.4331 C   0  0  0  0  0  0  0  0  0  0  0  0
  -10.0444   14.8050  -22.1281 N   0  0  0  0  0  0  0  0  0  0  0  0
  2  1  1  1  0  0  0
  2  3  1  0  0  0  0
  2  5  1  0  0  0  0
  3  4  1  0  0  0  0
  3 16  1  0  0  0  0
  5  6  1  0  0  0  0
  6  7  1  0  0  0  0
  7  8  1  0  0  0  0
  9  8  1  1  0  0  0
  9 10  1  0  0  0  0
  9 11  1  0  0  0  0
 10 15  1  0  0  0  0
 11 12  1  6  0  0  0
 11 13  1  0  0  0  0
 13 14  1  6  0  0  0
 13 15  1  0  0  0  0
 15 26  1  1  0  0  0
 17 18  2  0  0  0  0
 17 22  1  0  0  0  0
 18 19  1  0  0  0  0
 19 20  2  0  0  0  0
 20 21  1  0  0  0  0
 20 26  1  0  0  0  0
 21 22  2  0  0  0  0
 21 24  1  0  0  0  0
 22 23  1  0  0  0  0
 24 25  2  0  0  0  0
 25 26  1  0  0  0  0
M  END
>  <CHROM.1>
156.76368755,-75.51606088,69.37607847,-163.64726719,62.39349632,-154.09751172
82.82992280,-11.59850431,12.34754034,-20.74376848,-2.65601463,-0.82728884
-1.11318502

>  <Name>
ligand

>  <RI>
0

>  <Rbt.Current_Directory>
/home/itssahil/PROJECTS/Mol_Feturizer/New_Systems/rnas/3E5E

>  <Rbt.Executable>
rbdock ($Id: //depot/dev/client3/rdock/2013.1/src/exe/rbdock.cxx#4 $)

>  <Rbt.Library>
libRbt.so (2013.1, Build901 2013/11/27)

>  <Rbt.Parameter_File>
/export/apps/rDock/src/rDock_2013.1_src/data/scripts/dock_solv.prm

>  <Rbt.Receptor>
prm/pocket_docking_3.prm

>  <SCORE>
-20.4515

>  <SCORE.INTER>
-18.4836

>  <SCORE.INTER.CONST>
1

>  <SCORE.INTER.POLAR>
0

>  <SCORE.INTER.ROT>
7

>  <SCORE.INTER.SOLV>
19.3211

>  <SCORE.INTER.VDW>
-27.0294

>  <SCORE.INTER.norm>
-0.710906

>  <SCORE.INTRA>
-1.98939

>  <SCORE.INTRA.DIHEDRAL>
-3.59406

>  <SCORE.INTRA.DIHEDRAL.0>
10.1225

>  <SCORE.INTRA.POLAR>
0

>  <SCORE.INTRA.POLAR.0>
0

>  <SCORE.INTRA.REPUL>
0

>  <SCORE.INTRA.REPUL.0>
0

>  <SCORE.INTRA.SOLV>
1.51541

>  <SCORE.INTRA.SOLV.lig_0>
-49.9393

>  <SCORE.INTRA.VDW>
-0.950073

>  <SCORE.INTRA.VDW.0>
-1.75437

>  <SCORE.INTRA.norm>
-0.0765152

>  <SCORE.RESTR>
0.0214219

>  <SCORE.RESTR.CAVITY>
0.0214219

>  <SCORE.RESTR.norm>
0.000823919

>  <SCORE.SYSTEM>
0

>  <SCORE.SYSTEM.CONST>
0

>  <SCORE.SYSTEM.DIHEDRAL>
0

>  <SCORE.SYSTEM.SOLV>
0

>  <SCORE.SYSTEM.norm>
0

>  <SCORE.heavy>
26

>  <SCORE.norm>
-0.786598

>  <RMSD>
2.616

$$$$
ligand
 OpenBabel11021811473D
libRbt.so/2013.1/901 2013/11/27
 26 28  0  0  0  0  0  0  0  0999 V2000
  -16.6289    8.8289  -20.6939 N   0  0  0  0  0  0  0  0  0  0  0  0
  -15.5610    8.3798  -21.5959 C   0  0  2  0  0  0  0  0  0  0  0  0
  -16.0883    7.2916  -22.4936 C   0  0  0  0  0  0  0  0  0  0  0  0
  -15.6889    7.1986  -23.6307 O   0  0  0  0  0  0  0  0  0  0  0  0
  -14.3916    7.8398  -20.7709 C   0  0  0  0  0  0  0  0  0  0  0  0
  -13.7339    8.9870  -20.0061 C   0  0  0  0  0  0  0  0  0  0  0  0
  -13.1099   10.3318  -20.8345 S   0  0  0  0  0  0  0  0  0  0  0  0
  -12.7289   12.0677  -20.4849 C   0  0  0  0  0  0  0  0  0  0  0  0
  -12.9261   13.0194  -21.6712 C   0  0  1  0  0  0  0  0  0  0  0  0
  -12.3725   14.3009  -21.4339 O   0  0  0  0  0  0  0  0  0  0  0  0
  -12.1883   12.5518  -22.9034 C   0  0  1  0  0  0  0  0  0  0  0  0
  -12.8675   13.1536  -23.9837 O   0  0  0  0  0  0  0  0  0  0  0  0
  -10.8160   13.1761  -22.8039 C   0  0  1  0  0  0  0  0  0  0  0  0
  -10.4048   13.6256  -24.0765 O   0  0  0  0  0  0  0  0  0  0  0  0
  -11.0361   14.3662  -21.8952 C   0  0  2  0  0  0  0  0  0  0  0  0
  -17.0050    6.4249  -22.0327 O   0  0  0  0  0  0  0  0  0  0  0  0
   -6.7219   16.3947  -19.7771 N   0  0  0  0  0  0  0  0  0  0  0  0
   -7.2177   16.5914  -21.0442 C   0  0  0  0  0  0  0  0  0  0  0  0
   -8.3731   15.9533  -21.4260 N   0  0  0  0  0  0  0  0  0  0  0  0
   -9.0244   15.1400  -20.5719 C   0  0  0  0  0  0  0  0  0  0  0  0
   -8.5439   14.9290  -19.2932 C   0  0  0  0  0  0  0  0  0  0  0  0
   -7.3740   15.5671  -18.8981 C   0  0  0  0  0  0  0  0  0  0  0  0
   -6.8753   15.3896  -17.6810 N   0  0  0  0  0  0  0  0  0  0  0  0
   -9.3832   14.0788  -18.6605 N   0  0  0  0  0  0  0  0  0  0  0  0
  -10.3782   13.7595  -19.5109 C   0  0  0  0  0  0  0  0  0  0  0  0
  -10.1662   14.3996  -20.7052 N   0  0  0  0  0  0  0  0  0  0  0  0
  2  1  1  1  0  0  0
  2  3  1  0  0  0  0
  2  5  1  0  0  0  0
  3  4  1  0  0  0  0
  3 16  1  0  0  0  0
  5  6  1  0  0  0  0
  6  7  1  0  0  0  0
  7  8  1  0  0  0  0
  9  8  1  1  0  0  0
  9 10  1  0  0  0  0
  9 11  1  0  0  0  0
 10 15  1  0  0  0  0
 11 12  1  6  0  0  0
 11 13  1  0  0  0  0
 13 14  1  6  0  0  0
 13 15  1  0  0  0  0
 15 26  1  1  0  0  0
 17 18  2  0  0  0  0
 17 22  1  0  0  0  0
 18 19  1  0  0  0  0
 19 20  2  0  0  0  0
 20 21  1  0  0  0  0
 20 26  1  0  0  0  0
 21 22  2  0  0  0  0
 21 24  1  0  0  0  0
 22 23  1  0  0  0  0
 24 25  2  0  0  0  0
 25 26  1  0  0  0  0
M  END
>  <CHROM.1>
145.81126191,-67.83820046,-57.86581360,156.55029821,-147.06925680,-168.35943101
-141.77323203,-11.77449464,12.26571425,-21.16014907,-2.98460603,-0.79465687
-1.11642468

>  <Name>
ligand

>  <RI>
0

>  <Rbt.Current_Directory>
/home/itssahil/PROJECTS/Mol_Feturizer/New_Systems/rnas/3E5E

>  <Rbt.Executable>
rbdock ($Id: //depot/dev/client3/rdock/2013.1/src/exe/rbdock.cxx#4 $)

>  <Rbt.Library>
libRbt.so (2013.1, Build901 2013/11/27)

>  <Rbt.Parameter_File>
/export/apps/rDock/src/rDock_2013.1_src/data/scripts/dock_solv.prm

>  <Rbt.Receptor>
prm/blind_docking_100.prm

>  <SCORE>
-16.924

>  <SCORE.INTER>
-14.8322

>  <SCORE.INTER.CONST>
1

>  <SCORE.INTER.POLAR>
0

>  <SCORE.INTER.ROT>
7

>  <SCORE.INTER.SOLV>
22.228

>  <SCORE.INTER.VDW>
-25.5641

>  <SCORE.INTER.norm>
-0.570469

>  <SCORE.INTRA>
-2.09176

>  <SCORE.INTRA.DIHEDRAL>
-4.39782

>  <SCORE.INTRA.DIHEDRAL.0>
10.1225

>  <SCORE.INTRA.POLAR>
0

>  <SCORE.INTRA.POLAR.0>
0

>  <SCORE.INTRA.REPUL>
0

>  <SCORE.INTRA.REPUL.0>
0

>  <SCORE.INTRA.SOLV>
0.754452

>  <SCORE.INTRA.SOLV.lig_0>
-49.9393

>  <SCORE.INTRA.VDW>
-0.270078

>  <SCORE.INTRA.VDW.0>
-1.75437

>  <SCORE.INTRA.norm>
-0.0804524

>  <SCORE.RESTR>
0

>  <SCORE.RESTR.CAVITY>
0

>  <SCORE.RESTR.norm>
0

>  <SCORE.SYSTEM>
0

>  <SCORE.SYSTEM.CONST>
0

>  <SCORE.SYSTEM.DIHEDRAL>
0

>  <SCORE.SYSTEM.SOLV>
0

>  <SCORE.SYSTEM.norm>
0

>  <SCORE.heavy>
26

>  <SCORE.norm>
-0.650922

>  <RMSD>
2.635

$$$$
ligand
 OpenBabel11021811473D
libRbt.so/2013.1/901 2013/11/27
 26 28  0  0  0  0  0  0  0  0999 V2000
  -14.3841    7.4921  -19.5167 N   0  0  0  0  0  0  0  0  0  0  0  0
  -13.3281    7.8055  -18.5461 C   0  0  2  0  0  0  0  0  0  0  0  0
  -13.5311    6.9820  -17.3016 C   0  0  0  0  0  0  0  0  0  0  0  0
  -14.4280    7.2513  -16.5373 O   0  0  0  0  0  0  0  0  0  0  0  0
  -13.3884    9.2921  -18.1906 C   0  0  0  0  0  0  0  0  0  0  0  0
  -12.9333   10.1223  -19.3894 C   0  0  0  0  0  0  0  0  0  0  0  0
  -12.9699   11.8191  -19.3288 S   0  0  0  0  0  0  0  0  0  0  0  0
  -12.3821   13.2127  -20.3256 C   0  0  0  0  0  0  0  0  0  0  0  0
  -12.8336   13.1890  -21.7909 C   0  0  1  0  0  0  0  0  0  0  0  0
  -12.3162   14.2778  -22.5337 O   0  0  0  0  0  0  0  0  0  0  0  0
  -12.2983   11.9860  -22.5310 C   0  0  1  0  0  0  0  0  0  0  0  0
  -13.1866   11.7990  -23.6110 O   0  0  0  0  0  0  0  0  0  0  0  0
  -10.9649   12.4258  -23.0892 C   0  0  1  0  0  0  0  0  0  0  0  0
  -10.8065   11.9196  -24.3967 O   0  0  0  0  0  0  0  0  0  0  0  0
  -11.0863   13.9334  -23.1431 C   0  0  2  0  0  0  0  0  0  0  0  0
  -12.7142    5.9490  -17.0381 O   0  0  0  0  0  0  0  0  0  0  0  0
   -7.3390   17.5444  -23.5083 N   0  0  0  0  0  0  0  0  0  0  0  0
   -8.1546   17.0648  -24.5057 C   0  0  0  0  0  0  0  0  0  0  0  0
   -9.0827   16.0945  -24.2138 N   0  0  0  0  0  0  0  0  0  0  0  0
   -9.2022   15.6111  -22.9619 C   0  0  0  0  0  0  0  0  0  0  0  0
   -8.3930   16.0799  -21.9441 C   0  0  0  0  0  0  0  0  0  0  0  0
   -7.4486   17.0589  -22.2295 C   0  0  0  0  0  0  0  0  0  0  0  0
   -6.6485   17.5344  -21.2832 N   0  0  0  0  0  0  0  0  0  0  0  0
   -8.7234   15.4286  -20.8065 N   0  0  0  0  0  0  0  0  0  0  0  0
   -9.7226   14.5699  -21.0886 C   0  0  0  0  0  0  0  0  0  0  0  0
  -10.0251   14.6612  -22.4232 N   0  0  0  0  0  0  0  0  0  0  0  0
  2  1  1  6  0  0  0
  2  3  1  0  0  0  0
  2  5  1  0  0  0  0
  3  4  1  0  0  0  0
  3 16  1  0  0  0  0
  5  6  1  0  0  0  0
  6  7  1  0  0  0  0
  7  8  1  0  0  0  0
  9  8  1  1  0  0  0
  9 10  1  0  0  0  0
  9 11  1  0  0  0  0
 10 15  1  0  0  0  0
 11 12  1  6  0  0  0
 11 13  1  0  0  0  0
 13 14  1  6  0  0  0
 13 15  1  0  0  0  0
 15 26  1  1  0  0  0
 17 18  2  0  0  0  0
 17 22  1  0  0  0  0
 18 19  1  0  0  0  0
 19 20  2  0  0  0  0
 20 21  1  0  0  0  0
 20 26  1  0  0  0  0
 21 22  2  0  0  0  0
 21 24  1  0  0  0  0
 22 23  1  0  0  0  0
 24 25  2  0  0  0  0
 25 26  1  0  0  0  0
M  END
>  <CHROM.1>
-73.29781089,-70.29964107,176.73356489,170.49975807,54.48310071,-178.29851554
-116.93748970,-11.26169720,12.57732701,-21.11508664,2.31623804,0.80984207
2.02608888

>  <Name>
ligand

>  <RI>
0

>  <Rbt.Current_Directory>
/home/itssahil/PROJECTS/Mol_Feturizer/New_Systems/rnas/3E5E

>  <Rbt.Executable>
rbdock ($Id: //depot/dev/client3/rdock/2013.1/src/exe/rbdock.cxx#4 $)

>  <Rbt.Library>
libRbt.so (2013.1, Build901 2013/11/27)

>  <Rbt.Parameter_File>
/export/apps/rDock/src/rDock_2013.1_src/data/scripts/dock_solv.prm

>  <Rbt.Receptor>
prm/pocket_docking_8.prm

>  <SCORE>
-19.5156

>  <SCORE.INTER>
-16.0065

>  <SCORE.INTER.CONST>
1

>  <SCORE.INTER.POLAR>
0

>  <SCORE.INTER.ROT>
7

>  <SCORE.INTER.SOLV>
13.719

>  <SCORE.INTER.VDW>
-23.5107

>  <SCORE.INTER.norm>
-0.615636

>  <SCORE.INTRA>
-3.50903

>  <SCORE.INTRA.DIHEDRAL>
-6.7731

>  <SCORE.INTRA.DIHEDRAL.0>
10.1225

>  <SCORE.INTRA.POLAR>
0

>  <SCORE.INTRA.POLAR.0>
0

>  <SCORE.INTRA.REPUL>
0

>  <SCORE.INTRA.REPUL.0>
0

>  <SCORE.INTRA.SOLV>
0.0576687

>  <SCORE.INTRA.SOLV.lig_0>
-49.9393

>  <SCORE.INTRA.VDW>
-0.151316

>  <SCORE.INTRA.VDW.0>
-1.75437

>  <SCORE.INTRA.norm>
-0.134963

>  <SCORE.RESTR>
0

>  <SCORE.RESTR.CAVITY>
0

>  <SCORE.RESTR.norm>
0

>  <SCORE.SYSTEM>
0

>  <SCORE.SYSTEM.CONST>
0

>  <SCORE.SYSTEM.DIHEDRAL>
0

>  <SCORE.SYSTEM.SOLV>
0

>  <SCORE.SYSTEM.norm>
0

>  <SCORE.heavy>
26

>  <SCORE.norm>
-0.750598

>  <RMSD>
2.635

$$$$
ligand
 OpenBabel11021811473D
libRbt.so/2013.1/901 2013/11/27
 26 28  0  0  0  0  0  0  0  0999 V2000
  -15.2389    8.2272  -18.1081 N   0  0  0  0  0  0  0  0  0  0  0  0
  -14.6320    9.1917  -19.0338 C   0  0  2  0  0  0  0  0  0  0  0  0
  -14.8911    8.7561  -20.4520 C   0  0  0  0  0  0  0  0  0  0  0  0
  -15.5082    9.4748  -21.2028 O   0  0  0  0  0  0  0  0  0  0  0  0
  -13.1239    9.2552  -18.7862 C   0  0  0  0  0  0  0  0  0  0  0  0
  -12.5008   10.3098  -19.6989 C   0  0  0  0  0  0  0  0  0  0  0  0
  -13.0362   11.9207  -19.6487 S   0  0  0  0  0  0  0  0  0  0  0  0
  -12.7091   13.4736  -20.5220 C   0  0  0  0  0  0  0  0  0  0  0  0
  -12.8590   13.3965  -22.0462 C   0  0  1  0  0  0  0  0  0  0  0  0
  -12.1773   14.4450  -22.7101 O   0  0  0  0  0  0  0  0  0  0  0  0
  -12.2158   12.1553  -22.6183 C   0  0  1  0  0  0  0  0  0  0  0  0
  -12.8746   11.9382  -23.8469 O   0  0  0  0  0  0  0  0  0  0  0  0
  -10.7875   12.5499  -22.9136 C   0  0  1  0  0  0  0  0  0  0  0  0
  -10.3833   11.9873  -24.1428 O   0  0  0  0  0  0  0  0  0  0  0  0
  -10.8590   14.0557  -23.0470 C   0  0  2  0  0  0  0  0  0  0  0  0
  -14.4391    7.5672  -20.8835 O   0  0  0  0  0  0  0  0  0  0  0  0
   -8.6169   14.1918  -18.3387 N   0  0  0  0  0  0  0  0  0  0  0  0
   -9.5306   13.2827  -18.8168 C   0  0  0  0  0  0  0  0  0  0  0  0
  -10.0208   13.4223  -20.0929 N   0  0  0  0  0  0  0  0  0  0  0  0
   -9.6141   14.4382  -20.8788 C   0  0  0  0  0  0  0  0  0  0  0  0
   -8.6957   15.3628  -20.4183 C   0  0  0  0  0  0  0  0  0  0  0  0
   -8.1961   15.2326  -19.1278 C   0  0  0  0  0  0  0  0  0  0  0  0
   -7.3158   16.1001  -18.6441 N   0  0  0  0  0  0  0  0  0  0  0  0
   -8.4708   16.2623  -21.4020 N   0  0  0  0  0  0  0  0  0  0  0  0
   -9.2216   15.9179  -22.4664 C   0  0  0  0  0  0  0  0  0  0  0  0
   -9.9459   14.7953  -22.1564 N   0  0  0  0  0  0  0  0  0  0  0  0
  2  1  1  1  0  0  0
  2  3  1  0  0  0  0
  2  5  1  0  0  0  0
  3  4  1  0  0  0  0
  3 16  1  0  0  0  0
  5  6  1  0  0  0  0
  6  7  1  0  0  0  0
  7  8  1  0  0  0  0
  9  8  1  1  0  0  0
  9 10  1  0  0  0  0
  9 11  1  0  0  0  0
 10 15  1  0  0  0  0
 11 12  1  6  0  0  0
 11 13  1  0  0  0  0
 13 14  1  6  0  0  0
 13 15  1  0  0  0  0
 15 26  1  1  0  0  0
 17 18  2  0  0  0  0
 17 22  1  0  0  0  0
 18 19  1  0  0  0  0
 19 20  2  0  0  0  0
 20 21  1  0  0  0  0
 20 26  1  0  0  0  0
 21 22  2  0  0  0  0
 21 24  1  0  0  0  0
 22 23  1  0  0  0  0
 24 25  2  0  0  0  0
 25 26  1  0  0  0  0
M  END
>  <CHROM.1>
119.72041790,-177.12748410,57.45290941,-176.59668840,54.13850762,-159.85183815
82.83480519,-11.61048040,12.49594732,-20.83513234,-2.84031379,-0.78946590
-1.27088481

>  <Name>
ligand

>  <RI>
0

>  <Rbt.Current_Directory>
/home/itssahil/PROJECTS/Mol_Feturizer/New_Systems/rnas/3E5E

>  <Rbt.Executable>
rbdock ($Id: //depot/dev/client3/rdock/2013.1/src/exe/rbdock.cxx#4 $)

>  <Rbt.Library>
libRbt.so (2013.1, Build901 2013/11/27)

>  <Rbt.Parameter_File>
/export/apps/rDock/src/rDock_2013.1_src/data/scripts/dock_solv.prm

>  <Rbt.Receptor>
prm/pocket_docking_3.prm

>  <SCORE>
-23.1506

>  <SCORE.INTER>
-19.3504

>  <SCORE.INTER.CONST>
1

>  <SCORE.INTER.POLAR>
0

>  <SCORE.INTER.ROT>
7

>  <SCORE.INTER.SOLV>
16.6198

>  <SCORE.INTER.VDW>
-26.7068

>  <SCORE.INTER.norm>
-0.744245

>  <SCORE.INTRA>
-3.8002

>  <SCORE.INTRA.DIHEDRAL>
-5.8622

>  <SCORE.INTRA.DIHEDRAL.0>
10.1225

>  <SCORE.INTRA.POLAR>
0

>  <SCORE.INTRA.POLAR.0>
0

>  <SCORE.INTRA.REPUL>
0

>  <SCORE.INTRA.REPUL.0>
0

>  <SCORE.INTRA.SOLV>
-0.262306

>  <SCORE.INTRA.SOLV.lig_0>
-49.9393

>  <SCORE.INTRA.VDW>
-0.737952

>  <SCORE.INTRA.VDW.0>
-1.75437

>  <SCORE.INTRA.norm>
-0.146162

>  <SCORE.RESTR>
0

>  <SCORE.RESTR.CAVITY>
0

>  <SCORE.RESTR.norm>
0

>  <SCORE.SYSTEM>
0

>  <SCORE.SYSTEM.CONST>
0

>  <SCORE.SYSTEM.DIHEDRAL>
0

>  <SCORE.SYSTEM.SOLV>
0

>  <SCORE.SYSTEM.norm>
0

>  <SCORE.heavy>
26

>  <SCORE.norm>
-0.890407

>  <RMSD>
2.649

$$$$
ligand
 OpenBabel11021811473D
libRbt.so/2013.1/901 2013/11/27
 26 28  0  0  0  0  0  0  0  0999 V2000
  -14.4603    7.3344  -17.1899 N   0  0  0  0  0  0  0  0  0  0  0  0
  -14.3909    8.1384  -18.4164 C   0  0  2  0  0  0  0  0  0  0  0  0
  -14.0384    7.2486  -19.5792 C   0  0  0  0  0  0  0  0  0  0  0  0
  -14.3458    7.5710  -20.7029 O   0  0  0  0  0  0  0  0  0  0  0  0
  -13.3200    9.2189  -18.2567 C   0  0  0  0  0  0  0  0  0  0  0  0
  -13.5062   10.2852  -19.3346 C   0  0  0  0  0  0  0  0  0  0  0  0
  -12.4202   11.5847  -19.4607 S   0  0  0  0  0  0  0  0  0  0  0  0
  -12.3544   13.2086  -20.2604 C   0  0  0  0  0  0  0  0  0  0  0  0
  -12.8563   13.2311  -21.7093 C   0  0  1  0  0  0  0  0  0  0  0  0
  -12.3575   14.3386  -22.4371 O   0  0  0  0  0  0  0  0  0  0  0  0
  -12.3549   12.0476  -22.5027 C   0  0  1  0  0  0  0  0  0  0  0  0
  -13.2811   11.8979  -23.5564 O   0  0  0  0  0  0  0  0  0  0  0  0
  -11.0386   12.4963  -23.0936 C   0  0  1  0  0  0  0  0  0  0  0  0
  -10.9288   12.0282  -24.4201 O   0  0  0  0  0  0  0  0  0  0  0  0
  -11.1516   14.0055  -23.0987 C   0  0  2  0  0  0  0  0  0  0  0  0
  -13.3844    6.0945  -19.3688 O   0  0  0  0  0  0  0  0  0  0  0  0
   -7.3262   17.5276  -23.5169 N   0  0  0  0  0  0  0  0  0  0  0  0
   -8.1697   17.0708  -24.5017 C   0  0  0  0  0  0  0  0  0  0  0  0
   -9.1156   16.1219  -24.1969 N   0  0  0  0  0  0  0  0  0  0  0  0
   -9.2253   15.6373  -22.9446 C   0  0  0  0  0  0  0  0  0  0  0  0
   -8.3881   16.0833  -21.9393 C   0  0  0  0  0  0  0  0  0  0  0  0
   -7.4256   17.0406  -22.2379 C   0  0  0  0  0  0  0  0  0  0  0  0
   -6.5986   17.4938  -21.3040 N   0  0  0  0  0  0  0  0  0  0  0  0
   -8.7146   15.4363  -20.7982 N   0  0  0  0  0  0  0  0  0  0  0  0
   -9.7386   14.6026  -21.0657 C   0  0  0  0  0  0  0  0  0  0  0  0
  -10.0615   14.7054  -22.3947 N   0  0  0  0  0  0  0  0  0  0  0  0
  2  1  1  1  0  0  0
  2  3  1  0  0  0  0
  2  5  1  0  0  0  0
  3  4  1  0  0  0  0
  3 16  1  0  0  0  0
  5  6  1  0  0  0  0
  6  7  1  0  0  0  0
  7  8  1  0  0  0  0
  9  8  1  1  0  0  0
  9 10  1  0  0  0  0
  9 11  1  0  0  0  0
 10 15  1  0  0  0  0
 11 12  1  6  0  0  0
 11 13  1  0  0  0  0
 13 14  1  6  0  0  0
 13 15  1  0  0  0  0
 15 26  1  1  0  0  0
 17 18  2  0  0  0  0
 17 22  1  0  0  0  0
 18 19  1  0  0  0  0
 19 20  2  0  0  0  0
 20 21  1  0  0  0  0
 20 26  1  0  0  0  0
 21 22  2  0  0  0  0
 21 24  1  0  0  0  0
 22 23  1  0  0  0  0
 24 25  2  0  0  0  0
 25 26  1  0  0  0  0
M  END
>  <CHROM.1>
155.71427437,-164.09146636,-177.19391983,-164.25251347,-43.94219605,-158.52337850
-119.02084446,-11.33292654,12.61692789,-21.36996112,-2.55184459,-0.89619165
-1.28473294

>  <Name>
ligand

>  <RI>
0

>  <Rbt.Current_Directory>
/home/itssahil/PROJECTS/Mol_Feturizer/New_Systems/rnas/3E5E

>  <Rbt.Executable>
rbdock ($Id: //depot/dev/client3/rdock/2013.1/src/exe/rbdock.cxx#4 $)

>  <Rbt.Library>
libRbt.so (2013.1, Build901 2013/11/27)

>  <Rbt.Parameter_File>
/export/apps/rDock/src/rDock_2013.1_src/data/scripts/dock_solv.prm

>  <Rbt.Receptor>
prm/pocket_docking_4.prm

>  <SCORE>
-16.9559

>  <SCORE.INTER>
-14.3673

>  <SCORE.INTER.CONST>
1

>  <SCORE.INTER.POLAR>
0

>  <SCORE.INTER.ROT>
7

>  <SCORE.INTER.SOLV>
12.9508

>  <SCORE.INTER.VDW>
-22.1618

>  <SCORE.INTER.norm>
-0.55259

>  <SCORE.INTRA>
-2.58854

>  <SCORE.INTRA.DIHEDRAL>
-4.14879

>  <SCORE.INTRA.DIHEDRAL.0>
10.1225

>  <SCORE.INTRA.POLAR>
0

>  <SCORE.INTRA.POLAR.0>
0

>  <SCORE.INTRA.REPUL>
0

>  <SCORE.INTRA.REPUL.0>
0

>  <SCORE.INTRA.SOLV>
-0.466868

>  <SCORE.INTRA.SOLV.lig_0>
-49.9393

>  <SCORE.INTRA.VDW>
-0.280713

>  <SCORE.INTRA.VDW.0>
-1.75437

>  <SCORE.INTRA.norm>
-0.0995593

>  <SCORE.RESTR>
0

>  <SCORE.RESTR.CAVITY>
0

>  <SCORE.RESTR.norm>
0

>  <SCORE.SYSTEM>
0

>  <SCORE.SYSTEM.CONST>
0

>  <SCORE.SYSTEM.DIHEDRAL>
0

>  <SCORE.SYSTEM.SOLV>
0

>  <SCORE.SYSTEM.norm>
0

>  <SCORE.heavy>
26

>  <SCORE.norm>
-0.652149

>  <RMSD>
2.694

$$$$
ligand
 OpenBabel11021811473D
libRbt.so/2013.1/901 2013/11/27
 26 28  0  0  0  0  0  0  0  0999 V2000
  -14.6068    5.9487  -18.4478 N   0  0  0  0  0  0  0  0  0  0  0  0
  -13.4798    6.4044  -17.6245 C   0  0  2  0  0  0  0  0  0  0  0  0
  -13.4578    5.6303  -16.3329 C   0  0  0  0  0  0  0  0  0  0  0  0
  -12.5235    4.9077  -16.0762 O   0  0  0  0  0  0  0  0  0  0  0  0
  -13.6394    7.8957  -17.3239 C   0  0  0  0  0  0  0  0  0  0  0  0
  -13.1941    8.7112  -18.5364 C   0  0  0  0  0  0  0  0  0  0  0  0
  -13.1473   10.4074  -18.4665 S   0  0  0  0  0  0  0  0  0  0  0  0
  -12.6408   11.7830  -19.5306 C   0  0  0  0  0  0  0  0  0  0  0  0
  -13.3352   11.8266  -20.8971 C   0  0  1  0  0  0  0  0  0  0  0  0
  -13.0660   13.0245  -21.6024 O   0  0  0  0  0  0  0  0  0  0  0  0
  -12.8191   10.7574  -21.8310 C   0  0  1  0  0  0  0  0  0  0  0  0
  -13.8583   10.5576  -22.7641 O   0  0  0  0  0  0  0  0  0  0  0  0
  -11.6536   11.3919  -22.5535 C   0  0  1  0  0  0  0  0  0  0  0  0
  -11.6749   11.0152  -23.9130 O   0  0  0  0  0  0  0  0  0  0  0  0
  -11.9323   12.8748  -22.4363 C   0  0  2  0  0  0  0  0  0  0  0  0
  -14.4777    5.7398  -15.4658 O   0  0  0  0  0  0  0  0  0  0  0  0
   -7.6722   15.7407  -23.3590 N   0  0  0  0  0  0  0  0  0  0  0  0
   -8.4615   15.0777  -24.2686 C   0  0  0  0  0  0  0  0  0  0  0  0
   -9.5453   14.3577  -23.8269 N   0  0  0  0  0  0  0  0  0  0  0  0
   -9.8421   14.2968  -22.5141 C   0  0  0  0  0  0  0  0  0  0  0  0
   -9.0624   14.9566  -21.5829 C   0  0  0  0  0  0  0  0  0  0  0  0
   -7.9619   15.6850  -22.0189 C   0  0  0  0  0  0  0  0  0  0  0  0
   -7.1840   16.3303  -21.1586 N   0  0  0  0  0  0  0  0  0  0  0  0
   -9.5823   14.7267  -20.3564 N   0  0  0  0  0  0  0  0  0  0  0  0
  -10.6702   13.9452  -20.5005 C   0  0  0  0  0  0  0  0  0  0  0  0
  -10.8404   13.6591  -21.8310 N   0  0  0  0  0  0  0  0  0  0  0  0
  2  1  1  6  0  0  0
  2  3  1  0  0  0  0
  2  5  1  0  0  0  0
  3  4  1  0  0  0  0
  3 16  1  0  0  0  0
  5  6  1  0  0  0  0
  6  7  1  0  0  0  0
  7  8  1  0  0  0  0
  9  8  1  1  0  0  0
  9 10  1  0  0  0  0
  9 11  1  0  0  0  0
 10 15  1  0  0  0  0
 11 12  1  6  0  0  0
 11 13  1  0  0  0  0
 13 14  1  6  0  0  0
 13 15  1  0  0  0  0
 15 26  1  1  0  0  0
 17 18  2  0  0  0  0
 17 22  1  0  0  0  0
 18 19  1  0  0  0  0
 19 20  2  0  0  0  0
 20 21  1  0  0  0  0
 20 26  1  0  0  0  0
 21 22  2  0  0  0  0
 21 24  1  0  0  0  0
 22 23  1  0  0  0  0
 24 25  2  0  0  0  0
 25 26  1  0  0  0  0
M  END
>  <CHROM.1>
116.19680195,-79.18791827,-175.49759052,176.05695379,57.03554506,170.74054597
-147.95103653,-11.70778170,11.28659863,-20.44054162,2.18928413,0.76555446
2.09982746

>  <Name>
ligand

>  <RI>
0

>  <Rbt.Current_Directory>
/home/itssahil/PROJECTS/Mol_Feturizer/New_Systems/rnas/3E5E

>  <Rbt.Executable>
rbdock ($Id: //depot/dev/client3/rdock/2013.1/src/exe/rbdock.cxx#4 $)

>  <Rbt.Library>
libRbt.so (2013.1, Build901 2013/11/27)

>  <Rbt.Parameter_File>
/export/apps/rDock/src/rDock_2013.1_src/data/scripts/dock_solv.prm

>  <Rbt.Receptor>
prm/pocket_docking_3.prm

>  <SCORE>
-15.888

>  <SCORE.INTER>
-12.5446

>  <SCORE.INTER.CONST>
1

>  <SCORE.INTER.POLAR>
0

>  <SCORE.INTER.ROT>
7

>  <SCORE.INTER.SOLV>
8.67486

>  <SCORE.INTER.VDW>
-19.5213

>  <SCORE.INTER.norm>
-0.482483

>  <SCORE.INTRA>
-3.34512

>  <SCORE.INTRA.DIHEDRAL>
-5.55614

>  <SCORE.INTRA.DIHEDRAL.0>
10.1225

>  <SCORE.INTRA.POLAR>
0

>  <SCORE.INTRA.POLAR.0>
0

>  <SCORE.INTRA.REPUL>
0

>  <SCORE.INTRA.REPUL.0>
0

>  <SCORE.INTRA.SOLV>
-0.0802187

>  <SCORE.INTRA.SOLV.lig_0>
-49.9393

>  <SCORE.INTRA.VDW>
-0.52694

>  <SCORE.INTRA.VDW.0>
-1.75437

>  <SCORE.INTRA.norm>
-0.128658

>  <SCORE.RESTR>
0.00169026

>  <SCORE.RESTR.CAVITY>
0.00169026

>  <SCORE.RESTR.norm>
6.50102e-05

>  <SCORE.SYSTEM>
0

>  <SCORE.SYSTEM.CONST>
0

>  <SCORE.SYSTEM.DIHEDRAL>
0

>  <SCORE.SYSTEM.SOLV>
0

>  <SCORE.SYSTEM.norm>
0

>  <SCORE.heavy>
26

>  <SCORE.norm>
-0.611076

>  <RMSD>
2.704

$$$$
ligand
 OpenBabel11021811473D
libRbt.so/2013.1/901 2013/11/27
 26 28  0  0  0  0  0  0  0  0999 V2000
  -14.6750    7.8290  -20.0945 N   0  0  0  0  0  0  0  0  0  0  0  0
  -13.4467    7.8573  -19.2908 C   0  0  2  0  0  0  0  0  0  0  0  0
  -13.8018    7.7680  -17.8299 C   0  0  0  0  0  0  0  0  0  0  0  0
  -14.6885    8.4550  -17.3795 O   0  0  0  0  0  0  0  0  0  0  0  0
  -12.6955    9.1633  -19.5552 C   0  0  0  0  0  0  0  0  0  0  0  0
  -13.6581   10.3418  -19.4210 C   0  0  0  0  0  0  0  0  0  0  0  0
  -13.0700   11.9333  -19.3468 S   0  0  0  0  0  0  0  0  0  0  0  0
  -12.2013   13.0971  -20.4294 C   0  0  0  0  0  0  0  0  0  0  0  0
  -12.7352   13.1582  -21.8657 C   0  0  1  0  0  0  0  0  0  0  0  0
  -12.2568   14.2879  -22.5726 O   0  0  0  0  0  0  0  0  0  0  0  0
  -12.2469   11.9998  -22.7031 C   0  0  1  0  0  0  0  0  0  0  0  0
  -13.1956   11.8758  -23.7399 O   0  0  0  0  0  0  0  0  0  0  0  0
  -10.9457   12.4708  -23.3098 C   0  0  1  0  0  0  0  0  0  0  0  0
  -10.8635   12.0408  -24.6511 O   0  0  0  0  0  0  0  0  0  0  0  0
  -11.0645   13.9790  -23.2697 C   0  0  2  0  0  0  0  0  0  0  0  0
  -13.1318    6.9267  -17.0253 O   0  0  0  0  0  0  0  0  0  0  0  0
   -7.2366   17.4987  -23.6843 N   0  0  0  0  0  0  0  0  0  0  0  0
   -8.0964   17.0616  -24.6640 C   0  0  0  0  0  0  0  0  0  0  0  0
   -9.0401   16.1098  -24.3615 N   0  0  0  0  0  0  0  0  0  0  0  0
   -9.1317   15.6031  -23.1164 C   0  0  0  0  0  0  0  0  0  0  0  0
   -8.2779   16.0292  -22.1164 C   0  0  0  0  0  0  0  0  0  0  0  0
   -7.3176   16.9893  -22.4128 C   0  0  0  0  0  0  0  0  0  0  0  0
   -6.4750   17.4237  -21.4839 N   0  0  0  0  0  0  0  0  0  0  0  0
   -8.5885   15.3627  -20.9821 N   0  0  0  0  0  0  0  0  0  0  0  0
   -9.6187   14.5363  -21.2485 C   0  0  0  0  0  0  0  0  0  0  0  0
   -9.9618   14.6636  -22.5703 N   0  0  0  0  0  0  0  0  0  0  0  0
  2  1  1  6  0  0  0
  2  3  1  0  0  0  0
  2  5  1  0  0  0  0
  3  4  1  0  0  0  0
  3 16  1  0  0  0  0
  5  6  1  0  0  0  0
  6  7  1  0  0  0  0
  7  8  1  0  0  0  0
  9  8  1  1  0  0  0
  9 10  1  0  0  0  0
  9 11  1  0  0  0  0
 10 15  1  0  0  0  0
 11 12  1  6  0  0  0
 11 13  1  0  0  0  0
 13 14  1  6  0  0  0
 13 15  1  0  0  0  0
 15 26  1  1  0  0  0
 17 18  2  0  0  0  0
 17 22  1  0  0  0  0
 18 19  1  0  0  0  0
 19 20  2  0  0  0  0
 20 21  1  0  0  0  0
 20 26  1  0  0  0  0
 21 22  2  0  0  0  0
 21 24  1  0  0  0  0
 22 23  1  0  0  0  0
 24 25  2  0  0  0  0
 25 26  1  0  0  0  0
M  END
>  <CHROM.1>
-46.17321370,49.65664665,167.62859407,65.82335134,44.44899960,165.65957820
-119.82532627,-11.27627096,12.71716402,-21.36905570,2.43960836,0.81403881
1.91151967

>  <Name>
ligand

>  <RI>
0

>  <Rbt.Current_Directory>
/home/itssahil/PROJECTS/Mol_Feturizer/New_Systems/rnas/3E5E

>  <Rbt.Executable>
rbdock ($Id: //depot/dev/client3/rdock/2013.1/src/exe/rbdock.cxx#4 $)

>  <Rbt.Library>
libRbt.so (2013.1, Build901 2013/11/27)

>  <Rbt.Parameter_File>
/export/apps/rDock/src/rDock_2013.1_src/data/scripts/dock_solv.prm

>  <Rbt.Receptor>
prm/pocket_docking_6.prm

>  <SCORE>
-15.7078

>  <SCORE.INTER>
-13.3111

>  <SCORE.INTER.CONST>
1

>  <SCORE.INTER.POLAR>
0

>  <SCORE.INTER.ROT>
7

>  <SCORE.INTER.SOLV>
12.7018

>  <SCORE.INTER.VDW>
-21.3747

>  <SCORE.INTER.norm>
-0.511964

>  <SCORE.INTRA>
-2.39676

>  <SCORE.INTRA.DIHEDRAL>
-5.33832

>  <SCORE.INTRA.DIHEDRAL.0>
10.1225

>  <SCORE.INTRA.POLAR>
0

>  <SCORE.INTRA.POLAR.0>
0

>  <SCORE.INTRA.REPUL>
0

>  <SCORE.INTRA.REPUL.0>
0

>  <SCORE.INTRA.SOLV>
0.240687

>  <SCORE.INTRA.SOLV.lig_0>
-49.9393

>  <SCORE.INTRA.VDW>
0.152058

>  <SCORE.INTRA.VDW.0>
-1.75437

>  <SCORE.INTRA.norm>
-0.0921831

>  <SCORE.RESTR>
0

>  <SCORE.RESTR.CAVITY>
0

>  <SCORE.RESTR.norm>
0

>  <SCORE.SYSTEM>
0

>  <SCORE.SYSTEM.CONST>
0

>  <SCORE.SYSTEM.DIHEDRAL>
0

>  <SCORE.SYSTEM.SOLV>
0

>  <SCORE.SYSTEM.norm>
0

>  <SCORE.heavy>
26

>  <SCORE.norm>
-0.604148

>  <RMSD>
2.719

$$$$
ligand
 OpenBabel11021811473D
libRbt.so/2013.1/901 2013/11/27
 26 28  0  0  0  0  0  0  0  0999 V2000
  -15.5721    7.9513  -13.8720 N   0  0  0  0  0  0  0  0  0  0  0  0
  -15.2768    9.3827  -14.0120 C   0  0  2  0  0  0  0  0  0  0  0  0
  -16.3074   10.1826  -13.2595 C   0  0  0  0  0  0  0  0  0  0  0  0
  -15.9851   11.1952  -12.6834 O   0  0  0  0  0  0  0  0  0  0  0  0
  -15.3123    9.7673  -15.4921 C   0  0  0  0  0  0  0  0  0  0  0  0
  -14.1102    9.1538  -16.2077 C   0  0  0  0  0  0  0  0  0  0  0  0
  -13.6854    9.6603  -17.7720 S   0  0  0  0  0  0  0  0  0  0  0  0
  -12.9586   11.1197  -18.5613 C   0  0  0  0  0  0  0  0  0  0  0  0
  -13.1637   11.1974  -20.0791 C   0  0  1  0  0  0  0  0  0  0  0  0
  -12.6146   12.3763  -20.6391 O   0  0  0  0  0  0  0  0  0  0  0  0
  -12.4280   10.0983  -20.8087 C   0  0  1  0  0  0  0  0  0  0  0  0
  -13.1132    9.9535  -22.0335 O   0  0  0  0  0  0  0  0  0  0  0  0
  -11.0579   10.6650  -21.1002 C   0  0  1  0  0  0  0  0  0  0  0  0
  -10.6528   10.2857  -22.3974 O   0  0  0  0  0  0  0  0  0  0  0  0
  -11.2801   12.1614  -21.0582 C   0  0  2  0  0  0  0  0  0  0  0  0
  -17.5852    9.7704  -13.2254 O   0  0  0  0  0  0  0  0  0  0  0  0
   -8.1121   16.2555  -20.4128 N   0  0  0  0  0  0  0  0  0  0  0  0
   -8.7589   15.8560  -21.5583 C   0  0  0  0  0  0  0  0  0  0  0  0
   -9.5487   14.7319  -21.5332 N   0  0  0  0  0  0  0  0  0  0  0  0
   -9.6965   14.0201  -20.3989 C   0  0  0  0  0  0  0  0  0  0  0  0
   -9.0562   14.4045  -19.2358 C   0  0  0  0  0  0  0  0  0  0  0  0
   -8.2522   15.5383  -19.2513 C   0  0  0  0  0  0  0  0  0  0  0  0
   -7.6158   15.9408  -18.1583 N   0  0  0  0  0  0  0  0  0  0  0  0
   -9.3765   13.5210  -18.2642 N   0  0  0  0  0  0  0  0  0  0  0  0
  -10.2056   12.5988  -18.7910 C   0  0  0  0  0  0  0  0  0  0  0  0
  -10.4065   12.8859  -20.1171 N   0  0  0  0  0  0  0  0  0  0  0  0
  2  1  1  6  0  0  0
  2  3  1  0  0  0  0
  2  5  1  0  0  0  0
  3  4  1  0  0  0  0
  3 16  1  0  0  0  0
  5  6  1  0  0  0  0
  6  7  1  0  0  0  0
  7  8  1  0  0  0  0
  9  8  1  1  0  0  0
  9 10  1  0  0  0  0
  9 11  1  0  0  0  0
 10 15  1  0  0  0  0
 11 12  1  6  0  0  0
 11 13  1  0  0  0  0
 13 14  1  6  0  0  0
 13 15  1  0  0  0  0
 15 26  1  1  0  0  0
 17 18  2  0  0  0  0
 17 22  1  0  0  0  0
 18 19  1  0  0  0  0
 19 20  2  0  0  0  0
 20 21  1  0  0  0  0
 20 26  1  0  0  0  0
 21 22  2  0  0  0  0
 21 24  1  0  0  0  0
 22 23  1  0  0  0  0
 24 25  2  0  0  0  0
 25 26  1  0  0  0  0
M  END
>  <CHROM.1>
143.75416185,-70.28968112,-166.94346855,71.70947764,-163.18737626,178.10023438
-108.98977448,-12.18244733,11.76429832,-18.43379575,-2.77467888,-0.81071891
-2.00854724

>  <Name>
ligand

>  <RI>
0

>  <Rbt.Current_Directory>
/home/itssahil/PROJECTS/Mol_Feturizer/New_Systems/rnas/3E5E

>  <Rbt.Executable>
rbdock ($Id: //depot/dev/client3/rdock/2013.1/src/exe/rbdock.cxx#4 $)

>  <Rbt.Library>
libRbt.so (2013.1, Build901 2013/11/27)

>  <Rbt.Parameter_File>
/export/apps/rDock/src/rDock_2013.1_src/data/scripts/dock_solv.prm

>  <Rbt.Receptor>
prm/pocket_docking_7.prm

>  <SCORE>
-21.6848

>  <SCORE.INTER>
-18.3201

>  <SCORE.INTER.CONST>
1

>  <SCORE.INTER.POLAR>
0

>  <SCORE.INTER.ROT>
7

>  <SCORE.INTER.SOLV>
17.3393

>  <SCORE.INTER.VDW>
-26.2598

>  <SCORE.INTER.norm>
-0.704618

>  <SCORE.INTRA>
-3.36467

>  <SCORE.INTRA.DIHEDRAL>
-5.78134

>  <SCORE.INTRA.DIHEDRAL.0>
10.1225

>  <SCORE.INTRA.POLAR>
0

>  <SCORE.INTRA.POLAR.0>
0

>  <SCORE.INTRA.REPUL>
0

>  <SCORE.INTRA.REPUL.0>
0

>  <SCORE.INTRA.SOLV>
0.0167779

>  <SCORE.INTRA.SOLV.lig_0>
-49.9393

>  <SCORE.INTRA.VDW>
-0.482392

>  <SCORE.INTRA.VDW.0>
-1.75437

>  <SCORE.INTRA.norm>
-0.129411

>  <SCORE.RESTR>
0

>  <SCORE.RESTR.CAVITY>
0

>  <SCORE.RESTR.norm>
0

>  <SCORE.SYSTEM>
0

>  <SCORE.SYSTEM.CONST>
0

>  <SCORE.SYSTEM.DIHEDRAL>
0

>  <SCORE.SYSTEM.SOLV>
0

>  <SCORE.SYSTEM.norm>
0

>  <SCORE.heavy>
26

>  <SCORE.norm>
-0.834029

>  <RMSD>
2.722

$$$$
ligand
 OpenBabel11021811473D
libRbt.so/2013.1/901 2013/11/27
 26 28  0  0  0  0  0  0  0  0999 V2000
  -14.9281    7.5489  -21.4851 N   0  0  0  0  0  0  0  0  0  0  0  0
  -13.9321    8.1943  -20.6209 C   0  0  2  0  0  0  0  0  0  0  0  0
  -14.0728    7.6697  -19.2162 C   0  0  0  0  0  0  0  0  0  0  0  0
  -15.1447    7.2731  -18.8228 O   0  0  0  0  0  0  0  0  0  0  0  0
  -14.1574    9.7072  -20.6263 C   0  0  0  0  0  0  0  0  0  0  0  0
  -13.0601   10.3895  -19.8116 C   0  0  0  0  0  0  0  0  0  0  0  0
  -13.0959   12.0670  -19.5487 S   0  0  0  0  0  0  0  0  0  0  0  0
  -12.7923   13.5823  -20.4934 C   0  0  0  0  0  0  0  0  0  0  0  0
  -12.9105   13.4249  -22.0143 C   0  0  1  0  0  0  0  0  0  0  0  0
  -12.1799   14.4124  -22.7184 O   0  0  0  0  0  0  0  0  0  0  0  0
  -12.2961   12.1338  -22.5012 C   0  0  1  0  0  0  0  0  0  0  0  0
  -12.9340   11.8693  -23.7315 O   0  0  0  0  0  0  0  0  0  0  0  0
  -10.8492   12.4657  -22.7833 C   0  0  1  0  0  0  0  0  0  0  0  0
  -10.4365   11.8227  -23.9694 O   0  0  0  0  0  0  0  0  0  0  0  0
  -10.8680   13.9632  -23.0013 C   0  0  2  0  0  0  0  0  0  0  0  0
  -13.0079    7.6445  -18.3980 O   0  0  0  0  0  0  0  0  0  0  0  0
   -8.6086   14.2047  -18.3055 N   0  0  0  0  0  0  0  0  0  0  0  0
   -9.5247   13.2856  -18.7595 C   0  0  0  0  0  0  0  0  0  0  0  0
  -10.0194   13.3965  -20.0366 N   0  0  0  0  0  0  0  0  0  0  0  0
   -9.6149   14.3940  -20.8470 C   0  0  0  0  0  0  0  0  0  0  0  0
   -8.6941   15.3281  -20.4110 C   0  0  0  0  0  0  0  0  0  0  0  0
   -8.1900   15.2268  -19.1197 C   0  0  0  0  0  0  0  0  0  0  0  0
   -7.3072   16.1045  -18.6590 N   0  0  0  0  0  0  0  0  0  0  0  0
   -8.4723   16.2048  -21.4157 N   0  0  0  0  0  0  0  0  0  0  0  0
   -9.2272   15.8369  -22.4693 C   0  0  0  0  0  0  0  0  0  0  0  0
   -9.9511   14.7222  -22.1311 N   0  0  0  0  0  0  0  0  0  0  0  0
  2  1  1  6  0  0  0
  2  3  1  0  0  0  0
  2  5  1  0  0  0  0
  3  4  1  0  0  0  0
  3 16  1  0  0  0  0
  5  6  1  0  0  0  0
  6  7  1  0  0  0  0
  7  8  1  0  0  0  0
  9  8  1  1  0  0  0
  9 10  1  0  0  0  0
  9 11  1  0  0  0  0
 10 15  1  0  0  0  0
 11 12  1  6  0  0  0
 11 13  1  0  0  0  0
 13 14  1  6  0  0  0
 13 15  1  0  0  0  0
 15 26  1  1  0  0  0
 17 18  2  0  0  0  0
 17 22  1  0  0  0  0
 18 19  1  0  0  0  0
 19 20  2  0  0  0  0
 20 21  1  0  0  0  0
 20 26  1  0  0  0  0
 21 22  2  0  0  0  0
 21 24  1  0  0  0  0
 22 23  1  0  0  0  0
 24 25  2  0  0  0  0
 25 26  1  0  0  0  0
M  END
>  <CHROM.1>
-28.00100008,-175.83368830,-176.02518123,-73.75347601,22.18552586,-156.46172138
85.87033710,-11.55092132,12.31950576,-20.80292694,2.70868950,0.83935183,2.01623853

>  <Name>
ligand

>  <RI>
0

>  <Rbt.Current_Directory>
/home/itssahil/PROJECTS/Mol_Feturizer/New_Systems/rnas/3E5E

>  <Rbt.Executable>
rbdock ($Id: //depot/dev/client3/rdock/2013.1/src/exe/rbdock.cxx#4 $)

>  <Rbt.Library>
libRbt.so (2013.1, Build901 2013/11/27)

>  <Rbt.Parameter_File>
/export/apps/rDock/src/rDock_2013.1_src/data/scripts/dock_solv.prm

>  <Rbt.Receptor>
prm/pocket_docking_4.prm

>  <SCORE>
-21.3065

>  <SCORE.INTER>
-18.6209

>  <SCORE.INTER.CONST>
1

>  <SCORE.INTER.POLAR>
0

>  <SCORE.INTER.ROT>
7

>  <SCORE.INTER.SOLV>
17.1393

>  <SCORE.INTER.VDW>
-26.3937

>  <SCORE.INTER.norm>
-0.716188

>  <SCORE.INTRA>
-2.68561

>  <SCORE.INTRA.DIHEDRAL>
-3.46819

>  <SCORE.INTRA.DIHEDRAL.0>
10.1225

>  <SCORE.INTRA.POLAR>
0

>  <SCORE.INTRA.POLAR.0>
0

>  <SCORE.INTRA.REPUL>
0

>  <SCORE.INTRA.REPUL.0>
0

>  <SCORE.INTRA.SOLV>
-0.261313

>  <SCORE.INTRA.SOLV.lig_0>
-49.9393

>  <SCORE.INTRA.VDW>
-0.820858

>  <SCORE.INTRA.VDW.0>
-1.75437

>  <SCORE.INTRA.norm>
-0.103293

>  <SCORE.RESTR>
0

>  <SCORE.RESTR.CAVITY>
0

>  <SCORE.RESTR.norm>
0

>  <SCORE.SYSTEM>
0

>  <SCORE.SYSTEM.CONST>
0

>  <SCORE.SYSTEM.DIHEDRAL>
0

>  <SCORE.SYSTEM.SOLV>
0

>  <SCORE.SYSTEM.norm>
0

>  <SCORE.heavy>
26

>  <SCORE.norm>
-0.819481

>  <RMSD>
2.728

$$$$
ligand
 OpenBabel11021811473D
libRbt.so/2013.1/901 2013/11/27
 26 28  0  0  0  0  0  0  0  0999 V2000
  -14.0024    8.3977  -19.8639 N   0  0  0  0  0  0  0  0  0  0  0  0
  -14.4821    9.1942  -21.0001 C   0  0  2  0  0  0  0  0  0  0  0  0
  -14.6255    8.3072  -22.2087 C   0  0  0  0  0  0  0  0  0  0  0  0
  -15.3344    8.6459  -23.1273 O   0  0  0  0  0  0  0  0  0  0  0  0
  -13.4782   10.3086  -21.3003 C   0  0  0  0  0  0  0  0  0  0  0  0
  -13.4638   11.3075  -20.1447 C   0  0  0  0  0  0  0  0  0  0  0  0
  -12.8579   12.8782  -20.3682 S   0  0  0  0  0  0  0  0  0  0  0  0
  -12.9507   14.1900  -21.6138 C   0  0  0  0  0  0  0  0  0  0  0  0
  -12.1556   13.9149  -22.8959 C   0  0  1  0  0  0  0  0  0  0  0  0
  -10.8152   14.3625  -22.8072 O   0  0  0  0  0  0  0  0  0  0  0  0
  -12.0045   12.4363  -23.1645 C   0  0  1  0  0  0  0  0  0  0  0  0
  -11.7770   12.3407  -24.5536 O   0  0  0  0  0  0  0  0  0  0  0  0
  -10.7355   12.0320  -22.4510 C   0  0  1  0  0  0  0  0  0  0  0  0
  -10.0064   11.1286  -23.2529 O   0  0  0  0  0  0  0  0  0  0  0  0
   -9.9698   13.3320  -22.3315 C   0  0  2  0  0  0  0  0  0  0  0  0
  -13.9681    7.1374  -22.2661 O   0  0  0  0  0  0  0  0  0  0  0  0
   -7.4163   16.7598  -19.3409 N   0  0  0  0  0  0  0  0  0  0  0  0
   -7.5203   16.7426  -20.7117 C   0  0  0  0  0  0  0  0  0  0  0  0
   -8.2332   15.7404  -21.3243 N   0  0  0  0  0  0  0  0  0  0  0  0
   -8.8314   14.7775  -20.5961 C   0  0  0  0  0  0  0  0  0  0  0  0
   -8.7402   14.7763  -19.2169 C   0  0  0  0  0  0  0  0  0  0  0  0
   -8.0186   15.7838  -18.5875 C   0  0  0  0  0  0  0  0  0  0  0  0
   -7.9021   15.8186  -17.2658 N   0  0  0  0  0  0  0  0  0  0  0  0
   -9.4249   13.7091  -18.7483 N   0  0  0  0  0  0  0  0  0  0  0  0
   -9.9458   13.0485  -19.8007 C   0  0  0  0  0  0  0  0  0  0  0  0
   -9.5787   13.6903  -20.9558 N   0  0  0  0  0  0  0  0  0  0  0  0
  2  1  1  1  0  0  0
  2  3  1  0  0  0  0
  2  5  1  0  0  0  0
  3  4  1  0  0  0  0
  3 16  1  0  0  0  0
  5  6  1  0  0  0  0
  6  7  1  0  0  0  0
  7  8  1  0  0  0  0
  9  8  1  1  0  0  0
  9 10  1  0  0  0  0
  9 11  1  0  0  0  0
 10 15  1  0  0  0  0
 11 12  1  6  0  0  0
 11 13  1  0  0  0  0
 13 14  1  6  0  0  0
 13 15  1  0  0  0  0
 15 26  1  1  0  0  0
 17 18  2  0  0  0  0
 17 22  1  0  0  0  0
 18 19  1  0  0  0  0
 19 20  2  0  0  0  0
 20 21  1  0  0  0  0
 20 26  1  0  0  0  0
 21 22  2  0  0  0  0
 21 24  1  0  0  0  0
 22 23  1  0  0  0  0
 24 25  2  0  0  0  0
 25 26  1  0  0  0  0
M  END
>  <CHROM.1>
159.62094404,-67.17000490,-160.26156521,42.65290054,-72.66933067,-88.46959264
-64.31381924,-11.24270960,12.64521913,-21.18144968,2.96434074,-0.85621472
-1.46577674

>  <Name>
ligand

>  <RI>
0

>  <Rbt.Current_Directory>
/home/itssahil/PROJECTS/Mol_Feturizer/New_Systems/rnas/3E5E

>  <Rbt.Executable>
rbdock ($Id: //depot/dev/client3/rdock/2013.1/src/exe/rbdock.cxx#4 $)

>  <Rbt.Library>
libRbt.so (2013.1, Build901 2013/11/27)

>  <Rbt.Parameter_File>
/export/apps/rDock/src/rDock_2013.1_src/data/scripts/dock_solv.prm

>  <Rbt.Receptor>
prm/blind_docking_100.prm

>  <SCORE>
-19.6849

>  <SCORE.INTER>
-18.2661

>  <SCORE.INTER.CONST>
1

>  <SCORE.INTER.POLAR>
0

>  <SCORE.INTER.ROT>
7

>  <SCORE.INTER.SOLV>
20.3745

>  <SCORE.INTER.VDW>
-27.2356

>  <SCORE.INTER.norm>
-0.702542

>  <SCORE.INTRA>
-1.41876

>  <SCORE.INTRA.DIHEDRAL>
-2.84078

>  <SCORE.INTRA.DIHEDRAL.0>
10.1225

>  <SCORE.INTRA.POLAR>
0

>  <SCORE.INTRA.POLAR.0>
0

>  <SCORE.INTRA.REPUL>
0

>  <SCORE.INTRA.REPUL.0>
0

>  <SCORE.INTRA.SOLV>
0.711562

>  <SCORE.INTRA.SOLV.lig_0>
-49.9393

>  <SCORE.INTRA.VDW>
-0.354154

>  <SCORE.INTRA.VDW.0>
-1.75437

>  <SCORE.INTRA.norm>
-0.0545677

>  <SCORE.RESTR>
0

>  <SCORE.RESTR.CAVITY>
0

>  <SCORE.RESTR.norm>
0

>  <SCORE.SYSTEM>
0

>  <SCORE.SYSTEM.CONST>
0

>  <SCORE.SYSTEM.DIHEDRAL>
0

>  <SCORE.SYSTEM.SOLV>
0

>  <SCORE.SYSTEM.norm>
0

>  <SCORE.heavy>
26

>  <SCORE.norm>
-0.75711

>  <RMSD>
2.784

$$$$
ligand
 OpenBabel11021811473D
libRbt.so/2013.1/901 2013/11/27
 26 28  0  0  0  0  0  0  0  0999 V2000
  -14.7932    7.7028  -19.1227 N   0  0  0  0  0  0  0  0  0  0  0  0
  -15.4855    8.8750  -19.6725 C   0  0  2  0  0  0  0  0  0  0  0  0
  -16.4228    8.4357  -20.7664 C   0  0  0  0  0  0  0  0  0  0  0  0
  -15.9923    8.1843  -21.8676 O   0  0  0  0  0  0  0  0  0  0  0  0
  -14.4566    9.8525  -20.2431 C   0  0  0  0  0  0  0  0  0  0  0  0
  -13.5994   10.4110  -19.1088 C   0  0  0  0  0  0  0  0  0  0  0  0
  -12.3877   11.5579  -19.4259 S   0  0  0  0  0  0  0  0  0  0  0  0
  -12.2450   13.1755  -20.2284 C   0  0  0  0  0  0  0  0  0  0  0  0
  -12.7739   13.2270  -21.6670 C   0  0  1  0  0  0  0  0  0  0  0  0
  -12.3020   14.3580  -22.3762 O   0  0  0  0  0  0  0  0  0  0  0  0
  -12.2731   12.0695  -22.4982 C   0  0  1  0  0  0  0  0  0  0  0  0
  -13.2168   11.9340  -23.5381 O   0  0  0  0  0  0  0  0  0  0  0  0
  -10.9734   12.5488  -23.1017 C   0  0  1  0  0  0  0  0  0  0  0  0
  -10.8826   12.1146  -24.4411 O   0  0  0  0  0  0  0  0  0  0  0  0
  -11.1047   14.0562  -23.0677 C   0  0  2  0  0  0  0  0  0  0  0  0
  -17.7386    8.3252  -20.5205 O   0  0  0  0  0  0  0  0  0  0  0  0
   -7.2483   17.5420  -23.5048 N   0  0  0  0  0  0  0  0  0  0  0  0
   -8.0934   17.0846  -24.4880 C   0  0  0  0  0  0  0  0  0  0  0  0
   -9.0481   16.1463  -24.1778 N   0  0  0  0  0  0  0  0  0  0  0  0
   -9.1648   15.6726  -22.9220 C   0  0  0  0  0  0  0  0  0  0  0  0
   -8.3261   16.1195  -21.9183 C   0  0  0  0  0  0  0  0  0  0  0  0
   -7.3548   17.0661  -22.2222 C   0  0  0  0  0  0  0  0  0  0  0  0
   -6.5260   17.5196  -21.2899 N   0  0  0  0  0  0  0  0  0  0  0  0
   -8.6608   15.4844  -20.7729 N   0  0  0  0  0  0  0  0  0  0  0  0
   -9.6913   14.6573  -21.0362 C   0  0  0  0  0  0  0  0  0  0  0  0
  -10.0102   14.7523  -22.3667 N   0  0  0  0  0  0  0  0  0  0  0  0
  2  1  1  6  0  0  0
  2  3  1  0  0  0  0
  2  5  1  0  0  0  0
  3  4  1  0  0  0  0
  3 16  1  0  0  0  0
  5  6  1  0  0  0  0
  6  7  1  0  0  0  0
  7  8  1  0  0  0  0
  9  8  1  1  0  0  0
  9 10  1  0  0  0  0
  9 11  1  0  0  0  0
 10 15  1  0  0  0  0
 11 12  1  6  0  0  0
 11 13  1  0  0  0  0
 13 14  1  6  0  0  0
 13 15  1  0  0  0  0
 15 26  1  1  0  0  0
 17 18  2  0  0  0  0
 17 22  1  0  0  0  0
 18 19  1  0  0  0  0
 19 20  2  0  0  0  0
 20 21  1  0  0  0  0
 20 26  1  0  0  0  0
 21 22  2  0  0  0  0
 21 24  1  0  0  0  0
 22 23  1  0  0  0  0
 24 25  2  0  0  0  0
 25 26  1  0  0  0  0
M  END
>  <CHROM.1>
-78.74421581,-65.96792147,-178.46208642,54.43265629,-53.90516590,-162.76281967
-121.52706476,-11.71563721,12.86180239,-21.67216581,-2.79927771,-0.76505578
-1.40356315

>  <Name>
ligand

>  <RI>
0

>  <Rbt.Current_Directory>
/home/itssahil/PROJECTS/Mol_Feturizer/New_Systems/rnas/3E5E

>  <Rbt.Executable>
rbdock ($Id: //depot/dev/client3/rdock/2013.1/src/exe/rbdock.cxx#4 $)

>  <Rbt.Library>
libRbt.so (2013.1, Build901 2013/11/27)

>  <Rbt.Parameter_File>
/export/apps/rDock/src/rDock_2013.1_src/data/scripts/dock_solv.prm

>  <Rbt.Receptor>
prm/pocket_docking_4.prm

>  <SCORE>
-16.9782

>  <SCORE.INTER>
-13.9571

>  <SCORE.INTER.CONST>
1

>  <SCORE.INTER.POLAR>
0

>  <SCORE.INTER.ROT>
7

>  <SCORE.INTER.SOLV>
12.1648

>  <SCORE.INTER.VDW>
-21.6263

>  <SCORE.INTER.norm>
-0.53681

>  <SCORE.INTRA>
-3.02299

>  <SCORE.INTRA.DIHEDRAL>
-6.14011

>  <SCORE.INTRA.DIHEDRAL.0>
10.1225

>  <SCORE.INTRA.POLAR>
0

>  <SCORE.INTRA.POLAR.0>
0

>  <SCORE.INTRA.REPUL>
0

>  <SCORE.INTRA.REPUL.0>
0

>  <SCORE.INTRA.SOLV>
0.228034

>  <SCORE.INTRA.SOLV.lig_0>
-49.9393

>  <SCORE.INTRA.VDW>
-0.0669483

>  <SCORE.INTRA.VDW.0>
-1.75437

>  <SCORE.INTRA.norm>
-0.116269

>  <SCORE.RESTR>
0.0018717

>  <SCORE.RESTR.CAVITY>
0.0018717

>  <SCORE.RESTR.norm>
7.19884e-05

>  <SCORE.SYSTEM>
0

>  <SCORE.SYSTEM.CONST>
0

>  <SCORE.SYSTEM.DIHEDRAL>
0

>  <SCORE.SYSTEM.SOLV>
0

>  <SCORE.SYSTEM.norm>
0

>  <SCORE.heavy>
26

>  <SCORE.norm>
-0.653007

>  <RMSD>
2.798

$$$$
ligand
 OpenBabel11021811473D
libRbt.so/2013.1/901 2013/11/27
 26 28  0  0  0  0  0  0  0  0999 V2000
  -14.9007    7.1223  -21.4914 N   0  0  0  0  0  0  0  0  0  0  0  0
  -15.1623    8.5628  -21.6005 C   0  0  2  0  0  0  0  0  0  0  0  0
  -14.1450    9.1885  -22.5180 C   0  0  0  0  0  0  0  0  0  0  0  0
  -13.0151    8.7603  -22.5507 O   0  0  0  0  0  0  0  0  0  0  0  0
  -15.0641    9.2043  -20.2154 C   0  0  0  0  0  0  0  0  0  0  0  0
  -13.7514    8.7901  -19.5530 C   0  0  0  0  0  0  0  0  0  0  0  0
  -12.3915    9.8049  -19.6216 S   0  0  0  0  0  0  0  0  0  0  0  0
  -11.4582   10.7188  -20.8766 C   0  0  0  0  0  0  0  0  0  0  0  0
  -12.2809   11.7413  -21.6699 C   0  0  1  0  0  0  0  0  0  0  0  0
  -12.3340   13.0042  -21.0318 O   0  0  0  0  0  0  0  0  0  0  0  0
  -11.6543   12.0605  -23.0066 C   0  0  1  0  0  0  0  0  0  0  0  0
  -12.7194   12.5288  -23.8045 O   0  0  0  0  0  0  0  0  0  0  0  0
  -10.7215   13.2188  -22.7400 C   0  0  1  0  0  0  0  0  0  0  0  0
  -10.8023   14.1477  -23.7990 O   0  0  0  0  0  0  0  0  0  0  0  0
  -11.2836   13.8402  -21.4797 C   0  0  2  0  0  0  0  0  0  0  0  0
  -14.4913   10.2249  -23.2990 O   0  0  0  0  0  0  0  0  0  0  0  0
   -7.0858   16.3627  -19.6826 N   0  0  0  0  0  0  0  0  0  0  0  0
   -7.7170   16.5220  -20.8935 C   0  0  0  0  0  0  0  0  0  0  0  0
   -8.8121   15.7482  -21.1934 N   0  0  0  0  0  0  0  0  0  0  0  0
   -9.2734   14.8382  -20.3134 C   0  0  0  0  0  0  0  0  0  0  0  0
   -8.6545   14.6624  -19.0901 C   0  0  0  0  0  0  0  0  0  0  0  0
   -7.5438   15.4378  -18.7782 C   0  0  0  0  0  0  0  0  0  0  0  0
   -6.9168   15.2990  -17.6167 N   0  0  0  0  0  0  0  0  0  0  0  0
   -9.3171   13.6966  -18.4153 N   0  0  0  0  0  0  0  0  0  0  0  0
  -10.3374   13.2702  -19.1850 C   0  0  0  0  0  0  0  0  0  0  0  0
  -10.3193   13.9592  -20.3707 N   0  0  0  0  0  0  0  0  0  0  0  0
  2  1  1  1  0  0  0
  2  3  1  0  0  0  0
  2  5  1  0  0  0  0
  3  4  1  0  0  0  0
  3 16  1  0  0  0  0
  5  6  1  0  0  0  0
  6  7  1  0  0  0  0
  7  8  1  0  0  0  0
  9  8  1  1  0  0  0
  9 10  1  0  0  0  0
  9 11  1  0  0  0  0
 10 15  1  0  0  0  0
 11 12  1  6  0  0  0
 11 13  1  0  0  0  0
 13 14  1  6  0  0  0
 13 15  1  0  0  0  0
 15 26  1  1  0  0  0
 17 18  2  0  0  0  0
 17 22  1  0  0  0  0
 18 19  1  0  0  0  0
 19 20  2  0  0  0  0
 20 21  1  0  0  0  0
 20 26  1  0  0  0  0
 21 22  2  0  0  0  0
 21 24  1  0  0  0  0
 22 23  1  0  0  0  0
 24 25  2  0  0  0  0
 25 26  1  0  0  0  0
M  END
>  <CHROM.1>
-33.75911390,50.73314428,96.75843692,-49.88377509,58.21170277,87.18178960
-169.13051473,-11.36954733,12.22492525,-20.95233814,-2.97621766,-0.83156862
-1.06800384

>  <Name>
ligand

>  <RI>
0

>  <Rbt.Current_Directory>
/home/itssahil/PROJECTS/Mol_Feturizer/New_Systems/rnas/3E5E

>  <Rbt.Executable>
rbdock ($Id: //depot/dev/client3/rdock/2013.1/src/exe/rbdock.cxx#4 $)

>  <Rbt.Library>
libRbt.so (2013.1, Build901 2013/11/27)

>  <Rbt.Parameter_File>
/export/apps/rDock/src/rDock_2013.1_src/data/scripts/dock_solv.prm

>  <Rbt.Receptor>
prm/pocket_docking_4.prm

>  <SCORE>
-19.1847

>  <SCORE.INTER>
-17.5755

>  <SCORE.INTER.CONST>
1

>  <SCORE.INTER.POLAR>
0

>  <SCORE.INTER.ROT>
7

>  <SCORE.INTER.SOLV>
18.2473

>  <SCORE.INTER.VDW>
-26.0661

>  <SCORE.INTER.norm>
-0.67598

>  <SCORE.INTRA>
-1.60924

>  <SCORE.INTRA.DIHEDRAL>
-0.923738

>  <SCORE.INTRA.DIHEDRAL.0>
10.1225

>  <SCORE.INTRA.POLAR>
0

>  <SCORE.INTRA.POLAR.0>
0

>  <SCORE.INTRA.REPUL>
0

>  <SCORE.INTRA.REPUL.0>
0

>  <SCORE.INTRA.SOLV>
0.83759

>  <SCORE.INTRA.SOLV.lig_0>
-49.9393

>  <SCORE.INTRA.VDW>
-1.56617

>  <SCORE.INTRA.VDW.0>
-1.75437

>  <SCORE.INTRA.norm>
-0.061894

>  <SCORE.RESTR>
0

>  <SCORE.RESTR.CAVITY>
0

>  <SCORE.RESTR.norm>
0

>  <SCORE.SYSTEM>
0

>  <SCORE.SYSTEM.CONST>
0

>  <SCORE.SYSTEM.DIHEDRAL>
0

>  <SCORE.SYSTEM.SOLV>
0

>  <SCORE.SYSTEM.norm>
0

>  <SCORE.heavy>
26

>  <SCORE.norm>
-0.737874

>  <RMSD>
2.813

$$$$
ligand
 OpenBabel11021811473D
libRbt.so/2013.1/901 2013/11/27
 26 28  0  0  0  0  0  0  0  0999 V2000
  -12.9943    8.5054  -19.5592 N   0  0  0  0  0  0  0  0  0  0  0  0
  -13.9825    9.5095  -19.1461 C   0  0  2  0  0  0  0  0  0  0  0  0
  -15.3608    8.9041  -19.1915 C   0  0  0  0  0  0  0  0  0  0  0  0
  -15.5500    7.8746  -19.7960 O   0  0  0  0  0  0  0  0  0  0  0  0
  -13.9189   10.7070  -20.0958 C   0  0  0  0  0  0  0  0  0  0  0  0
  -13.0071   11.7801  -19.5036 C   0  0  0  0  0  0  0  0  0  0  0  0
  -12.9188   13.3231  -20.2075 S   0  0  0  0  0  0  0  0  0  0  0  0
  -12.2734   14.0735  -21.7245 C   0  0  0  0  0  0  0  0  0  0  0  0
  -12.2866   13.1535  -22.9514 C   0  0  1  0  0  0  0  0  0  0  0  0
  -11.5912   13.7103  -24.0520 O   0  0  0  0  0  0  0  0  0  0  0  0
  -11.5479   11.8603  -22.6997 C   0  0  1  0  0  0  0  0  0  0  0  0
  -12.0878   10.9467  -23.6293 O   0  0  0  0  0  0  0  0  0  0  0  0
  -10.1157   12.1397  -23.0922 C   0  0  1  0  0  0  0  0  0  0  0  0
   -9.5841   11.0258  -23.7757 O   0  0  0  0  0  0  0  0  0  0  0  0
  -10.2343   13.3081  -24.0469 C   0  0  2  0  0  0  0  0  0  0  0  0
  -16.3819    9.5088  -18.5625 O   0  0  0  0  0  0  0  0  0  0  0  0
   -8.1204   16.0088  -20.1161 N   0  0  0  0  0  0  0  0  0  0  0  0
   -8.9120   14.8870  -20.0451 C   0  0  0  0  0  0  0  0  0  0  0  0
   -9.3888   14.3202  -21.2024 N   0  0  0  0  0  0  0  0  0  0  0  0
   -9.0872   14.8509  -22.4035 C   0  0  0  0  0  0  0  0  0  0  0  0
   -8.2924   15.9778  -22.4977 C   0  0  0  0  0  0  0  0  0  0  0  0
   -7.8077   16.5609  -21.3328 C   0  0  0  0  0  0  0  0  0  0  0  0
   -7.0445   17.6460  -21.3771 N   0  0  0  0  0  0  0  0  0  0  0  0
   -8.1538   16.2899  -23.8056 N   0  0  0  0  0  0  0  0  0  0  0  0
   -8.8373   15.3821  -24.5294 C   0  0  0  0  0  0  0  0  0  0  0  0
   -9.4321   14.4882  -23.6760 N   0  0  0  0  0  0  0  0  0  0  0  0
  2  1  1  6  0  0  0
  2  3  1  0  0  0  0
  2  5  1  0  0  0  0
  3  4  1  0  0  0  0
  3 16  1  0  0  0  0
  5  6  1  0  0  0  0
  6  7  1  0  0  0  0
  7  8  1  0  0  0  0
  9  8  1  1  0  0  0
  9 10  1  0  0  0  0
  9 11  1  0  0  0  0
 10 15  1  0  0  0  0
 11 12  1  6  0  0  0
 11 13  1  0  0  0  0
 13 14  1  6  0  0  0
 13 15  1  0  0  0  0
 15 26  1  1  0  0  0
 17 18  2  0  0  0  0
 17 22  1  0  0  0  0
 18 19  1  0  0  0  0
 19 20  2  0  0  0  0
 20 21  1  0  0  0  0
 20 26  1  0  0  0  0
 21 22  2  0  0  0  0
 21 24  1  0  0  0  0
 22 23  1  0  0  0  0
 24 25  2  0  0  0  0
 25 26  1  0  0  0  0
M  END
>  <CHROM.1>
-16.08986495,-94.94267671,-170.68373253,-69.90223792,30.53784908,-171.00615117
89.81591846,-11.28802471,12.87281752,-21.58296913,-3.13122013,0.83425788
1.12506680

>  <Name>
ligand

>  <RI>
0

>  <Rbt.Current_Directory>
/home/itssahil/PROJECTS/Mol_Feturizer/New_Systems/rnas/3E5E

>  <Rbt.Executable>
rbdock ($Id: //depot/dev/client3/rdock/2013.1/src/exe/rbdock.cxx#4 $)

>  <Rbt.Library>
libRbt.so (2013.1, Build901 2013/11/27)

>  <Rbt.Parameter_File>
/export/apps/rDock/src/rDock_2013.1_src/data/scripts/dock_solv.prm

>  <Rbt.Receptor>
prm/pocket_docking_4.prm

>  <SCORE>
-14.7309

>  <SCORE.INTER>
-12.4383

>  <SCORE.INTER.CONST>
1

>  <SCORE.INTER.POLAR>
0

>  <SCORE.INTER.ROT>
7

>  <SCORE.INTER.SOLV>
15.9922

>  <SCORE.INTER.VDW>
-21.8896

>  <SCORE.INTER.norm>
-0.478398

>  <SCORE.INTRA>
-2.2926

>  <SCORE.INTRA.DIHEDRAL>
-1.69185

>  <SCORE.INTRA.DIHEDRAL.0>
10.1225

>  <SCORE.INTRA.POLAR>
0

>  <SCORE.INTRA.POLAR.0>
0

>  <SCORE.INTRA.REPUL>
0

>  <SCORE.INTRA.REPUL.0>
0

>  <SCORE.INTRA.SOLV>
0.0346352

>  <SCORE.INTRA.SOLV.lig_0>
-49.9393

>  <SCORE.INTRA.VDW>
-1.46399

>  <SCORE.INTRA.VDW.0>
-1.75437

>  <SCORE.INTRA.norm>
-0.0881771

>  <SCORE.RESTR>
0

>  <SCORE.RESTR.CAVITY>
0

>  <SCORE.RESTR.norm>
0

>  <SCORE.SYSTEM>
0

>  <SCORE.SYSTEM.CONST>
0

>  <SCORE.SYSTEM.DIHEDRAL>
0

>  <SCORE.SYSTEM.SOLV>
0

>  <SCORE.SYSTEM.norm>
0

>  <SCORE.heavy>
26

>  <SCORE.norm>
-0.566575

>  <RMSD>
2.964

$$$$
ligand
 OpenBabel11021811473D
libRbt.so/2013.1/901 2013/11/27
 26 28  0  0  0  0  0  0  0  0999 V2000
  -14.0508    7.4669  -20.4838 N   0  0  0  0  0  0  0  0  0  0  0  0
  -14.0704    8.8702  -20.0527 C   0  0  2  0  0  0  0  0  0  0  0  0
  -14.9616    9.6639  -20.9712 C   0  0  0  0  0  0  0  0  0  0  0  0
  -16.0086   10.1091  -20.5629 O   0  0  0  0  0  0  0  0  0  0  0  0
  -12.6507    9.4376  -20.1020 C   0  0  0  0  0  0  0  0  0  0  0  0
  -12.5469   10.6354  -19.1597 C   0  0  0  0  0  0  0  0  0  0  0  0
  -13.2409   12.1274  -19.5795 S   0  0  0  0  0  0  0  0  0  0  0  0
  -12.7906   13.5972  -20.5376 C   0  0  0  0  0  0  0  0  0  0  0  0
  -12.8730   13.4217  -22.0588 C   0  0  1  0  0  0  0  0  0  0  0  0
  -12.1332   14.4062  -22.7575 O   0  0  0  0  0  0  0  0  0  0  0  0
  -12.2390   12.1295  -22.5168 C   0  0  1  0  0  0  0  0  0  0  0  0
  -12.8468   11.8465  -23.7581 O   0  0  0  0  0  0  0  0  0  0  0  0
  -10.7883   12.4683  -22.7696 C   0  0  1  0  0  0  0  0  0  0  0  0
  -10.3443   11.8147  -23.9386 O   0  0  0  0  0  0  0  0  0  0  0  0
  -10.8122   13.9630  -23.0053 C   0  0  2  0  0  0  0  0  0  0  0  0
  -14.5955    9.8759  -22.2460 O   0  0  0  0  0  0  0  0  0  0  0  0
   -8.6210   14.2457  -18.2796 N   0  0  0  0  0  0  0  0  0  0  0  0
   -9.5147   13.3106  -18.7454 C   0  0  0  0  0  0  0  0  0  0  0  0
   -9.9940   13.4124  -20.0291 N   0  0  0  0  0  0  0  0  0  0  0  0
   -9.5960   14.4165  -20.8345 C   0  0  0  0  0  0  0  0  0  0  0  0
   -8.6977   15.3667  -20.3867 C   0  0  0  0  0  0  0  0  0  0  0  0
   -8.2093   15.2747  -19.0886 C   0  0  0  0  0  0  0  0  0  0  0  0
   -7.3483   16.1679  -18.6167 N   0  0  0  0  0  0  0  0  0  0  0  0
   -8.4776   16.2467  -21.3889 N   0  0  0  0  0  0  0  0  0  0  0  0
   -9.2117   15.8653  -22.4523 C   0  0  0  0  0  0  0  0  0  0  0  0
   -9.9206   14.7382  -22.1233 N   0  0  0  0  0  0  0  0  0  0  0  0
  2  1  1  6  0  0  0
  2  3  1  0  0  0  0
  2  5  1  0  0  0  0
  3  4  1  0  0  0  0
  3 16  1  0  0  0  0
  5  6  1  0  0  0  0
  6  7  1  0  0  0  0
  7  8  1  0  0  0  0
  9  8  1  1  0  0  0
  9 10  1  0  0  0  0
  9 11  1  0  0  0  0
 10 15  1  0  0  0  0
 11 12  1  6  0  0  0
 11 13  1  0  0  0  0
 13 14  1  6  0  0  0
 13 15  1  0  0  0  0
 15 26  1  1  0  0  0
 17 18  2  0  0  0  0
 17 22  1  0  0  0  0
 18 19  1  0  0  0  0
 19 20  2  0  0  0  0
 20 21  1  0  0  0  0
 20 26  1  0  0  0  0
 21 22  2  0  0  0  0
 21 24  1  0  0  0  0
 22 23  1  0  0  0  0
 24 25  2  0  0  0  0
 25 26  1  0  0  0  0
M  END
>  <CHROM.1>
111.27627016,-157.06045388,-74.61272457,-84.97831189,76.33451214,-161.35118844
86.89319824,-11.57521000,12.63465296,-20.99650183,-2.99042591,-0.77892586
-1.27210805

>  <Name>
ligand

>  <RI>
0

>  <Rbt.Current_Directory>
/home/itssahil/PROJECTS/Mol_Feturizer/New_Systems/rnas/3E5E

>  <Rbt.Executable>
rbdock ($Id: //depot/dev/client3/rdock/2013.1/src/exe/rbdock.cxx#4 $)

>  <Rbt.Library>
libRbt.so (2013.1, Build901 2013/11/27)

>  <Rbt.Parameter_File>
/export/apps/rDock/src/rDock_2013.1_src/data/scripts/dock_solv.prm

>  <Rbt.Receptor>
prm/blind_docking_80.prm

>  <SCORE>
-22.2285

>  <SCORE.INTER>
-18.4531

>  <SCORE.INTER.CONST>
1

>  <SCORE.INTER.POLAR>
0

>  <SCORE.INTER.ROT>
7

>  <SCORE.INTER.SOLV>
19.2614

>  <SCORE.INTER.VDW>
-26.9892

>  <SCORE.INTER.norm>
-0.709734

>  <SCORE.INTRA>
-3.7754

>  <SCORE.INTRA.DIHEDRAL>
-2.21429

>  <SCORE.INTRA.DIHEDRAL.0>
10.1225

>  <SCORE.INTRA.POLAR>
0

>  <SCORE.INTRA.POLAR.0>
0

>  <SCORE.INTRA.REPUL>
0

>  <SCORE.INTRA.REPUL.0>
0

>  <SCORE.INTRA.SOLV>
-0.0981965

>  <SCORE.INTRA.SOLV.lig_0>
-49.9393

>  <SCORE.INTRA.VDW>
-2.61915

>  <SCORE.INTRA.VDW.0>
-1.75437

>  <SCORE.INTRA.norm>
-0.145208

>  <SCORE.RESTR>
0

>  <SCORE.RESTR.CAVITY>
0

>  <SCORE.RESTR.norm>
0

>  <SCORE.SYSTEM>
0

>  <SCORE.SYSTEM.CONST>
0

>  <SCORE.SYSTEM.DIHEDRAL>
0

>  <SCORE.SYSTEM.SOLV>
0

>  <SCORE.SYSTEM.norm>
0

>  <SCORE.heavy>
26

>  <SCORE.norm>
-0.854941

>  <RMSD>
2.972

$$$$
ligand
 OpenBabel11021811473D
libRbt.so/2013.1/901 2013/11/27
 26 28  0  0  0  0  0  0  0  0999 V2000
  -14.7129    7.2871  -22.0990 N   0  0  0  0  0  0  0  0  0  0  0  0
  -15.3177    8.5741  -22.4645 C   0  0  2  0  0  0  0  0  0  0  0  0
  -14.3073    9.4099  -23.2052 C   0  0  0  0  0  0  0  0  0  0  0  0
  -14.6688   10.3672  -23.8486 O   0  0  0  0  0  0  0  0  0  0  0  0
  -15.7572    9.3083  -21.1966 C   0  0  0  0  0  0  0  0  0  0  0  0
  -14.6578    9.2065  -20.1409 C   0  0  0  0  0  0  0  0  0  0  0  0
  -13.2008   10.0591  -20.3261 S   0  0  0  0  0  0  0  0  0  0  0  0
  -12.6213   11.7713  -20.2096 C   0  0  0  0  0  0  0  0  0  0  0  0
  -12.9657   12.6490  -21.4190 C   0  0  1  0  0  0  0  0  0  0  0  0
  -12.5083   13.9805  -21.2683 O   0  0  0  0  0  0  0  0  0  0  0  0
  -12.2642   12.1872  -22.6744 C   0  0  1  0  0  0  0  0  0  0  0  0
  -13.0528   12.6823  -23.7343 O   0  0  0  0  0  0  0  0  0  0  0  0
  -10.9454   12.9245  -22.6849 C   0  0  1  0  0  0  0  0  0  0  0  0
  -10.6477   13.3475  -23.9975 O   0  0  0  0  0  0  0  0  0  0  0  0
  -11.2111   14.1328  -21.8133 C   0  0  2  0  0  0  0  0  0  0  0  0
  -13.0036    9.0910  -23.1539 O   0  0  0  0  0  0  0  0  0  0  0  0
   -6.9488   16.5765  -20.0596 N   0  0  0  0  0  0  0  0  0  0  0  0
   -7.5299   16.6712  -21.3020 C   0  0  0  0  0  0  0  0  0  0  0  0
   -8.6536   15.9318  -21.5823 N   0  0  0  0  0  0  0  0  0  0  0  0
   -9.1913   15.1181  -20.6528 C   0  0  0  0  0  0  0  0  0  0  0  0
   -8.6237   15.0086  -19.3972 C   0  0  0  0  0  0  0  0  0  0  0  0
   -7.4849   15.7497  -19.1046 C   0  0  0  0  0  0  0  0  0  0  0  0
   -6.9052   15.6717  -17.9132 N   0  0  0  0  0  0  0  0  0  0  0  0
   -9.3585   14.1331  -18.6754 N   0  0  0  0  0  0  0  0  0  0  0  0
  -10.3735   13.6988  -19.4476 C   0  0  0  0  0  0  0  0  0  0  0  0
  -10.2795   14.2905  -20.6814 N   0  0  0  0  0  0  0  0  0  0  0  0
  2  1  1  1  0  0  0
  2  3  1  0  0  0  0
  2  5  1  0  0  0  0
  3  4  1  0  0  0  0
  3 16  1  0  0  0  0
  5  6  1  0  0  0  0
  6  7  1  0  0  0  0
  7  8  1  0  0  0  0
  9  8  1  1  0  0  0
  9 10  1  0  0  0  0
  9 11  1  0  0  0  0
 10 15  1  0  0  0  0
 11 12  1  6  0  0  0
 11 13  1  0  0  0  0
 13 14  1  6  0  0  0
 13 15  1  0  0  0  0
 15 26  1  1  0  0  0
 17 18  2  0  0  0  0
 17 22  1  0  0  0  0
 18 19  1  0  0  0  0
 19 20  2  0  0  0  0
 20 21  1  0  0  0  0
 20 26  1  0  0  0  0
 21 22  2  0  0  0  0
 21 24  1  0  0  0  0
 22 23  1  0  0  0  0
 24 25  2  0  0  0  0
 25 26  1  0  0  0  0
M  END
>  <CHROM.1>
163.66259675,44.12237627,70.87617224,73.32020909,-77.68924235,179.10996431
-142.35023075,-11.59605303,12.49497910,-21.28852984,3.13865950,-0.81556588
-1.24577893

>  <Name>
ligand

>  <RI>
0

>  <Rbt.Current_Directory>
/home/itssahil/PROJECTS/Mol_Feturizer/New_Systems/rnas/3E5E

>  <Rbt.Executable>
rbdock ($Id: //depot/dev/client3/rdock/2013.1/src/exe/rbdock.cxx#4 $)

>  <Rbt.Library>
libRbt.so (2013.1, Build901 2013/11/27)

>  <Rbt.Parameter_File>
/export/apps/rDock/src/rDock_2013.1_src/data/scripts/dock_solv.prm

>  <Rbt.Receptor>
prm/pocket_docking_5.prm

>  <SCORE>
-21.7429

>  <SCORE.INTER>
-18.883

>  <SCORE.INTER.CONST>
1

>  <SCORE.INTER.POLAR>
0

>  <SCORE.INTER.ROT>
7

>  <SCORE.INTER.SOLV>
17.8276

>  <SCORE.INTER.VDW>
-26.7978

>  <SCORE.INTER.norm>
-0.726268

>  <SCORE.INTRA>
-2.85988

>  <SCORE.INTRA.DIHEDRAL>
-5.16668

>  <SCORE.INTRA.DIHEDRAL.0>
10.1225

>  <SCORE.INTRA.POLAR>
0

>  <SCORE.INTRA.POLAR.0>
0

>  <SCORE.INTRA.REPUL>
0

>  <SCORE.INTRA.REPUL.0>
0

>  <SCORE.INTRA.SOLV>
1.40095

>  <SCORE.INTRA.SOLV.lig_0>
-49.9393

>  <SCORE.INTRA.VDW>
-0.977022

>  <SCORE.INTRA.VDW.0>
-1.75437

>  <SCORE.INTRA.norm>
-0.109996

>  <SCORE.RESTR>
0

>  <SCORE.RESTR.CAVITY>
0

>  <SCORE.RESTR.norm>
0

>  <SCORE.SYSTEM>
0

>  <SCORE.SYSTEM.CONST>
0

>  <SCORE.SYSTEM.DIHEDRAL>
0

>  <SCORE.SYSTEM.SOLV>
0

>  <SCORE.SYSTEM.norm>
0

>  <SCORE.heavy>
26

>  <SCORE.norm>
-0.836264

>  <RMSD>
3.146

$$$$
ligand
 OpenBabel11021811473D
libRbt.so/2013.1/901 2013/11/27
 26 28  0  0  0  0  0  0  0  0999 V2000
  -13.8046    8.2228  -24.5768 N   0  0  0  0  0  0  0  0  0  0  0  0
  -13.9238    8.2846  -23.1148 C   0  0  2  0  0  0  0  0  0  0  0  0
  -14.4304    6.9640  -22.5973 C   0  0  0  0  0  0  0  0  0  0  0  0
  -15.2154    6.3186  -23.2517 O   0  0  0  0  0  0  0  0  0  0  0  0
  -14.9041    9.3940  -22.7305 C   0  0  0  0  0  0  0  0  0  0  0  0
  -14.8287    9.6429  -21.2252 C   0  0  0  0  0  0  0  0  0  0  0  0
  -13.4842   10.4267  -20.5456 S   0  0  0  0  0  0  0  0  0  0  0  0
  -12.8540   12.1171  -20.3833 C   0  0  0  0  0  0  0  0  0  0  0  0
  -12.9530   12.9640  -21.6580 C   0  0  1  0  0  0  0  0  0  0  0  0
  -12.3004   14.2139  -21.5287 O   0  0  0  0  0  0  0  0  0  0  0  0
  -12.2358   12.3234  -22.8228 C   0  0  1  0  0  0  0  0  0  0  0  0
  -12.8455   12.8717  -23.9708 O   0  0  0  0  0  0  0  0  0  0  0  0
  -10.8187   12.8428  -22.7491 C   0  0  1  0  0  0  0  0  0  0  0  0
  -10.3512   13.1345  -24.0479 O   0  0  0  0  0  0  0  0  0  0  0  0
  -10.9558   14.1279  -21.9616 C   0  0  2  0  0  0  0  0  0  0  0  0
  -14.0125    6.5032  -21.4069 O   0  0  0  0  0  0  0  0  0  0  0  0
   -6.9546   16.5705  -19.6728 N   0  0  0  0  0  0  0  0  0  0  0  0
   -7.4627   16.7735  -20.9340 C   0  0  0  0  0  0  0  0  0  0  0  0
   -8.5234   16.0149  -21.3671 N   0  0  0  0  0  0  0  0  0  0  0  0
   -9.0701   15.0774  -20.5687 C   0  0  0  0  0  0  0  0  0  0  0  0
   -8.5754   14.8575  -19.2970 C   0  0  0  0  0  0  0  0  0  0  0  0
   -7.5005   15.6172  -18.8504 C   0  0  0  0  0  0  0  0  0  0  0  0
   -6.9916   15.4363  -17.6380 N   0  0  0  0  0  0  0  0  0  0  0  0
   -9.3022   13.8720  -18.7245 N   0  0  0  0  0  0  0  0  0  0  0  0
  -10.2417   13.4762  -19.6054 C   0  0  0  0  0  0  0  0  0  0  0  0
  -10.1058   14.2051  -20.7593 N   0  0  0  0  0  0  0  0  0  0  0  0
  2  1  1  6  0  0  0
  2  3  1  0  0  0  0
  2  5  1  0  0  0  0
  3  4  1  0  0  0  0
  3 16  1  0  0  0  0
  5  6  1  0  0  0  0
  6  7  1  0  0  0  0
  7  8  1  0  0  0  0
  9  8  1  1  0  0  0
  9 10  1  0  0  0  0
  9 11  1  0  0  0  0
 10 15  1  0  0  0  0
 11 12  1  6  0  0  0
 11 13  1  0  0  0  0
 13 14  1  6  0  0  0
 13 15  1  0  0  0  0
 15 26  1  1  0  0  0
 17 18  2  0  0  0  0
 17 22  1  0  0  0  0
 18 19  1  0  0  0  0
 19 20  2  0  0  0  0
 20 21  1  0  0  0  0
 20 26  1  0  0  0  0
 21 22  2  0  0  0  0
 21 24  1  0  0  0  0
 22 23  1  0  0  0  0
 24 25  2  0  0  0  0
 25 26  1  0  0  0  0
M  END
>  <CHROM.1>
-34.18622825,-169.15519976,72.64875920,78.00469797,-43.80982068,-172.67077173
-126.92042121,-11.52515569,12.21105922,-21.40265000,3.04341391,0.90364650
2.04818673

>  <Name>
ligand

>  <RI>
0

>  <Rbt.Current_Directory>
/home/itssahil/PROJECTS/Mol_Feturizer/New_Systems/rnas/3E5E

>  <Rbt.Executable>
rbdock ($Id: //depot/dev/client3/rdock/2013.1/src/exe/rbdock.cxx#4 $)

>  <Rbt.Library>
libRbt.so (2013.1, Build901 2013/11/27)

>  <Rbt.Parameter_File>
/export/apps/rDock/src/rDock_2013.1_src/data/scripts/dock_solv.prm

>  <Rbt.Receptor>
prm/pocket_docking_6.prm

>  <SCORE>
-20.7411

>  <SCORE.INTER>
-17.0532

>  <SCORE.INTER.CONST>
1

>  <SCORE.INTER.POLAR>
0

>  <SCORE.INTER.ROT>
7

>  <SCORE.INTER.SOLV>
19.9537

>  <SCORE.INTER.VDW>
-26.2867

>  <SCORE.INTER.norm>
-0.655893

>  <SCORE.INTRA>
-3.68791

>  <SCORE.INTRA.DIHEDRAL>
-5.24364

>  <SCORE.INTRA.DIHEDRAL.0>
10.1225

>  <SCORE.INTRA.POLAR>
0

>  <SCORE.INTRA.POLAR.0>
0

>  <SCORE.INTRA.REPUL>
0

>  <SCORE.INTRA.REPUL.0>
0

>  <SCORE.INTRA.SOLV>
-0.432066

>  <SCORE.INTRA.SOLV.lig_0>
-49.9393

>  <SCORE.INTRA.VDW>
-0.850059

>  <SCORE.INTRA.VDW.0>
-1.75437

>  <SCORE.INTRA.norm>
-0.141843

>  <SCORE.RESTR>
0

>  <SCORE.RESTR.CAVITY>
0

>  <SCORE.RESTR.norm>
0

>  <SCORE.SYSTEM>
0

>  <SCORE.SYSTEM.CONST>
0

>  <SCORE.SYSTEM.DIHEDRAL>
0

>  <SCORE.SYSTEM.SOLV>
0

>  <SCORE.SYSTEM.norm>
0

>  <SCORE.heavy>
26

>  <SCORE.norm>
-0.797736

>  <RMSD>
3.164

$$$$
ligand
 OpenBabel11021811473D
libRbt.so/2013.1/901 2013/11/27
 26 28  0  0  0  0  0  0  0  0999 V2000
  -14.9232    6.8416  -21.3706 N   0  0  0  0  0  0  0  0  0  0  0  0
  -15.7945    7.4849  -22.3618 C   0  0  2  0  0  0  0  0  0  0  0  0
  -16.4683    6.4284  -23.1972 C   0  0  0  0  0  0  0  0  0  0  0  0
  -15.8133    5.5457  -23.7001 O   0  0  0  0  0  0  0  0  0  0  0  0
  -14.9560    8.3920  -23.2640 C   0  0  0  0  0  0  0  0  0  0  0  0
  -14.3078    9.4901  -22.4228 C   0  0  0  0  0  0  0  0  0  0  0  0
  -13.3581   10.6923  -23.1554 S   0  0  0  0  0  0  0  0  0  0  0  0
  -12.4298   12.1642  -22.6525 C   0  0  0  0  0  0  0  0  0  0  0  0
  -11.9591   13.0526  -23.8104 C   0  0  1  0  0  0  0  0  0  0  0  0
  -11.3129   14.2295  -23.3606 O   0  0  0  0  0  0  0  0  0  0  0  0
  -10.8976   12.3793  -24.6479 C   0  0  1  0  0  0  0  0  0  0  0  0
  -10.9681   13.0164  -25.9047 O   0  0  0  0  0  0  0  0  0  0  0  0
   -9.5850   12.7572  -24.0019 C   0  0  1  0  0  0  0  0  0  0  0  0
   -8.6280   13.0394  -24.9995 O   0  0  0  0  0  0  0  0  0  0  0  0
   -9.9169   14.0266  -23.2475 C   0  0  2  0  0  0  0  0  0  0  0  0
  -17.7974    6.4673  -23.3867 O   0  0  0  0  0  0  0  0  0  0  0  0
   -7.5067   16.4526  -19.3081 N   0  0  0  0  0  0  0  0  0  0  0  0
   -7.5369   16.8130  -20.6345 C   0  0  0  0  0  0  0  0  0  0  0  0
   -8.2220   16.0314  -21.5332 N   0  0  0  0  0  0  0  0  0  0  0  0
   -8.8646   14.9188  -21.1277 C   0  0  0  0  0  0  0  0  0  0  0  0
   -8.8478   14.5387  -19.7988 C   0  0  0  0  0  0  0  0  0  0  0  0
   -8.1548   15.3207  -18.8821 C   0  0  0  0  0  0  0  0  0  0  0  0
   -8.1094   14.9904  -17.5974 N   0  0  0  0  0  0  0  0  0  0  0  0
   -9.5634   13.3985  -19.6755 N   0  0  0  0  0  0  0  0  0  0  0  0
  -10.0310   13.0617  -20.8934 C   0  0  0  0  0  0  0  0  0  0  0  0
   -9.5982   13.9870  -21.8085 N   0  0  0  0  0  0  0  0  0  0  0  0
  2  1  1  1  0  0  0
  2  3  1  0  0  0  0
  2  5  1  0  0  0  0
  3  4  1  0  0  0  0
  3 16  1  0  0  0  0
  5  6  1  0  0  0  0
  6  7  1  0  0  0  0
  7  8  1  0  0  0  0
  9  8  1  1  0  0  0
  9 10  1  0  0  0  0
  9 11  1  0  0  0  0
 10 15  1  0  0  0  0
 11 12  1  6  0  0  0
 11 13  1  0  0  0  0
 13 14  1  6  0  0  0
 13 15  1  0  0  0  0
 15 26  1  1  0  0  0
 17 18  2  0  0  0  0
 17 22  1  0  0  0  0
 18 19  1  0  0  0  0
 19 20  2  0  0  0  0
 20 21  1  0  0  0  0
 20 26  1  0  0  0  0
 21 22  2  0  0  0  0
 21 24  1  0  0  0  0
 22 23  1  0  0  0  0
 24 25  2  0  0  0  0
 25 26  1  0  0  0  0
M  END
>  <CHROM.1>
-49.77250696,-61.82054192,-177.69385539,178.80385617,-168.70677620,176.30186565
-112.67609727,-11.54497203,11.97975934,-22.31142300,2.97985907,-0.83566063
-1.49200714

>  <Name>
ligand

>  <RI>
0

>  <Rbt.Current_Directory>
/home/itssahil/PROJECTS/Mol_Feturizer/New_Systems/rnas/3E5E

>  <Rbt.Executable>
rbdock ($Id: //depot/dev/client3/rdock/2013.1/src/exe/rbdock.cxx#4 $)

>  <Rbt.Library>
libRbt.so (2013.1, Build901 2013/11/27)

>  <Rbt.Parameter_File>
/export/apps/rDock/src/rDock_2013.1_src/data/scripts/dock_solv.prm

>  <Rbt.Receptor>
prm/pocket_docking_7.prm

>  <SCORE>
-19.3321

>  <SCORE.INTER>
-15.6598

>  <SCORE.INTER.CONST>
1

>  <SCORE.INTER.POLAR>
0

>  <SCORE.INTER.ROT>
7

>  <SCORE.INTER.SOLV>
17.6798

>  <SCORE.INTER.VDW>
-24.5998

>  <SCORE.INTER.norm>
-0.6023

>  <SCORE.INTRA>
-3.67228

>  <SCORE.INTRA.DIHEDRAL>
-7.18644

>  <SCORE.INTRA.DIHEDRAL.0>
10.1225

>  <SCORE.INTRA.POLAR>
0

>  <SCORE.INTRA.POLAR.0>
0

>  <SCORE.INTRA.REPUL>
0

>  <SCORE.INTRA.REPUL.0>
0

>  <SCORE.INTRA.SOLV>
0.103777

>  <SCORE.INTRA.SOLV.lig_0>
-49.9393

>  <SCORE.INTRA.VDW>
-0.13095

>  <SCORE.INTRA.VDW.0>
-1.75437

>  <SCORE.INTRA.norm>
-0.141242

>  <SCORE.RESTR>
0

>  <SCORE.RESTR.CAVITY>
0

>  <SCORE.RESTR.norm>
0

>  <SCORE.SYSTEM>
0

>  <SCORE.SYSTEM.CONST>
0

>  <SCORE.SYSTEM.DIHEDRAL>
0

>  <SCORE.SYSTEM.SOLV>
0

>  <SCORE.SYSTEM.norm>
0

>  <SCORE.heavy>
26

>  <SCORE.norm>
-0.743541

>  <RMSD>
3.213

$$$$
ligand
 OpenBabel11021811473D
libRbt.so/2013.1/901 2013/11/27
 26 28  0  0  0  0  0  0  0  0999 V2000
  -13.6759    8.1626  -24.6859 N   0  0  0  0  0  0  0  0  0  0  0  0
  -13.8659    8.2360  -23.2319 C   0  0  2  0  0  0  0  0  0  0  0  0
  -14.4250    6.9294  -22.7333 C   0  0  0  0  0  0  0  0  0  0  0  0
  -15.2074    6.3073  -23.4130 O   0  0  0  0  0  0  0  0  0  0  0  0
  -14.8406    9.3679  -22.9024 C   0  0  0  0  0  0  0  0  0  0  0  0
  -14.8704    9.5921  -21.3916 C   0  0  0  0  0  0  0  0  0  0  0  0
  -13.5375   10.2784  -20.5939 S   0  0  0  0  0  0  0  0  0  0  0  0
  -12.7749   11.9112  -20.4114 C   0  0  0  0  0  0  0  0  0  0  0  0
  -12.9680   12.8472  -21.6107 C   0  0  1  0  0  0  0  0  0  0  0  0
  -12.3725   14.1157  -21.4077 O   0  0  0  0  0  0  0  0  0  0  0  0
  -12.2691   12.3363  -22.8484 C   0  0  1  0  0  0  0  0  0  0  0  0
  -12.9519   12.9388  -23.9260 O   0  0  0  0  0  0  0  0  0  0  0  0
  -10.8773   12.9214  -22.7871 C   0  0  1  0  0  0  0  0  0  0  0  0
  -10.4788   13.3360  -24.0755 O   0  0  0  0  0  0  0  0  0  0  0  0
  -11.0443   14.1333  -21.8962 C   0  0  2  0  0  0  0  0  0  0  0  0
  -14.0571    6.4553  -21.5317 O   0  0  0  0  0  0  0  0  0  0  0  0
   -6.9691   16.4940  -19.6525 N   0  0  0  0  0  0  0  0  0  0  0  0
   -7.5250   16.7498  -20.8836 C   0  0  0  0  0  0  0  0  0  0  0  0
   -8.5984   16.0053  -21.3099 N   0  0  0  0  0  0  0  0  0  0  0  0
   -9.1112   15.0305  -20.5341 C   0  0  0  0  0  0  0  0  0  0  0  0
   -8.5683   14.7574  -19.2926 C   0  0  0  0  0  0  0  0  0  0  0  0
   -7.4802   15.5025  -18.8534 C   0  0  0  0  0  0  0  0  0  0  0  0
   -6.9254   15.2710  -17.6700 N   0  0  0  0  0  0  0  0  0  0  0  0
   -9.2694   13.7437  -18.7376 N   0  0  0  0  0  0  0  0  0  0  0  0
  -10.2398   13.3822  -19.5995 C   0  0  0  0  0  0  0  0  0  0  0  0
  -10.1501   14.1620  -20.7242 N   0  0  0  0  0  0  0  0  0  0  0  0
  2  1  1  6  0  0  0
  2  3  1  0  0  0  0
  2  5  1  0  0  0  0
  3  4  1  0  0  0  0
  3 16  1  0  0  0  0
  5  6  1  0  0  0  0
  6  7  1  0  0  0  0
  7  8  1  0  0  0  0
  9  8  1  1  0  0  0
  9 10  1  0  0  0  0
  9 11  1  0  0  0  0
 10 15  1  0  0  0  0
 11 12  1  6  0  0  0
 11 13  1  0  0  0  0
 13 14  1  6  0  0  0
 13 15  1  0  0  0  0
 15 26  1  1  0  0  0
 17 18  2  0  0  0  0
 17 22  1  0  0  0  0
 18 19  1  0  0  0  0
 19 20  2  0  0  0  0
 20 21  1  0  0  0  0
 20 26  1  0  0  0  0
 21 22  2  0  0  0  0
 21 24  1  0  0  0  0
 22 23  1  0  0  0  0
 24 25  2  0  0  0  0
 25 26  1  0  0  0  0
M  END
>  <CHROM.1>
-35.41745461,-171.08800208,70.58183155,74.56249721,-29.48274984,179.02239056
-130.18975200,-11.54400399,12.15891258,-21.43209414,2.99511011,0.90199275
2.12509372

>  <Name>
ligand

>  <RI>
0

>  <Rbt.Current_Directory>
/home/itssahil/PROJECTS/Mol_Feturizer/New_Systems/rnas/3E5E

>  <Rbt.Executable>
rbdock ($Id: //depot/dev/client3/rdock/2013.1/src/exe/rbdock.cxx#4 $)

>  <Rbt.Library>
libRbt.so (2013.1, Build901 2013/11/27)

>  <Rbt.Parameter_File>
/export/apps/rDock/src/rDock_2013.1_src/data/scripts/dock_solv.prm

>  <Rbt.Receptor>
prm/pocket_docking_6.prm

>  <SCORE>
-20.832

>  <SCORE.INTER>
-17.1962

>  <SCORE.INTER.CONST>
1

>  <SCORE.INTER.POLAR>
0

>  <SCORE.INTER.ROT>
7

>  <SCORE.INTER.SOLV>
20.1072

>  <SCORE.INTER.VDW>
-26.4332

>  <SCORE.INTER.norm>
-0.661394

>  <SCORE.INTRA>
-3.63579

>  <SCORE.INTRA.DIHEDRAL>
-5.07751

>  <SCORE.INTRA.DIHEDRAL.0>
10.1225

>  <SCORE.INTRA.POLAR>
0

>  <SCORE.INTRA.POLAR.0>
0

>  <SCORE.INTRA.REPUL>
0

>  <SCORE.INTRA.REPUL.0>
0

>  <SCORE.INTRA.SOLV>
-0.446407

>  <SCORE.INTRA.SOLV.lig_0>
-49.9393

>  <SCORE.INTRA.VDW>
-0.873828

>  <SCORE.INTRA.VDW.0>
-1.75437

>  <SCORE.INTRA.norm>
-0.139838

>  <SCORE.RESTR>
0

>  <SCORE.RESTR.CAVITY>
0

>  <SCORE.RESTR.norm>
0

>  <SCORE.SYSTEM>
0

>  <SCORE.SYSTEM.CONST>
0

>  <SCORE.SYSTEM.DIHEDRAL>
0

>  <SCORE.SYSTEM.SOLV>
0

>  <SCORE.SYSTEM.norm>
0

>  <SCORE.heavy>
26

>  <SCORE.norm>
-0.801232

>  <RMSD>
3.230

$$$$
ligand
 OpenBabel11021811473D
libRbt.so/2013.1/901 2013/11/27
 26 28  0  0  0  0  0  0  0  0999 V2000
  -14.0917    6.2303  -21.9597 N   0  0  0  0  0  0  0  0  0  0  0  0
  -14.7280    7.5050  -22.3146 C   0  0  2  0  0  0  0  0  0  0  0  0
  -14.8887    7.5853  -23.8099 C   0  0  0  0  0  0  0  0  0  0  0  0
  -15.9218    7.2306  -24.3275 O   0  0  0  0  0  0  0  0  0  0  0  0
  -13.8525    8.6627  -21.8318 C   0  0  0  0  0  0  0  0  0  0  0  0
  -13.7937    8.6559  -20.3054 C   0  0  0  0  0  0  0  0  0  0  0  0
  -12.7191    9.6779  -19.4779 S   0  0  0  0  0  0  0  0  0  0  0  0
  -12.3050   11.4408  -19.4344 C   0  0  0  0  0  0  0  0  0  0  0  0
  -12.8134   12.2491  -20.6344 C   0  0  1  0  0  0  0  0  0  0  0  0
  -12.4322   13.6112  -20.5692 O   0  0  0  0  0  0  0  0  0  0  0  0
  -12.1988   11.7846  -21.9337 C   0  0  1  0  0  0  0  0  0  0  0  0
  -13.1100   12.1894  -22.9317 O   0  0  0  0  0  0  0  0  0  0  0  0
  -10.9372   12.6016  -22.0891 C   0  0  1  0  0  0  0  0  0  0  0  0
  -10.7870   12.9924  -23.4364 O   0  0  0  0  0  0  0  0  0  0  0  0
  -11.2020   13.8232  -21.2358 C   0  0  2  0  0  0  0  0  0  0  0  0
  -13.8832    8.0486  -24.5704 O   0  0  0  0  0  0  0  0  0  0  0  0
   -6.9723   16.5965  -19.9582 N   0  0  0  0  0  0  0  0  0  0  0  0
   -7.6681   16.6087  -21.1439 C   0  0  0  0  0  0  0  0  0  0  0  0
   -8.7604   15.7893  -21.2967 N   0  0  0  0  0  0  0  0  0  0  0  0
   -9.1563   14.9771  -20.2973 C   0  0  0  0  0  0  0  0  0  0  0  0
   -8.4718   14.9498  -19.0968 C   0  0  0  0  0  0  0  0  0  0  0  0
   -7.3634   15.7724  -18.9332 C   0  0  0  0  0  0  0  0  0  0  0  0
   -6.6748   15.7749  -17.7986 N   0  0  0  0  0  0  0  0  0  0  0  0
   -9.0781   14.0559  -18.2839 N   0  0  0  0  0  0  0  0  0  0  0  0
  -10.1273   13.5298  -18.9456 C   0  0  0  0  0  0  0  0  0  0  0  0
  -10.1848   14.0811  -20.2001 N   0  0  0  0  0  0  0  0  0  0  0  0
  2  1  1  6  0  0  0
  2  3  1  0  0  0  0
  2  5  1  0  0  0  0
  3  4  1  0  0  0  0
  3 16  1  0  0  0  0
  5  6  1  0  0  0  0
  6  7  1  0  0  0  0
  7  8  1  0  0  0  0
  9  8  1  1  0  0  0
  9 10  1  0  0  0  0
  9 11  1  0  0  0  0
 10 15  1  0  0  0  0
 11 12  1  6  0  0  0
 11 13  1  0  0  0  0
 13 14  1  6  0  0  0
 13 15  1  0  0  0  0
 15 26  1  1  0  0  0
 17 18  2  0  0  0  0
 17 22  1  0  0  0  0
 18 19  1  0  0  0  0
 19 20  2  0  0  0  0
 20 21  1  0  0  0  0
 20 26  1  0  0  0  0
 21 22  2  0  0  0  0
 21 24  1  0  0  0  0
 22 23  1  0  0  0  0
 24 25  2  0  0  0  0
 25 26  1  0  0  0  0
M  END
>  <CHROM.1>
93.70297963,-65.16906500,170.98629794,52.80257132,-16.32063813,-178.39410284
-142.21471133,-11.47141501,11.96616416,-21.02632687,3.12138759,-0.91858614
-1.21502222

>  <Name>
ligand

>  <RI>
0

>  <Rbt.Current_Directory>
/home/itssahil/PROJECTS/Mol_Feturizer/New_Systems/rnas/3E5E

>  <Rbt.Executable>
rbdock ($Id: //depot/dev/client3/rdock/2013.1/src/exe/rbdock.cxx#4 $)

>  <Rbt.Library>
libRbt.so (2013.1, Build901 2013/11/27)

>  <Rbt.Parameter_File>
/export/apps/rDock/src/rDock_2013.1_src/data/scripts/dock_solv.prm

>  <Rbt.Receptor>
prm/blind_docking_100.prm

>  <SCORE>
-18.9341

>  <SCORE.INTER>
-16.3312

>  <SCORE.INTER.CONST>
1

>  <SCORE.INTER.POLAR>
0

>  <SCORE.INTER.ROT>
7

>  <SCORE.INTER.SOLV>
18.3113

>  <SCORE.INTER.VDW>
-25.2579

>  <SCORE.INTER.norm>
-0.628123

>  <SCORE.INTRA>
-2.60288

>  <SCORE.INTRA.DIHEDRAL>
-4.83813

>  <SCORE.INTRA.DIHEDRAL.0>
10.1225

>  <SCORE.INTRA.POLAR>
0

>  <SCORE.INTRA.POLAR.0>
0

>  <SCORE.INTRA.REPUL>
0

>  <SCORE.INTRA.REPUL.0>
0

>  <SCORE.INTRA.SOLV>
0.319931

>  <SCORE.INTRA.SOLV.lig_0>
-49.9393

>  <SCORE.INTRA.VDW>
-0.343778

>  <SCORE.INTRA.VDW.0>
-1.75437

>  <SCORE.INTRA.norm>
-0.100111

>  <SCORE.RESTR>
0

>  <SCORE.RESTR.CAVITY>
0

>  <SCORE.RESTR.norm>
0

>  <SCORE.SYSTEM>
0

>  <SCORE.SYSTEM.CONST>
0

>  <SCORE.SYSTEM.DIHEDRAL>
0

>  <SCORE.SYSTEM.SOLV>
0

>  <SCORE.SYSTEM.norm>
0

>  <SCORE.heavy>
26

>  <SCORE.norm>
-0.728234

>  <RMSD>
3.249

$$$$
ligand
 OpenBabel11021811473D
libRbt.so/2013.1/901 2013/11/27
 26 28  0  0  0  0  0  0  0  0999 V2000
  -13.9713    7.5824  -20.5273 N   0  0  0  0  0  0  0  0  0  0  0  0
  -13.9136    9.0494  -20.5432 C   0  0  2  0  0  0  0  0  0  0  0  0
  -15.0232    9.6036  -19.6889 C   0  0  0  0  0  0  0  0  0  0  0  0
  -14.7895    9.9851  -18.5660 O   0  0  0  0  0  0  0  0  0  0  0  0
  -14.0761    9.5496  -21.9795 C   0  0  0  0  0  0  0  0  0  0  0  0
  -12.8259    9.2018  -22.7856 C   0  0  0  0  0  0  0  0  0  0  0  0
  -11.4129   10.1313  -22.6320 S   0  0  0  0  0  0  0  0  0  0  0  0
  -10.5511   11.0636  -21.3399 C   0  0  0  0  0  0  0  0  0  0  0  0
  -11.4422   11.5291  -20.1819 C   0  0  1  0  0  0  0  0  0  0  0  0
  -10.8199   12.5211  -19.3860 O   0  0  0  0  0  0  0  0  0  0  0  0
  -12.6940   12.2190  -20.6701 C   0  0  1  0  0  0  0  0  0  0  0  0
  -13.6172   12.0887  -19.6112 O   0  0  0  0  0  0  0  0  0  0  0  0
  -12.3202   13.6780  -20.7915 C   0  0  1  0  0  0  0  0  0  0  0  0
  -13.3844   14.4814  -20.3303 O   0  0  0  0  0  0  0  0  0  0  0  0
  -11.1398   13.8176  -19.8546 C   0  0  2  0  0  0  0  0  0  0  0  0
  -16.2743    9.6721  -20.1727 O   0  0  0  0  0  0  0  0  0  0  0  0
   -6.5257   16.0981  -19.0040 N   0  0  0  0  0  0  0  0  0  0  0  0
   -7.4845   15.7540  -18.0809 C   0  0  0  0  0  0  0  0  0  0  0  0
   -8.6525   15.1669  -18.5042 N   0  0  0  0  0  0  0  0  0  0  0  0
   -8.8658   14.9242  -19.8122 C   0  0  0  0  0  0  0  0  0  0  0  0
   -7.9148   15.2613  -20.7569 C   0  0  0  0  0  0  0  0  0  0  0  0
   -6.7312   15.8586  -20.3394 C   0  0  0  0  0  0  0  0  0  0  0  0
   -5.7930   16.2022  -21.2131 N   0  0  0  0  0  0  0  0  0  0  0  0
   -8.3848   14.9102  -21.9747 N   0  0  0  0  0  0  0  0  0  0  0  0
   -9.6025   14.3571  -21.8122 C   0  0  0  0  0  0  0  0  0  0  0  0
   -9.9222   14.3675  -20.4785 N   0  0  0  0  0  0  0  0  0  0  0  0
  2  1  1  6  0  0  0
  2  3  1  0  0  0  0
  2  5  1  0  0  0  0
  3  4  1  0  0  0  0
  3 16  1  0  0  0  0
  5  6  1  0  0  0  0
  6  7  1  0  0  0  0
  7  8  1  0  0  0  0
  9  8  1  6  0  0  0
  9 10  1  0  0  0  0
  9 11  1  0  0  0  0
 10 15  1  0  0  0  0
 11 12  1  1  0  0  0
 11 13  1  0  0  0  0
 13 14  1  1  0  0  0
 13 15  1  0  0  0  0
 15 26  1  6  0  0  0
 17 18  2  0  0  0  0
 17 22  1  0  0  0  0
 18 19  1  0  0  0  0
 19 20  2  0  0  0  0
 20 21  1  0  0  0  0
 20 26  1  0  0  0  0
 21 22  2  0  0  0  0
 21 24  1  0  0  0  0
 22 23  1  0  0  0  0
 24 25  2  0  0  0  0
 25 26  1  0  0  0  0
M  END
>  <CHROM.1>
100.33151523,-70.22230863,-78.32503909,33.45395781,-23.23143736,-165.00671967
-79.96394869,-11.21146845,12.46637545,-20.52053724,-2.57812029,0.51063747
0.76357302

>  <Name>
ligand

>  <RI>
0

>  <Rbt.Current_Directory>
/home/itssahil/PROJECTS/Mol_Feturizer/New_Systems/rnas/3E5E

>  <Rbt.Executable>
rbdock ($Id: //depot/dev/client3/rdock/2013.1/src/exe/rbdock.cxx#4 $)

>  <Rbt.Library>
libRbt.so (2013.1, Build901 2013/11/27)

>  <Rbt.Parameter_File>
/export/apps/rDock/src/rDock_2013.1_src/data/scripts/dock_solv.prm

>  <Rbt.Receptor>
prm/pocket_docking_3.prm

>  <SCORE>
-20.4154

>  <SCORE.INTER>
-18.2726

>  <SCORE.INTER.CONST>
1

>  <SCORE.INTER.POLAR>
0

>  <SCORE.INTER.ROT>
7

>  <SCORE.INTER.SOLV>
13.7138

>  <SCORE.INTER.VDW>
-25.0197

>  <SCORE.INTER.norm>
-0.702792

>  <SCORE.INTRA>
-2.20104

>  <SCORE.INTRA.DIHEDRAL>
-2.57669

>  <SCORE.INTRA.DIHEDRAL.0>
10.1225

>  <SCORE.INTRA.POLAR>
0

>  <SCORE.INTRA.POLAR.0>
0

>  <SCORE.INTRA.REPUL>
0

>  <SCORE.INTRA.REPUL.0>
0

>  <SCORE.INTRA.SOLV>
1.22543

>  <SCORE.INTRA.SOLV.lig_0>
-49.9393

>  <SCORE.INTRA.VDW>
-1.52541

>  <SCORE.INTRA.VDW.0>
-1.75437

>  <SCORE.INTRA.norm>
-0.0846554

>  <SCORE.RESTR>
0.058205

>  <SCORE.RESTR.CAVITY>
0.058205

>  <SCORE.RESTR.norm>
0.00223866

>  <SCORE.SYSTEM>
0

>  <SCORE.SYSTEM.CONST>
0

>  <SCORE.SYSTEM.DIHEDRAL>
0

>  <SCORE.SYSTEM.SOLV>
0

>  <SCORE.SYSTEM.norm>
0

>  <SCORE.heavy>
26

>  <SCORE.norm>
-0.785208

>  <RMSD>
3.256

$$$$
ligand
 OpenBabel11021811473D
libRbt.so/2013.1/901 2013/11/27
 26 28  0  0  0  0  0  0  0  0999 V2000
  -14.7494    7.0233  -22.5475 N   0  0  0  0  0  0  0  0  0  0  0  0
  -15.4076    8.3106  -22.8031 C   0  0  2  0  0  0  0  0  0  0  0  0
  -14.8546    8.9134  -24.0676 C   0  0  0  0  0  0  0  0  0  0  0  0
  -15.1630   10.0376  -24.3873 O   0  0  0  0  0  0  0  0  0  0  0  0
  -15.1479    9.2569  -21.6298 C   0  0  0  0  0  0  0  0  0  0  0  0
  -13.6445    9.3561  -21.3772 C   0  0  0  0  0  0  0  0  0  0  0  0
  -13.0196   10.5472  -20.3405 S   0  0  0  0  0  0  0  0  0  0  0  0
  -13.0024   12.3549  -20.2260 C   0  0  0  0  0  0  0  0  0  0  0  0
  -13.0186   13.0835  -21.5752 C   0  0  1  0  0  0  0  0  0  0  0  0
  -12.2857   14.2946  -21.5444 O   0  0  0  0  0  0  0  0  0  0  0  0
  -12.3231   12.2913  -22.6570 C   0  0  1  0  0  0  0  0  0  0  0  0
  -12.8714   12.7686  -23.8662 O   0  0  0  0  0  0  0  0  0  0  0  0
  -10.8760   12.7215  -22.5944 C   0  0  1  0  0  0  0  0  0  0  0  0
  -10.3640   12.8593  -23.9019 O   0  0  0  0  0  0  0  0  0  0  0  0
  -10.9416   14.0808  -21.9323 C   0  0  2  0  0  0  0  0  0  0  0  0
  -14.0203    8.2016  -24.8430 O   0  0  0  0  0  0  0  0  0  0  0  0
   -6.9765   16.6257  -19.6927 N   0  0  0  0  0  0  0  0  0  0  0  0
   -7.4623   16.7691  -20.9708 C   0  0  0  0  0  0  0  0  0  0  0  0
   -8.5166   15.9917  -21.3858 N   0  0  0  0  0  0  0  0  0  0  0  0
   -9.0788   15.0937  -20.5534 C   0  0  0  0  0  0  0  0  0  0  0  0
   -8.6066   14.9341  -19.2642 C   0  0  0  0  0  0  0  0  0  0  0  0
   -7.5383   15.7132  -18.8356 C   0  0  0  0  0  0  0  0  0  0  0  0
   -7.0508   15.5897  -17.6073 N   0  0  0  0  0  0  0  0  0  0  0  0
   -9.3450   13.9775  -18.6583 N   0  0  0  0  0  0  0  0  0  0  0  0
  -10.2697   13.5412  -19.5357 C   0  0  0  0  0  0  0  0  0  0  0  0
  -10.1125   14.2143  -20.7203 N   0  0  0  0  0  0  0  0  0  0  0  0
  2  1  1  1  0  0  0
  2  3  1  0  0  0  0
  2  5  1  0  0  0  0
  3  4  1  0  0  0  0
  3 16  1  0  0  0  0
  5  6  1  0  0  0  0
  6  7  1  0  0  0  0
  7  8  1  0  0  0  0
  9  8  1  1  0  0  0
  9 10  1  0  0  0  0
  9 11  1  0  0  0  0
 10 15  1  0  0  0  0
 11 12  1  6  0  0  0
 11 13  1  0  0  0  0
 13 14  1  6  0  0  0
 13 15  1  0  0  0  0
 15 26  1  1  0  0  0
 17 18  2  0  0  0  0
 17 22  1  0  0  0  0
 18 19  1  0  0  0  0
 19 20  2  0  0  0  0
 20 21  1  0  0  0  0
 20 26  1  0  0  0  0
 21 22  2  0  0  0  0
 21 24  1  0  0  0  0
 22 23  1  0  0  0  0
 24 25  2  0  0  0  0
 25 26  1  0  0  0  0
M  END
>  <CHROM.1>
-172.47153861,53.86030000,168.33125307,-59.51795784,-31.66067606,-146.51943662
-122.35276706,-11.57008646,12.46753528,-21.46748531,3.00397940,-0.84757144
-1.28507696

>  <Name>
ligand

>  <RI>
0

>  <Rbt.Current_Directory>
/home/itssahil/PROJECTS/Mol_Feturizer/New_Systems/rnas/3E5E

>  <Rbt.Executable>
rbdock ($Id: //depot/dev/client3/rdock/2013.1/src/exe/rbdock.cxx#4 $)

>  <Rbt.Library>
libRbt.so (2013.1, Build901 2013/11/27)

>  <Rbt.Parameter_File>
/export/apps/rDock/src/rDock_2013.1_src/data/scripts/dock_solv.prm

>  <Rbt.Receptor>
prm/pocket_docking_6.prm

>  <SCORE>
-20.8014

>  <SCORE.INTER>
-20.2221

>  <SCORE.INTER.CONST>
1

>  <SCORE.INTER.POLAR>
0

>  <SCORE.INTER.ROT>
7

>  <SCORE.INTER.SOLV>
18.349

>  <SCORE.INTER.VDW>
-27.8644

>  <SCORE.INTER.norm>
-0.777774

>  <SCORE.INTRA>
-0.579266

>  <SCORE.INTRA.DIHEDRAL>
-2.57683

>  <SCORE.INTRA.DIHEDRAL.0>
10.1225

>  <SCORE.INTRA.POLAR>
0

>  <SCORE.INTRA.POLAR.0>
0

>  <SCORE.INTRA.REPUL>
0

>  <SCORE.INTRA.REPUL.0>
0

>  <SCORE.INTRA.SOLV>
0.498273

>  <SCORE.INTRA.SOLV.lig_0>
-49.9393

>  <SCORE.INTRA.VDW>
0.460011

>  <SCORE.INTRA.VDW.0>
-1.75437

>  <SCORE.INTRA.norm>
-0.0222795

>  <SCORE.RESTR>
0

>  <SCORE.RESTR.CAVITY>
0

>  <SCORE.RESTR.norm>
0

>  <SCORE.SYSTEM>
0

>  <SCORE.SYSTEM.CONST>
0

>  <SCORE.SYSTEM.DIHEDRAL>
0

>  <SCORE.SYSTEM.SOLV>
0

>  <SCORE.SYSTEM.norm>
0

>  <SCORE.heavy>
26

>  <SCORE.norm>
-0.800053

>  <RMSD>
3.388

$$$$
ligand
 OpenBabel11021811473D
libRbt.so/2013.1/901 2013/11/27
 26 28  0  0  0  0  0  0  0  0999 V2000
  -13.4528    8.0900  -25.0751 N   0  0  0  0  0  0  0  0  0  0  0  0
  -13.6542    7.9586  -23.6267 C   0  0  2  0  0  0  0  0  0  0  0  0
  -14.8749    7.1162  -23.3652 C   0  0  0  0  0  0  0  0  0  0  0  0
  -15.8282    7.1860  -24.1050 O   0  0  0  0  0  0  0  0  0  0  0  0
  -13.8492    9.3457  -23.0121 C   0  0  0  0  0  0  0  0  0  0  0  0
  -13.8265    9.2365  -21.4886 C   0  0  0  0  0  0  0  0  0  0  0  0
  -13.8411   10.6330  -20.5223 S   0  0  0  0  0  0  0  0  0  0  0  0
  -12.9440   12.2030  -20.4154 C   0  0  0  0  0  0  0  0  0  0  0  0
  -12.9994   13.0613  -21.6850 C   0  0  1  0  0  0  0  0  0  0  0  0
  -12.2897   14.2787  -21.5459 O   0  0  0  0  0  0  0  0  0  0  0  0
  -12.3089   12.3953  -22.8517 C   0  0  1  0  0  0  0  0  0  0  0  0
  -12.8887   12.9785  -23.9981 O   0  0  0  0  0  0  0  0  0  0  0  0
  -10.8695   12.8477  -22.7705 C   0  0  1  0  0  0  0  0  0  0  0  0
  -10.3847   13.1253  -24.0661 O   0  0  0  0  0  0  0  0  0  0  0  0
  -10.9491   14.1329  -21.9754 C   0  0  2  0  0  0  0  0  0  0  0  0
  -14.9067    6.2883  -22.3080 O   0  0  0  0  0  0  0  0  0  0  0  0
   -6.9530   16.4867  -19.5869 N   0  0  0  0  0  0  0  0  0  0  0  0
   -7.4602   16.7393  -20.8395 C   0  0  0  0  0  0  0  0  0  0  0  0
   -8.5195   15.9974  -21.3036 N   0  0  0  0  0  0  0  0  0  0  0  0
   -9.0659   15.0281  -20.5439 C   0  0  0  0  0  0  0  0  0  0  0  0
   -8.5721   14.7582  -19.2814 C   0  0  0  0  0  0  0  0  0  0  0  0
   -7.4985   15.5008  -18.8038 C   0  0  0  0  0  0  0  0  0  0  0  0
   -6.9905   15.2722  -17.5991 N   0  0  0  0  0  0  0  0  0  0  0  0
   -9.2983   13.7498  -18.7494 N   0  0  0  0  0  0  0  0  0  0  0  0
  -10.2365   13.3885  -19.6464 C   0  0  0  0  0  0  0  0  0  0  0  0
  -10.1004   14.1630  -20.7701 N   0  0  0  0  0  0  0  0  0  0  0  0
  2  1  1  6  0  0  0
  2  3  1  0  0  0  0
  2  5  1  0  0  0  0
  3  4  1  0  0  0  0
  3 16  1  0  0  0  0
  5  6  1  0  0  0  0
  6  7  1  0  0  0  0
  7  8  1  0  0  0  0
  9  8  1  1  0  0  0
  9 10  1  0  0  0  0
  9 11  1  0  0  0  0
 10 15  1  0  0  0  0
 11 12  1  6  0  0  0
 11 13  1  0  0  0  0
 13 14  1  6  0  0  0
 13 15  1  0  0  0  0
 15 26  1  1  0  0  0
 17 18  2  0  0  0  0
 17 22  1  0  0  0  0
 18 19  1  0  0  0  0
 19 20  2  0  0  0  0
 20 21  1  0  0  0  0
 20 26  1  0  0  0  0
 21 22  2  0  0  0  0
 21 24  1  0  0  0  0
 22 23  1  0  0  0  0
 24 25  2  0  0  0  0
 25 26  1  0  0  0  0
M  END
>  <CHROM.1>
-35.17677436,-170.66317106,172.99240515,-49.72326761,58.18675525,179.67171921
-123.57060455,-11.54545289,12.21603123,-21.55358233,-3.04586664,0.90585088
1.87907844

>  <Name>
ligand

>  <RI>
0

>  <Rbt.Current_Directory>
/home/itssahil/PROJECTS/Mol_Feturizer/New_Systems/rnas/3E5E

>  <Rbt.Executable>
rbdock ($Id: //depot/dev/client3/rdock/2013.1/src/exe/rbdock.cxx#4 $)

>  <Rbt.Library>
libRbt.so (2013.1, Build901 2013/11/27)

>  <Rbt.Parameter_File>
/export/apps/rDock/src/rDock_2013.1_src/data/scripts/dock_solv.prm

>  <Rbt.Receptor>
prm/pocket_docking_8.prm

>  <SCORE>
-21.0549

>  <SCORE.INTER>
-16.7416

>  <SCORE.INTER.CONST>
1

>  <SCORE.INTER.POLAR>
0

>  <SCORE.INTER.ROT>
7

>  <SCORE.INTER.SOLV>
20.3122

>  <SCORE.INTER.VDW>
-26.1984

>  <SCORE.INTER.norm>
-0.643907

>  <SCORE.INTRA>
-4.31974

>  <SCORE.INTRA.DIHEDRAL>
-6.70386

>  <SCORE.INTRA.DIHEDRAL.0>
10.1225

>  <SCORE.INTRA.POLAR>
0

>  <SCORE.INTRA.POLAR.0>
0

>  <SCORE.INTRA.REPUL>
0

>  <SCORE.INTRA.REPUL.0>
0

>  <SCORE.INTRA.SOLV>
-0.493616

>  <SCORE.INTRA.SOLV.lig_0>
-49.9393

>  <SCORE.INTRA.VDW>
-0.720998

>  <SCORE.INTRA.VDW.0>
-1.75437

>  <SCORE.INTRA.norm>
-0.166144

>  <SCORE.RESTR>
0.00646858

>  <SCORE.RESTR.CAVITY>
0.00646858

>  <SCORE.RESTR.norm>
0.000248791

>  <SCORE.SYSTEM>
0

>  <SCORE.SYSTEM.CONST>
0

>  <SCORE.SYSTEM.DIHEDRAL>
0

>  <SCORE.SYSTEM.SOLV>
0

>  <SCORE.SYSTEM.norm>
0

>  <SCORE.heavy>
26

>  <SCORE.norm>
-0.809802

>  <RMSD>
3.397

$$$$
ligand
 OpenBabel11021811473D
libRbt.so/2013.1/901 2013/11/27
 26 28  0  0  0  0  0  0  0  0999 V2000
  -16.0989    9.0911  -20.6413 N   0  0  0  0  0  0  0  0  0  0  0  0
  -15.0376    9.6216  -21.5060 C   0  0  2  0  0  0  0  0  0  0  0  0
  -15.2136    9.0845  -22.9019 C   0  0  0  0  0  0  0  0  0  0  0  0
  -15.3903    7.9017  -23.0774 O   0  0  0  0  0  0  0  0  0  0  0  0
  -13.6745    9.1917  -20.9610 C   0  0  0  0  0  0  0  0  0  0  0  0
  -13.4145    9.8905  -19.6278 C   0  0  0  0  0  0  0  0  0  0  0  0
  -12.4025   11.2521  -19.5492 S   0  0  0  0  0  0  0  0  0  0  0  0
  -12.3310   12.9165  -20.2604 C   0  0  0  0  0  0  0  0  0  0  0  0
  -12.8497   13.0222  -21.6996 C   0  0  1  0  0  0  0  0  0  0  0  0
  -12.4122   14.2032  -22.3465 O   0  0  0  0  0  0  0  0  0  0  0  0
  -12.3019   11.9263  -22.5829 C   0  0  1  0  0  0  0  0  0  0  0  0
  -13.2318   11.8107  -23.6376 O   0  0  0  0  0  0  0  0  0  0  0  0
  -11.0151   12.4802  -23.1489 C   0  0  1  0  0  0  0  0  0  0  0  0
  -10.8983   12.1176  -24.5074 O   0  0  0  0  0  0  0  0  0  0  0  0
  -11.1995   13.9785  -23.0405 C   0  0  2  0  0  0  0  0  0  0  0  0
  -15.1717    9.9187  -23.9537 O   0  0  0  0  0  0  0  0  0  0  0  0
   -7.4601   17.6089  -23.2662 N   0  0  0  0  0  0  0  0  0  0  0  0
   -8.2801   17.1720  -24.2795 C   0  0  0  0  0  0  0  0  0  0  0  0
   -9.2051   16.1882  -24.0256 N   0  0  0  0  0  0  0  0  0  0  0  0
   -9.3172   15.6500  -22.7956 C   0  0  0  0  0  0  0  0  0  0  0  0
   -8.5034   16.0752  -21.7623 C   0  0  0  0  0  0  0  0  0  0  0  0
   -7.5621   17.0676  -22.0094 C   0  0  0  0  0  0  0  0  0  0  0  0
   -6.7579   17.5026  -21.0474 N   0  0  0  0  0  0  0  0  0  0  0  0
   -8.8268   15.3740  -20.6528 N   0  0  0  0  0  0  0  0  0  0  0  0
   -9.8260   14.5267  -20.9671 C   0  0  0  0  0  0  0  0  0  0  0  0
  -10.1358   14.6759  -22.2948 N   0  0  0  0  0  0  0  0  0  0  0  0
  2  1  1  1  0  0  0
  2  3  1  0  0  0  0
  2  5  1  0  0  0  0
  3  4  1  0  0  0  0
  3 16  1  0  0  0  0
  5  6  1  0  0  0  0
  6  7  1  0  0  0  0
  7  8  1  0  0  0  0
  9  8  1  1  0  0  0
  9 10  1  0  0  0  0
  9 11  1  0  0  0  0
 10 15  1  0  0  0  0
 11 12  1  6  0  0  0
 11 13  1  0  0  0  0
 13 14  1  6  0  0  0
 13 15  1  0  0  0  0
 15 26  1  1  0  0  0
 17 18  2  0  0  0  0
 17 22  1  0  0  0  0
 18 19  1  0  0  0  0
 19 20  2  0  0  0  0
 20 21  1  0  0  0  0
 20 26  1  0  0  0  0
 21 22  2  0  0  0  0
 21 24  1  0  0  0  0
 22 23  1  0  0  0  0
 24 25  2  0  0  0  0
 25 26  1  0  0  0  0
M  END
>  <CHROM.1>
-48.55961675,-67.73376384,-100.81291042,59.49914985,-34.75583941,-161.97782007
-121.65786543,-11.61850785,12.90031537,-22.07167596,-2.95740402,-0.82155385
-1.41596729

>  <Name>
ligand

>  <RI>
0

>  <Rbt.Current_Directory>
/home/itssahil/PROJECTS/Mol_Feturizer/New_Systems/rnas/3E5E

>  <Rbt.Executable>
rbdock ($Id: //depot/dev/client3/rdock/2013.1/src/exe/rbdock.cxx#4 $)

>  <Rbt.Library>
libRbt.so (2013.1, Build901 2013/11/27)

>  <Rbt.Parameter_File>
/export/apps/rDock/src/rDock_2013.1_src/data/scripts/dock_solv.prm

>  <Rbt.Receptor>
prm/pocket_docking_7.prm

>  <SCORE>
-16.7332

>  <SCORE.INTER>
-15.291

>  <SCORE.INTER.CONST>
1

>  <SCORE.INTER.POLAR>
0

>  <SCORE.INTER.ROT>
7

>  <SCORE.INTER.SOLV>
16.919

>  <SCORE.INTER.VDW>
-24.1004

>  <SCORE.INTER.norm>
-0.588117

>  <SCORE.INTRA>
-1.44213

>  <SCORE.INTRA.DIHEDRAL>
-0.940385

>  <SCORE.INTRA.DIHEDRAL.0>
10.1225

>  <SCORE.INTRA.POLAR>
0

>  <SCORE.INTRA.POLAR.0>
0

>  <SCORE.INTRA.REPUL>
0

>  <SCORE.INTRA.REPUL.0>
0

>  <SCORE.INTRA.SOLV>
0.807716

>  <SCORE.INTRA.SOLV.lig_0>
-49.9393

>  <SCORE.INTRA.VDW>
-1.37579

>  <SCORE.INTRA.VDW.0>
-1.75437

>  <SCORE.INTRA.norm>
-0.0554664

>  <SCORE.RESTR>
0

>  <SCORE.RESTR.CAVITY>
0

>  <SCORE.RESTR.norm>
0

>  <SCORE.SYSTEM>
0

>  <SCORE.SYSTEM.CONST>
0

>  <SCORE.SYSTEM.DIHEDRAL>
0

>  <SCORE.SYSTEM.SOLV>
0

>  <SCORE.SYSTEM.norm>
0

>  <SCORE.heavy>
26

>  <SCORE.norm>
-0.643583

>  <RMSD>
3.430

$$$$
ligand
 OpenBabel11021811473D
libRbt.so/2013.1/901 2013/11/27
 26 28  0  0  0  0  0  0  0  0999 V2000
  -15.2618    7.2796  -20.5744 N   0  0  0  0  0  0  0  0  0  0  0  0
  -15.2065    8.7418  -20.4549 C   0  0  2  0  0  0  0  0  0  0  0  0
  -15.8952    9.1669  -19.1847 C   0  0  0  0  0  0  0  0  0  0  0  0
  -15.2708    9.7321  -18.3177 O   0  0  0  0  0  0  0  0  0  0  0  0
  -15.9102    9.3776  -21.6551 C   0  0  0  0  0  0  0  0  0  0  0  0
  -15.0565    9.1861  -22.9074 C   0  0  0  0  0  0  0  0  0  0  0  0
  -13.7986   10.2682  -23.2690 S   0  0  0  0  0  0  0  0  0  0  0  0
  -12.0834   10.5534  -22.7613 C   0  0  0  0  0  0  0  0  0  0  0  0
  -11.7155    9.9747  -21.3896 C   0  0  1  0  0  0  0  0  0  0  0  0
  -10.4739   10.4608  -20.9132 O   0  0  0  0  0  0  0  0  0  0  0  0
  -12.6853   10.4030  -20.3137 C   0  0  1  0  0  0  0  0  0  0  0  0
  -12.5727    9.4178  -19.3101 O   0  0  0  0  0  0  0  0  0  0  0  0
  -12.1255   11.6962  -19.7683 C   0  0  1  0  0  0  0  0  0  0  0  0
  -12.2702   11.7225  -18.3651 O   0  0  0  0  0  0  0  0  0  0  0  0
  -10.6561   11.6206  -20.1228 C   0  0  2  0  0  0  0  0  0  0  0  0
  -17.2034    8.9160  -19.0128 O   0  0  0  0  0  0  0  0  0  0  0  0
   -8.0901   16.1591  -19.9458 N   0  0  0  0  0  0  0  0  0  0  0  0
   -8.4321   15.3369  -18.8984 C   0  0  0  0  0  0  0  0  0  0  0  0
   -9.1261   14.1772  -19.1464 N   0  0  0  0  0  0  0  0  0  0  0  0
   -9.4723   13.8380  -20.4035 C   0  0  0  0  0  0  0  0  0  0  0  0
   -9.1377   14.6496  -21.4711 C   0  0  0  0  0  0  0  0  0  0  0  0
   -8.4385   15.8266  -21.2307 C   0  0  0  0  0  0  0  0  0  0  0  0
   -8.1006   16.6371  -22.2260 N   0  0  0  0  0  0  0  0  0  0  0  0
   -9.6040   14.0749  -22.6023 N   0  0  0  0  0  0  0  0  0  0  0  0
  -10.2156   12.9222  -22.2671 C   0  0  0  0  0  0  0  0  0  0  0  0
  -10.1536   12.7642  -20.9061 N   0  0  0  0  0  0  0  0  0  0  0  0
  2  1  1  6  0  0  0
  2  3  1  0  0  0  0
  2  5  1  0  0  0  0
  3  4  1  0  0  0  0
  3 16  1  0  0  0  0
  5  6  1  0  0  0  0
  6  7  1  0  0  0  0
  7  8  1  0  0  0  0
  9  8  1  6  0  0  0
  9 10  1  0  0  0  0
  9 11  1  0  0  0  0
 10 15  1  0  0  0  0
 11 12  1  1  0  0  0
 11 13  1  0  0  0  0
 13 14  1  1  0  0  0
 13 15  1  0  0  0  0
 15 26  1  6  0  0  0
 17 18  2  0  0  0  0
 17 22  1  0  0  0  0
 18 19  1  0  0  0  0
 19 20  2  0  0  0  0
 20 21  1  0  0  0  0
 20 26  1  0  0  0  0
 21 22  2  0  0  0  0
 21 24  1  0  0  0  0
 22 23  1  0  0  0  0
 24 25  2  0  0  0  0
 25 26  1  0  0  0  0
M  END
>  <CHROM.1>
117.50949443,-71.52124429,-84.43269692,80.25016077,-22.20071669,-167.30921094
-142.12378899,-12.06373436,11.56783470,-20.76216868,-3.10558418,0.74447568
1.47046781

>  <Name>
ligand

>  <RI>
0

>  <Rbt.Current_Directory>
/home/itssahil/PROJECTS/Mol_Feturizer/New_Systems/rnas/3E5E

>  <Rbt.Executable>
rbdock ($Id: //depot/dev/client3/rdock/2013.1/src/exe/rbdock.cxx#4 $)

>  <Rbt.Library>
libRbt.so (2013.1, Build901 2013/11/27)

>  <Rbt.Parameter_File>
/export/apps/rDock/src/rDock_2013.1_src/data/scripts/dock_solv.prm

>  <Rbt.Receptor>
prm/pocket_docking_6.prm

>  <SCORE>
-16.169

>  <SCORE.INTER>
-14.5849

>  <SCORE.INTER.CONST>
1

>  <SCORE.INTER.POLAR>
0

>  <SCORE.INTER.ROT>
7

>  <SCORE.INTER.SOLV>
10.3699

>  <SCORE.INTER.VDW>
-21.4466

>  <SCORE.INTER.norm>
-0.560959

>  <SCORE.INTRA>
-1.5914

>  <SCORE.INTRA.DIHEDRAL>
-1.9821

>  <SCORE.INTRA.DIHEDRAL.0>
10.1225

>  <SCORE.INTRA.POLAR>
0

>  <SCORE.INTRA.POLAR.0>
0

>  <SCORE.INTRA.REPUL>
0

>  <SCORE.INTRA.REPUL.0>
0

>  <SCORE.INTRA.SOLV>
1.95143

>  <SCORE.INTRA.SOLV.lig_0>
-49.9393

>  <SCORE.INTRA.VDW>
-1.57606

>  <SCORE.INTRA.VDW.0>
-1.75437

>  <SCORE.INTRA.norm>
-0.0612077

>  <SCORE.RESTR>
0.00729808

>  <SCORE.RESTR.CAVITY>
0.00729808

>  <SCORE.RESTR.norm>
0.000280695

>  <SCORE.SYSTEM>
0

>  <SCORE.SYSTEM.CONST>
0

>  <SCORE.SYSTEM.DIHEDRAL>
0

>  <SCORE.SYSTEM.SOLV>
0

>  <SCORE.SYSTEM.norm>
0

>  <SCORE.heavy>
26

>  <SCORE.norm>
-0.621886

>  <RMSD>
3.437

$$$$
ligand
 OpenBabel11021811473D
libRbt.so/2013.1/901 2013/11/27
 26 28  0  0  0  0  0  0  0  0999 V2000
  -14.8094    7.7326  -15.6361 N   0  0  0  0  0  0  0  0  0  0  0  0
  -13.9606    8.6534  -16.4024 C   0  0  2  0  0  0  0  0  0  0  0  0
  -14.1046   10.0462  -15.8478 C   0  0  0  0  0  0  0  0  0  0  0  0
  -14.9169   10.2717  -14.9815 O   0  0  0  0  0  0  0  0  0  0  0  0
  -14.3915    8.6407  -17.8700 C   0  0  0  0  0  0  0  0  0  0  0  0
  -13.2535    9.1706  -18.7406 C   0  0  0  0  0  0  0  0  0  0  0  0
  -13.2954   10.7570  -19.3452 S   0  0  0  0  0  0  0  0  0  0  0  0
  -12.7001   11.6570  -20.8001 C   0  0  0  0  0  0  0  0  0  0  0  0
  -13.1196   11.0516  -22.1452 C   0  0  1  0  0  0  0  0  0  0  0  0
  -12.7787   11.8808  -23.2411 O   0  0  0  0  0  0  0  0  0  0  0  0
  -12.3813    9.7685  -22.4455 C   0  0  1  0  0  0  0  0  0  0  0  0
  -13.2101    9.0766  -23.3537 O   0  0  0  0  0  0  0  0  0  0  0  0
  -11.1310   10.1938  -23.1797 C   0  0  1  0  0  0  0  0  0  0  0  0
  -10.8715    9.2957  -24.2364 O   0  0  0  0  0  0  0  0  0  0  0  0
  -11.4997   11.5476  -23.7470 C   0  0  2  0  0  0  0  0  0  0  0  0
  -13.3325   11.0400  -16.3171 O   0  0  0  0  0  0  0  0  0  0  0  0
   -6.5238   12.9291  -23.0081 N   0  0  0  0  0  0  0  0  0  0  0  0
   -7.0198   11.6901  -23.3382 C   0  0  0  0  0  0  0  0  0  0  0  0
   -8.3760   11.5188  -23.4781 N   0  0  0  0  0  0  0  0  0  0  0  0
   -9.2222   12.5515  -23.2972 C   0  0  0  0  0  0  0  0  0  0  0  0
   -8.7447   13.8055  -22.9659 C   0  0  0  0  0  0  0  0  0  0  0  0
   -7.3748   13.9887  -22.8186 C   0  0  0  0  0  0  0  0  0  0  0  0
   -6.8737   15.1750  -22.4973 N   0  0  0  0  0  0  0  0  0  0  0  0
   -9.7997   14.6422  -22.8459 N   0  0  0  0  0  0  0  0  0  0  0  0
  -10.9225   13.9423  -23.1002 C   0  0  0  0  0  0  0  0  0  0  0  0
  -10.5847   12.6409  -23.3711 N   0  0  0  0  0  0  0  0  0  0  0  0
  2  1  1  1  0  0  0
  2  3  1  0  0  0  0
  2  5  1  0  0  0  0
  3  4  1  0  0  0  0
  3 16  1  0  0  0  0
  5  6  1  0  0  0  0
  6  7  1  0  0  0  0
  7  8  1  0  0  0  0
  9  8  1  1  0  0  0
  9 10  1  0  0  0  0
  9 11  1  0  0  0  0
 10 15  1  0  0  0  0
 11 12  1  6  0  0  0
 11 13  1  0  0  0  0
 13 14  1  6  0  0  0
 13 15  1  0  0  0  0
 15 26  1  1  0  0  0
 17 18  2  0  0  0  0
 17 22  1  0  0  0  0
 18 19  1  0  0  0  0
 19 20  2  0  0  0  0
 20 21  1  0  0  0  0
 20 26  1  0  0  0  0
 21 22  2  0  0  0  0
 21 24  1  0  0  0  0
 22 23  1  0  0  0  0
 24 25  2  0  0  0  0
 25 26  1  0  0  0  0
M  END
>  <CHROM.1>
-5.88981482,-159.86165354,-102.15400816,-149.53218570,53.72109893,172.37267255
158.99776787,-11.53486217,11.21268759,-20.98097689,-2.49309190,-0.72333246
-1.80012333

>  <Name>
ligand

>  <RI>
0

>  <Rbt.Current_Directory>
/home/itssahil/PROJECTS/Mol_Feturizer/New_Systems/rnas/3E5E

>  <Rbt.Executable>
rbdock ($Id: //depot/dev/client3/rdock/2013.1/src/exe/rbdock.cxx#4 $)

>  <Rbt.Library>
libRbt.so (2013.1, Build901 2013/11/27)

>  <Rbt.Parameter_File>
/export/apps/rDock/src/rDock_2013.1_src/data/scripts/dock_solv.prm

>  <Rbt.Receptor>
prm/blind_docking_80.prm

>  <SCORE>
-14.7584

>  <SCORE.INTER>
-13.6751

>  <SCORE.INTER.CONST>
1

>  <SCORE.INTER.POLAR>
0

>  <SCORE.INTER.ROT>
7

>  <SCORE.INTER.SOLV>
8.59342

>  <SCORE.INTER.VDW>
-20.2479

>  <SCORE.INTER.norm>
-0.525966

>  <SCORE.INTRA>
-1.08328

>  <SCORE.INTRA.DIHEDRAL>
-0.16576

>  <SCORE.INTRA.DIHEDRAL.0>
10.1225

>  <SCORE.INTRA.POLAR>
0

>  <SCORE.INTRA.POLAR.0>
0

>  <SCORE.INTRA.REPUL>
0

>  <SCORE.INTRA.REPUL.0>
0

>  <SCORE.INTRA.SOLV>
-0.420522

>  <SCORE.INTRA.SOLV.lig_0>
-49.9393

>  <SCORE.INTRA.VDW>
-0.790143

>  <SCORE.INTRA.VDW.0>
-1.75437

>  <SCORE.INTRA.norm>
-0.0416648

>  <SCORE.RESTR>
0

>  <SCORE.RESTR.CAVITY>
0

>  <SCORE.RESTR.norm>
0

>  <SCORE.SYSTEM>
0

>  <SCORE.SYSTEM.CONST>
0

>  <SCORE.SYSTEM.DIHEDRAL>
0

>  <SCORE.SYSTEM.SOLV>
0

>  <SCORE.SYSTEM.norm>
0

>  <SCORE.heavy>
26

>  <SCORE.norm>
-0.567631

>  <RMSD>
3.466

$$$$
ligand
 OpenBabel11021811473D
libRbt.so/2013.1/901 2013/11/27
 26 28  0  0  0  0  0  0  0  0999 V2000
  -15.0390    7.4124  -16.2236 N   0  0  0  0  0  0  0  0  0  0  0  0
  -14.5047    8.2817  -17.2792 C   0  0  2  0  0  0  0  0  0  0  0  0
  -13.5373    7.5008  -18.1292 C   0  0  0  0  0  0  0  0  0  0  0  0
  -12.8326    6.6580  -17.6252 O   0  0  0  0  0  0  0  0  0  0  0  0
  -13.7817    9.4699  -16.6425 C   0  0  0  0  0  0  0  0  0  0  0  0
  -13.8012   10.6551  -17.6061 C   0  0  0  0  0  0  0  0  0  0  0  0
  -12.8175   10.6590  -18.9905 S   0  0  0  0  0  0  0  0  0  0  0  0
  -12.5314   11.7164  -20.4331 C   0  0  0  0  0  0  0  0  0  0  0  0
  -13.1074   11.1773  -21.7481 C   0  0  1  0  0  0  0  0  0  0  0  0
  -13.0323   12.1231  -22.7992 O   0  0  0  0  0  0  0  0  0  0  0  0
  -12.3103   10.0104  -22.2815 C   0  0  1  0  0  0  0  0  0  0  0  0
  -13.2079    9.3064  -23.1115 O   0  0  0  0  0  0  0  0  0  0  0  0
  -11.2443   10.6266  -23.1573 C   0  0  1  0  0  0  0  0  0  0  0  0
  -11.0784    9.8489  -24.3227 O   0  0  0  0  0  0  0  0  0  0  0  0
  -11.8284   11.9727  -23.5278 C   0  0  2  0  0  0  0  0  0  0  0  0
  -13.4546    7.7418  -19.4479 O   0  0  0  0  0  0  0  0  0  0  0  0
   -8.1329   15.2237  -25.2565 N   0  0  0  0  0  0  0  0  0  0  0  0
   -8.6879   14.1476  -25.9076 C   0  0  0  0  0  0  0  0  0  0  0  0
   -9.6497   13.3963  -25.2763 N   0  0  0  0  0  0  0  0  0  0  0  0
  -10.0545   13.7046  -24.0288 C   0  0  0  0  0  0  0  0  0  0  0  0
   -9.5105   14.7828  -23.3564 C   0  0  0  0  0  0  0  0  0  0  0  0
   -8.5344   15.5472  -23.9849 C   0  0  0  0  0  0  0  0  0  0  0  0
   -7.9825   16.5885  -23.3743 N   0  0  0  0  0  0  0  0  0  0  0  0
  -10.0921   14.8595  -22.1386 N   0  0  0  0  0  0  0  0  0  0  0  0
  -10.9896   13.8598  -22.0374 C   0  0  0  0  0  0  0  0  0  0  0  0
  -10.9721   13.1262  -23.1961 N   0  0  0  0  0  0  0  0  0  0  0  0
  2  1  1  1  0  0  0
  2  3  1  0  0  0  0
  2  5  1  0  0  0  0
  3  4  1  0  0  0  0
  3 16  1  0  0  0  0
  5  6  1  0  0  0  0
  6  7  1  0  0  0  0
  7  8  1  0  0  0  0
  9  8  1  1  0  0  0
  9 10  1  0  0  0  0
  9 11  1  0  0  0  0
 10 15  1  0  0  0  0
 11 12  1  6  0  0  0
 11 13  1  0  0  0  0
 13 14  1  6  0  0  0
 13 15  1  0  0  0  0
 15 26  1  1  0  0  0
 17 18  2  0  0  0  0
 17 22  1  0  0  0  0
 18 19  1  0  0  0  0
 19 20  2  0  0  0  0
 20 21  1  0  0  0  0
 20 26  1  0  0  0  0
 21 22  2  0  0  0  0
 21 24  1  0  0  0  0
 22 23  1  0  0  0  0
 24 25  2  0  0  0  0
 25 26  1  0  0  0  0
M  END
>  <CHROM.1>
-35.21255413,-153.73959734,-73.27309434,176.13233148,-106.22492981,171.27845287
-149.30715948,-11.76113725,11.40699874,-21.43909904,-2.85981428,-1.07994336
-2.06319809

>  <Name>
ligand

>  <RI>
0

>  <Rbt.Current_Directory>
/home/itssahil/PROJECTS/Mol_Feturizer/New_Systems/rnas/3E5E

>  <Rbt.Executable>
rbdock ($Id: //depot/dev/client3/rdock/2013.1/src/exe/rbdock.cxx#4 $)

>  <Rbt.Library>
libRbt.so (2013.1, Build901 2013/11/27)

>  <Rbt.Parameter_File>
/export/apps/rDock/src/rDock_2013.1_src/data/scripts/dock_solv.prm

>  <Rbt.Receptor>
prm/pocket_docking_4.prm

>  <SCORE>
-15.9732

>  <SCORE.INTER>
-13.7234

>  <SCORE.INTER.CONST>
1

>  <SCORE.INTER.POLAR>
0

>  <SCORE.INTER.ROT>
7

>  <SCORE.INTER.SOLV>
7.64689

>  <SCORE.INTER.VDW>
-19.9645

>  <SCORE.INTER.norm>
-0.527821

>  <SCORE.INTRA>
-2.24989

>  <SCORE.INTRA.DIHEDRAL>
-1.93724

>  <SCORE.INTRA.DIHEDRAL.0>
10.1225

>  <SCORE.INTRA.POLAR>
0

>  <SCORE.INTRA.POLAR.0>
0

>  <SCORE.INTRA.REPUL>
0

>  <SCORE.INTRA.REPUL.0>
0

>  <SCORE.INTRA.SOLV>
-0.462387

>  <SCORE.INTRA.SOLV.lig_0>
-49.9393

>  <SCORE.INTRA.VDW>
-1.05008

>  <SCORE.INTRA.VDW.0>
-1.75437

>  <SCORE.INTRA.norm>
-0.0865343

>  <SCORE.RESTR>
0

>  <SCORE.RESTR.CAVITY>
0

>  <SCORE.RESTR.norm>
0

>  <SCORE.SYSTEM>
0

>  <SCORE.SYSTEM.CONST>
0

>  <SCORE.SYSTEM.DIHEDRAL>
0

>  <SCORE.SYSTEM.SOLV>
0

>  <SCORE.SYSTEM.norm>
0

>  <SCORE.heavy>
26

>  <SCORE.norm>
-0.614356

>  <RMSD>
3.518

$$$$
ligand
 OpenBabel11021811473D
libRbt.so/2013.1/901 2013/11/27
 26 28  0  0  0  0  0  0  0  0999 V2000
  -14.9611    7.9060  -15.9121 N   0  0  0  0  0  0  0  0  0  0  0  0
  -14.4645    8.1151  -17.2778 C   0  0  2  0  0  0  0  0  0  0  0  0
  -13.4769    7.0318  -17.6230 C   0  0  0  0  0  0  0  0  0  0  0  0
  -12.8689    6.4651  -16.7453 O   0  0  0  0  0  0  0  0  0  0  0  0
  -13.7784    9.4794  -17.3666 C   0  0  0  0  0  0  0  0  0  0  0  0
  -13.5664    9.8495  -18.8334 C   0  0  0  0  0  0  0  0  0  0  0  0
  -12.8492   11.3298  -19.2557 S   0  0  0  0  0  0  0  0  0  0  0  0
  -12.5482   12.2977  -20.7570 C   0  0  0  0  0  0  0  0  0  0  0  0
  -12.9464   11.5980  -22.0622 C   0  0  1  0  0  0  0  0  0  0  0  0
  -12.7305   12.4127  -23.1999 O   0  0  0  0  0  0  0  0  0  0  0  0
  -12.0885   10.3867  -22.3421 C   0  0  1  0  0  0  0  0  0  0  0  0
  -12.8700    9.5767  -23.1926 O   0  0  0  0  0  0  0  0  0  0  0  0
  -10.9145   10.9085  -23.1374 C   0  0  1  0  0  0  0  0  0  0  0  0
  -10.5976    9.9997  -24.1691 O   0  0  0  0  0  0  0  0  0  0  0  0
  -11.4412   12.1928  -23.7404 C   0  0  2  0  0  0  0  0  0  0  0  0
  -13.2685    6.6959  -18.9066 O   0  0  0  0  0  0  0  0  0  0  0  0
   -7.7777   15.4630  -25.5008 N   0  0  0  0  0  0  0  0  0  0  0  0
   -8.2738   14.3364  -26.1130 C   0  0  0  0  0  0  0  0  0  0  0  0
   -9.2374   13.5897  -25.4790 N   0  0  0  0  0  0  0  0  0  0  0  0
   -9.7009   13.9511  -24.2667 C   0  0  0  0  0  0  0  0  0  0  0  0
   -9.2166   15.0805  -23.6338 C   0  0  0  0  0  0  0  0  0  0  0  0
   -8.2393   15.8410  -24.2651 C   0  0  0  0  0  0  0  0  0  0  0  0
   -7.7435   16.9304  -23.6916 N   0  0  0  0  0  0  0  0  0  0  0  0
   -9.8486   15.2036  -22.4452 N   0  0  0  0  0  0  0  0  0  0  0  0
  -10.7192   14.1826  -22.3241 C   0  0  0  0  0  0  0  0  0  0  0  0
  -10.6335   13.3891  -23.4395 N   0  0  0  0  0  0  0  0  0  0  0  0
  2  1  1  1  0  0  0
  2  3  1  0  0  0  0
  2  5  1  0  0  0  0
  3  4  1  0  0  0  0
  3 16  1  0  0  0  0
  5  6  1  0  0  0  0
  6  7  1  0  0  0  0
  7  8  1  0  0  0  0
  9  8  1  1  0  0  0
  9 10  1  0  0  0  0
  9 11  1  0  0  0  0
 10 15  1  0  0  0  0
 11 12  1  6  0  0  0
 11 13  1  0  0  0  0
 13 14  1  6  0  0  0
 13 15  1  0  0  0  0
 15 26  1  1  0  0  0
 17 18  2  0  0  0  0
 17 22  1  0  0  0  0
 18 19  1  0  0  0  0
 19 20  2  0  0  0  0
 20 21  1  0  0  0  0
 20 26  1  0  0  0  0
 21 22  2  0  0  0  0
 21 24  1  0  0  0  0
 22 23  1  0  0  0  0
 24 25  2  0  0  0  0
 25 26  1  0  0  0  0
M  END
>  <CHROM.1>
-25.21417855,-166.28711608,178.84122037,-171.56931477,-5.33222172,178.11312345
-142.59098350,-11.54570220,11.57118788,-21.58225541,-3.07382961,-1.10766022
-2.28614074

>  <Name>
ligand

>  <RI>
0

>  <Rbt.Current_Directory>
/home/itssahil/PROJECTS/Mol_Feturizer/New_Systems/rnas/3E5E

>  <Rbt.Executable>
rbdock ($Id: //depot/dev/client3/rdock/2013.1/src/exe/rbdock.cxx#4 $)

>  <Rbt.Library>
libRbt.so (2013.1, Build901 2013/11/27)

>  <Rbt.Parameter_File>
/export/apps/rDock/src/rDock_2013.1_src/data/scripts/dock_solv.prm

>  <Rbt.Receptor>
prm/pocket_docking_5.prm

>  <SCORE>
-16.6231

>  <SCORE.INTER>
-13.9275

>  <SCORE.INTER.CONST>
1

>  <SCORE.INTER.POLAR>
0

>  <SCORE.INTER.ROT>
7

>  <SCORE.INTER.SOLV>
6.60715

>  <SCORE.INTER.VDW>
-19.754

>  <SCORE.INTER.norm>
-0.535673

>  <SCORE.INTRA>
-2.69558

>  <SCORE.INTRA.DIHEDRAL>
-4.11987

>  <SCORE.INTRA.DIHEDRAL.0>
10.1225

>  <SCORE.INTRA.POLAR>
0

>  <SCORE.INTRA.POLAR.0>
0

>  <SCORE.INTRA.REPUL>
0

>  <SCORE.INTRA.REPUL.0>
0

>  <SCORE.INTRA.SOLV>
-0.588862

>  <SCORE.INTRA.SOLV.lig_0>
-49.9393

>  <SCORE.INTRA.VDW>
-0.341213

>  <SCORE.INTRA.VDW.0>
-1.75437

>  <SCORE.INTRA.norm>
-0.103676

>  <SCORE.RESTR>
0

>  <SCORE.RESTR.CAVITY>
0

>  <SCORE.RESTR.norm>
0

>  <SCORE.SYSTEM>
0

>  <SCORE.SYSTEM.CONST>
0

>  <SCORE.SYSTEM.DIHEDRAL>
0

>  <SCORE.SYSTEM.SOLV>
0

>  <SCORE.SYSTEM.norm>
0

>  <SCORE.heavy>
26

>  <SCORE.norm>
-0.639349

>  <RMSD>
3.532

$$$$
ligand
 OpenBabel11021811473D
libRbt.so/2013.1/901 2013/11/27
 26 28  0  0  0  0  0  0  0  0999 V2000
  -14.0951    8.4536  -18.9450 N   0  0  0  0  0  0  0  0  0  0  0  0
  -13.3215    9.5824  -18.4129 C   0  0  2  0  0  0  0  0  0  0  0  0
  -14.0242   10.1465  -17.2062 C   0  0  0  0  0  0  0  0  0  0  0  0
  -13.4050   10.7886  -16.3905 O   0  0  0  0  0  0  0  0  0  0  0  0
  -13.1985   10.6658  -19.4856 C   0  0  0  0  0  0  0  0  0  0  0  0
  -12.1792   11.7124  -19.0394 C   0  0  0  0  0  0  0  0  0  0  0  0
  -11.7500   12.9937  -20.0681 S   0  0  0  0  0  0  0  0  0  0  0  0
  -12.5086   13.9616  -21.3980 C   0  0  0  0  0  0  0  0  0  0  0  0
  -12.8727   13.1556  -22.6509 C   0  0  1  0  0  0  0  0  0  0  0  0
  -12.0453   13.4709  -23.7558 O   0  0  0  0  0  0  0  0  0  0  0  0
  -12.6397   11.6753  -22.4616 C   0  0  1  0  0  0  0  0  0  0  0  0
  -13.4879   11.0511  -23.4005 O   0  0  0  0  0  0  0  0  0  0  0  0
  -11.2100   11.4415  -22.8908 C   0  0  1  0  0  0  0  0  0  0  0  0
  -11.1242   10.2390  -23.6239 O   0  0  0  0  0  0  0  0  0  0  0  0
  -10.9217   12.6120  -23.8059 C   0  0  2  0  0  0  0  0  0  0  0  0
  -15.3392    9.9346  -17.0336 O   0  0  0  0  0  0  0  0  0  0  0  0
   -5.7355   12.6367  -23.2434 N   0  0  0  0  0  0  0  0  0  0  0  0
   -6.5443   11.5853  -23.6045 C   0  0  0  0  0  0  0  0  0  0  0  0
   -7.9029   11.7733  -23.6873 N   0  0  0  0  0  0  0  0  0  0  0  0
   -8.4486   12.9758  -23.4204 C   0  0  0  0  0  0  0  0  0  0  0  0
   -7.6538   14.0465  -23.0565 C   0  0  0  0  0  0  0  0  0  0  0  0
   -6.2785   13.8661  -22.9665 C   0  0  0  0  0  0  0  0  0  0  0  0
   -5.4787   14.8659  -22.6167 N   0  0  0  0  0  0  0  0  0  0  0  0
   -8.4536   15.1164  -22.8493 N   0  0  0  0  0  0  0  0  0  0  0  0
   -9.7266   14.7409  -23.0810 C   0  0  0  0  0  0  0  0  0  0  0  0
   -9.7441   13.4135  -23.4255 N   0  0  0  0  0  0  0  0  0  0  0  0
  2  1  1  6  0  0  0
  2  3  1  0  0  0  0
  2  5  1  0  0  0  0
  3  4  1  0  0  0  0
  3 16  1  0  0  0  0
  5  6  1  0  0  0  0
  6  7  1  0  0  0  0
  7  8  1  0  0  0  0
  9  8  1  1  0  0  0
  9 10  1  0  0  0  0
  9 11  1  0  0  0  0
 10 15  1  0  0  0  0
 11 12  1  6  0  0  0
 11 13  1  0  0  0  0
 13 14  1  6  0  0  0
 13 15  1  0  0  0  0
 15 26  1  1  0  0  0
 17 18  2  0  0  0  0
 17 22  1  0  0  0  0
 18 19  1  0  0  0  0
 19 20  2  0  0  0  0
 20 21  1  0  0  0  0
 20 26  1  0  0  0  0
 21 22  2  0  0  0  0
 21 24  1  0  0  0  0
 22 23  1  0  0  0  0
 24 25  2  0  0  0  0
 25 26  1  0  0  0  0
M  END
>  <CHROM.1>
157.89862336,-169.17470441,176.04834283,28.91690737,-63.45103030,-110.03035118
-176.14632166,-10.92614251,12.18240496,-21.51451921,2.45521298,0.33020963
1.75499375

>  <Name>
ligand

>  <RI>
0

>  <Rbt.Current_Directory>
/home/itssahil/PROJECTS/Mol_Feturizer/New_Systems/rnas/3E5E

>  <Rbt.Executable>
rbdock ($Id: //depot/dev/client3/rdock/2013.1/src/exe/rbdock.cxx#4 $)

>  <Rbt.Library>
libRbt.so (2013.1, Build901 2013/11/27)

>  <Rbt.Parameter_File>
/export/apps/rDock/src/rDock_2013.1_src/data/scripts/dock_solv.prm

>  <Rbt.Receptor>
prm/blind_docking_80.prm

>  <SCORE>
-16.0782

>  <SCORE.INTER>
-15.7282

>  <SCORE.INTER.CONST>
1

>  <SCORE.INTER.POLAR>
0

>  <SCORE.INTER.ROT>
7

>  <SCORE.INTER.SOLV>
10.1375

>  <SCORE.INTER.VDW>
-22.1313

>  <SCORE.INTER.norm>
-0.60493

>  <SCORE.INTRA>
-0.349966

>  <SCORE.INTRA.DIHEDRAL>
-0.786652

>  <SCORE.INTRA.DIHEDRAL.0>
10.1225

>  <SCORE.INTRA.POLAR>
0

>  <SCORE.INTRA.POLAR.0>
0

>  <SCORE.INTRA.REPUL>
0

>  <SCORE.INTRA.REPUL.0>
0

>  <SCORE.INTRA.SOLV>
-0.105044

>  <SCORE.INTRA.SOLV.lig_0>
-49.9393

>  <SCORE.INTRA.VDW>
0.0958813

>  <SCORE.INTRA.VDW.0>
-1.75437

>  <SCORE.INTRA.norm>
-0.0134602

>  <SCORE.RESTR>
0

>  <SCORE.RESTR.CAVITY>
0

>  <SCORE.RESTR.norm>
0

>  <SCORE.SYSTEM>
0

>  <SCORE.SYSTEM.CONST>
0

>  <SCORE.SYSTEM.DIHEDRAL>
0

>  <SCORE.SYSTEM.SOLV>
0

>  <SCORE.SYSTEM.norm>
0

>  <SCORE.heavy>
26

>  <SCORE.norm>
-0.618391

>  <RMSD>
3.633

$$$$
ligand
 OpenBabel11021811473D
libRbt.so/2013.1/901 2013/11/27
 26 28  0  0  0  0  0  0  0  0999 V2000
  -14.4632    8.4422  -17.4533 N   0  0  0  0  0  0  0  0  0  0  0  0
  -13.5953    9.4428  -16.8199 C   0  0  2  0  0  0  0  0  0  0  0  0
  -13.9256    9.5359  -15.3535 C   0  0  0  0  0  0  0  0  0  0  0  0
  -13.1574   10.0772  -14.5933 O   0  0  0  0  0  0  0  0  0  0  0  0
  -13.8200   10.8034  -17.4817 C   0  0  0  0  0  0  0  0  0  0  0  0
  -13.1352   10.8261  -18.8470 C   0  0  0  0  0  0  0  0  0  0  0  0
  -13.1334   12.2391  -19.7890 S   0  0  0  0  0  0  0  0  0  0  0  0
  -12.3906   12.8235  -21.3343 C   0  0  0  0  0  0  0  0  0  0  0  0
  -12.8234   12.0512  -22.5865 C   0  0  1  0  0  0  0  0  0  0  0  0
  -12.2434   12.5705  -23.7693 O   0  0  0  0  0  0  0  0  0  0  0  0
  -12.3381   10.6210  -22.5680 C   0  0  1  0  0  0  0  0  0  0  0  0
  -13.2201    9.9269  -23.4228 O   0  0  0  0  0  0  0  0  0  0  0  0
  -10.9774   10.6562  -23.2241 C   0  0  1  0  0  0  0  0  0  0  0  0
  -10.8269    9.5347  -24.0670 O   0  0  0  0  0  0  0  0  0  0  0  0
  -11.0239   11.9151  -24.0628 C   0  0  2  0  0  0  0  0  0  0  0  0
  -15.0729    9.0152  -14.8882 O   0  0  0  0  0  0  0  0  0  0  0  0
   -5.9107   12.4942  -23.2066 N   0  0  0  0  0  0  0  0  0  0  0  0
   -6.6138   11.3262  -23.3842 C   0  0  0  0  0  0  0  0  0  0  0  0
   -7.9719   11.3774  -23.5869 N   0  0  0  0  0  0  0  0  0  0  0  0
   -8.6193   12.5587  -23.6149 C   0  0  0  0  0  0  0  0  0  0  0  0
   -7.9316   13.7448  -23.4395 C   0  0  0  0  0  0  0  0  0  0  0  0
   -6.5580   13.7038  -23.2305 C   0  0  0  0  0  0  0  0  0  0  0  0
   -5.8594   14.8183  -23.0534 N   0  0  0  0  0  0  0  0  0  0  0  0
   -8.8179   14.7628  -23.5129 N   0  0  0  0  0  0  0  0  0  0  0  0
  -10.0399   14.2413  -23.7359 C   0  0  0  0  0  0  0  0  0  0  0  0
   -9.9380   12.8747  -23.7910 N   0  0  0  0  0  0  0  0  0  0  0  0
  2  1  1  6  0  0  0
  2  3  1  0  0  0  0
  2  5  1  0  0  0  0
  3  4  1  0  0  0  0
  3 16  1  0  0  0  0
  5  6  1  0  0  0  0
  6  7  1  0  0  0  0
  7  8  1  0  0  0  0
  9  8  1  1  0  0  0
  9 10  1  0  0  0  0
  9 11  1  0  0  0  0
 10 15  1  0  0  0  0
 11 12  1  6  0  0  0
 11 13  1  0  0  0  0
 13 14  1  6  0  0  0
 13 15  1  0  0  0  0
 15 26  1  1  0  0  0
 17 18  2  0  0  0  0
 17 22  1  0  0  0  0
 18 19  1  0  0  0  0
 19 20  2  0  0  0  0
 20 21  1  0  0  0  0
 20 26  1  0  0  0  0
 21 22  2  0  0  0  0
 21 24  1  0  0  0  0
 22 23  1  0  0  0  0
 24 25  2  0  0  0  0
 25 26  1  0  0  0  0
M  END
>  <CHROM.1>
164.24655950,-75.56018023,-176.53538150,173.70254433,62.95221431,178.38293593
162.29370871,-11.14437978,11.60285167,-21.20070984,2.29149362,0.41092423
1.65117439

>  <Name>
ligand

>  <RI>
0

>  <Rbt.Current_Directory>
/home/itssahil/PROJECTS/Mol_Feturizer/New_Systems/rnas/3E5E

>  <Rbt.Executable>
rbdock ($Id: //depot/dev/client3/rdock/2013.1/src/exe/rbdock.cxx#4 $)

>  <Rbt.Library>
libRbt.so (2013.1, Build901 2013/11/27)

>  <Rbt.Parameter_File>
/export/apps/rDock/src/rDock_2013.1_src/data/scripts/dock_solv.prm

>  <Rbt.Receptor>
prm/pocket_docking_5.prm

>  <SCORE>
-19.0213

>  <SCORE.INTER>
-15.2799

>  <SCORE.INTER.CONST>
1

>  <SCORE.INTER.POLAR>
0

>  <SCORE.INTER.ROT>
7

>  <SCORE.INTER.SOLV>
9.27363

>  <SCORE.INTER.VDW>
-21.5445

>  <SCORE.INTER.norm>
-0.587688

>  <SCORE.INTRA>
-3.7414

>  <SCORE.INTRA.DIHEDRAL>
-6.47401

>  <SCORE.INTRA.DIHEDRAL.0>
10.1225

>  <SCORE.INTRA.POLAR>
0

>  <SCORE.INTRA.POLAR.0>
0

>  <SCORE.INTRA.REPUL>
0

>  <SCORE.INTRA.REPUL.0>
0

>  <SCORE.INTRA.SOLV>
0.090081

>  <SCORE.INTRA.SOLV.lig_0>
-49.9393

>  <SCORE.INTRA.VDW>
-0.549439

>  <SCORE.INTRA.VDW.0>
-1.75437

>  <SCORE.INTRA.norm>
-0.1439

>  <SCORE.RESTR>
0

>  <SCORE.RESTR.CAVITY>
0

>  <SCORE.RESTR.norm>
0

>  <SCORE.SYSTEM>
0

>  <SCORE.SYSTEM.CONST>
0

>  <SCORE.SYSTEM.DIHEDRAL>
0

>  <SCORE.SYSTEM.SOLV>
0

>  <SCORE.SYSTEM.norm>
0

>  <SCORE.heavy>
26

>  <SCORE.norm>
-0.731588

>  <RMSD>
3.711

$$$$
ligand
 OpenBabel11021811473D
libRbt.so/2013.1/901 2013/11/27
 26 28  0  0  0  0  0  0  0  0999 V2000
  -14.3890    7.0870  -20.4453 N   0  0  0  0  0  0  0  0  0  0  0  0
  -14.5802    8.3612  -21.1491 C   0  0  2  0  0  0  0  0  0  0  0  0
  -15.9531    8.9005  -20.8447 C   0  0  0  0  0  0  0  0  0  0  0  0
  -16.9194    8.1797  -20.9319 O   0  0  0  0  0  0  0  0  0  0  0  0
  -14.4421    8.1361  -22.6557 C   0  0  0  0  0  0  0  0  0  0  0  0
  -14.5516    9.4746  -23.3838 C   0  0  0  0  0  0  0  0  0  0  0  0
  -13.3403   10.6526  -23.2126 S   0  0  0  0  0  0  0  0  0  0  0  0
  -11.7888   10.8626  -22.3016 C   0  0  0  0  0  0  0  0  0  0  0  0
  -11.9578   11.1681  -20.8084 C   0  0  1  0  0  0  0  0  0  0  0  0
  -10.9665   12.0548  -20.3225 O   0  0  0  0  0  0  0  0  0  0  0  0
  -13.2448   11.9048  -20.5213 C   0  0  1  0  0  0  0  0  0  0  0  0
  -13.5249   11.6319  -19.1658 O   0  0  0  0  0  0  0  0  0  0  0  0
  -12.8979   13.3703  -20.6443 C   0  0  1  0  0  0  0  0  0  0  0  0
  -13.5439   14.0990  -19.6234 O   0  0  0  0  0  0  0  0  0  0  0  0
  -11.4022   13.3981  -20.4151 C   0  0  2  0  0  0  0  0  0  0  0  0
  -16.1055   10.1837  -20.4784 O   0  0  0  0  0  0  0  0  0  0  0  0
   -7.3916   16.5303  -21.5630 N   0  0  0  0  0  0  0  0  0  0  0  0
   -7.8718   16.1880  -20.3211 C   0  0  0  0  0  0  0  0  0  0  0  0
   -8.9570   15.3511  -20.2217 N   0  0  0  0  0  0  0  0  0  0  0  0
   -9.5526   14.8624  -21.3270 C   0  0  0  0  0  0  0  0  0  0  0  0
   -9.0855   15.1931  -22.5852 C   0  0  0  0  0  0  0  0  0  0  0  0
   -7.9903   16.0416  -22.6969 C   0  0  0  0  0  0  0  0  0  0  0  0
   -7.5117   16.3882  -23.8854 N   0  0  0  0  0  0  0  0  0  0  0  0
   -9.8606   14.5710  -23.5015 N   0  0  0  0  0  0  0  0  0  0  0  0
  -10.7953   13.8558  -22.8458 C   0  0  0  0  0  0  0  0  0  0  0  0
  -10.6268   14.0334  -21.4963 N   0  0  0  0  0  0  0  0  0  0  0  0
  2  1  1  1  0  0  0
  2  3  1  0  0  0  0
  2  5  1  0  0  0  0
  3  4  1  0  0  0  0
  3 16  1  0  0  0  0
  5  6  1  0  0  0  0
  6  7  1  0  0  0  0
  7  8  1  0  0  0  0
  9  8  1  6  0  0  0
  9 10  1  0  0  0  0
  9 11  1  0  0  0  0
 10 15  1  0  0  0  0
 11 12  1  1  0  0  0
 11 13  1  0  0  0  0
 13 14  1  1  0  0  0
 13 15  1  0  0  0  0
 15 26  1  6  0  0  0
 17 18  2  0  0  0  0
 17 22  1  0  0  0  0
 18 19  1  0  0  0  0
 19 20  2  0  0  0  0
 20 21  1  0  0  0  0
 20 26  1  0  0  0  0
 21 22  2  0  0  0  0
 21 24  1  0  0  0  0
 22 23  1  0  0  0  0
 24 25  2  0  0  0  0
 25 26  1  0  0  0  0
M  END
>  <CHROM.1>
-48.08667375,-176.40124371,67.78201426,-1.89058887,-75.47416180,-144.69652991
-101.39168187,-12.06729361,12.24080504,-21.48568221,-2.83665945,0.75448421
1.05041202

>  <Name>
ligand

>  <RI>
0

>  <Rbt.Current_Directory>
/home/itssahil/PROJECTS/Mol_Feturizer/New_Systems/rnas/3E5E

>  <Rbt.Executable>
rbdock ($Id: //depot/dev/client3/rdock/2013.1/src/exe/rbdock.cxx#4 $)

>  <Rbt.Library>
libRbt.so (2013.1, Build901 2013/11/27)

>  <Rbt.Parameter_File>
/export/apps/rDock/src/rDock_2013.1_src/data/scripts/dock_solv.prm

>  <Rbt.Receptor>
prm/pocket_docking_5.prm

>  <SCORE>
-17.1938

>  <SCORE.INTER>
-15.4771

>  <SCORE.INTER.CONST>
1

>  <SCORE.INTER.POLAR>
0

>  <SCORE.INTER.ROT>
7

>  <SCORE.INTER.SOLV>
8.72239

>  <SCORE.INTER.VDW>
-21.4922

>  <SCORE.INTER.norm>
-0.595273

>  <SCORE.INTRA>
-1.71673

>  <SCORE.INTRA.DIHEDRAL>
-1.15127

>  <SCORE.INTRA.DIHEDRAL.0>
10.1225

>  <SCORE.INTRA.POLAR>
0

>  <SCORE.INTRA.POLAR.0>
0

>  <SCORE.INTRA.REPUL>
0

>  <SCORE.INTRA.REPUL.0>
0

>  <SCORE.INTRA.SOLV>
-0.129797

>  <SCORE.INTRA.SOLV.lig_0>
-49.9393

>  <SCORE.INTRA.VDW>
-1.0762

>  <SCORE.INTRA.VDW.0>
-1.75437

>  <SCORE.INTRA.norm>
-0.0660281

>  <SCORE.RESTR>
0

>  <SCORE.RESTR.CAVITY>
0

>  <SCORE.RESTR.norm>
0

>  <SCORE.SYSTEM>
0

>  <SCORE.SYSTEM.CONST>
0

>  <SCORE.SYSTEM.DIHEDRAL>
0

>  <SCORE.SYSTEM.SOLV>
0

>  <SCORE.SYSTEM.norm>
0

>  <SCORE.heavy>
26

>  <SCORE.norm>
-0.661301

>  <RMSD>
3.716

$$$$
ligand
 OpenBabel11021811473D
libRbt.so/2013.1/901 2013/11/27
 26 28  0  0  0  0  0  0  0  0999 V2000
  -14.7357    9.9985  -23.8378 N   0  0  0  0  0  0  0  0  0  0  0  0
  -13.5969    9.4113  -23.1209 C   0  0  2  0  0  0  0  0  0  0  0  0
  -12.8137    8.5318  -24.0596 C   0  0  0  0  0  0  0  0  0  0  0  0
  -11.6249    8.3834  -23.8996 O   0  0  0  0  0  0  0  0  0  0  0  0
  -14.1106    8.5760  -21.9469 C   0  0  0  0  0  0  0  0  0  0  0  0
  -14.7653    9.4933  -20.9157 C   0  0  0  0  0  0  0  0  0  0  0  0
  -13.8204   10.5305  -19.9590 S   0  0  0  0  0  0  0  0  0  0  0  0
  -12.6299   11.8734  -20.2048 C   0  0  0  0  0  0  0  0  0  0  0  0
  -12.9166   12.7717  -21.4141 C   0  0  1  0  0  0  0  0  0  0  0  0
  -12.3644   14.0674  -21.2681 O   0  0  0  0  0  0  0  0  0  0  0  0
  -12.2560   12.2590  -22.6720 C   0  0  1  0  0  0  0  0  0  0  0  0
  -13.0123   12.8078  -23.7290 O   0  0  0  0  0  0  0  0  0  0  0  0
  -10.8879   12.9002  -22.6901 C   0  0  1  0  0  0  0  0  0  0  0  0
  -10.5671   13.2989  -24.0049 O   0  0  0  0  0  0  0  0  0  0  0  0
  -11.0623   14.1257  -21.8194 C   0  0  2  0  0  0  0  0  0  0  0  0
  -13.4349    7.9134  -25.0773 O   0  0  0  0  0  0  0  0  0  0  0  0
   -6.8892   16.5975  -19.8986 N   0  0  0  0  0  0  0  0  0  0  0  0
   -7.4998   16.7847  -21.1161 C   0  0  0  0  0  0  0  0  0  0  0  0
   -8.5916   16.0205  -21.4509 N   0  0  0  0  0  0  0  0  0  0  0  0
   -9.0695   15.0929  -20.5986 C   0  0  0  0  0  0  0  0  0  0  0  0
   -8.4715   14.8891  -19.3693 C   0  0  0  0  0  0  0  0  0  0  0  0
   -7.3644   15.6545  -19.0223 C   0  0  0  0  0  0  0  0  0  0  0  0
   -6.7571   15.4889  -17.8538 N   0  0  0  0  0  0  0  0  0  0  0  0
   -9.1475   13.9106  -18.7266 N   0  0  0  0  0  0  0  0  0  0  0  0
  -10.1558   13.5037  -19.5222 C   0  0  0  0  0  0  0  0  0  0  0  0
  -10.1163   14.2181  -20.6923 N   0  0  0  0  0  0  0  0  0  0  0  0
  2  1  1  6  0  0  0
  2  3  1  0  0  0  0
  2  5  1  0  0  0  0
  3  4  1  0  0  0  0
  3 16  1  0  0  0  0
  5  6  1  0  0  0  0
  6  7  1  0  0  0  0
  7  8  1  0  0  0  0
  9  8  1  1  0  0  0
  9 10  1  0  0  0  0
  9 11  1  0  0  0  0
 10 15  1  0  0  0  0
 11 12  1  6  0  0  0
 11 13  1  0  0  0  0
 13 14  1  6  0  0  0
 13 15  1  0  0  0  0
 15 26  1  1  0  0  0
 17 18  2  0  0  0  0
 17 22  1  0  0  0  0
 18 19  1  0  0  0  0
 19 20  2  0  0  0  0
 20 21  1  0  0  0  0
 20 26  1  0  0  0  0
 21 22  2  0  0  0  0
 21 24  1  0  0  0  0
 22 23  1  0  0  0  0
 24 25  2  0  0  0  0
 25 26  1  0  0  0  0
M  END
>  <CHROM.1>
150.44140385,-66.52071656,-71.46927531,58.04244732,34.62535850,155.02206110
-133.27318863,-11.30875284,12.47839252,-21.49374197,-2.66642841,0.79363138
1.41423279

>  <Name>
ligand

>  <RI>
0

>  <Rbt.Current_Directory>
/home/itssahil/PROJECTS/Mol_Feturizer/New_Systems/rnas/3E5E

>  <Rbt.Executable>
rbdock ($Id: //depot/dev/client3/rdock/2013.1/src/exe/rbdock.cxx#4 $)

>  <Rbt.Library>
libRbt.so (2013.1, Build901 2013/11/27)

>  <Rbt.Parameter_File>
/export/apps/rDock/src/rDock_2013.1_src/data/scripts/dock_solv.prm

>  <Rbt.Receptor>
prm/blind_docking_100.prm

>  <SCORE>
-19.0888

>  <SCORE.INTER>
-16.9349

>  <SCORE.INTER.CONST>
1

>  <SCORE.INTER.POLAR>
0

>  <SCORE.INTER.ROT>
7

>  <SCORE.INTER.SOLV>
22.5067

>  <SCORE.INTER.VDW>
-27.0588

>  <SCORE.INTER.norm>
-0.651341

>  <SCORE.INTRA>
-2.15395

>  <SCORE.INTRA.DIHEDRAL>
-3.88571

>  <SCORE.INTRA.DIHEDRAL.0>
10.1225

>  <SCORE.INTRA.POLAR>
0

>  <SCORE.INTRA.POLAR.0>
0

>  <SCORE.INTRA.REPUL>
0

>  <SCORE.INTRA.REPUL.0>
0

>  <SCORE.INTRA.SOLV>
2.63875

>  <SCORE.INTRA.SOLV.lig_0>
-49.9393

>  <SCORE.INTRA.VDW>
-1.53048

>  <SCORE.INTRA.VDW.0>
-1.75437

>  <SCORE.INTRA.norm>
-0.0828444

>  <SCORE.RESTR>
0

>  <SCORE.RESTR.CAVITY>
0

>  <SCORE.RESTR.norm>
0

>  <SCORE.SYSTEM>
0

>  <SCORE.SYSTEM.CONST>
0

>  <SCORE.SYSTEM.DIHEDRAL>
0

>  <SCORE.SYSTEM.SOLV>
0

>  <SCORE.SYSTEM.norm>
0

>  <SCORE.heavy>
26

>  <SCORE.norm>
-0.734186

>  <RMSD>
3.739

$$$$
ligand
 OpenBabel11021811473D
libRbt.so/2013.1/901 2013/11/27
 26 28  0  0  0  0  0  0  0  0999 V2000
  -15.9171    7.3971  -21.1064 N   0  0  0  0  0  0  0  0  0  0  0  0
  -14.8492    8.3562  -21.4152 C   0  0  2  0  0  0  0  0  0  0  0  0
  -15.0660    9.6191  -20.6239 C   0  0  0  0  0  0  0  0  0  0  0  0
  -14.1191   10.2255  -20.1804 O   0  0  0  0  0  0  0  0  0  0  0  0
  -14.8722    8.6795  -22.9101 C   0  0  0  0  0  0  0  0  0  0  0  0
  -13.5438    9.3158  -23.3150 C   0  0  0  0  0  0  0  0  0  0  0  0
  -13.2435   10.9587  -23.0068 S   0  0  0  0  0  0  0  0  0  0  0  0
  -11.8364   12.0064  -22.5558 C   0  0  0  0  0  0  0  0  0  0  0  0
  -11.2608   11.7415  -21.1593 C   0  0  1  0  0  0  0  0  0  0  0  0
   -9.9519   12.2595  -21.0070 O   0  0  0  0  0  0  0  0  0  0  0  0
  -12.0384   12.4560  -20.0794 C   0  0  1  0  0  0  0  0  0  0  0  0
  -11.7798   11.7244  -18.9011 O   0  0  0  0  0  0  0  0  0  0  0  0
  -11.3797   13.8094  -19.9469 C   0  0  1  0  0  0  0  0  0  0  0  0
  -11.2961   14.1661  -18.5844 O   0  0  0  0  0  0  0  0  0  0  0  0
   -9.9878   13.5781  -20.4943 C   0  0  2  0  0  0  0  0  0  0  0  0
  -16.3120   10.0716  -20.4077 O   0  0  0  0  0  0  0  0  0  0  0  0
   -7.0130   17.6323  -21.8830 N   0  0  0  0  0  0  0  0  0  0  0  0
   -7.1402   17.0605  -20.6392 C   0  0  0  0  0  0  0  0  0  0  0  0
   -7.9923   15.9963  -20.4670 N   0  0  0  0  0  0  0  0  0  0  0  0
   -8.7013   15.5079  -21.5033 C   0  0  0  0  0  0  0  0  0  0  0  0
   -8.5878   16.0672  -22.7622 C   0  0  0  0  0  0  0  0  0  0  0  0
   -7.7311   17.1461  -22.9464 C   0  0  0  0  0  0  0  0  0  0  0  0
   -7.5948   17.7160  -24.1373 N   0  0  0  0  0  0  0  0  0  0  0  0
   -9.4019   15.3891  -23.6016 N   0  0  0  0  0  0  0  0  0  0  0  0
  -10.0155   14.4171  -22.8988 C   0  0  0  0  0  0  0  0  0  0  0  0
   -9.6017   14.4826  -21.5928 N   0  0  0  0  0  0  0  0  0  0  0  0
  2  1  1  6  0  0  0
  2  3  1  0  0  0  0
  2  5  1  0  0  0  0
  3  4  1  0  0  0  0
  3 16  1  0  0  0  0
  5  6  1  0  0  0  0
  6  7  1  0  0  0  0
  7  8  1  0  0  0  0
  9  8  1  6  0  0  0
  9 10  1  0  0  0  0
  9 11  1  0  0  0  0
 10 15  1  0  0  0  0
 11 12  1  1  0  0  0
 11 13  1  0  0  0  0
 13 14  1  1  0  0  0
 13 15  1  0  0  0  0
 15 26  1  6  0  0  0
 17 18  2  0  0  0  0
 17 22  1  0  0  0  0
 18 19  1  0  0  0  0
 19 20  2  0  0  0  0
 20 21  1  0  0  0  0
 20 26  1  0  0  0  0
 21 22  2  0  0  0  0
 21 24  1  0  0  0  0
 22 23  1  0  0  0  0
 24 25  2  0  0  0  0
 25 26  1  0  0  0  0
M  END
>  <CHROM.1>
143.21975477,-162.82727408,-79.67691378,145.04427021,-66.16997542,161.65162170
-133.42962363,-11.38319127,12.80880418,-21.49432554,3.13825653,0.82325062
1.49046914

>  <Name>
ligand

>  <RI>
0

>  <Rbt.Current_Directory>
/home/itssahil/PROJECTS/Mol_Feturizer/New_Systems/rnas/3E5E

>  <Rbt.Executable>
rbdock ($Id: //depot/dev/client3/rdock/2013.1/src/exe/rbdock.cxx#4 $)

>  <Rbt.Library>
libRbt.so (2013.1, Build901 2013/11/27)

>  <Rbt.Parameter_File>
/export/apps/rDock/src/rDock_2013.1_src/data/scripts/dock_solv.prm

>  <Rbt.Receptor>
prm/pocket_docking_4.prm

>  <SCORE>
-17.268

>  <SCORE.INTER>
-14.4819

>  <SCORE.INTER.CONST>
1

>  <SCORE.INTER.POLAR>
0

>  <SCORE.INTER.ROT>
7

>  <SCORE.INTER.SOLV>
7.73128

>  <SCORE.INTER.VDW>
-20.4984

>  <SCORE.INTER.norm>
-0.556996

>  <SCORE.INTRA>
-2.79195

>  <SCORE.INTRA.DIHEDRAL>
-2.24277

>  <SCORE.INTRA.DIHEDRAL.0>
10.1225

>  <SCORE.INTRA.POLAR>
0

>  <SCORE.INTRA.POLAR.0>
0

>  <SCORE.INTRA.REPUL>
0

>  <SCORE.INTRA.REPUL.0>
0

>  <SCORE.INTRA.SOLV>
-0.36592

>  <SCORE.INTRA.SOLV.lig_0>
-49.9393

>  <SCORE.INTRA.VDW>
-1.48761

>  <SCORE.INTRA.VDW.0>
-1.75437

>  <SCORE.INTRA.norm>
-0.107383

>  <SCORE.RESTR>
0.00587749

>  <SCORE.RESTR.CAVITY>
0.00587749

>  <SCORE.RESTR.norm>
0.000226057

>  <SCORE.SYSTEM>
0

>  <SCORE.SYSTEM.CONST>
0

>  <SCORE.SYSTEM.DIHEDRAL>
0

>  <SCORE.SYSTEM.SOLV>
0

>  <SCORE.SYSTEM.norm>
0

>  <SCORE.heavy>
26

>  <SCORE.norm>
-0.664152

>  <RMSD>
3.890

$$$$
ligand
 OpenBabel11021811473D
libRbt.so/2013.1/901 2013/11/27
 26 28  0  0  0  0  0  0  0  0999 V2000
  -16.8234    8.0474  -18.6988 N   0  0  0  0  0  0  0  0  0  0  0  0
  -16.8321    8.6024  -20.0580 C   0  0  2  0  0  0  0  0  0  0  0  0
  -17.7238    7.7641  -20.9357 C   0  0  0  0  0  0  0  0  0  0  0  0
  -18.8999    8.0265  -21.0298 O   0  0  0  0  0  0  0  0  0  0  0  0
  -15.4094    8.5953  -20.6198 C   0  0  0  0  0  0  0  0  0  0  0  0
  -15.3936    9.2934  -21.9785 C   0  0  0  0  0  0  0  0  0  0  0  0
  -13.9256    9.5987  -22.7757 S   0  0  0  0  0  0  0  0  0  0  0  0
  -12.3792   10.4848  -22.4520 C   0  0  0  0  0  0  0  0  0  0  0  0
  -12.1704   10.8980  -20.9900 C   0  0  1  0  0  0  0  0  0  0  0  0
  -10.9999   11.6740  -20.8096 O   0  0  0  0  0  0  0  0  0  0  0  0
  -13.2660   11.8132  -20.4963 C   0  0  1  0  0  0  0  0  0  0  0  0
  -13.2623   11.6605  -19.0938 O   0  0  0  0  0  0  0  0  0  0  0  0
  -12.7898   13.2105  -20.8187 C   0  0  1  0  0  0  0  0  0  0  0  0
  -13.1005   14.0771  -19.7496 O   0  0  0  0  0  0  0  0  0  0  0  0
  -11.2879   13.0550  -20.9222 C   0  0  2  0  0  0  0  0  0  0  0  0
  -17.2137    6.7223  -21.6127 O   0  0  0  0  0  0  0  0  0  0  0  0
   -8.0512   16.4592  -23.1913 N   0  0  0  0  0  0  0  0  0  0  0  0
   -8.3928   16.3702  -21.8626 C   0  0  0  0  0  0  0  0  0  0  0  0
   -9.2809   15.4042  -21.4549 N   0  0  0  0  0  0  0  0  0  0  0  0
   -9.8174   14.5442  -22.3424 C   0  0  0  0  0  0  0  0  0  0  0  0
   -9.4869   14.6154  -23.6827 C   0  0  0  0  0  0  0  0  0  0  0  0
   -8.5921   15.5911  -24.1060 C   0  0  0  0  0  0  0  0  0  0  0  0
   -8.2503   15.6978  -25.3841 N   0  0  0  0  0  0  0  0  0  0  0  0
  -10.1631   13.6453  -24.3376 N   0  0  0  0  0  0  0  0  0  0  0  0
  -10.9020   12.9670  -23.4381 C   0  0  0  0  0  0  0  0  0  0  0  0
  -10.7089   13.5177  -22.1969 N   0  0  0  0  0  0  0  0  0  0  0  0
  2  1  1  1  0  0  0
  2  3  1  0  0  0  0
  2  5  1  0  0  0  0
  3  4  1  0  0  0  0
  3 16  1  0  0  0  0
  5  6  1  0  0  0  0
  6  7  1  0  0  0  0
  7  8  1  0  0  0  0
  9  8  1  6  0  0  0
  9 10  1  0  0  0  0
  9 11  1  0  0  0  0
 10 15  1  0  0  0  0
 11 12  1  1  0  0  0
 11 13  1  0  0  0  0
 13 14  1  1  0  0  0
 13 15  1  0  0  0  0
 15 26  1  6  0  0  0
 17 18  2  0  0  0  0
 17 22  1  0  0  0  0
 18 19  1  0  0  0  0
 19 20  2  0  0  0  0
 20 21  1  0  0  0  0
 20 26  1  0  0  0  0
 21 22  2  0  0  0  0
 21 24  1  0  0  0  0
 22 23  1  0  0  0  0
 24 25  2  0  0  0  0
 25 26  1  0  0  0  0
M  END
>  <CHROM.1>
89.53550494,-174.62290331,173.12338907,-58.21767027,13.56488278,-175.47972017
-124.19731938,-12.67523820,11.80897079,-21.73098395,3.07770742,-0.76473164
-1.97995340

>  <Name>
ligand

>  <RI>
0

>  <Rbt.Current_Directory>
/home/itssahil/PROJECTS/Mol_Feturizer/New_Systems/rnas/3E5E

>  <Rbt.Executable>
rbdock ($Id: //depot/dev/client3/rdock/2013.1/src/exe/rbdock.cxx#4 $)

>  <Rbt.Library>
libRbt.so (2013.1, Build901 2013/11/27)

>  <Rbt.Parameter_File>
/export/apps/rDock/src/rDock_2013.1_src/data/scripts/dock_solv.prm

>  <Rbt.Receptor>
prm/pocket_docking_7.prm

>  <SCORE>
-16.128

>  <SCORE.INTER>
-13.2761

>  <SCORE.INTER.CONST>
1

>  <SCORE.INTER.POLAR>
0

>  <SCORE.INTER.ROT>
7

>  <SCORE.INTER.SOLV>
9.76435

>  <SCORE.INTER.VDW>
-20.3722

>  <SCORE.INTER.norm>
-0.510618

>  <SCORE.INTRA>
-2.85192

>  <SCORE.INTRA.DIHEDRAL>
-4.91701

>  <SCORE.INTRA.DIHEDRAL.0>
10.1225

>  <SCORE.INTRA.POLAR>
0

>  <SCORE.INTRA.POLAR.0>
0

>  <SCORE.INTRA.REPUL>
0

>  <SCORE.INTRA.REPUL.0>
0

>  <SCORE.INTRA.SOLV>
-0.474739

>  <SCORE.INTRA.SOLV.lig_0>
-49.9393

>  <SCORE.INTRA.VDW>
-0.156046

>  <SCORE.INTRA.VDW.0>
-1.75437

>  <SCORE.INTRA.norm>
-0.109689

>  <SCORE.RESTR>
0

>  <SCORE.RESTR.CAVITY>
0

>  <SCORE.RESTR.norm>
0

>  <SCORE.SYSTEM>
0

>  <SCORE.SYSTEM.CONST>
0

>  <SCORE.SYSTEM.DIHEDRAL>
0

>  <SCORE.SYSTEM.SOLV>
0

>  <SCORE.SYSTEM.norm>
0

>  <SCORE.heavy>
26

>  <SCORE.norm>
-0.620308

>  <RMSD>
3.913

$$$$
ligand
 OpenBabel11021811473D
libRbt.so/2013.1/901 2013/11/27
 26 28  0  0  0  0  0  0  0  0999 V2000
  -15.2738    9.9426  -20.9221 N   0  0  0  0  0  0  0  0  0  0  0  0
  -13.9331   10.0729  -21.5060 C   0  0  2  0  0  0  0  0  0  0  0  0
  -13.8271    9.1875  -22.7197 C   0  0  0  0  0  0  0  0  0  0  0  0
  -12.7615    8.7071  -23.0271 O   0  0  0  0  0  0  0  0  0  0  0  0
  -12.8854    9.6526  -20.4738 C   0  0  0  0  0  0  0  0  0  0  0  0
  -12.7883   10.7172  -19.3826 C   0  0  0  0  0  0  0  0  0  0  0  0
  -11.9686   12.1764  -19.6700 S   0  0  0  0  0  0  0  0  0  0  0  0
  -11.9853   13.5083  -20.8975 C   0  0  0  0  0  0  0  0  0  0  0  0
  -12.1882   13.0443  -22.3450 C   0  0  1  0  0  0  0  0  0  0  0  0
  -11.7490   14.0055  -23.2874 O   0  0  0  0  0  0  0  0  0  0  0  0
  -11.3487   11.8331  -22.6764 C   0  0  1  0  0  0  0  0  0  0  0  0
  -12.0104   11.2178  -23.7598 O   0  0  0  0  0  0  0  0  0  0  0  0
  -10.0362   12.3871  -23.1799 C   0  0  1  0  0  0  0  0  0  0  0  0
   -9.5900   11.6258  -24.2809 O   0  0  0  0  0  0  0  0  0  0  0  0
  -10.3979   13.7815  -23.6439 C   0  0  2  0  0  0  0  0  0  0  0  0
  -14.9162    8.9329  -23.4634 O   0  0  0  0  0  0  0  0  0  0  0  0
   -7.4754   18.0107  -24.5308 N   0  0  0  0  0  0  0  0  0  0  0  0
   -8.0544   17.1714  -25.4530 C   0  0  0  0  0  0  0  0  0  0  0  0
   -8.7850   16.0910  -25.0207 N   0  0  0  0  0  0  0  0  0  0  0  0
   -8.9407   15.8479  -23.7047 C   0  0  0  0  0  0  0  0  0  0  0  0
   -8.3680   16.6794  -22.7607 C   0  0  0  0  0  0  0  0  0  0  0  0
   -7.6241   17.7732  -23.1876 C   0  0  0  0  0  0  0  0  0  0  0  0
   -7.0536   18.5950  -22.3153 N   0  0  0  0  0  0  0  0  0  0  0  0
   -8.6804   16.2056  -21.5338 N   0  0  0  0  0  0  0  0  0  0  0  0
   -9.4387   15.1029  -21.6895 C   0  0  0  0  0  0  0  0  0  0  0  0
   -9.6013   14.8593  -23.0293 N   0  0  0  0  0  0  0  0  0  0  0  0
  2  1  1  1  0  0  0
  2  3  1  0  0  0  0
  2  5  1  0  0  0  0
  3  4  1  0  0  0  0
  3 16  1  0  0  0  0
  5  6  1  0  0  0  0
  6  7  1  0  0  0  0
  7  8  1  0  0  0  0
  9  8  1  1  0  0  0
  9 10  1  0  0  0  0
  9 11  1  0  0  0  0
 10 15  1  0  0  0  0
 11 12  1  6  0  0  0
 11 13  1  0  0  0  0
 13 14  1  6  0  0  0
 13 15  1  0  0  0  0
 15 26  1  1  0  0  0
 17 18  2  0  0  0  0
 17 22  1  0  0  0  0
 18 19  1  0  0  0  0
 19 20  2  0  0  0  0
 20 21  1  0  0  0  0
 20 26  1  0  0  0  0
 21 22  2  0  0  0  0
 21 24  1  0  0  0  0
 22 23  1  0  0  0  0
 24 25  2  0  0  0  0
 25 26  1  0  0  0  0
M  END
>  <CHROM.1>
-149.65058573,-71.95227249,-76.48980771,52.70928065,-38.78520851,-159.74842552
-112.66666047,-10.96185487,13.18200962,-22.49467700,3.08512821,-0.93215125
-1.89585725

>  <Name>
ligand

>  <RI>
0

>  <Rbt.Current_Directory>
/home/itssahil/PROJECTS/Mol_Feturizer/New_Systems/rnas/3E5E

>  <Rbt.Executable>
rbdock ($Id: //depot/dev/client3/rdock/2013.1/src/exe/rbdock.cxx#4 $)

>  <Rbt.Library>
libRbt.so (2013.1, Build901 2013/11/27)

>  <Rbt.Parameter_File>
/export/apps/rDock/src/rDock_2013.1_src/data/scripts/dock_solv.prm

>  <Rbt.Receptor>
prm/blind_docking_60.prm

>  <SCORE>
-13.87

>  <SCORE.INTER>
-11.5231

>  <SCORE.INTER.CONST>
1

>  <SCORE.INTER.POLAR>
0

>  <SCORE.INTER.ROT>
7

>  <SCORE.INTER.SOLV>
13.2811

>  <SCORE.INTER.VDW>
-20.3758

>  <SCORE.INTER.norm>
-0.443196

>  <SCORE.INTRA>
-2.34693

>  <SCORE.INTRA.DIHEDRAL>
-3.84501

>  <SCORE.INTRA.DIHEDRAL.0>
10.1225

>  <SCORE.INTRA.POLAR>
0

>  <SCORE.INTRA.POLAR.0>
0

>  <SCORE.INTRA.REPUL>
0

>  <SCORE.INTRA.REPUL.0>
0

>  <SCORE.INTRA.SOLV>
1.18848

>  <SCORE.INTRA.SOLV.lig_0>
-49.9393

>  <SCORE.INTRA.VDW>
-1.01866

>  <SCORE.INTRA.VDW.0>
-1.75437

>  <SCORE.INTRA.norm>
-0.0902664

>  <SCORE.RESTR>
0

>  <SCORE.RESTR.CAVITY>
0

>  <SCORE.RESTR.norm>
0

>  <SCORE.SYSTEM>
0

>  <SCORE.SYSTEM.CONST>
0

>  <SCORE.SYSTEM.DIHEDRAL>
0

>  <SCORE.SYSTEM.SOLV>
0

>  <SCORE.SYSTEM.norm>
0

>  <SCORE.heavy>
26

>  <SCORE.norm>
-0.533462

>  <RMSD>
3.964

$$$$
ligand
 OpenBabel11021811473D
libRbt.so/2013.1/901 2013/11/27
 26 28  0  0  0  0  0  0  0  0999 V2000
  -14.1538    6.9086  -22.3893 N   0  0  0  0  0  0  0  0  0  0  0  0
  -14.0111    8.3189  -22.7717 C   0  0  2  0  0  0  0  0  0  0  0  0
  -15.3022    9.0449  -22.4991 C   0  0  0  0  0  0  0  0  0  0  0  0
  -15.5941   10.0239  -23.1451 O   0  0  0  0  0  0  0  0  0  0  0  0
  -13.6778    8.4110  -24.2617 C   0  0  0  0  0  0  0  0  0  0  0  0
  -12.1955    8.1080  -24.4727 C   0  0  0  0  0  0  0  0  0  0  0  0
  -11.0064    9.1917  -23.9289 S   0  0  0  0  0  0  0  0  0  0  0  0
  -10.8961   10.6222  -22.8233 C   0  0  0  0  0  0  0  0  0  0  0  0
  -11.4067   10.3731  -21.3988 C   0  0  1  0  0  0  0  0  0  0  0  0
  -10.6046   11.0064  -20.4187 O   0  0  0  0  0  0  0  0  0  0  0  0
  -12.7699   10.9816  -21.1694 C   0  0  1  0  0  0  0  0  0  0  0  0
  -13.3214   10.2446  -20.1002 O   0  0  0  0  0  0  0  0  0  0  0  0
  -12.4996   12.3862  -20.6826 C   0  0  1  0  0  0  0  0  0  0  0  0
  -13.3986   12.7110  -19.6448 O   0  0  0  0  0  0  0  0  0  0  0  0
  -11.0951   12.3010  -20.1253 C   0  0  2  0  0  0  0  0  0  0  0  0
  -16.1296    8.6068  -21.5360 O   0  0  0  0  0  0  0  0  0  0  0  0
   -7.5619   15.9999  -19.1012 N   0  0  0  0  0  0  0  0  0  0  0  0
   -8.3413   15.3015  -18.2096 C   0  0  0  0  0  0  0  0  0  0  0  0
   -9.2322   14.3658  -18.6771 N   0  0  0  0  0  0  0  0  0  0  0  0
   -9.3478   14.1253  -19.9977 C   0  0  0  0  0  0  0  0  0  0  0  0
   -8.5733   14.8153  -20.9112 C   0  0  0  0  0  0  0  0  0  0  0  0
   -7.6713   15.7665  -20.4489 C   0  0  0  0  0  0  0  0  0  0  0  0
   -6.9111   16.4548  -21.2915 N   0  0  0  0  0  0  0  0  0  0  0  0
   -8.8919   14.3800  -22.1507 N   0  0  0  0  0  0  0  0  0  0  0  0
   -9.8413   13.4314  -22.0322 C   0  0  0  0  0  0  0  0  0  0  0  0
  -10.1447   13.2680  -20.7047 N   0  0  0  0  0  0  0  0  0  0  0  0
  2  1  1  6  0  0  0
  2  3  1  0  0  0  0
  2  5  1  0  0  0  0
  3  4  1  0  0  0  0
  3 16  1  0  0  0  0
  5  6  1  0  0  0  0
  6  7  1  0  0  0  0
  7  8  1  0  0  0  0
  9  8  1  6  0  0  0
  9 10  1  0  0  0  0
  9 11  1  0  0  0  0
 10 15  1  0  0  0  0
 11 12  1  1  0  0  0
 11 13  1  0  0  0  0
 13 14  1  1  0  0  0
 13 15  1  0  0  0  0
 15 26  1  6  0  0  0
 17 18  2  0  0  0  0
 17 22  1  0  0  0  0
 18 19  1  0  0  0  0
 19 20  2  0  0  0  0
 20 21  1  0  0  0  0
 20 26  1  0  0  0  0
 21 22  2  0  0  0  0
 21 24  1  0  0  0  0
 22 23  1  0  0  0  0
 24 25  2  0  0  0  0
 25 26  1  0  0  0  0
M  END
>  <CHROM.1>
-152.98153074,-78.87967920,-68.99962148,14.28762923,54.93445065,140.79222341
-113.27554538,-11.41423041,11.60316403,-21.47943058,-2.36417791,0.49796921
0.85725997

>  <Name>
ligand

>  <RI>
0

>  <Rbt.Current_Directory>
/home/itssahil/PROJECTS/Mol_Feturizer/New_Systems/rnas/3E5E

>  <Rbt.Executable>
rbdock ($Id: //depot/dev/client3/rdock/2013.1/src/exe/rbdock.cxx#4 $)

>  <Rbt.Library>
libRbt.so (2013.1, Build901 2013/11/27)

>  <Rbt.Parameter_File>
/export/apps/rDock/src/rDock_2013.1_src/data/scripts/dock_solv.prm

>  <Rbt.Receptor>
prm/blind_docking_40.prm

>  <SCORE>
-17.569

>  <SCORE.INTER>
-16.7133

>  <SCORE.INTER.CONST>
1

>  <SCORE.INTER.POLAR>
0

>  <SCORE.INTER.ROT>
7

>  <SCORE.INTER.SOLV>
8.8274

>  <SCORE.INTER.VDW>
-22.3513

>  <SCORE.INTER.norm>
-0.642818

>  <SCORE.INTRA>
-0.855692

>  <SCORE.INTRA.DIHEDRAL>
0.045903

>  <SCORE.INTRA.DIHEDRAL.0>
10.1225

>  <SCORE.INTRA.POLAR>
0

>  <SCORE.INTRA.POLAR.0>
0

>  <SCORE.INTRA.REPUL>
0

>  <SCORE.INTRA.REPUL.0>
0

>  <SCORE.INTRA.SOLV>
0.979955

>  <SCORE.INTRA.SOLV.lig_0>
-49.9393

>  <SCORE.INTRA.VDW>
-1.36862

>  <SCORE.INTRA.VDW.0>
-1.75437

>  <SCORE.INTRA.norm>
-0.0329112

>  <SCORE.RESTR>
0

>  <SCORE.RESTR.CAVITY>
0

>  <SCORE.RESTR.norm>
0

>  <SCORE.SYSTEM>
0

>  <SCORE.SYSTEM.CONST>
0

>  <SCORE.SYSTEM.DIHEDRAL>
0

>  <SCORE.SYSTEM.SOLV>
0

>  <SCORE.SYSTEM.norm>
0

>  <SCORE.heavy>
26

>  <SCORE.norm>
-0.67573

>  <RMSD>
4.049

$$$$
ligand
 OpenBabel11021811473D
libRbt.so/2013.1/901 2013/11/27
 26 28  0  0  0  0  0  0  0  0999 V2000
  -13.9163    6.9765  -24.7102 N   0  0  0  0  0  0  0  0  0  0  0  0
  -14.1317    7.4249  -23.3289 C   0  0  2  0  0  0  0  0  0  0  0  0
  -15.5967    7.3279  -22.9935 C   0  0  0  0  0  0  0  0  0  0  0  0
  -16.0239    7.8510  -21.9910 O   0  0  0  0  0  0  0  0  0  0  0  0
  -13.6700    8.8763  -23.1871 C   0  0  0  0  0  0  0  0  0  0  0  0
  -12.1746    8.9676  -23.4855 C   0  0  0  0  0  0  0  0  0  0  0  0
  -11.3396   10.4314  -23.2747 S   0  0  0  0  0  0  0  0  0  0  0  0
  -10.5421   11.3419  -21.9271 C   0  0  0  0  0  0  0  0  0  0  0  0
  -11.4061   11.5183  -20.6725 C   0  0  1  0  0  0  0  0  0  0  0  0
  -10.8007   12.3666  -19.7141 O   0  0  0  0  0  0  0  0  0  0  0  0
  -12.7094   12.2197  -20.9742 C   0  0  1  0  0  0  0  0  0  0  0  0
  -13.5804   11.8308  -19.9347 O   0  0  0  0  0  0  0  0  0  0  0  0
  -12.4127   13.6925  -20.8131 C   0  0  1  0  0  0  0  0  0  0  0  0
  -13.4949   14.3277  -20.1681 O   0  0  0  0  0  0  0  0  0  0  0  0
  -11.2027   13.7101  -19.9041 C   0  0  2  0  0  0  0  0  0  0  0  0
  -16.4297    6.6578  -23.8065 O   0  0  0  0  0  0  0  0  0  0  0  0
   -6.6836   16.0493  -18.7554 N   0  0  0  0  0  0  0  0  0  0  0  0
   -7.5868   15.4783  -17.8904 C   0  0  0  0  0  0  0  0  0  0  0  0
   -8.7383   14.9167  -18.3871 N   0  0  0  0  0  0  0  0  0  0  0  0
   -8.9893   14.9186  -19.7108 C   0  0  0  0  0  0  0  0  0  0  0  0
   -8.0944   15.4865  -20.5980 C   0  0  0  0  0  0  0  0  0  0  0  0
   -6.9281   16.0602  -20.1056 C   0  0  0  0  0  0  0  0  0  0  0  0
   -6.0435   16.6200  -20.9216 N   0  0  0  0  0  0  0  0  0  0  0  0
   -8.5924   15.3499  -21.8473 N   0  0  0  0  0  0  0  0  0  0  0  0
   -9.7726   14.7056  -21.7615 C   0  0  0  0  0  0  0  0  0  0  0  0
  -10.0404   14.4400  -20.4428 N   0  0  0  0  0  0  0  0  0  0  0  0
  2  1  1  6  0  0  0
  2  3  1  0  0  0  0
  2  5  1  0  0  0  0
  3  4  1  0  0  0  0
  3 16  1  0  0  0  0
  5  6  1  0  0  0  0
  6  7  1  0  0  0  0
  7  8  1  0  0  0  0
  9  8  1  6  0  0  0
  9 10  1  0  0  0  0
  9 11  1  0  0  0  0
 10 15  1  0  0  0  0
 11 12  1  1  0  0  0
 11 13  1  0  0  0  0
 13 14  1  1  0  0  0
 13 15  1  0  0  0  0
 15 26  1  6  0  0  0
 17 18  2  0  0  0  0
 17 22  1  0  0  0  0
 18 19  1  0  0  0  0
 19 20  2  0  0  0  0
 20 21  1  0  0  0  0
 20 26  1  0  0  0  0
 21 22  2  0  0  0  0
 21 24  1  0  0  0  0
 22 23  1  0  0  0  0
 24 25  2  0  0  0  0
 25 26  1  0  0  0  0
M  END
>  <CHROM.1>
-167.75799249,-61.78390775,-174.49442584,83.86870758,-50.55246849,-173.04219899
-80.33443024,-11.31076957,12.10889230,-21.32476830,-2.31658519,0.42231534
0.78478081

>  <Name>
ligand

>  <RI>
0

>  <Rbt.Current_Directory>
/home/itssahil/PROJECTS/Mol_Feturizer/New_Systems/rnas/3E5E

>  <Rbt.Executable>
rbdock ($Id: //depot/dev/client3/rdock/2013.1/src/exe/rbdock.cxx#4 $)

>  <Rbt.Library>
libRbt.so (2013.1, Build901 2013/11/27)

>  <Rbt.Parameter_File>
/export/apps/rDock/src/rDock_2013.1_src/data/scripts/dock_solv.prm

>  <Rbt.Receptor>
prm/pocket_docking_7.prm

>  <SCORE>
-22.2247

>  <SCORE.INTER>
-19.1293

>  <SCORE.INTER.CONST>
1

>  <SCORE.INTER.POLAR>
0

>  <SCORE.INTER.ROT>
7

>  <SCORE.INTER.SOLV>
13.4015

>  <SCORE.INTER.VDW>
-25.4867

>  <SCORE.INTER.norm>
-0.73574

>  <SCORE.INTRA>
-3.09543

>  <SCORE.INTRA.DIHEDRAL>
-6.26995

>  <SCORE.INTRA.DIHEDRAL.0>
10.1225

>  <SCORE.INTRA.POLAR>
0

>  <SCORE.INTRA.POLAR.0>
0

>  <SCORE.INTRA.REPUL>
0

>  <SCORE.INTRA.REPUL.0>
0

>  <SCORE.INTRA.SOLV>
0.263922

>  <SCORE.INTRA.SOLV.lig_0>
-49.9393

>  <SCORE.INTRA.VDW>
-0.0924185

>  <SCORE.INTRA.VDW.0>
-1.75437

>  <SCORE.INTRA.norm>
-0.119055

>  <SCORE.RESTR>
0

>  <SCORE.RESTR.CAVITY>
0

>  <SCORE.RESTR.norm>
0

>  <SCORE.SYSTEM>
0

>  <SCORE.SYSTEM.CONST>
0

>  <SCORE.SYSTEM.DIHEDRAL>
0

>  <SCORE.SYSTEM.SOLV>
0

>  <SCORE.SYSTEM.norm>
0

>  <SCORE.heavy>
26

>  <SCORE.norm>
-0.854795

>  <RMSD>
4.104

$$$$
ligand
 OpenBabel11021811473D
libRbt.so/2013.1/901 2013/11/27
 26 28  0  0  0  0  0  0  0  0999 V2000
  -14.9438    7.7103  -21.8482 N   0  0  0  0  0  0  0  0  0  0  0  0
  -14.8773    8.0420  -23.2769 C   0  0  2  0  0  0  0  0  0  0  0  0
  -14.2528    6.8960  -24.0286 C   0  0  0  0  0  0  0  0  0  0  0  0
  -14.4196    6.7920  -25.2212 O   0  0  0  0  0  0  0  0  0  0  0  0
  -14.0297    9.3009  -23.4682 C   0  0  0  0  0  0  0  0  0  0  0  0
  -12.5758    8.9962  -23.1122 C   0  0  0  0  0  0  0  0  0  0  0  0
  -11.4394   10.2506  -22.9735 S   0  0  0  0  0  0  0  0  0  0  0  0
  -10.5716   11.1383  -21.6544 C   0  0  0  0  0  0  0  0  0  0  0  0
  -11.3890   11.3427  -20.3731 C   0  0  1  0  0  0  0  0  0  0  0  0
  -10.7683   12.2431  -19.4737 O   0  0  0  0  0  0  0  0  0  0  0  0
  -12.7214   11.9990  -20.6478 C   0  0  1  0  0  0  0  0  0  0  0  0
  -13.5394   11.6300  -19.5591 O   0  0  0  0  0  0  0  0  0  0  0  0
  -12.4576   13.4839  -20.5559 C   0  0  1  0  0  0  0  0  0  0  0  0
  -13.5295   14.1170  -19.8919 O   0  0  0  0  0  0  0  0  0  0  0  0
  -11.2130   13.5676  -19.6988 C   0  0  2  0  0  0  0  0  0  0  0  0
  -13.5119    5.9867  -23.3741 O   0  0  0  0  0  0  0  0  0  0  0  0
   -6.6909   16.0203  -18.8339 N   0  0  0  0  0  0  0  0  0  0  0  0
   -7.5395   15.4560  -17.9112 C   0  0  0  0  0  0  0  0  0  0  0  0
   -8.7024   14.8600  -18.3361 N   0  0  0  0  0  0  0  0  0  0  0  0
   -9.0173   14.8218  -19.6455 C   0  0  0  0  0  0  0  0  0  0  0  0
   -8.1779   15.3822  -20.5900 C   0  0  0  0  0  0  0  0  0  0  0  0
   -7.0007   15.9905  -20.1703 C   0  0  0  0  0  0  0  0  0  0  0  0
   -6.1681   16.5445  -21.0430 N   0  0  0  0  0  0  0  0  0  0  0  0
   -8.7332   15.2030  -21.8094 N   0  0  0  0  0  0  0  0  0  0  0  0
   -9.8948   14.5394  -21.6492 C   0  0  0  0  0  0  0  0  0  0  0  0
  -10.0930   14.3043  -20.3126 N   0  0  0  0  0  0  0  0  0  0  0  0
  2  1  1  1  0  0  0
  2  3  1  0  0  0  0
  2  5  1  0  0  0  0
  3  4  1  0  0  0  0
  3 16  1  0  0  0  0
  5  6  1  0  0  0  0
  6  7  1  0  0  0  0
  7  8  1  0  0  0  0
  9  8  1  6  0  0  0
  9 10  1  0  0  0  0
  9 11  1  0  0  0  0
 10 15  1  0  0  0  0
 11 12  1  1  0  0  0
 11 13  1  0  0  0  0
 13 14  1  1  0  0  0
 13 15  1  0  0  0  0
 15 26  1  6  0  0  0
 17 18  2  0  0  0  0
 17 22  1  0  0  0  0
 18 19  1  0  0  0  0
 19 20  2  0  0  0  0
 20 21  1  0  0  0  0
 20 26  1  0  0  0  0
 21 22  2  0  0  0  0
 21 24  1  0  0  0  0
 22 23  1  0  0  0  0
 24 25  2  0  0  0  0
 25 26  1  0  0  0  0
M  END
>  <CHROM.1>
160.16560348,67.52196390,-169.73248876,105.11938525,-34.71933239,-169.15359169
-79.38908499,-11.19644229,11.98402127,-21.24949337,2.25618221,-0.46214890
-2.34700828

>  <Name>
ligand

>  <RI>
0

>  <Rbt.Current_Directory>
/home/itssahil/PROJECTS/Mol_Feturizer/New_Systems/rnas/3E5E

>  <Rbt.Executable>
rbdock ($Id: //depot/dev/client3/rdock/2013.1/src/exe/rbdock.cxx#4 $)

>  <Rbt.Library>
libRbt.so (2013.1, Build901 2013/11/27)

>  <Rbt.Parameter_File>
/export/apps/rDock/src/rDock_2013.1_src/data/scripts/dock_solv.prm

>  <Rbt.Receptor>
prm/blind_docking_100.prm

>  <SCORE>
-21.2257

>  <SCORE.INTER>
-19.7831

>  <SCORE.INTER.CONST>
1

>  <SCORE.INTER.POLAR>
0

>  <SCORE.INTER.ROT>
7

>  <SCORE.INTER.SOLV>
12.1947

>  <SCORE.INTER.VDW>
-25.5203

>  <SCORE.INTER.norm>
-0.760888

>  <SCORE.INTRA>
-1.45967

>  <SCORE.INTRA.DIHEDRAL>
-3.53543

>  <SCORE.INTRA.DIHEDRAL.0>
10.1225

>  <SCORE.INTRA.POLAR>
0

>  <SCORE.INTRA.POLAR.0>
0

>  <SCORE.INTRA.REPUL>
0

>  <SCORE.INTRA.REPUL.0>
0

>  <SCORE.INTRA.SOLV>
0.26177

>  <SCORE.INTRA.SOLV.lig_0>
-49.9393

>  <SCORE.INTRA.VDW>
0.177158

>  <SCORE.INTRA.VDW.0>
-1.75437

>  <SCORE.INTRA.norm>
-0.0561412

>  <SCORE.RESTR>
0.0170395

>  <SCORE.RESTR.CAVITY>
0.0170395

>  <SCORE.RESTR.norm>
0.000655363

>  <SCORE.SYSTEM>
0

>  <SCORE.SYSTEM.CONST>
0

>  <SCORE.SYSTEM.DIHEDRAL>
0

>  <SCORE.SYSTEM.SOLV>
0

>  <SCORE.SYSTEM.norm>
0

>  <SCORE.heavy>
26

>  <SCORE.norm>
-0.816374

>  <RMSD>
4.281

$$$$
ligand
 OpenBabel11021811473D
libRbt.so/2013.1/901 2013/11/27
 26 28  0  0  0  0  0  0  0  0999 V2000
  -14.9804    6.5555  -21.9372 N   0  0  0  0  0  0  0  0  0  0  0  0
  -14.8698    8.0174  -22.0155 C   0  0  2  0  0  0  0  0  0  0  0  0
  -16.0533    8.6468  -21.3289 C   0  0  0  0  0  0  0  0  0  0  0  0
  -17.0961    8.0415  -21.2441 O   0  0  0  0  0  0  0  0  0  0  0  0
  -14.8420    8.4478  -23.4831 C   0  0  0  0  0  0  0  0  0  0  0  0
  -14.5962    9.9530  -23.5689 C   0  0  0  0  0  0  0  0  0  0  0  0
  -13.1865   10.6367  -22.9135 S   0  0  0  0  0  0  0  0  0  0  0  0
  -12.7164   12.1252  -21.9945 C   0  0  0  0  0  0  0  0  0  0  0  0
  -11.8276   11.8700  -20.7712 C   0  0  1  0  0  0  0  0  0  0  0  0
  -10.4557   11.7786  -21.1093 O   0  0  0  0  0  0  0  0  0  0  0  0
  -11.8622   13.0211  -19.7938 C   0  0  1  0  0  0  0  0  0  0  0  0
  -11.4931   12.4567  -18.5546 O   0  0  0  0  0  0  0  0  0  0  0  0
  -10.7553   13.9495  -20.2363 C   0  0  1  0  0  0  0  0  0  0  0  0
  -10.0774   14.4536  -19.1063 O   0  0  0  0  0  0  0  0  0  0  0  0
   -9.8285   13.0440  -21.0184 C   0  0  2  0  0  0  0  0  0  0  0  0
  -15.9522    9.8825  -20.8124 O   0  0  0  0  0  0  0  0  0  0  0  0
   -8.5445   17.0919  -24.0481 N   0  0  0  0  0  0  0  0  0  0  0  0
   -8.7807   17.0877  -22.6938 C   0  0  0  0  0  0  0  0  0  0  0  0
   -9.1228   15.9124  -22.0696 N   0  0  0  0  0  0  0  0  0  0  0  0
   -9.2269   14.7663  -22.7702 C   0  0  0  0  0  0  0  0  0  0  0  0
   -8.9929   14.7480  -24.1323 C   0  0  0  0  0  0  0  0  0  0  0  0
   -8.6495   15.9322  -24.7739 C   0  0  0  0  0  0  0  0  0  0  0  0
   -8.4201   15.9606  -26.0809 N   0  0  0  0  0  0  0  0  0  0  0  0
   -9.1664   13.4825  -24.5747 N   0  0  0  0  0  0  0  0  0  0  0  0
   -9.4968   12.7102  -23.5213 C   0  0  0  0  0  0  0  0  0  0  0  0
   -9.5501   13.4916  -22.3953 N   0  0  0  0  0  0  0  0  0  0  0  0
  2  1  1  6  0  0  0
  2  3  1  0  0  0  0
  2  5  1  0  0  0  0
  3  4  1  0  0  0  0
  3 16  1  0  0  0  0
  5  6  1  0  0  0  0
  6  7  1  0  0  0  0
  7  8  1  0  0  0  0
  9  8  1  6  0  0  0
  9 10  1  0  0  0  0
  9 11  1  0  0  0  0
 10 15  1  0  0  0  0
 11 12  1  1  0  0  0
 11 13  1  0  0  0  0
 13 14  1  1  0  0  0
 13 15  1  0  0  0  0
 15 26  1  6  0  0  0
 17 18  2  0  0  0  0
 17 22  1  0  0  0  0
 18 19  1  0  0  0  0
 19 20  2  0  0  0  0
 20 21  1  0  0  0  0
 20 26  1  0  0  0  0
 21 22  2  0  0  0  0
 21 24  1  0  0  0  0
 22 23  1  0  0  0  0
 24 25  2  0  0  0  0
 25 26  1  0  0  0  0
M  END
>  <CHROM.1>
-25.97679127,-174.75743815,59.50302264,-140.53291858,132.51843332,84.36200230
164.70748599,-11.71648759,12.30336126,-22.15788598,3.08264672,0.82609934
1.44769302

>  <Name>
ligand

>  <RI>
0

>  <Rbt.Current_Directory>
/home/itssahil/PROJECTS/Mol_Feturizer/New_Systems/rnas/3E5E

>  <Rbt.Executable>
rbdock ($Id: //depot/dev/client3/rdock/2013.1/src/exe/rbdock.cxx#4 $)

>  <Rbt.Library>
libRbt.so (2013.1, Build901 2013/11/27)

>  <Rbt.Parameter_File>
/export/apps/rDock/src/rDock_2013.1_src/data/scripts/dock_solv.prm

>  <Rbt.Receptor>
prm/pocket_docking_6.prm

>  <SCORE>
-14.5543

>  <SCORE.INTER>
-12.9923

>  <SCORE.INTER.CONST>
1

>  <SCORE.INTER.POLAR>
0

>  <SCORE.INTER.ROT>
7

>  <SCORE.INTER.SOLV>
10.1621

>  <SCORE.INTER.VDW>
-20.3156

>  <SCORE.INTER.norm>
-0.499705

>  <SCORE.INTRA>
-1.562

>  <SCORE.INTRA.DIHEDRAL>
-1.63082

>  <SCORE.INTRA.DIHEDRAL.0>
10.1225

>  <SCORE.INTRA.POLAR>
0

>  <SCORE.INTRA.POLAR.0>
0

>  <SCORE.INTRA.REPUL>
0

>  <SCORE.INTRA.REPUL.0>
0

>  <SCORE.INTRA.SOLV>
-0.456826

>  <SCORE.INTRA.SOLV.lig_0>
-49.9393

>  <SCORE.INTRA.VDW>
-0.51818

>  <SCORE.INTRA.VDW.0>
-1.75437

>  <SCORE.INTRA.norm>
-0.060077

>  <SCORE.RESTR>
0

>  <SCORE.RESTR.CAVITY>
0

>  <SCORE.RESTR.norm>
0

>  <SCORE.SYSTEM>
0

>  <SCORE.SYSTEM.CONST>
0

>  <SCORE.SYSTEM.DIHEDRAL>
0

>  <SCORE.SYSTEM.SOLV>
0

>  <SCORE.SYSTEM.norm>
0

>  <SCORE.heavy>
26

>  <SCORE.norm>
-0.559782

>  <RMSD>
4.377

$$$$
ligand
 OpenBabel11021811473D
libRbt.so/2013.1/901 2013/11/27
 26 28  0  0  0  0  0  0  0  0999 V2000
  -13.4214    6.4217  -23.3081 N   0  0  0  0  0  0  0  0  0  0  0  0
  -13.4906    7.8642  -23.5724 C   0  0  2  0  0  0  0  0  0  0  0  0
  -14.8262    8.1980  -24.1830 C   0  0  0  0  0  0  0  0  0  0  0  0
  -15.6097    7.3155  -24.4443 O   0  0  0  0  0  0  0  0  0  0  0  0
  -12.3734    8.2585  -24.5399 C   0  0  0  0  0  0  0  0  0  0  0  0
  -11.2141    8.8731  -23.7577 C   0  0  0  0  0  0  0  0  0  0  0  0
  -11.4383   10.2943  -22.8555 S   0  0  0  0  0  0  0  0  0  0  0  0
  -10.5522   11.2340  -21.5854 C   0  0  0  0  0  0  0  0  0  0  0  0
  -11.3470   11.4790  -20.2970 C   0  0  1  0  0  0  0  0  0  0  0  0
  -10.6926   12.3787  -19.4211 O   0  0  0  0  0  0  0  0  0  0  0  0
  -12.6668   12.1630  -20.5651 C   0  0  1  0  0  0  0  0  0  0  0  0
  -13.4786   11.8318  -19.4598 O   0  0  0  0  0  0  0  0  0  0  0  0
  -12.3660   13.6424  -20.5015 C   0  0  1  0  0  0  0  0  0  0  0  0
  -13.4133   14.3121  -19.8341 O   0  0  0  0  0  0  0  0  0  0  0  0
  -11.1084   13.7098  -19.6623 C   0  0  2  0  0  0  0  0  0  0  0  0
  -15.1471    9.4766  -24.4405 O   0  0  0  0  0  0  0  0  0  0  0  0
   -6.5161   16.0637  -18.8982 N   0  0  0  0  0  0  0  0  0  0  0  0
   -7.3653   15.5350  -17.9551 C   0  0  0  0  0  0  0  0  0  0  0  0
   -8.5482   14.9612  -18.3547 N   0  0  0  0  0  0  0  0  0  0  0  0
   -8.8821   14.9102  -19.6589 C   0  0  0  0  0  0  0  0  0  0  0  0
   -8.0425   15.4348  -20.6235 C   0  0  0  0  0  0  0  0  0  0  0  0
   -6.8451   16.0205  -20.2296 C   0  0  0  0  0  0  0  0  0  0  0  0
   -6.0115   16.5400  -21.1222 N   0  0  0  0  0  0  0  0  0  0  0  0
   -8.6189   15.2501  -21.8322 N   0  0  0  0  0  0  0  0  0  0  0  0
   -9.7940   14.6180  -21.6457 C   0  0  0  0  0  0  0  0  0  0  0  0
   -9.9793   14.4089  -20.3029 N   0  0  0  0  0  0  0  0  0  0  0  0
  2  1  1  6  0  0  0
  2  3  1  0  0  0  0
  2  5  1  0  0  0  0
  3  4  1  0  0  0  0
  3 16  1  0  0  0  0
  5  6  1  0  0  0  0
  6  7  1  0  0  0  0
  7  8  1  0  0  0  0
  9  8  1  6  0  0  0
  9 10  1  0  0  0  0
  9 11  1  0  0  0  0
 10 15  1  0  0  0  0
 11 12  1  1  0  0  0
 11 13  1  0  0  0  0
 13 14  1  1  0  0  0
 13 15  1  0  0  0  0
 15 26  1  6  0  0  0
 17 18  2  0  0  0  0
 17 22  1  0  0  0  0
 18 19  1  0  0  0  0
 19 20  2  0  0  0  0
 20 21  1  0  0  0  0
 20 26  1  0  0  0  0
 21 22  2  0  0  0  0
 21 24  1  0  0  0  0
 22 23  1  0  0  0  0
 24 25  2  0  0  0  0
 25 26  1  0  0  0  0
M  END
>  <CHROM.1>
-3.95352831,-100.12301733,-61.54976135,166.65215415,-123.71989834,-171.24941568
-79.34531958,-11.04670885,12.17119502,-21.37665998,-2.23477103,0.35802754
0.77765306

>  <Name>
ligand

>  <RI>
0

>  <Rbt.Current_Directory>
/home/itssahil/PROJECTS/Mol_Feturizer/New_Systems/rnas/3E5E

>  <Rbt.Executable>
rbdock ($Id: //depot/dev/client3/rdock/2013.1/src/exe/rbdock.cxx#4 $)

>  <Rbt.Library>
libRbt.so (2013.1, Build901 2013/11/27)

>  <Rbt.Parameter_File>
/export/apps/rDock/src/rDock_2013.1_src/data/scripts/dock_solv.prm

>  <Rbt.Receptor>
prm/pocket_docking_7.prm

>  <SCORE>
-22.2093

>  <SCORE.INTER>
-21.6215

>  <SCORE.INTER.CONST>
1

>  <SCORE.INTER.POLAR>
0

>  <SCORE.INTER.ROT>
7

>  <SCORE.INTER.SOLV>
12.7504

>  <SCORE.INTER.VDW>
-26.9311

>  <SCORE.INTER.norm>
-0.831596

>  <SCORE.INTRA>
-0.587785

>  <SCORE.INTRA.DIHEDRAL>
-0.164045

>  <SCORE.INTRA.DIHEDRAL.0>
10.1225

>  <SCORE.INTRA.POLAR>
0

>  <SCORE.INTRA.POLAR.0>
0

>  <SCORE.INTRA.REPUL>
0

>  <SCORE.INTRA.REPUL.0>
0

>  <SCORE.INTRA.SOLV>
0.0347404

>  <SCORE.INTRA.SOLV.lig_0>
-49.9393

>  <SCORE.INTRA.VDW>
-0.523133

>  <SCORE.INTRA.VDW.0>
-1.75437

>  <SCORE.INTRA.norm>
-0.0226071

>  <SCORE.RESTR>
0

>  <SCORE.RESTR.CAVITY>
0

>  <SCORE.RESTR.norm>
0

>  <SCORE.SYSTEM>
0

>  <SCORE.SYSTEM.CONST>
0

>  <SCORE.SYSTEM.DIHEDRAL>
0

>  <SCORE.SYSTEM.SOLV>
0

>  <SCORE.SYSTEM.norm>
0

>  <SCORE.heavy>
26

>  <SCORE.norm>
-0.854203

>  <RMSD>
4.473

$$$$
ligand
 OpenBabel11021811473D
libRbt.so/2013.1/901 2013/11/27
 26 28  0  0  0  0  0  0  0  0999 V2000
  -14.8731    7.4164  -21.3571 N   0  0  0  0  0  0  0  0  0  0  0  0
  -14.5254    8.8427  -21.3460 C   0  0  2  0  0  0  0  0  0  0  0  0
  -15.3041    9.5397  -20.2616 C   0  0  0  0  0  0  0  0  0  0  0  0
  -16.5047    9.6461  -20.3516 O   0  0  0  0  0  0  0  0  0  0  0  0
  -14.8711    9.4614  -22.7016 C   0  0  0  0  0  0  0  0  0  0  0  0
  -13.8800    8.9695  -23.7548 C   0  0  0  0  0  0  0  0  0  0  0  0
  -12.2114    9.2100  -23.5496 S   0  0  0  0  0  0  0  0  0  0  0  0
  -11.1006   10.5359  -23.0119 C   0  0  0  0  0  0  0  0  0  0  0  0
  -11.4628   11.1688  -21.6628 C   0  0  1  0  0  0  0  0  0  0  0  0
  -10.4915   12.1016  -21.2252 O   0  0  0  0  0  0  0  0  0  0  0  0
  -12.7214   11.9998  -21.7447 C   0  0  1  0  0  0  0  0  0  0  0  0
  -13.2149   12.0428  -20.4237 O   0  0  0  0  0  0  0  0  0  0  0  0
  -12.2557   13.3877  -22.1185 C   0  0  1  0  0  0  0  0  0  0  0  0
  -12.9894   14.3476  -21.3898 O   0  0  0  0  0  0  0  0  0  0  0  0
  -10.8113   13.4074  -21.6673 C   0  0  2  0  0  0  0  0  0  0  0  0
  -14.6650   10.0462  -19.1944 O   0  0  0  0  0  0  0  0  0  0  0  0
   -6.6119   11.8510  -24.3426 N   0  0  0  0  0  0  0  0  0  0  0  0
   -7.2480   11.2029  -23.3103 C   0  0  0  0  0  0  0  0  0  0  0  0
   -8.3427   11.7846  -22.7176 N   0  0  0  0  0  0  0  0  0  0  0  0
   -8.7987   12.9804  -23.1386 C   0  0  0  0  0  0  0  0  0  0  0  0
   -8.1748   13.6487  -24.1752 C   0  0  0  0  0  0  0  0  0  0  0  0
   -7.0646   13.0704  -24.7794 C   0  0  0  0  0  0  0  0  0  0  0  0
   -6.4329   13.6793  -25.7753 N   0  0  0  0  0  0  0  0  0  0  0  0
   -8.8329   14.8104  -24.3869 N   0  0  0  0  0  0  0  0  0  0  0  0
   -9.8552   14.8800  -23.5122 C   0  0  0  0  0  0  0  0  0  0  0  0
   -9.8430   13.7589  -22.7222 N   0  0  0  0  0  0  0  0  0  0  0  0
  2  1  1  6  0  0  0
  2  3  1  0  0  0  0
  2  5  1  0  0  0  0
  3  4  1  0  0  0  0
  3 16  1  0  0  0  0
  5  6  1  0  0  0  0
  6  7  1  0  0  0  0
  7  8  1  0  0  0  0
  9  8  1  6  0  0  0
  9 10  1  0  0  0  0
  9 11  1  0  0  0  0
 10 15  1  0  0  0  0
 11 12  1  1  0  0  0
 11 13  1  0  0  0  0
 13 14  1  1  0  0  0
 13 15  1  0  0  0  0
 15 26  1  6  0  0  0
 17 18  2  0  0  0  0
 17 22  1  0  0  0  0
 18 19  1  0  0  0  0
 19 20  2  0  0  0  0
 20 21  1  0  0  0  0
 20 26  1  0  0  0  0
 21 22  2  0  0  0  0
 21 24  1  0  0  0  0
 22 23  1  0  0  0  0
 24 25  2  0  0  0  0
 25 26  1  0  0  0  0
M  END
>  <CHROM.1>
-67.16466151,-71.94121823,-57.01726945,-43.32606484,51.64843855,174.00241675
-2.77761101,-11.42438419,11.53489604,-22.47201022,-2.83319117,0.53453108
0.35757952

>  <Name>
ligand

>  <RI>
0

>  <Rbt.Current_Directory>
/home/itssahil/PROJECTS/Mol_Feturizer/New_Systems/rnas/3E5E

>  <Rbt.Executable>
rbdock ($Id: //depot/dev/client3/rdock/2013.1/src/exe/rbdock.cxx#4 $)

>  <Rbt.Library>
libRbt.so (2013.1, Build901 2013/11/27)

>  <Rbt.Parameter_File>
/export/apps/rDock/src/rDock_2013.1_src/data/scripts/dock_solv.prm

>  <Rbt.Receptor>
prm/blind_docking_40.prm

>  <SCORE>
-16.3192

>  <SCORE.INTER>
-12.2381

>  <SCORE.INTER.CONST>
1

>  <SCORE.INTER.POLAR>
0

>  <SCORE.INTER.ROT>
7

>  <SCORE.INTER.SOLV>
5.95133

>  <SCORE.INTER.VDW>
-18.4092

>  <SCORE.INTER.norm>
-0.470697

>  <SCORE.INTRA>
-4.08108

>  <SCORE.INTRA.DIHEDRAL>
-6.15539

>  <SCORE.INTRA.DIHEDRAL.0>
10.1225

>  <SCORE.INTRA.POLAR>
0

>  <SCORE.INTRA.POLAR.0>
0

>  <SCORE.INTRA.REPUL>
0

>  <SCORE.INTRA.REPUL.0>
0

>  <SCORE.INTRA.SOLV>
1.20961

>  <SCORE.INTRA.SOLV.lig_0>
-49.9393

>  <SCORE.INTRA.VDW>
-1.60819

>  <SCORE.INTRA.VDW.0>
-1.75437

>  <SCORE.INTRA.norm>
-0.156965

>  <SCORE.RESTR>
0

>  <SCORE.RESTR.CAVITY>
0

>  <SCORE.RESTR.norm>
0

>  <SCORE.SYSTEM>
0

>  <SCORE.SYSTEM.CONST>
0

>  <SCORE.SYSTEM.DIHEDRAL>
0

>  <SCORE.SYSTEM.SOLV>
0

>  <SCORE.SYSTEM.norm>
0

>  <SCORE.heavy>
26

>  <SCORE.norm>
-0.627662

>  <RMSD>
4.477

$$$$
ligand
 OpenBabel11021811473D
libRbt.so/2013.1/901 2013/11/27
 26 28  0  0  0  0  0  0  0  0999 V2000
  -13.9674    8.1809  -21.5658 N   0  0  0  0  0  0  0  0  0  0  0  0
  -14.0564    9.2832  -20.6001 C   0  0  2  0  0  0  0  0  0  0  0  0
  -15.5039    9.5701  -20.2995 C   0  0  0  0  0  0  0  0  0  0  0  0
  -15.8892    9.6034  -19.1543 O   0  0  0  0  0  0  0  0  0  0  0  0
  -13.4000   10.5320  -21.1913 C   0  0  0  0  0  0  0  0  0  0  0  0
  -13.3739   11.6407  -20.1408 C   0  0  0  0  0  0  0  0  0  0  0  0
  -12.7411   13.1714  -20.5160 S   0  0  0  0  0  0  0  0  0  0  0  0
  -11.1764   13.8727  -21.0999 C   0  0  0  0  0  0  0  0  0  0  0  0
   -9.9414   13.4400  -20.3004 C   0  0  1  0  0  0  0  0  0  0  0  0
   -8.7318   13.7145  -20.9836 O   0  0  0  0  0  0  0  0  0  0  0  0
   -9.7931   14.2218  -19.0166 C   0  0  1  0  0  0  0  0  0  0  0  0
   -9.0164   13.3965  -18.1763 O   0  0  0  0  0  0  0  0  0  0  0  0
   -8.9655   15.4317  -19.3832 C   0  0  1  0  0  0  0  0  0  0  0  0
   -8.0324   15.6975  -18.3588 O   0  0  0  0  0  0  0  0  0  0  0  0
   -8.2324   14.9910  -20.6317 C   0  0  2  0  0  0  0  0  0  0  0  0
  -16.3692    9.7868  -21.3037 O   0  0  0  0  0  0  0  0  0  0  0  0
   -6.8123   19.4494  -22.9381 N   0  0  0  0  0  0  0  0  0  0  0  0
   -6.4067   18.9583  -21.7197 C   0  0  0  0  0  0  0  0  0  0  0  0
   -6.9069   17.7593  -21.2724 N   0  0  0  0  0  0  0  0  0  0  0  0
   -7.7874   17.0609  -22.0154 C   0  0  0  0  0  0  0  0  0  0  0  0
   -8.2077   17.5359  -23.2435 C   0  0  0  0  0  0  0  0  0  0  0  0
   -7.7104   18.7495  -23.7038 C   0  0  0  0  0  0  0  0  0  0  0  0
   -8.0902   19.2444  -24.8753 N   0  0  0  0  0  0  0  0  0  0  0  0
   -9.0811   16.6458  -23.7654 N   0  0  0  0  0  0  0  0  0  0  0  0
   -9.2109   15.6248  -22.8960 C   0  0  0  0  0  0  0  0  0  0  0  0
   -8.4245   15.8704  -21.7995 N   0  0  0  0  0  0  0  0  0  0  0  0
  2  1  1  6  0  0  0
  2  3  1  0  0  0  0
  2  5  1  0  0  0  0
  3  4  1  0  0  0  0
  3 16  1  0  0  0  0
  5  6  1  0  0  0  0
  6  7  1  0  0  0  0
  7  8  1  0  0  0  0
  9  8  1  6  0  0  0
  9 10  1  0  0  0  0
  9 11  1  0  0  0  0
 10 15  1  0  0  0  0
 11 12  1  1  0  0  0
 11 13  1  0  0  0  0
 13 14  1  1  0  0  0
 13 15  1  0  0  0  0
 15 26  1  6  0  0  0
 17 18  2  0  0  0  0
 17 22  1  0  0  0  0
 18 19  1  0  0  0  0
 19 20  2  0  0  0  0
 20 21  1  0  0  0  0
 20 26  1  0  0  0  0
 21 22  2  0  0  0  0
 21 24  1  0  0  0  0
 22 23  1  0  0  0  0
 24 25  2  0  0  0  0
 25 26  1  0  0  0  0
M  END
>  <CHROM.1>
127.46984417,-174.71711663,-178.30686441,-58.29905085,-51.39577253,164.44279996
-162.09294817,-10.49199586,14.20555297,-21.09559980,2.58724290,0.68495440
2.10570014

>  <Name>
ligand

>  <RI>
0

>  <Rbt.Current_Directory>
/home/itssahil/PROJECTS/Mol_Feturizer/New_Systems/rnas/3E5E

>  <Rbt.Executable>
rbdock ($Id: //depot/dev/client3/rdock/2013.1/src/exe/rbdock.cxx#4 $)

>  <Rbt.Library>
libRbt.so (2013.1, Build901 2013/11/27)

>  <Rbt.Parameter_File>
/export/apps/rDock/src/rDock_2013.1_src/data/scripts/dock_solv.prm

>  <Rbt.Receptor>
prm/blind_docking_80.prm

>  <SCORE>
-19.7674

>  <SCORE.INTER>
-15.9067

>  <SCORE.INTER.CONST>
1

>  <SCORE.INTER.POLAR>
0

>  <SCORE.INTER.ROT>
7

>  <SCORE.INTER.SOLV>
11.9356

>  <SCORE.INTER.VDW>
-22.8497

>  <SCORE.INTER.norm>
-0.611796

>  <SCORE.INTRA>
-3.86072

>  <SCORE.INTRA.DIHEDRAL>
-6.30652

>  <SCORE.INTRA.DIHEDRAL.0>
10.1225

>  <SCORE.INTRA.POLAR>
0

>  <SCORE.INTRA.POLAR.0>
0

>  <SCORE.INTRA.REPUL>
0

>  <SCORE.INTRA.REPUL.0>
0

>  <SCORE.INTRA.SOLV>
-0.633599

>  <SCORE.INTRA.SOLV.lig_0>
-49.9393

>  <SCORE.INTRA.VDW>
-0.39066

>  <SCORE.INTRA.VDW.0>
-1.75437

>  <SCORE.INTRA.norm>
-0.148489

>  <SCORE.RESTR>
0

>  <SCORE.RESTR.CAVITY>
0

>  <SCORE.RESTR.norm>
0

>  <SCORE.SYSTEM>
0

>  <SCORE.SYSTEM.CONST>
0

>  <SCORE.SYSTEM.DIHEDRAL>
0

>  <SCORE.SYSTEM.SOLV>
0

>  <SCORE.SYSTEM.norm>
0

>  <SCORE.heavy>
26

>  <SCORE.norm>
-0.760285

>  <RMSD>
4.493

$$$$
ligand
 OpenBabel11021811473D
libRbt.so/2013.1/901 2013/11/27
 26 28  0  0  0  0  0  0  0  0999 V2000
  -15.4290    7.3166  -17.6118 N   0  0  0  0  0  0  0  0  0  0  0  0
  -14.7465    8.2716  -18.4937 C   0  0  2  0  0  0  0  0  0  0  0  0
  -13.9994    7.5198  -19.5636 C   0  0  0  0  0  0  0  0  0  0  0  0
  -13.3712    6.5271  -19.2792 O   0  0  0  0  0  0  0  0  0  0  0  0
  -13.7619    9.1073  -17.6740 C   0  0  0  0  0  0  0  0  0  0  0  0
  -13.3266   10.3255  -18.4864 C   0  0  0  0  0  0  0  0  0  0  0  0
  -12.2215   10.1607  -19.7654 S   0  0  0  0  0  0  0  0  0  0  0  0
  -11.2294   11.2377  -20.8316 C   0  0  0  0  0  0  0  0  0  0  0  0
  -11.3921   12.7378  -20.5579 C   0  0  1  0  0  0  0  0  0  0  0  0
  -10.6044   13.5340  -21.4243 O   0  0  0  0  0  0  0  0  0  0  0  0
  -12.7970   13.2171  -20.8369 C   0  0  1  0  0  0  0  0  0  0  0  0
  -12.9439   14.3844  -20.0583 O   0  0  0  0  0  0  0  0  0  0  0  0
  -12.7958   13.6200  -22.2932 C   0  0  1  0  0  0  0  0  0  0  0  0
  -13.5405   14.8069  -22.4587 O   0  0  0  0  0  0  0  0  0  0  0  0
  -11.3358   13.8962  -22.5805 C   0  0  2  0  0  0  0  0  0  0  0  0
  -14.0281    7.9530  -20.8346 O   0  0  0  0  0  0  0  0  0  0  0  0
   -7.2781   11.0927  -24.2804 N   0  0  0  0  0  0  0  0  0  0  0  0
   -7.4146   11.7434  -23.0771 C   0  0  0  0  0  0  0  0  0  0  0  0
   -8.5649   12.4477  -22.8147 N   0  0  0  0  0  0  0  0  0  0  0  0
   -9.5588   12.5051  -23.7225 C   0  0  0  0  0  0  0  0  0  0  0  0
   -9.4426   11.8575  -24.9381 C   0  0  0  0  0  0  0  0  0  0  0  0
   -8.2816   11.1450  -25.2148 C   0  0  0  0  0  0  0  0  0  0  0  0
   -8.1266   10.5119  -26.3710 N   0  0  0  0  0  0  0  0  0  0  0  0
  -10.5722   12.0805  -25.6463 N   0  0  0  0  0  0  0  0  0  0  0  0
  -11.3923   12.8459  -24.8999 C   0  0  0  0  0  0  0  0  0  0  0  0
  -10.7757   13.1284  -23.7078 N   0  0  0  0  0  0  0  0  0  0  0  0
  2  1  1  1  0  0  0
  2  3  1  0  0  0  0
  2  5  1  0  0  0  0
  3  4  1  0  0  0  0
  3 16  1  0  0  0  0
  5  6  1  0  0  0  0
  6  7  1  0  0  0  0
  7  8  1  0  0  0  0
  9  8  1  6  0  0  0
  9 10  1  0  0  0  0
  9 11  1  0  0  0  0
 10 15  1  0  0  0  0
 11 12  1  1  0  0  0
 11 13  1  0  0  0  0
 13 14  1  1  0  0  0
 13 15  1  0  0  0  0
 15 26  1  6  0  0  0
 17 18  2  0  0  0  0
 17 22  1  0  0  0  0
 18 19  1  0  0  0  0
 19 20  2  0  0  0  0
 20 21  1  0  0  0  0
 20 26  1  0  0  0  0
 21 22  2  0  0  0  0
 21 24  1  0  0  0  0
 22 23  1  0  0  0  0
 24 25  2  0  0  0  0
 25 26  1  0  0  0  0
M  END
>  <CHROM.1>
-42.64372566,-165.23531544,-75.17885199,-168.64069222,-0.36375746,-179.52124725
-17.47613833,-11.60215621,11.24244436,-21.65337699,-2.51973801,0.79486971
-0.18322073

>  <Name>
ligand

>  <RI>
0

>  <Rbt.Current_Directory>
/home/itssahil/PROJECTS/Mol_Feturizer/New_Systems/rnas/3E5E

>  <Rbt.Executable>
rbdock ($Id: //depot/dev/client3/rdock/2013.1/src/exe/rbdock.cxx#4 $)

>  <Rbt.Library>
libRbt.so (2013.1, Build901 2013/11/27)

>  <Rbt.Parameter_File>
/export/apps/rDock/src/rDock_2013.1_src/data/scripts/dock_solv.prm

>  <Rbt.Receptor>
prm/pocket_docking_5.prm

>  <SCORE>
-20.0802

>  <SCORE.INTER>
-17.3623

>  <SCORE.INTER.CONST>
1

>  <SCORE.INTER.POLAR>
0

>  <SCORE.INTER.ROT>
7

>  <SCORE.INTER.SOLV>
9.80811

>  <SCORE.INTER.VDW>
-23.1109

>  <SCORE.INTER.norm>
-0.667779

>  <SCORE.INTRA>
-2.7179

>  <SCORE.INTRA.DIHEDRAL>
-3.07121

>  <SCORE.INTRA.DIHEDRAL.0>
10.1225

>  <SCORE.INTRA.POLAR>
0

>  <SCORE.INTRA.POLAR.0>
0

>  <SCORE.INTRA.REPUL>
0

>  <SCORE.INTRA.REPUL.0>
0

>  <SCORE.INTRA.SOLV>
-0.323595

>  <SCORE.INTRA.SOLV.lig_0>
-49.9393

>  <SCORE.INTRA.VDW>
-1.0205

>  <SCORE.INTRA.VDW.0>
-1.75437

>  <SCORE.INTRA.norm>
-0.104534

>  <SCORE.RESTR>
0

>  <SCORE.RESTR.CAVITY>
0

>  <SCORE.RESTR.norm>
0

>  <SCORE.SYSTEM>
0

>  <SCORE.SYSTEM.CONST>
0

>  <SCORE.SYSTEM.DIHEDRAL>
0

>  <SCORE.SYSTEM.SOLV>
0

>  <SCORE.SYSTEM.norm>
0

>  <SCORE.heavy>
26

>  <SCORE.norm>
-0.772314

>  <RMSD>
4.639

$$$$
ligand
 OpenBabel11021811473D
libRbt.so/2013.1/901 2013/11/27
 26 28  0  0  0  0  0  0  0  0999 V2000
  -11.8903   10.0001  -20.7355 N   0  0  0  0  0  0  0  0  0  0  0  0
  -13.0486   10.8171  -20.3530 C   0  0  2  0  0  0  0  0  0  0  0  0
  -14.2849   10.2782  -21.0234 C   0  0  0  0  0  0  0  0  0  0  0  0
  -15.3250   10.2115  -20.4112 O   0  0  0  0  0  0  0  0  0  0  0  0
  -12.8184   12.2640  -20.7928 C   0  0  0  0  0  0  0  0  0  0  0  0
  -12.5908   12.3084  -22.3027 C   0  0  0  0  0  0  0  0  0  0  0  0
  -11.8201   13.6403  -23.0212 S   0  0  0  0  0  0  0  0  0  0  0  0
  -10.1572   14.0899  -23.5812 C   0  0  0  0  0  0  0  0  0  0  0  0
   -9.4660   13.0337  -24.4521 C   0  0  1  0  0  0  0  0  0  0  0  0
   -8.2325   13.4892  -24.9773 O   0  0  0  0  0  0  0  0  0  0  0  0
   -9.0683   11.8130  -23.6565 C   0  0  1  0  0  0  0  0  0  0  0  0
   -8.9766   10.7741  -24.6066 O   0  0  0  0  0  0  0  0  0  0  0  0
   -7.6769   12.1087  -23.1470 C   0  0  1  0  0  0  0  0  0  0  0  0
   -6.8804   10.9477  -23.2384 O   0  0  0  0  0  0  0  0  0  0  0  0
   -7.1620   13.1515  -24.1154 C   0  0  2  0  0  0  0  0  0  0  0  0
  -14.2325    9.8685  -22.3014 O   0  0  0  0  0  0  0  0  0  0  0  0
   -3.0130   15.9999  -22.7419 N   0  0  0  0  0  0  0  0  0  0  0  0
   -3.0316   14.7519  -23.3184 C   0  0  0  0  0  0  0  0  0  0  0  0
   -4.2362   14.1527  -23.5974 N   0  0  0  0  0  0  0  0  0  0  0  0
   -5.3967   14.7757  -23.3138 C   0  0  0  0  0  0  0  0  0  0  0  0
   -5.4007   16.0310  -22.7351 C   0  0  0  0  0  0  0  0  0  0  0  0
   -4.1875   16.6445  -22.4458 C   0  0  0  0  0  0  0  0  0  0  0  0
   -4.1454   17.8474  -21.8865 N   0  0  0  0  0  0  0  0  0  0  0  0
   -6.6857   16.4132  -22.5622 N   0  0  0  0  0  0  0  0  0  0  0  0
   -7.4828   15.4302  -23.0243 C   0  0  0  0  0  0  0  0  0  0  0  0
   -6.7008   14.4016  -23.4841 N   0  0  0  0  0  0  0  0  0  0  0  0
  2  1  1  6  0  0  0
  2  3  1  0  0  0  0
  2  5  1  0  0  0  0
  3  4  1  0  0  0  0
  3 16  1  0  0  0  0
  5  6  1  0  0  0  0
  6  7  1  0  0  0  0
  7  8  1  0  0  0  0
  9  8  1  1  0  0  0
  9 10  1  0  0  0  0
  9 11  1  0  0  0  0
 10 15  1  0  0  0  0
 11 12  1  6  0  0  0
 11 13  1  0  0  0  0
 13 14  1  6  0  0  0
 13 15  1  0  0  0  0
 15 26  1  1  0  0  0
 17 18  2  0  0  0  0
 17 22  1  0  0  0  0
 18 19  1  0  0  0  0
 19 20  2  0  0  0  0
 20 21  1  0  0  0  0
 20 26  1  0  0  0  0
 21 22  2  0  0  0  0
 21 24  1  0  0  0  0
 22 23  1  0  0  0  0
 24 25  2  0  0  0  0
 25 26  1  0  0  0  0
M  END
>  <CHROM.1>
138.73419114,58.07409086,-159.84727184,97.18689718,48.20027130,173.80411682
-136.17926632,-8.87736305,13.20757059,-22.78277498,-2.76196612,0.34416659
0.38966667

>  <Name>
ligand

>  <RI>
0

>  <Rbt.Current_Directory>
/home/itssahil/PROJECTS/Mol_Feturizer/New_Systems/rnas/3E5E

>  <Rbt.Executable>
rbdock ($Id: //depot/dev/client3/rdock/2013.1/src/exe/rbdock.cxx#4 $)

>  <Rbt.Library>
libRbt.so (2013.1, Build901 2013/11/27)

>  <Rbt.Parameter_File>
/export/apps/rDock/src/rDock_2013.1_src/data/scripts/dock_solv.prm

>  <Rbt.Receptor>
prm/blind_docking_40.prm

>  <SCORE>
-13.5421

>  <SCORE.INTER>
-12.0159

>  <SCORE.INTER.CONST>
1

>  <SCORE.INTER.POLAR>
0

>  <SCORE.INTER.ROT>
7

>  <SCORE.INTER.SOLV>
14.5231

>  <SCORE.INTER.VDW>
-21.1183

>  <SCORE.INTER.norm>
-0.462151

>  <SCORE.INTRA>
-1.52617

>  <SCORE.INTRA.DIHEDRAL>
-3.93426

>  <SCORE.INTRA.DIHEDRAL.0>
10.1225

>  <SCORE.INTRA.POLAR>
0

>  <SCORE.INTRA.POLAR.0>
0

>  <SCORE.INTRA.REPUL>
0

>  <SCORE.INTRA.REPUL.0>
0

>  <SCORE.INTRA.SOLV>
0.466492

>  <SCORE.INTRA.SOLV.lig_0>
-49.9393

>  <SCORE.INTRA.VDW>
0.207711

>  <SCORE.INTRA.VDW.0>
-1.75437

>  <SCORE.INTRA.norm>
-0.058699

>  <SCORE.RESTR>
0

>  <SCORE.RESTR.CAVITY>
0

>  <SCORE.RESTR.norm>
0

>  <SCORE.SYSTEM>
0

>  <SCORE.SYSTEM.CONST>
0

>  <SCORE.SYSTEM.DIHEDRAL>
0

>  <SCORE.SYSTEM.SOLV>
0

>  <SCORE.SYSTEM.norm>
0

>  <SCORE.heavy>
26

>  <SCORE.norm>
-0.520849

>  <RMSD>
4.684

$$$$
ligand
 OpenBabel11021811473D
libRbt.so/2013.1/901 2013/11/27
 26 28  0  0  0  0  0  0  0  0999 V2000
  -13.2844    9.3983  -18.1828 N   0  0  0  0  0  0  0  0  0  0  0  0
  -13.7937   10.3870  -19.1413 C   0  0  2  0  0  0  0  0  0  0  0  0
  -14.2041    9.6885  -20.4109 C   0  0  0  0  0  0  0  0  0  0  0  0
  -13.4280    8.9534  -20.9752 O   0  0  0  0  0  0  0  0  0  0  0  0
  -12.6971   11.4074  -19.4510 C   0  0  0  0  0  0  0  0  0  0  0  0
  -13.2437   12.4715  -20.4010 C   0  0  0  0  0  0  0  0  0  0  0  0
  -12.3013   13.8202  -20.8215 S   0  0  0  0  0  0  0  0  0  0  0  0
  -10.6196   14.1556  -21.4052 C   0  0  0  0  0  0  0  0  0  0  0  0
   -9.5074   13.7094  -20.4484 C   0  0  1  0  0  0  0  0  0  0  0  0
   -8.2202   14.0858  -20.9028 O   0  0  0  0  0  0  0  0  0  0  0  0
   -9.6073   14.3904  -19.1040 C   0  0  1  0  0  0  0  0  0  0  0  0
   -8.9329   13.5316  -18.2107 O   0  0  0  0  0  0  0  0  0  0  0  0
   -8.7962   15.6578  -19.2410 C   0  0  1  0  0  0  0  0  0  0  0  0
   -8.0541   15.8772  -18.0613 O   0  0  0  0  0  0  0  0  0  0  0  0
   -7.8508   15.3487  -20.3817 C   0  0  2  0  0  0  0  0  0  0  0  0
  -15.4319    9.8836  -20.9191 O   0  0  0  0  0  0  0  0  0  0  0  0
   -5.1328   18.7677  -23.2341 N   0  0  0  0  0  0  0  0  0  0  0  0
   -4.7052   18.0384  -22.1500 C   0  0  0  0  0  0  0  0  0  0  0  0
   -5.5811   17.1905  -21.5161 N   0  0  0  0  0  0  0  0  0  0  0  0
   -6.8516   17.0658  -21.9470 C   0  0  0  0  0  0  0  0  0  0  0  0
   -7.3019   17.7890  -23.0355 C   0  0  0  0  0  0  0  0  0  0  0  0
   -6.4248   18.6521  -23.6818 C   0  0  0  0  0  0  0  0  0  0  0  0
   -6.8165   19.3684  -24.7282 N   0  0  0  0  0  0  0  0  0  0  0  0
   -8.5996   17.4740  -23.2455 N   0  0  0  0  0  0  0  0  0  0  0  0
   -8.9677   16.5679  -22.3188 C   0  0  0  0  0  0  0  0  0  0  0  0
   -7.8995   16.3110  -21.4978 N   0  0  0  0  0  0  0  0  0  0  0  0
  2  1  1  1  0  0  0
  2  3  1  0  0  0  0
  2  5  1  0  0  0  0
  3  4  1  0  0  0  0
  3 16  1  0  0  0  0
  5  6  1  0  0  0  0
  6  7  1  0  0  0  0
  7  8  1  0  0  0  0
  9  8  1  6  0  0  0
  9 10  1  0  0  0  0
  9 11  1  0  0  0  0
 10 15  1  0  0  0  0
 11 12  1  1  0  0  0
 11 13  1  0  0  0  0
 13 14  1  1  0  0  0
 13 15  1  0  0  0  0
 15 26  1  6  0  0  0
 17 18  2  0  0  0  0
 17 22  1  0  0  0  0
 18 19  1  0  0  0  0
 19 20  2  0  0  0  0
 20 21  1  0  0  0  0
 20 26  1  0  0  0  0
 21 22  2  0  0  0  0
 21 24  1  0  0  0  0
 22 23  1  0  0  0  0
 24 25  2  0  0  0  0
 25 26  1  0  0  0  0
M  END
>  <CHROM.1>
-52.76899974,-177.56314713,174.56276576,48.80133933,-61.17642893,-175.45071859
-120.98797670,-9.75683065,14.47511445,-20.91539506,-2.55419846,-0.62710812
-1.06362202

>  <Name>
ligand

>  <RI>
0

>  <Rbt.Current_Directory>
/home/itssahil/PROJECTS/Mol_Feturizer/New_Systems/rnas/3E5E

>  <Rbt.Executable>
rbdock ($Id: //depot/dev/client3/rdock/2013.1/src/exe/rbdock.cxx#4 $)

>  <Rbt.Library>
libRbt.so (2013.1, Build901 2013/11/27)

>  <Rbt.Parameter_File>
/export/apps/rDock/src/rDock_2013.1_src/data/scripts/dock_solv.prm

>  <Rbt.Receptor>
prm/blind_docking_80.prm

>  <SCORE>
-20.0509

>  <SCORE.INTER>
-16.0251

>  <SCORE.INTER.CONST>
1

>  <SCORE.INTER.POLAR>
0

>  <SCORE.INTER.ROT>
7

>  <SCORE.INTER.SOLV>
14.2703

>  <SCORE.INTER.VDW>
-23.7068

>  <SCORE.INTER.norm>
-0.616348

>  <SCORE.INTRA>
-4.02587

>  <SCORE.INTRA.DIHEDRAL>
-7.0017

>  <SCORE.INTRA.DIHEDRAL.0>
10.1225

>  <SCORE.INTRA.POLAR>
0

>  <SCORE.INTRA.POLAR.0>
0

>  <SCORE.INTRA.REPUL>
0

>  <SCORE.INTRA.REPUL.0>
0

>  <SCORE.INTRA.SOLV>
-0.592473

>  <SCORE.INTRA.SOLV.lig_0>
-49.9393

>  <SCORE.INTRA.VDW>
-0.228788

>  <SCORE.INTRA.VDW.0>
-1.75437

>  <SCORE.INTRA.norm>
-0.154841

>  <SCORE.RESTR>
0

>  <SCORE.RESTR.CAVITY>
0

>  <SCORE.RESTR.norm>
0

>  <SCORE.SYSTEM>
0

>  <SCORE.SYSTEM.CONST>
0

>  <SCORE.SYSTEM.DIHEDRAL>
0

>  <SCORE.SYSTEM.SOLV>
0

>  <SCORE.SYSTEM.norm>
0

>  <SCORE.heavy>
26

>  <SCORE.norm>
-0.77119

>  <RMSD>
4.707

$$$$
ligand
 OpenBabel11021811473D
libRbt.so/2013.1/901 2013/11/27
 26 28  0  0  0  0  0  0  0  0999 V2000
  -14.3942    6.7165  -22.8668 N   0  0  0  0  0  0  0  0  0  0  0  0
  -14.0547    7.3139  -24.1643 C   0  0  2  0  0  0  0  0  0  0  0  0
  -13.9751    6.2316  -25.2085 C   0  0  0  0  0  0  0  0  0  0  0  0
  -14.3564    5.1137  -24.9518 O   0  0  0  0  0  0  0  0  0  0  0  0
  -12.7037    8.0236  -24.0599 C   0  0  0  0  0  0  0  0  0  0  0  0
  -12.8014    9.1601  -23.0439 C   0  0  0  0  0  0  0  0  0  0  0  0
  -11.4912   10.2117  -22.7956 S   0  0  0  0  0  0  0  0  0  0  0  0
  -10.5439   10.8725  -21.4003 C   0  0  0  0  0  0  0  0  0  0  0  0
  -11.3750   11.1805  -20.1489 C   0  0  1  0  0  0  0  0  0  0  0  0
  -10.7285   12.0946  -19.2820 O   0  0  0  0  0  0  0  0  0  0  0  0
  -12.6681   11.8852  -20.4849 C   0  0  1  0  0  0  0  0  0  0  0  0
  -13.5242   11.6115  -19.3975 O   0  0  0  0  0  0  0  0  0  0  0  0
  -12.3337   13.3585  -20.4612 C   0  0  1  0  0  0  0  0  0  0  0  0
  -13.3860   14.0751  -19.8531 O   0  0  0  0  0  0  0  0  0  0  0  0
  -11.1034   13.4258  -19.5823 C   0  0  2  0  0  0  0  0  0  0  0  0
  -13.4780    6.5067  -26.4256 O   0  0  0  0  0  0  0  0  0  0  0  0
   -6.7377   16.1547  -18.7412 N   0  0  0  0  0  0  0  0  0  0  0  0
   -7.6697   15.7405  -17.8193 C   0  0  0  0  0  0  0  0  0  0  0  0
   -8.7716   15.0355  -18.2400 N   0  0  0  0  0  0  0  0  0  0  0  0
   -8.9460   14.7453  -19.5440 C   0  0  0  0  0  0  0  0  0  0  0  0
   -8.0209   15.1513  -20.4873 C   0  0  0  0  0  0  0  0  0  0  0  0
   -6.9045   15.8680  -20.0727 C   0  0  0  0  0  0  0  0  0  0  0  0
   -5.9935   16.2807  -20.9453 N   0  0  0  0  0  0  0  0  0  0  0  0
   -8.4416   14.7307  -21.7012 N   0  0  0  0  0  0  0  0  0  0  0  0
   -9.6027   14.0673  -21.5373 C   0  0  0  0  0  0  0  0  0  0  0  0
   -9.9369   14.0759  -20.2072 N   0  0  0  0  0  0  0  0  0  0  0  0
  2  1  1  1  0  0  0
  2  3  1  0  0  0  0
  2  5  1  0  0  0  0
  3  4  1  0  0  0  0
  3 16  1  0  0  0  0
  5  6  1  0  0  0  0
  6  7  1  0  0  0  0
  7  8  1  0  0  0  0
  9  8  1  6  0  0  0
  9 10  1  0  0  0  0
  9 11  1  0  0  0  0
 10 15  1  0  0  0  0
 11 12  1  1  0  0  0
 11 13  1  0  0  0  0
 13 14  1  1  0  0  0
 13 15  1  0  0  0  0
 15 26  1  6  0  0  0
 17 18  2  0  0  0  0
 17 22  1  0  0  0  0
 18 19  1  0  0  0  0
 19 20  2  0  0  0  0
 20 21  1  0  0  0  0
 20 26  1  0  0  0  0
 21 22  2  0  0  0  0
 21 24  1  0  0  0  0
 22 23  1  0  0  0  0
 24 25  2  0  0  0  0
 25 26  1  0  0  0  0
M  END
>  <CHROM.1>
10.17996844,-62.46057450,-175.25653639,-130.24990225,-37.20245812,-159.47425895
-89.51292112,-11.04327943,11.72423000,-21.39718444,2.17072681,-0.49557244
-2.30264420

>  <Name>
ligand

>  <RI>
0

>  <Rbt.Current_Directory>
/home/itssahil/PROJECTS/Mol_Feturizer/New_Systems/rnas/3E5E

>  <Rbt.Executable>
rbdock ($Id: //depot/dev/client3/rdock/2013.1/src/exe/rbdock.cxx#4 $)

>  <Rbt.Library>
libRbt.so (2013.1, Build901 2013/11/27)

>  <Rbt.Parameter_File>
/export/apps/rDock/src/rDock_2013.1_src/data/scripts/dock_solv.prm

>  <Rbt.Receptor>
prm/blind_docking_100.prm

>  <SCORE>
-21.6385

>  <SCORE.INTER>
-20.3091

>  <SCORE.INTER.CONST>
1

>  <SCORE.INTER.POLAR>
0

>  <SCORE.INTER.ROT>
7

>  <SCORE.INTER.SOLV>
12.5781

>  <SCORE.INTER.VDW>
-25.9987

>  <SCORE.INTER.norm>
-0.781117

>  <SCORE.INTRA>
-1.32943

>  <SCORE.INTRA.DIHEDRAL>
-3.06461

>  <SCORE.INTRA.DIHEDRAL.0>
10.1225

>  <SCORE.INTRA.POLAR>
0

>  <SCORE.INTRA.POLAR.0>
0

>  <SCORE.INTRA.REPUL>
0

>  <SCORE.INTRA.REPUL.0>
0

>  <SCORE.INTRA.SOLV>
0.240837

>  <SCORE.INTRA.SOLV.lig_0>
-49.9393

>  <SCORE.INTRA.VDW>
0.0824596

>  <SCORE.INTRA.VDW.0>
-1.75437

>  <SCORE.INTRA.norm>
-0.0511318

>  <SCORE.RESTR>
0

>  <SCORE.RESTR.CAVITY>
0

>  <SCORE.RESTR.norm>
0

>  <SCORE.SYSTEM>
0

>  <SCORE.SYSTEM.CONST>
0

>  <SCORE.SYSTEM.DIHEDRAL>
0

>  <SCORE.SYSTEM.SOLV>
0

>  <SCORE.SYSTEM.norm>
0

>  <SCORE.heavy>
26

>  <SCORE.norm>
-0.832249

>  <RMSD>
4.720

$$$$
ligand
 OpenBabel11021811473D
libRbt.so/2013.1/901 2013/11/27
 26 28  0  0  0  0  0  0  0  0999 V2000
  -14.8194   10.0200  -19.6656 N   0  0  0  0  0  0  0  0  0  0  0  0
  -13.4002    9.7999  -19.3608 C   0  0  2  0  0  0  0  0  0  0  0  0
  -13.2795    8.9616  -18.1154 C   0  0  0  0  0  0  0  0  0  0  0  0
  -13.5458    9.4382  -17.0370 O   0  0  0  0  0  0  0  0  0  0  0  0
  -12.7124   11.1479  -19.1380 C   0  0  0  0  0  0  0  0  0  0  0  0
  -12.8800   12.0181  -20.3823 C   0  0  0  0  0  0  0  0  0  0  0  0
  -12.0940   13.5190  -20.4989 S   0  0  0  0  0  0  0  0  0  0  0  0
  -10.4884   14.1567  -21.0434 C   0  0  0  0  0  0  0  0  0  0  0  0
   -9.3194   13.8391  -20.1030 C   0  0  1  0  0  0  0  0  0  0  0  0
   -8.0681   14.2111  -20.6515 O   0  0  0  0  0  0  0  0  0  0  0  0
   -9.3840   14.6418  -18.8251 C   0  0  1  0  0  0  0  0  0  0  0  0
   -8.6401   13.8938  -17.8884 O   0  0  0  0  0  0  0  0  0  0  0  0
   -8.6259   15.9153  -19.1189 C   0  0  1  0  0  0  0  0  0  0  0  0
   -7.8405   16.2695  -18.0015 O   0  0  0  0  0  0  0  0  0  0  0  0
   -7.7216   15.5289  -20.2693 C   0  0  2  0  0  0  0  0  0  0  0  0
  -12.8734    7.6843  -18.2013 O   0  0  0  0  0  0  0  0  0  0  0  0
   -5.2182   18.5991  -23.6635 N   0  0  0  0  0  0  0  0  0  0  0  0
   -4.7080   17.9708  -22.5522 C   0  0  0  0  0  0  0  0  0  0  0  0
   -5.5362   17.2062  -21.7664 N   0  0  0  0  0  0  0  0  0  0  0  0
   -6.8401   17.0651  -22.0749 C   0  0  0  0  0  0  0  0  0  0  0  0
   -7.3734   17.6872  -23.1881 C   0  0  0  0  0  0  0  0  0  0  0  0
   -6.5449   18.4657  -23.9877 C   0  0  0  0  0  0  0  0  0  0  0  0
   -7.0162   19.0839  -25.0635 N   0  0  0  0  0  0  0  0  0  0  0  0
   -8.6877   17.3787  -23.2565 N   0  0  0  0  0  0  0  0  0  0  0  0
   -8.9857   16.5748  -22.2172 C   0  0  0  0  0  0  0  0  0  0  0  0
   -7.8544   16.3784  -21.4670 N   0  0  0  0  0  0  0  0  0  0  0  0
  2  1  1  1  0  0  0
  2  3  1  0  0  0  0
  2  5  1  0  0  0  0
  3  4  1  0  0  0  0
  3 16  1  0  0  0  0
  5  6  1  0  0  0  0
  6  7  1  0  0  0  0
  7  8  1  0  0  0  0
  9  8  1  6  0  0  0
  9 10  1  0  0  0  0
  9 11  1  0  0  0  0
 10 15  1  0  0  0  0
 11 12  1  1  0  0  0
 11 13  1  0  0  0  0
 13 14  1  1  0  0  0
 13 15  1  0  0  0  0
 15 26  1  6  0  0  0
 17 18  2  0  0  0  0
 17 22  1  0  0  0  0
 18 19  1  0  0  0  0
 19 20  2  0  0  0  0
 20 21  1  0  0  0  0
 20 26  1  0  0  0  0
 21 22  2  0  0  0  0
 21 24  1  0  0  0  0
 22 23  1  0  0  0  0
 24 25  2  0  0  0  0
 25 26  1  0  0  0  0
M  END
>  <CHROM.1>
-71.92325243,-57.94528537,-173.96794288,87.10085274,-72.52852056,172.61894054
-117.38994016,-9.59548846,14.36663545,-20.57640771,2.40516451,0.62117466
2.08976066

>  <Name>
ligand

>  <RI>
0

>  <Rbt.Current_Directory>
/home/itssahil/PROJECTS/Mol_Feturizer/New_Systems/rnas/3E5E

>  <Rbt.Executable>
rbdock ($Id: //depot/dev/client3/rdock/2013.1/src/exe/rbdock.cxx#4 $)

>  <Rbt.Library>
libRbt.so (2013.1, Build901 2013/11/27)

>  <Rbt.Parameter_File>
/export/apps/rDock/src/rDock_2013.1_src/data/scripts/dock_solv.prm

>  <Rbt.Receptor>
prm/pocket_docking_8.prm

>  <SCORE>
-19.4184

>  <SCORE.INTER>
-16.6243

>  <SCORE.INTER.CONST>
1

>  <SCORE.INTER.POLAR>
0

>  <SCORE.INTER.ROT>
7

>  <SCORE.INTER.SOLV>
13.6461

>  <SCORE.INTER.VDW>
-23.8983

>  <SCORE.INTER.norm>
-0.639397

>  <SCORE.INTRA>
-2.80031

>  <SCORE.INTRA.DIHEDRAL>
-5.83394

>  <SCORE.INTRA.DIHEDRAL.0>
10.1225

>  <SCORE.INTRA.POLAR>
0

>  <SCORE.INTRA.POLAR.0>
0

>  <SCORE.INTRA.REPUL>
0

>  <SCORE.INTRA.REPUL.0>
0

>  <SCORE.INTRA.SOLV>
0.145489

>  <SCORE.INTRA.SOLV.lig_0>
-49.9393

>  <SCORE.INTRA.VDW>
0.0439141

>  <SCORE.INTRA.VDW.0>
-1.75437

>  <SCORE.INTRA.norm>
-0.107704

>  <SCORE.RESTR>
0.00620906

>  <SCORE.RESTR.CAVITY>
0.00620906

>  <SCORE.RESTR.norm>
0.00023881

>  <SCORE.SYSTEM>
0

>  <SCORE.SYSTEM.CONST>
0

>  <SCORE.SYSTEM.DIHEDRAL>
0

>  <SCORE.SYSTEM.SOLV>
0

>  <SCORE.SYSTEM.norm>
0

>  <SCORE.heavy>
26

>  <SCORE.norm>
-0.746863

>  <RMSD>
4.730

$$$$
ligand
 OpenBabel11021811473D
libRbt.so/2013.1/901 2013/11/27
 26 28  0  0  0  0  0  0  0  0999 V2000
  -16.3515    6.3229  -18.2845 N   0  0  0  0  0  0  0  0  0  0  0  0
  -16.7652    7.4452  -19.1358 C   0  0  2  0  0  0  0  0  0  0  0  0
  -18.0811    7.1182  -19.7912 C   0  0  0  0  0  0  0  0  0  0  0  0
  -18.3581    5.9712  -20.0534 O   0  0  0  0  0  0  0  0  0  0  0  0
  -15.7045    7.6861  -20.2113 C   0  0  0  0  0  0  0  0  0  0  0  0
  -16.0460    8.9556  -20.9895 C   0  0  0  0  0  0  0  0  0  0  0  0
  -14.9877    9.5522  -22.1761 S   0  0  0  0  0  0  0  0  0  0  0  0
  -13.2404   10.0100  -22.3112 C   0  0  0  0  0  0  0  0  0  0  0  0
  -12.6246   10.5775  -21.0265 C   0  0  1  0  0  0  0  0  0  0  0  0
  -11.3324   11.1161  -21.2385 O   0  0  0  0  0  0  0  0  0  0  0  0
  -13.4036   11.7581  -20.4964 C   0  0  1  0  0  0  0  0  0  0  0  0
  -13.0924   11.8108  -19.1213 O   0  0  0  0  0  0  0  0  0  0  0  0
  -12.7919   12.9678  -21.1639 C   0  0  1  0  0  0  0  0  0  0  0  0
  -12.6912   14.0239  -20.2338 O   0  0  0  0  0  0  0  0  0  0  0  0
  -11.4050   12.4961  -21.5440 C   0  0  2  0  0  0  0  0  0  0  0  0
  -18.9473    8.1009  -20.0875 O   0  0  0  0  0  0  0  0  0  0  0  0
   -7.7687   11.7871  -25.2166 N   0  0  0  0  0  0  0  0  0  0  0  0
   -7.6677   11.5496  -23.8662 C   0  0  0  0  0  0  0  0  0  0  0  0
   -8.7412   11.8133  -23.0501 N   0  0  0  0  0  0  0  0  0  0  0  0
   -9.8897   12.2995  -23.5595 C   0  0  0  0  0  0  0  0  0  0  0  0
  -10.0130   12.5446  -24.9142 C   0  0  0  0  0  0  0  0  0  0  0  0
   -8.9318   12.2844  -25.7481 C   0  0  0  0  0  0  0  0  0  0  0  0
   -9.0055   12.5090  -27.0542 N   0  0  0  0  0  0  0  0  0  0  0  0
  -11.2554   13.0240  -25.1464 N   0  0  0  0  0  0  0  0  0  0  0  0
  -11.9118   13.0780  -23.9711 C   0  0  0  0  0  0  0  0  0  0  0  0
  -11.0767   12.6430  -22.9739 N   0  0  0  0  0  0  0  0  0  0  0  0
  2  1  1  1  0  0  0
  2  3  1  0  0  0  0
  2  5  1  0  0  0  0
  3  4  1  0  0  0  0
  3 16  1  0  0  0  0
  5  6  1  0  0  0  0
  6  7  1  0  0  0  0
  7  8  1  0  0  0  0
  9  8  1  6  0  0  0
  9 10  1  0  0  0  0
  9 11  1  0  0  0  0
 10 15  1  0  0  0  0
 11 12  1  1  0  0  0
 11 13  1  0  0  0  0
 13 14  1  1  0  0  0
 13 15  1  0  0  0  0
 15 26  1  6  0  0  0
 17 18  2  0  0  0  0
 17 22  1  0  0  0  0
 18 19  1  0  0  0  0
 19 20  2  0  0  0  0
 20 21  1  0  0  0  0
 20 26  1  0  0  0  0
 21 22  2  0  0  0  0
 21 24  1  0  0  0  0
 22 23  1  0  0  0  0
 24 25  2  0  0  0  0
 25 26  1  0  0  0  0
M  END
>  <CHROM.1>
-30.75791580,-173.12414983,175.32050465,-53.29357266,-32.12774658,-170.49439463
-61.57481320,-12.98112638,10.64835925,-21.97516358,3.07827463,0.71415306
0.91584970

>  <Name>
ligand

>  <RI>
0

>  <Rbt.Current_Directory>
/home/itssahil/PROJECTS/Mol_Feturizer/New_Systems/rnas/3E5E

>  <Rbt.Executable>
rbdock ($Id: //depot/dev/client3/rdock/2013.1/src/exe/rbdock.cxx#4 $)

>  <Rbt.Library>
libRbt.so (2013.1, Build901 2013/11/27)

>  <Rbt.Parameter_File>
/export/apps/rDock/src/rDock_2013.1_src/data/scripts/dock_solv.prm

>  <Rbt.Receptor>
prm/pocket_docking_4.prm

>  <SCORE>
-13.8526

>  <SCORE.INTER>
-10.2775

>  <SCORE.INTER.CONST>
1

>  <SCORE.INTER.POLAR>
0

>  <SCORE.INTER.ROT>
7

>  <SCORE.INTER.SOLV>
6.86504

>  <SCORE.INTER.VDW>
-17.4066

>  <SCORE.INTER.norm>
-0.395287

>  <SCORE.INTRA>
-3.5751

>  <SCORE.INTRA.DIHEDRAL>
-5.72073

>  <SCORE.INTRA.DIHEDRAL.0>
10.1225

>  <SCORE.INTRA.POLAR>
0

>  <SCORE.INTRA.POLAR.0>
0

>  <SCORE.INTRA.REPUL>
0

>  <SCORE.INTRA.REPUL.0>
0

>  <SCORE.INTRA.SOLV>
-0.533922

>  <SCORE.INTRA.SOLV.lig_0>
-49.9393

>  <SCORE.INTRA.VDW>
-0.44777

>  <SCORE.INTRA.VDW.0>
-1.75437

>  <SCORE.INTRA.norm>
-0.137504

>  <SCORE.RESTR>
0

>  <SCORE.RESTR.CAVITY>
0

>  <SCORE.RESTR.norm>
0

>  <SCORE.SYSTEM>
0

>  <SCORE.SYSTEM.CONST>
0

>  <SCORE.SYSTEM.DIHEDRAL>
0

>  <SCORE.SYSTEM.SOLV>
0

>  <SCORE.SYSTEM.norm>
0

>  <SCORE.heavy>
26

>  <SCORE.norm>
-0.532791

>  <RMSD>
4.734

$$$$
ligand
 OpenBabel11021811473D
libRbt.so/2013.1/901 2013/11/27
 26 28  0  0  0  0  0  0  0  0999 V2000
  -13.0525   12.6355  -20.4410 N   0  0  0  0  0  0  0  0  0  0  0  0
  -11.9154   11.8603  -19.9293 C   0  0  2  0  0  0  0  0  0  0  0  0
  -12.4247   10.6354  -19.2164 C   0  0  0  0  0  0  0  0  0  0  0  0
  -12.0213    9.5403  -19.5313 O   0  0  0  0  0  0  0  0  0  0  0  0
  -11.1100   12.7211  -18.9546 C   0  0  0  0  0  0  0  0  0  0  0  0
  -10.5395   13.9305  -19.6932 C   0  0  0  0  0  0  0  0  0  0  0  0
   -9.3573   13.7293  -20.8957 S   0  0  0  0  0  0  0  0  0  0  0  0
   -8.9836   12.5646  -22.2318 C   0  0  0  0  0  0  0  0  0  0  0  0
  -10.1803   12.2005  -23.1189 C   0  0  1  0  0  0  0  0  0  0  0  0
  -10.6031   13.2833  -23.9274 O   0  0  0  0  0  0  0  0  0  0  0  0
   -9.8337   11.1341  -24.1309 C   0  0  1  0  0  0  0  0  0  0  0  0
  -11.0665   10.5335  -24.4624 O   0  0  0  0  0  0  0  0  0  0  0  0
   -9.3354   11.8858  -25.3432 C   0  0  1  0  0  0  0  0  0  0  0  0
   -9.8325   11.2793  -26.5161 O   0  0  0  0  0  0  0  0  0  0  0  0
   -9.9528   13.2583  -25.1842 C   0  0  2  0  0  0  0  0  0  0  0  0
  -13.3296   10.7580  -18.2315 O   0  0  0  0  0  0  0  0  0  0  0  0
   -8.1528   17.4188  -22.6027 N   0  0  0  0  0  0  0  0  0  0  0  0
   -9.1915   16.5886  -22.2539 C   0  0  0  0  0  0  0  0  0  0  0  0
   -9.5279   15.5418  -23.0780 N   0  0  0  0  0  0  0  0  0  0  0  0
   -8.8500   15.3207  -24.2211 C   0  0  0  0  0  0  0  0  0  0  0  0
   -7.8018   16.1426  -24.5903 C   0  0  0  0  0  0  0  0  0  0  0  0
   -7.4556   17.2063  -23.7653 C   0  0  0  0  0  0  0  0  0  0  0  0
   -6.4585   18.0226  -24.0835 N   0  0  0  0  0  0  0  0  0  0  0  0
   -7.3080   15.6963  -25.7669 N   0  0  0  0  0  0  0  0  0  0  0  0
   -8.0183   14.6130  -26.1373 C   0  0  0  0  0  0  0  0  0  0  0  0
   -8.9864   14.3718  -25.1962 N   0  0  0  0  0  0  0  0  0  0  0  0
  2  1  1  1  0  0  0
  2  3  1  0  0  0  0
  2  5  1  0  0  0  0
  3  4  1  0  0  0  0
  3 16  1  0  0  0  0
  5  6  1  0  0  0  0
  6  7  1  0  0  0  0
  7  8  1  0  0  0  0
  9  8  1  6  0  0  0
  9 10  1  0  0  0  0
  9 11  1  0  0  0  0
 10 15  1  0  0  0  0
 11 12  1  6  0  0  0
 11 13  1  0  0  0  0
 13 14  1  6  0  0  0
 13 15  1  0  0  0  0
 15 26  1  1  0  0  0
 17 18  2  0  0  0  0
 17 22  1  0  0  0  0
 18 19  1  0  0  0  0
 19 20  2  0  0  0  0
 20 21  1  0  0  0  0
 20 26  1  0  0  0  0
 21 22  2  0  0  0  0
 21 24  1  0  0  0  0
 22 23  1  0  0  0  0
 24 25  2  0  0  0  0
 25 26  1  0  0  0  0
M  END
>  <CHROM.1>
125.96761979,-62.65010867,-66.67889760,38.33548598,46.91289523,69.65590493
-5.82804784,-9.85978376,13.48485117,-22.69942007,-2.92566108,-1.01372715
-2.13791032

>  <Name>
ligand

>  <RI>
0

>  <Rbt.Current_Directory>
/home/itssahil/PROJECTS/Mol_Feturizer/New_Systems/rnas/3E5E

>  <Rbt.Executable>
rbdock ($Id: //depot/dev/client3/rdock/2013.1/src/exe/rbdock.cxx#4 $)

>  <Rbt.Library>
libRbt.so (2013.1, Build901 2013/11/27)

>  <Rbt.Parameter_File>
/export/apps/rDock/src/rDock_2013.1_src/data/scripts/dock_solv.prm

>  <Rbt.Receptor>
prm/pocket_docking_4.prm

>  <SCORE>
-11.3769

>  <SCORE.INTER>
-8.46926

>  <SCORE.INTER.CONST>
1

>  <SCORE.INTER.POLAR>
0

>  <SCORE.INTER.ROT>
7

>  <SCORE.INTER.SOLV>
10.3215

>  <SCORE.INTER.VDW>
-17.3533

>  <SCORE.INTER.norm>
-0.325741

>  <SCORE.INTRA>
-3.63071

>  <SCORE.INTRA.DIHEDRAL>
-5.89149

>  <SCORE.INTRA.DIHEDRAL.0>
10.1225

>  <SCORE.INTRA.POLAR>
0

>  <SCORE.INTRA.POLAR.0>
0

>  <SCORE.INTRA.REPUL>
0

>  <SCORE.INTRA.REPUL.0>
0

>  <SCORE.INTRA.SOLV>
1.59998

>  <SCORE.INTRA.SOLV.lig_0>
-49.9393

>  <SCORE.INTRA.VDW>
-1.48495

>  <SCORE.INTRA.VDW.0>
-1.75437

>  <SCORE.INTRA.norm>
-0.139643

>  <SCORE.RESTR>
0.723052

>  <SCORE.RESTR.CAVITY>
0.723052

>  <SCORE.RESTR.norm>
0.0278097

>  <SCORE.SYSTEM>
0

>  <SCORE.SYSTEM.CONST>
0

>  <SCORE.SYSTEM.DIHEDRAL>
0

>  <SCORE.SYSTEM.SOLV>
0

>  <SCORE.SYSTEM.norm>
0

>  <SCORE.heavy>
26

>  <SCORE.norm>
-0.437573

>  <RMSD>
4.737

$$$$
ligand
 OpenBabel11021811473D
libRbt.so/2013.1/901 2013/11/27
 26 28  0  0  0  0  0  0  0  0999 V2000
  -11.9656    5.9807  -23.8823 N   0  0  0  0  0  0  0  0  0  0  0  0
  -12.8477    7.1438  -24.0388 C   0  0  2  0  0  0  0  0  0  0  0  0
  -14.1162    6.7208  -24.7317 C   0  0  0  0  0  0  0  0  0  0  0  0
  -14.0833    5.8654  -25.5852 O   0  0  0  0  0  0  0  0  0  0  0  0
  -12.1397    8.2106  -24.8756 C   0  0  0  0  0  0  0  0  0  0  0  0
  -11.0609    8.8879  -24.0323 C   0  0  0  0  0  0  0  0  0  0  0  0
  -11.4827    9.8204  -22.6771 S   0  0  0  0  0  0  0  0  0  0  0  0
  -10.6677   10.9404  -21.5097 C   0  0  0  0  0  0  0  0  0  0  0  0
  -11.4556   11.2091  -20.2218 C   0  0  1  0  0  0  0  0  0  0  0  0
  -10.7970   12.1253  -19.3664 O   0  0  0  0  0  0  0  0  0  0  0  0
  -12.7773   11.8872  -20.4954 C   0  0  1  0  0  0  0  0  0  0  0  0
  -13.5828   11.5764  -19.3797 O   0  0  0  0  0  0  0  0  0  0  0  0
  -12.4771   13.3677  -20.4611 C   0  0  1  0  0  0  0  0  0  0  0  0
  -13.5211   14.0493  -19.8006 O   0  0  0  0  0  0  0  0  0  0  0  0
  -11.2149   13.4514  -19.6303 C   0  0  2  0  0  0  0  0  0  0  0  0
  -15.2852    7.2953  -24.4040 O   0  0  0  0  0  0  0  0  0  0  0  0
   -6.6998   15.9663  -18.9208 N   0  0  0  0  0  0  0  0  0  0  0  0
   -7.5560   15.4746  -17.9642 C   0  0  0  0  0  0  0  0  0  0  0  0
   -8.7154   14.8469  -18.3512 N   0  0  0  0  0  0  0  0  0  0  0  0
   -9.0195   14.7072  -19.6563 C   0  0  0  0  0  0  0  0  0  0  0  0
   -8.1724   15.1932  -20.6343 C   0  0  0  0  0  0  0  0  0  0  0  0
   -6.9986   15.8329  -20.2534 C   0  0  0  0  0  0  0  0  0  0  0  0
   -6.1588   16.3182  -21.1595 N   0  0  0  0  0  0  0  0  0  0  0  0
   -8.7176   14.9199  -21.8407 N   0  0  0  0  0  0  0  0  0  0  0  0
   -9.8805   14.2700  -21.6391 C   0  0  0  0  0  0  0  0  0  0  0  0
  -10.0897   14.1390  -20.2900 N   0  0  0  0  0  0  0  0  0  0  0  0
  2  1  1  6  0  0  0
  2  3  1  0  0  0  0
  2  5  1  0  0  0  0
  3  4  1  0  0  0  0
  3 16  1  0  0  0  0
  5  6  1  0  0  0  0
  6  7  1  0  0  0  0
  7  8  1  0  0  0  0
  9  8  1  6  0  0  0
  9 10  1  0  0  0  0
  9 11  1  0  0  0  0
 10 15  1  0  0  0  0
 11 12  1  1  0  0  0
 11 13  1  0  0  0  0
 13 14  1  1  0  0  0
 13 15  1  0  0  0  0
 15 26  1  6  0  0  0
 17 18  2  0  0  0  0
 17 22  1  0  0  0  0
 18 19  1  0  0  0  0
 19 20  2  0  0  0  0
 20 21  1  0  0  0  0
 20 26  1  0  0  0  0
 21 22  2  0  0  0  0
 21 24  1  0  0  0  0
 22 23  1  0  0  0  0
 24 25  2  0  0  0  0
 25 26  1  0  0  0  0
M  END
>  <CHROM.1>
-35.06051176,-74.12843367,-65.35286036,-171.07233294,-163.41473239,-177.93889189
-82.56768091,-10.95919236,11.73281387,-21.47196425,-2.11357472,0.39687352
0.74919703

>  <Name>
ligand

>  <RI>
0

>  <Rbt.Current_Directory>
/home/itssahil/PROJECTS/Mol_Feturizer/New_Systems/rnas/3E5E

>  <Rbt.Executable>
rbdock ($Id: //depot/dev/client3/rdock/2013.1/src/exe/rbdock.cxx#4 $)

>  <Rbt.Library>
libRbt.so (2013.1, Build901 2013/11/27)

>  <Rbt.Parameter_File>
/export/apps/rDock/src/rDock_2013.1_src/data/scripts/dock_solv.prm

>  <Rbt.Receptor>
prm/blind_docking_40.prm

>  <SCORE>
-22.6241

>  <SCORE.INTER>
-19.2727

>  <SCORE.INTER.CONST>
1

>  <SCORE.INTER.POLAR>
0

>  <SCORE.INTER.ROT>
7

>  <SCORE.INTER.SOLV>
13.6414

>  <SCORE.INTER.VDW>
-25.6623

>  <SCORE.INTER.norm>
-0.741257

>  <SCORE.INTRA>
-3.35138

>  <SCORE.INTRA.DIHEDRAL>
-6.10083

>  <SCORE.INTRA.DIHEDRAL.0>
10.1225

>  <SCORE.INTRA.POLAR>
0

>  <SCORE.INTRA.POLAR.0>
0

>  <SCORE.INTRA.REPUL>
0

>  <SCORE.INTRA.REPUL.0>
0

>  <SCORE.INTRA.SOLV>
0.459503

>  <SCORE.INTRA.SOLV.lig_0>
-49.9393

>  <SCORE.INTRA.VDW>
-0.530713

>  <SCORE.INTRA.VDW.0>
-1.75437

>  <SCORE.INTRA.norm>
-0.128899

>  <SCORE.RESTR>
0

>  <SCORE.RESTR.CAVITY>
0

>  <SCORE.RESTR.norm>
0

>  <SCORE.SYSTEM>
0

>  <SCORE.SYSTEM.CONST>
0

>  <SCORE.SYSTEM.DIHEDRAL>
0

>  <SCORE.SYSTEM.SOLV>
0

>  <SCORE.SYSTEM.norm>
0

>  <SCORE.heavy>
26

>  <SCORE.norm>
-0.870156

>  <RMSD>
4.742

$$$$
ligand
 OpenBabel11021811473D
libRbt.so/2013.1/901 2013/11/27
 26 28  0  0  0  0  0  0  0  0999 V2000
  -13.7105    8.5302  -22.3874 N   0  0  0  0  0  0  0  0  0  0  0  0
  -13.6815    9.5193  -21.3028 C   0  0  2  0  0  0  0  0  0  0  0  0
  -15.0685    9.6865  -20.7402 C   0  0  0  0  0  0  0  0  0  0  0  0
  -15.2247    9.8441  -19.5520 O   0  0  0  0  0  0  0  0  0  0  0  0
  -13.1868   10.8596  -21.8493 C   0  0  0  0  0  0  0  0  0  0  0  0
  -13.0761   11.8672  -20.7065 C   0  0  0  0  0  0  0  0  0  0  0  0
  -12.3884   13.3978  -20.9681 S   0  0  0  0  0  0  0  0  0  0  0  0
  -10.7606   14.0916  -21.3551 C   0  0  0  0  0  0  0  0  0  0  0  0
   -9.6264   13.6170  -20.4386 C   0  0  1  0  0  0  0  0  0  0  0  0
   -8.3508   14.0169  -20.9055 O   0  0  0  0  0  0  0  0  0  0  0  0
   -9.7014   14.2481  -19.0683 C   0  0  1  0  0  0  0  0  0  0  0  0
   -9.0043   13.3611  -18.2212 O   0  0  0  0  0  0  0  0  0  0  0  0
   -8.8994   15.5242  -19.1758 C   0  0  1  0  0  0  0  0  0  0  0  0
   -8.1338   15.7045  -18.0044 O   0  0  0  0  0  0  0  0  0  0  0  0
   -7.9767   15.2620  -20.3464 C   0  0  2  0  0  0  0  0  0  0  0  0
  -16.1338    9.6578  -21.5578 O   0  0  0  0  0  0  0  0  0  0  0  0
   -5.4012   18.9640  -22.9686 N   0  0  0  0  0  0  0  0  0  0  0  0
   -4.9611   18.2201  -21.8995 C   0  0  0  0  0  0  0  0  0  0  0  0
   -5.7987   17.2919  -21.3296 N   0  0  0  0  0  0  0  0  0  0  0  0
   -7.0438   17.1030  -21.8085 C   0  0  0  0  0  0  0  0  0  0  0  0
   -7.5061   17.8394  -22.8830 C   0  0  0  0  0  0  0  0  0  0  0  0
   -6.6678   18.7833  -23.4647 C   0  0  0  0  0  0  0  0  0  0  0  0
   -7.0725   19.5150  -24.4954 N   0  0  0  0  0  0  0  0  0  0  0  0
   -8.7727   17.4498  -23.1496 N   0  0  0  0  0  0  0  0  0  0  0  0
   -9.1095   16.4846  -22.2721 C   0  0  0  0  0  0  0  0  0  0  0  0
   -8.0533   16.2641  -21.4252 N   0  0  0  0  0  0  0  0  0  0  0  0
  2  1  1  6  0  0  0
  2  3  1  0  0  0  0
  2  5  1  0  0  0  0
  3  4  1  0  0  0  0
  3 16  1  0  0  0  0
  5  6  1  0  0  0  0
  6  7  1  0  0  0  0
  7  8  1  0  0  0  0
  9  8  1  6  0  0  0
  9 10  1  0  0  0  0
  9 11  1  0  0  0  0
 10 15  1  0  0  0  0
 11 12  1  1  0  0  0
 11 13  1  0  0  0  0
 13 14  1  1  0  0  0
 13 15  1  0  0  0  0
 15 26  1  6  0  0  0
 17 18  2  0  0  0  0
 17 22  1  0  0  0  0
 18 19  1  0  0  0  0
 19 20  2  0  0  0  0
 20 21  1  0  0  0  0
 20 26  1  0  0  0  0
 21 22  2  0  0  0  0
 21 24  1  0  0  0  0
 22 23  1  0  0  0  0
 24 25  2  0  0  0  0
 25 26  1  0  0  0  0
M  END
>  <CHROM.1>
142.19396590,-176.62980781,173.17969337,-67.65729226,-51.13968592,170.71343923
-125.63341584,-10.02819120,14.35011782,-21.17150997,2.71734197,0.69830825
2.02261794

>  <Name>
ligand

>  <RI>
0

>  <Rbt.Current_Directory>
/home/itssahil/PROJECTS/Mol_Feturizer/New_Systems/rnas/3E5E

>  <Rbt.Executable>
rbdock ($Id: //depot/dev/client3/rdock/2013.1/src/exe/rbdock.cxx#4 $)

>  <Rbt.Library>
libRbt.so (2013.1, Build901 2013/11/27)

>  <Rbt.Parameter_File>
/export/apps/rDock/src/rDock_2013.1_src/data/scripts/dock_solv.prm

>  <Rbt.Receptor>
prm/blind_docking_80.prm

>  <SCORE>
-20.3265

>  <SCORE.INTER>
-16.454

>  <SCORE.INTER.CONST>
1

>  <SCORE.INTER.POLAR>
0

>  <SCORE.INTER.ROT>
7

>  <SCORE.INTER.SOLV>
10.6728

>  <SCORE.INTER.VDW>
-22.7936

>  <SCORE.INTER.norm>
-0.632847

>  <SCORE.INTRA>
-3.87249

>  <SCORE.INTRA.DIHEDRAL>
-6.65666

>  <SCORE.INTRA.DIHEDRAL.0>
10.1225

>  <SCORE.INTRA.POLAR>
0

>  <SCORE.INTRA.POLAR.0>
0

>  <SCORE.INTRA.REPUL>
0

>  <SCORE.INTRA.REPUL.0>
0

>  <SCORE.INTRA.SOLV>
-0.629096

>  <SCORE.INTRA.SOLV.lig_0>
-49.9393

>  <SCORE.INTRA.VDW>
-0.229609

>  <SCORE.INTRA.VDW.0>
-1.75437

>  <SCORE.INTRA.norm>
-0.148942

>  <SCORE.RESTR>
0

>  <SCORE.RESTR.CAVITY>
0

>  <SCORE.RESTR.norm>
0

>  <SCORE.SYSTEM>
0

>  <SCORE.SYSTEM.CONST>
0

>  <SCORE.SYSTEM.DIHEDRAL>
0

>  <SCORE.SYSTEM.SOLV>
0

>  <SCORE.SYSTEM.norm>
0

>  <SCORE.heavy>
26

>  <SCORE.norm>
-0.781789

>  <RMSD>
4.743

$$$$
ligand
 OpenBabel11021811473D
libRbt.so/2013.1/901 2013/11/27
 26 28  0  0  0  0  0  0  0  0999 V2000
  -11.8659    5.9604  -23.9934 N   0  0  0  0  0  0  0  0  0  0  0  0
  -12.7454    7.1321  -24.0900 C   0  0  2  0  0  0  0  0  0  0  0  0
  -14.0400    6.7336  -24.7482 C   0  0  0  0  0  0  0  0  0  0  0  0
  -14.0533    5.8480  -25.5708 O   0  0  0  0  0  0  0  0  0  0  0  0
  -12.0601    8.2154  -24.9245 C   0  0  0  0  0  0  0  0  0  0  0  0
  -10.9958    8.9135  -24.0797 C   0  0  0  0  0  0  0  0  0  0  0  0
  -11.4330    9.7954  -22.6958 S   0  0  0  0  0  0  0  0  0  0  0  0
  -10.6487   10.9297  -21.5215 C   0  0  0  0  0  0  0  0  0  0  0  0
  -11.4581   11.1936  -20.2460 C   0  0  1  0  0  0  0  0  0  0  0  0
  -10.8243   12.1229  -19.3860 O   0  0  0  0  0  0  0  0  0  0  0  0
  -12.7851   11.8519  -20.5412 C   0  0  1  0  0  0  0  0  0  0  0  0
  -13.6018   11.5351  -19.4352 O   0  0  0  0  0  0  0  0  0  0  0  0
  -12.5060   13.3366  -20.5100 C   0  0  1  0  0  0  0  0  0  0  0  0
  -13.5685   14.0066  -19.8675 O   0  0  0  0  0  0  0  0  0  0  0  0
  -11.2568   13.4418  -19.6622 C   0  0  2  0  0  0  0  0  0  0  0  0
  -15.1811    7.3636  -24.4240 O   0  0  0  0  0  0  0  0  0  0  0  0
   -6.7596   15.9750  -18.9059 N   0  0  0  0  0  0  0  0  0  0  0  0
   -7.6179   15.4696  -17.9583 C   0  0  0  0  0  0  0  0  0  0  0  0
   -8.7717   14.8390  -18.3572 N   0  0  0  0  0  0  0  0  0  0  0  0
   -9.0685   14.7100  -19.6651 C   0  0  0  0  0  0  0  0  0  0  0  0
   -8.2191   15.2100  -20.6342 C   0  0  0  0  0  0  0  0  0  0  0  0
   -7.0509   15.8526  -20.2412 C   0  0  0  0  0  0  0  0  0  0  0  0
   -6.2093   16.3511  -21.1383 N   0  0  0  0  0  0  0  0  0  0  0  0
   -8.7567   14.9450  -21.8458 N   0  0  0  0  0  0  0  0  0  0  0  0
   -9.9169   14.2868  -21.6564 C   0  0  0  0  0  0  0  0  0  0  0  0
  -10.1322   14.1419  -20.3096 N   0  0  0  0  0  0  0  0  0  0  0  0
  2  1  1  6  0  0  0
  2  3  1  0  0  0  0
  2  5  1  0  0  0  0
  3  4  1  0  0  0  0
  3 16  1  0  0  0  0
  5  6  1  0  0  0  0
  6  7  1  0  0  0  0
  7  8  1  0  0  0  0
  9  8  1  6  0  0  0
  9 10  1  0  0  0  0
  9 11  1  0  0  0  0
 10 15  1  0  0  0  0
 11 12  1  1  0  0  0
 11 13  1  0  0  0  0
 13 14  1  1  0  0  0
 13 15  1  0  0  0  0
 15 26  1  6  0  0  0
 17 18  2  0  0  0  0
 17 22  1  0  0  0  0
 18 19  1  0  0  0  0
 19 20  2  0  0  0  0
 20 21  1  0  0  0  0
 20 26  1  0  0  0  0
 21 22  2  0  0  0  0
 21 24  1  0  0  0  0
 22 23  1  0  0  0  0
 24 25  2  0  0  0  0
 25 26  1  0  0  0  0
M  END
>  <CHROM.1>
-30.98798861,-76.98288487,-63.50480841,-170.32642769,-166.70322033,-177.83281227
-81.49553229,-10.95736591,11.72991346,-21.49562580,-2.09991905,0.39291895
0.74272661

>  <Name>
ligand

>  <RI>
0

>  <Rbt.Current_Directory>
/home/itssahil/PROJECTS/Mol_Feturizer/New_Systems/rnas/3E5E

>  <Rbt.Executable>
rbdock ($Id: //depot/dev/client3/rdock/2013.1/src/exe/rbdock.cxx#4 $)

>  <Rbt.Library>
libRbt.so (2013.1, Build901 2013/11/27)

>  <Rbt.Parameter_File>
/export/apps/rDock/src/rDock_2013.1_src/data/scripts/dock_solv.prm

>  <Rbt.Receptor>
prm/blind_docking_100.prm

>  <SCORE>
-22.6048

>  <SCORE.INTER>
-19.3043

>  <SCORE.INTER.CONST>
1

>  <SCORE.INTER.POLAR>
0

>  <SCORE.INTER.ROT>
7

>  <SCORE.INTER.SOLV>
13.4468

>  <SCORE.INTER.VDW>
-25.6184

>  <SCORE.INTER.norm>
-0.742473

>  <SCORE.INTRA>
-3.30053

>  <SCORE.INTRA.DIHEDRAL>
-5.96285

>  <SCORE.INTRA.DIHEDRAL.0>
10.1225

>  <SCORE.INTRA.POLAR>
0

>  <SCORE.INTRA.POLAR.0>
0

>  <SCORE.INTRA.REPUL>
0

>  <SCORE.INTRA.REPUL.0>
0

>  <SCORE.INTRA.SOLV>
0.424353

>  <SCORE.INTRA.SOLV.lig_0>
-49.9393

>  <SCORE.INTRA.VDW>
-0.531279

>  <SCORE.INTRA.VDW.0>
-1.75437

>  <SCORE.INTRA.norm>
-0.126943

>  <SCORE.RESTR>
0

>  <SCORE.RESTR.CAVITY>
0

>  <SCORE.RESTR.norm>
0

>  <SCORE.SYSTEM>
0

>  <SCORE.SYSTEM.CONST>
0

>  <SCORE.SYSTEM.DIHEDRAL>
0

>  <SCORE.SYSTEM.SOLV>
0

>  <SCORE.SYSTEM.norm>
0

>  <SCORE.heavy>
26

>  <SCORE.norm>
-0.869416

>  <RMSD>
4.763

$$$$
ligand
 OpenBabel11021811473D
libRbt.so/2013.1/901 2013/11/27
 26 28  0  0  0  0  0  0  0  0999 V2000
  -14.1949    6.1082  -19.2698 N   0  0  0  0  0  0  0  0  0  0  0  0
  -14.2697    7.4636  -19.8291 C   0  0  2  0  0  0  0  0  0  0  0  0
  -14.1088    8.4718  -18.7219 C   0  0  0  0  0  0  0  0  0  0  0  0
  -13.1350    9.1872  -18.6917 O   0  0  0  0  0  0  0  0  0  0  0  0
  -15.6271    7.6605  -20.5062 C   0  0  0  0  0  0  0  0  0  0  0  0
  -15.6862    9.0509  -21.1362 C   0  0  0  0  0  0  0  0  0  0  0  0
  -14.5065    9.5436  -22.2540 S   0  0  0  0  0  0  0  0  0  0  0  0
  -12.7533    9.9991  -22.2450 C   0  0  0  0  0  0  0  0  0  0  0  0
  -12.3148   10.8392  -21.0394 C   0  0  1  0  0  0  0  0  0  0  0  0
  -11.0818   11.4994  -21.2603 O   0  0  0  0  0  0  0  0  0  0  0  0
  -13.2675   11.9786  -20.7642 C   0  0  1  0  0  0  0  0  0  0  0  0
  -13.0773   12.2900  -19.4014 O   0  0  0  0  0  0  0  0  0  0  0  0
  -12.7499   13.1349  -21.5877 C   0  0  1  0  0  0  0  0  0  0  0  0
  -12.8497   14.3301  -20.8445 O   0  0  0  0  0  0  0  0  0  0  0  0
  -11.2909   12.7918  -21.7978 C   0  0  2  0  0  0  0  0  0  0  0  0
  -15.0460    8.5755  -17.7654 O   0  0  0  0  0  0  0  0  0  0  0  0
   -7.5356   11.3501  -25.1194 N   0  0  0  0  0  0  0  0  0  0  0  0
   -7.5374   11.2541  -23.7480 C   0  0  0  0  0  0  0  0  0  0  0  0
   -8.6250   11.7041  -23.0390 N   0  0  0  0  0  0  0  0  0  0  0  0
   -9.6881   12.2355  -23.6736 C   0  0  0  0  0  0  0  0  0  0  0  0
   -9.7074   12.3405  -25.0517 C   0  0  0  0  0  0  0  0  0  0  0  0
   -8.6108   11.8914  -25.7781 C   0  0  0  0  0  0  0  0  0  0  0  0
   -8.5858   11.9769  -27.1024 N   0  0  0  0  0  0  0  0  0  0  0  0
  -10.8805   12.9043  -25.4169 N   0  0  0  0  0  0  0  0  0  0  0  0
  -11.5955   13.1477  -24.3012 C   0  0  0  0  0  0  0  0  0  0  0  0
  -10.8670   12.7496  -23.2094 N   0  0  0  0  0  0  0  0  0  0  0  0
  2  1  1  1  0  0  0
  2  3  1  0  0  0  0
  2  5  1  0  0  0  0
  3  4  1  0  0  0  0
  3 16  1  0  0  0  0
  5  6  1  0  0  0  0
  6  7  1  0  0  0  0
  7  8  1  0  0  0  0
  9  8  1  6  0  0  0
  9 10  1  0  0  0  0
  9 11  1  0  0  0  0
 10 15  1  0  0  0  0
 11 12  1  1  0  0  0
 11 13  1  0  0  0  0
 13 14  1  1  0  0  0
 13 15  1  0  0  0  0
 15 26  1  6  0  0  0
 17 18  2  0  0  0  0
 17 22  1  0  0  0  0
 18 19  1  0  0  0  0
 19 20  2  0  0  0  0
 20 21  1  0  0  0  0
 20 26  1  0  0  0  0
 21 22  2  0  0  0  0
 21 24  1  0  0  0  0
 22 23  1  0  0  0  0
 24 25  2  0  0  0  0
 25 26  1  0  0  0  0
M  END
>  <CHROM.1>
113.78665411,-177.80416514,55.67709036,-70.99144195,-39.40881302,-162.25727086
-48.50957883,-12.10562779,10.85658354,-21.96997721,-2.83429430,0.82759226
0.21324559

>  <Name>
ligand

>  <RI>
0

>  <Rbt.Current_Directory>
/home/itssahil/PROJECTS/Mol_Feturizer/New_Systems/rnas/3E5E

>  <Rbt.Executable>
rbdock ($Id: //depot/dev/client3/rdock/2013.1/src/exe/rbdock.cxx#4 $)

>  <Rbt.Library>
libRbt.so (2013.1, Build901 2013/11/27)

>  <Rbt.Parameter_File>
/export/apps/rDock/src/rDock_2013.1_src/data/scripts/dock_solv.prm

>  <Rbt.Receptor>
prm/pocket_docking_4.prm

>  <SCORE>
-15.5385

>  <SCORE.INTER>
-11.4656

>  <SCORE.INTER.CONST>
1

>  <SCORE.INTER.POLAR>
0

>  <SCORE.INTER.ROT>
7

>  <SCORE.INTER.SOLV>
7.94411

>  <SCORE.INTER.VDW>
-18.5584

>  <SCORE.INTER.norm>
-0.440985

>  <SCORE.INTRA>
-4.07292

>  <SCORE.INTRA.DIHEDRAL>
-5.40232

>  <SCORE.INTRA.DIHEDRAL.0>
10.1225

>  <SCORE.INTRA.POLAR>
0

>  <SCORE.INTRA.POLAR.0>
0

>  <SCORE.INTRA.REPUL>
0

>  <SCORE.INTRA.REPUL.0>
0

>  <SCORE.INTRA.SOLV>
-0.169949

>  <SCORE.INTRA.SOLV.lig_0>
-49.9393

>  <SCORE.INTRA.VDW>
-1.28678

>  <SCORE.INTRA.VDW.0>
-1.75437

>  <SCORE.INTRA.norm>
-0.156651

>  <SCORE.RESTR>
0

>  <SCORE.RESTR.CAVITY>
0

>  <SCORE.RESTR.norm>
0

>  <SCORE.SYSTEM>
0

>  <SCORE.SYSTEM.CONST>
0

>  <SCORE.SYSTEM.DIHEDRAL>
0

>  <SCORE.SYSTEM.SOLV>
0

>  <SCORE.SYSTEM.norm>
0

>  <SCORE.heavy>
26

>  <SCORE.norm>
-0.597635

>  <RMSD>
4.769

$$$$
ligand
 OpenBabel11021811473D
libRbt.so/2013.1/901 2013/11/27
 26 28  0  0  0  0  0  0  0  0999 V2000
  -17.9329    7.8829  -20.6204 N   0  0  0  0  0  0  0  0  0  0  0  0
  -16.7884    8.3831  -19.8486 C   0  0  2  0  0  0  0  0  0  0  0  0
  -17.2828    9.0272  -18.5801 C   0  0  0  0  0  0  0  0  0  0  0  0
  -18.4688    9.0897  -18.3555 O   0  0  0  0  0  0  0  0  0  0  0  0
  -16.0246    9.4141  -20.6812 C   0  0  0  0  0  0  0  0  0  0  0  0
  -15.4804    8.7485  -21.9439 C   0  0  0  0  0  0  0  0  0  0  0  0
  -14.3483    9.5501  -22.9235 S   0  0  0  0  0  0  0  0  0  0  0  0
  -12.6019   10.0247  -22.8469 C   0  0  0  0  0  0  0  0  0  0  0  0
  -12.2080   10.8229  -21.5982 C   0  0  1  0  0  0  0  0  0  0  0  0
  -10.8782   11.3051  -21.6620 O   0  0  0  0  0  0  0  0  0  0  0  0
  -13.0224   12.0865  -21.4512 C   0  0  1  0  0  0  0  0  0  0  0  0
  -12.9649   12.3979  -20.0764 O   0  0  0  0  0  0  0  0  0  0  0  0
  -12.2515   13.1443  -22.2060 C   0  0  1  0  0  0  0  0  0  0  0  0
  -12.2795   14.3574  -21.4860 O   0  0  0  0  0  0  0  0  0  0  0  0
  -10.8386   12.6022  -22.2266 C   0  0  2  0  0  0  0  0  0  0  0  0
  -16.4064    9.5352  -17.6982 O   0  0  0  0  0  0  0  0  0  0  0  0
   -6.5597   11.3819  -24.9498 N   0  0  0  0  0  0  0  0  0  0  0  0
   -6.7100   11.4327  -23.5842 C   0  0  0  0  0  0  0  0  0  0  0  0
   -7.9238   11.7911  -23.0492 N   0  0  0  0  0  0  0  0  0  0  0  0
   -8.9663   12.0909  -23.8483 C   0  0  0  0  0  0  0  0  0  0  0  0
   -8.8373   12.0453  -25.2238 C   0  0  0  0  0  0  0  0  0  0  0  0
   -7.6126   11.6871  -25.7751 C   0  0  0  0  0  0  0  0  0  0  0  0
   -7.4437   11.6345  -27.0905 N   0  0  0  0  0  0  0  0  0  0  0  0
  -10.0240   12.3894  -25.7719 N   0  0  0  0  0  0  0  0  0  0  0  0
  -10.8914   12.6424  -24.7725 C   0  0  0  0  0  0  0  0  0  0  0  0
  -10.2498   12.4732  -23.5722 N   0  0  0  0  0  0  0  0  0  0  0  0
  2  1  1  6  0  0  0
  2  3  1  0  0  0  0
  2  5  1  0  0  0  0
  3  4  1  0  0  0  0
  3 16  1  0  0  0  0
  5  6  1  0  0  0  0
  6  7  1  0  0  0  0
  7  8  1  0  0  0  0
  9  8  1  6  0  0  0
  9 10  1  0  0  0  0
  9 11  1  0  0  0  0
 10 15  1  0  0  0  0
 11 12  1  1  0  0  0
 11 13  1  0  0  0  0
 13 14  1  1  0  0  0
 13 15  1  0  0  0  0
 15 26  1  6  0  0  0
 17 18  2  0  0  0  0
 17 22  1  0  0  0  0
 18 19  1  0  0  0  0
 19 20  2  0  0  0  0
 20 21  1  0  0  0  0
 20 26  1  0  0  0  0
 21 22  2  0  0  0  0
 21 24  1  0  0  0  0
 22 23  1  0  0  0  0
 24 25  2  0  0  0  0
 25 26  1  0  0  0  0
M  END
>  <CHROM.1>
-1.48175387,-62.06581186,-168.46958509,71.51275958,-53.36676512,-172.91462449
-65.50938324,-12.33235606,10.99044308,-22.30974627,2.94854319,0.57660099
0.86045599

>  <Name>
ligand

>  <RI>
0

>  <Rbt.Current_Directory>
/home/itssahil/PROJECTS/Mol_Feturizer/New_Systems/rnas/3E5E

>  <Rbt.Executable>
rbdock ($Id: //depot/dev/client3/rdock/2013.1/src/exe/rbdock.cxx#4 $)

>  <Rbt.Library>
libRbt.so (2013.1, Build901 2013/11/27)

>  <Rbt.Parameter_File>
/export/apps/rDock/src/rDock_2013.1_src/data/scripts/dock_solv.prm

>  <Rbt.Receptor>
prm/pocket_docking_5.prm

>  <SCORE>
-15.12

>  <SCORE.INTER>
-11.6551

>  <SCORE.INTER.CONST>
1

>  <SCORE.INTER.POLAR>
0

>  <SCORE.INTER.ROT>
7

>  <SCORE.INTER.SOLV>
9.1514

>  <SCORE.INTER.VDW>
-19.0872

>  <SCORE.INTER.norm>
-0.448274

>  <SCORE.INTRA>
-3.46484

>  <SCORE.INTRA.DIHEDRAL>
-6.50265

>  <SCORE.INTRA.DIHEDRAL.0>
10.1225

>  <SCORE.INTRA.POLAR>
0

>  <SCORE.INTRA.POLAR.0>
0

>  <SCORE.INTRA.REPUL>
0

>  <SCORE.INTRA.REPUL.0>
0

>  <SCORE.INTRA.SOLV>
0.216011

>  <SCORE.INTRA.SOLV.lig_0>
-49.9393

>  <SCORE.INTRA.VDW>
-0.321516

>  <SCORE.INTRA.VDW.0>
-1.75437

>  <SCORE.INTRA.norm>
-0.133263

>  <SCORE.RESTR>
0

>  <SCORE.RESTR.CAVITY>
0

>  <SCORE.RESTR.norm>
0

>  <SCORE.SYSTEM>
0

>  <SCORE.SYSTEM.CONST>
0

>  <SCORE.SYSTEM.DIHEDRAL>
0

>  <SCORE.SYSTEM.SOLV>
0

>  <SCORE.SYSTEM.norm>
0

>  <SCORE.heavy>
26

>  <SCORE.norm>
-0.581537

>  <RMSD>
4.783

$$$$
ligand
 OpenBabel11021811473D
libRbt.so/2013.1/901 2013/11/27
 26 28  0  0  0  0  0  0  0  0999 V2000
  -14.0696    7.6541  -19.4770 N   0  0  0  0  0  0  0  0  0  0  0  0
  -13.3782    8.7385  -18.7687 C   0  0  2  0  0  0  0  0  0  0  0  0
  -14.1957    9.1588  -17.5758 C   0  0  0  0  0  0  0  0  0  0  0  0
  -15.3898    9.3116  -17.6839 O   0  0  0  0  0  0  0  0  0  0  0  0
  -13.2001    9.9298  -19.7115 C   0  0  0  0  0  0  0  0  0  0  0  0
  -12.4787   11.0584  -18.9771 C   0  0  0  0  0  0  0  0  0  0  0  0
  -12.0509   12.4850  -19.7931 S   0  0  0  0  0  0  0  0  0  0  0  0
  -11.2610   14.0688  -19.4074 C   0  0  0  0  0  0  0  0  0  0  0  0
   -9.8268   13.9579  -18.8759 C   0  0  1  0  0  0  0  0  0  0  0  0
   -8.9560   13.3275  -19.7974 O   0  0  0  0  0  0  0  0  0  0  0  0
   -9.1889   15.3123  -18.6753 C   0  0  1  0  0  0  0  0  0  0  0  0
   -8.1735   15.0977  -17.7197 O   0  0  0  0  0  0  0  0  0  0  0  0
   -8.5310   15.6394  -19.9956 C   0  0  1  0  0  0  0  0  0  0  0  0
   -7.2756   16.2406  -19.7651 O   0  0  0  0  0  0  0  0  0  0  0  0
   -8.3308   14.2821  -20.6345 C   0  0  2  0  0  0  0  0  0  0  0  0
  -13.5984    9.3669  -16.3909 O   0  0  0  0  0  0  0  0  0  0  0  0
   -8.1129   11.7533  -25.1921 N   0  0  0  0  0  0  0  0  0  0  0  0
   -7.2760   11.6231  -24.1092 C   0  0  0  0  0  0  0  0  0  0  0  0
   -7.4896   12.3934  -22.9916 N   0  0  0  0  0  0  0  0  0  0  0  0
   -8.5101   13.2719  -22.9463 C   0  0  0  0  0  0  0  0  0  0  0  0
   -9.3639   13.4180  -24.0234 C   0  0  0  0  0  0  0  0  0  0  0  0
   -9.1546   12.6459  -25.1600 C   0  0  0  0  0  0  0  0  0  0  0  0
   -9.9478   12.7571  -26.2183 N   0  0  0  0  0  0  0  0  0  0  0  0
  -10.2850   14.3562  -23.7092 N   0  0  0  0  0  0  0  0  0  0  0  0
  -10.0304   14.7941  -22.4607 C   0  0  0  0  0  0  0  0  0  0  0  0
   -8.9262   14.1408  -21.9759 N   0  0  0  0  0  0  0  0  0  0  0  0
  2  1  1  6  0  0  0
  2  3  1  0  0  0  0
  2  5  1  0  0  0  0
  3  4  1  0  0  0  0
  3 16  1  0  0  0  0
  5  6  1  0  0  0  0
  6  7  1  0  0  0  0
  7  8  1  0  0  0  0
  9  8  1  6  0  0  0
  9 10  1  0  0  0  0
  9 11  1  0  0  0  0
 10 15  1  0  0  0  0
 11 12  1  1  0  0  0
 11 13  1  0  0  0  0
 13 14  1  1  0  0  0
 13 15  1  0  0  0  0
 15 26  1  6  0  0  0
 17 18  2  0  0  0  0
 17 22  1  0  0  0  0
 18 19  1  0  0  0  0
 19 20  2  0  0  0  0
 20 21  1  0  0  0  0
 20 26  1  0  0  0  0
 21 22  2  0  0  0  0
 21 24  1  0  0  0  0
 22 23  1  0  0  0  0
 24 25  2  0  0  0  0
 25 26  1  0  0  0  0
M  END
>  <CHROM.1>
-44.56711166,-179.90777291,176.26416598,178.19262367,60.24152909,60.02783831
-86.55529892,-10.46272258,12.55634929,-20.68785995,2.81900513,0.82430299
1.17612951

>  <Name>
ligand

>  <RI>
0

>  <Rbt.Current_Directory>
/home/itssahil/PROJECTS/Mol_Feturizer/New_Systems/rnas/3E5E

>  <Rbt.Executable>
rbdock ($Id: //depot/dev/client3/rdock/2013.1/src/exe/rbdock.cxx#4 $)

>  <Rbt.Library>
libRbt.so (2013.1, Build901 2013/11/27)

>  <Rbt.Parameter_File>
/export/apps/rDock/src/rDock_2013.1_src/data/scripts/dock_solv.prm

>  <Rbt.Receptor>
prm/pocket_docking_5.prm

>  <SCORE>
-16.992

>  <SCORE.INTER>
-12.4575

>  <SCORE.INTER.CONST>
1

>  <SCORE.INTER.POLAR>
0

>  <SCORE.INTER.ROT>
7

>  <SCORE.INTER.SOLV>
14.9138

>  <SCORE.INTER.VDW>
-21.5429

>  <SCORE.INTER.norm>
-0.479134

>  <SCORE.INTRA>
-4.53448

>  <SCORE.INTRA.DIHEDRAL>
-7.49326

>  <SCORE.INTRA.DIHEDRAL.0>
10.1225

>  <SCORE.INTRA.POLAR>
0

>  <SCORE.INTRA.POLAR.0>
0

>  <SCORE.INTRA.REPUL>
0

>  <SCORE.INTRA.REPUL.0>
0

>  <SCORE.INTRA.SOLV>
-0.595142

>  <SCORE.INTRA.SOLV.lig_0>
-49.9393

>  <SCORE.INTRA.VDW>
-0.490284

>  <SCORE.INTRA.VDW.0>
-1.75437

>  <SCORE.INTRA.norm>
-0.174403

>  <SCORE.RESTR>
0

>  <SCORE.RESTR.CAVITY>
0

>  <SCORE.RESTR.norm>
0

>  <SCORE.SYSTEM>
0

>  <SCORE.SYSTEM.CONST>
0

>  <SCORE.SYSTEM.DIHEDRAL>
0

>  <SCORE.SYSTEM.SOLV>
0

>  <SCORE.SYSTEM.norm>
0

>  <SCORE.heavy>
26

>  <SCORE.norm>
-0.653538

>  <RMSD>
4.787

$$$$
ligand
 OpenBabel11021811473D
libRbt.so/2013.1/901 2013/11/27
 26 28  0  0  0  0  0  0  0  0999 V2000
  -12.0650    5.9750  -24.6241 N   0  0  0  0  0  0  0  0  0  0  0  0
  -13.0067    6.7883  -23.8448 C   0  0  2  0  0  0  0  0  0  0  0  0
  -13.6047    5.9483  -22.7471 C   0  0  0  0  0  0  0  0  0  0  0  0
  -14.0184    6.4736  -21.7401 O   0  0  0  0  0  0  0  0  0  0  0  0
  -14.1195    7.2977  -24.7624 C   0  0  0  0  0  0  0  0  0  0  0  0
  -14.9965    8.2888  -23.9993 C   0  0  0  0  0  0  0  0  0  0  0  0
  -14.3588    9.7660  -23.4559 S   0  0  0  0  0  0  0  0  0  0  0  0
  -12.9038   10.3492  -22.5482 C   0  0  0  0  0  0  0  0  0  0  0  0
  -12.6691    9.6578  -21.1997 C   0  0  1  0  0  0  0  0  0  0  0  0
  -11.4285   10.0148  -20.6178 O   0  0  0  0  0  0  0  0  0  0  0  0
  -13.6723   10.0909  -20.1569 C   0  0  1  0  0  0  0  0  0  0  0  0
  -13.6977    9.0383  -19.2179 O   0  0  0  0  0  0  0  0  0  0  0  0
  -13.0555   11.2995  -19.4922 C   0  0  1  0  0  0  0  0  0  0  0  0
  -13.2884   11.2479  -18.1016 O   0  0  0  0  0  0  0  0  0  0  0  0
  -11.5758   11.1327  -19.7626 C   0  0  2  0  0  0  0  0  0  0  0  0
  -13.6767    4.6142  -22.8847 O   0  0  0  0  0  0  0  0  0  0  0  0
   -8.3006   15.1575  -19.2255 N   0  0  0  0  0  0  0  0  0  0  0  0
   -8.7098   14.2631  -18.2649 C   0  0  0  0  0  0  0  0  0  0  0  0
   -9.5963   13.2681  -18.5996 N   0  0  0  0  0  0  0  0  0  0  0  0
  -10.0659   13.1596  -19.8578 C   0  0  0  0  0  0  0  0  0  0  0  0
   -9.6669   14.0475  -20.8391 C   0  0  0  0  0  0  0  0  0  0  0  0
   -8.7730   15.0598  -20.5101 C   0  0  0  0  0  0  0  0  0  0  0  0
   -8.3668   15.9363  -21.4203 N   0  0  0  0  0  0  0  0  0  0  0  0
  -10.2858   13.7099  -21.9925 N   0  0  0  0  0  0  0  0  0  0  0  0
  -11.0559   12.6300  -21.7561 C   0  0  0  0  0  0  0  0  0  0  0  0
  -10.9408   12.2813  -20.4346 N   0  0  0  0  0  0  0  0  0  0  0  0
  2  1  1  6  0  0  0
  2  3  1  0  0  0  0
  2  5  1  0  0  0  0
  3  4  1  0  0  0  0
  3 16  1  0  0  0  0
  5  6  1  0  0  0  0
  6  7  1  0  0  0  0
  7  8  1  0  0  0  0
  9  8  1  6  0  0  0
  9 10  1  0  0  0  0
  9 11  1  0  0  0  0
 10 15  1  0  0  0  0
 11 12  1  1  0  0  0
 11 13  1  0  0  0  0
 13 14  1  1  0  0  0
 13 15  1  0  0  0  0
 15 26  1  6  0  0  0
 17 18  2  0  0  0  0
 17 22  1  0  0  0  0
 18 19  1  0  0  0  0
 19 20  2  0  0  0  0
 20 21  1  0  0  0  0
 20 26  1  0  0  0  0
 21 22  2  0  0  0  0
 21 24  1  0  0  0  0
 22 23  1  0  0  0  0
 24 25  2  0  0  0  0
 25 26  1  0  0  0  0
M  END
>  <CHROM.1>
154.34972252,-172.67747635,64.81186339,-48.90694996,-53.31063534,171.91008112
-132.44213049,-12.03654414,10.51809496,-21.34380135,-2.55797084,0.95837642
1.32014571

>  <Name>
ligand

>  <RI>
0

>  <Rbt.Current_Directory>
/home/itssahil/PROJECTS/Mol_Feturizer/New_Systems/rnas/3E5E

>  <Rbt.Executable>
rbdock ($Id: //depot/dev/client3/rdock/2013.1/src/exe/rbdock.cxx#4 $)

>  <Rbt.Library>
libRbt.so (2013.1, Build901 2013/11/27)

>  <Rbt.Parameter_File>
/export/apps/rDock/src/rDock_2013.1_src/data/scripts/dock_solv.prm

>  <Rbt.Receptor>
prm/blind_docking_100.prm

>  <SCORE>
-20.5079

>  <SCORE.INTER>
-15.9137

>  <SCORE.INTER.CONST>
1

>  <SCORE.INTER.POLAR>
0

>  <SCORE.INTER.ROT>
7

>  <SCORE.INTER.SOLV>
10.7388

>  <SCORE.INTER.VDW>
-22.4554

>  <SCORE.INTER.norm>
-0.612066

>  <SCORE.INTRA>
-4.59421

>  <SCORE.INTRA.DIHEDRAL>
-6.5635

>  <SCORE.INTRA.DIHEDRAL.0>
10.1225

>  <SCORE.INTRA.POLAR>
0

>  <SCORE.INTRA.POLAR.0>
0

>  <SCORE.INTRA.REPUL>
0

>  <SCORE.INTRA.REPUL.0>
0

>  <SCORE.INTRA.SOLV>
-0.380738

>  <SCORE.INTRA.SOLV.lig_0>
-49.9393

>  <SCORE.INTRA.VDW>
-1.12209

>  <SCORE.INTRA.VDW.0>
-1.75437

>  <SCORE.INTRA.norm>
-0.1767

>  <SCORE.RESTR>
0

>  <SCORE.RESTR.CAVITY>
0

>  <SCORE.RESTR.norm>
0

>  <SCORE.SYSTEM>
0

>  <SCORE.SYSTEM.CONST>
0

>  <SCORE.SYSTEM.DIHEDRAL>
0

>  <SCORE.SYSTEM.SOLV>
0

>  <SCORE.SYSTEM.norm>
0

>  <SCORE.heavy>
26

>  <SCORE.norm>
-0.788766

>  <RMSD>
4.788

$$$$
ligand
 OpenBabel11021811473D
libRbt.so/2013.1/901 2013/11/27
 26 28  0  0  0  0  0  0  0  0999 V2000
  -14.7603    7.5440  -21.9281 N   0  0  0  0  0  0  0  0  0  0  0  0
  -14.7411    8.9447  -22.3679 C   0  0  2  0  0  0  0  0  0  0  0  0
  -15.0699    9.0133  -23.8360 C   0  0  0  0  0  0  0  0  0  0  0  0
  -15.1148    8.0004  -24.4941 O   0  0  0  0  0  0  0  0  0  0  0  0
  -13.3504    9.5345  -22.1276 C   0  0  0  0  0  0  0  0  0  0  0  0
  -13.0804    9.6097  -20.6259 C   0  0  0  0  0  0  0  0  0  0  0  0
  -11.6387   10.2901  -20.0405 S   0  0  0  0  0  0  0  0  0  0  0  0
  -10.6258   11.7606  -20.3449 C   0  0  0  0  0  0  0  0  0  0  0  0
  -11.3488   13.0948  -20.1235 C   0  0  1  0  0  0  0  0  0  0  0  0
  -10.6845   14.1793  -20.7460 O   0  0  0  0  0  0  0  0  0  0  0  0
  -12.7142   13.1151  -20.7690 C   0  0  1  0  0  0  0  0  0  0  0  0
  -13.4379   14.0950  -20.0574 O   0  0  0  0  0  0  0  0  0  0  0  0
  -12.4816   13.6278  -22.1712 C   0  0  1  0  0  0  0  0  0  0  0  0
  -13.5157   14.5183  -22.5294 O   0  0  0  0  0  0  0  0  0  0  0  0
  -11.1782   14.3884  -22.0558 C   0  0  2  0  0  0  0  0  0  0  0  0
  -15.3110   10.2003  -24.4163 O   0  0  0  0  0  0  0  0  0  0  0  0
   -7.3043   15.9225  -25.1948 N   0  0  0  0  0  0  0  0  0  0  0  0
   -8.1631   16.7070  -24.4618 C   0  0  0  0  0  0  0  0  0  0  0  0
   -9.1372   16.1126  -23.6966 N   0  0  0  0  0  0  0  0  0  0  0  0
   -9.2575   14.7713  -23.6562 C   0  0  0  0  0  0  0  0  0  0  0  0
   -8.4042   13.9639  -24.3845 C   0  0  0  0  0  0  0  0  0  0  0  0
   -7.4174   14.5553  -25.1645 C   0  0  0  0  0  0  0  0  0  0  0  0
   -6.5794   13.8180  -25.8827 N   0  0  0  0  0  0  0  0  0  0  0  0
   -8.7473   12.6755  -24.1617 N   0  0  0  0  0  0  0  0  0  0  0  0
   -9.7893   12.6594  -23.3077 C   0  0  0  0  0  0  0  0  0  0  0  0
  -10.1267   13.9507  -22.9921 N   0  0  0  0  0  0  0  0  0  0  0  0
  2  1  1  6  0  0  0
  2  3  1  0  0  0  0
  2  5  1  0  0  0  0
  3  4  1  0  0  0  0
  3 16  1  0  0  0  0
  5  6  1  0  0  0  0
  6  7  1  0  0  0  0
  7  8  1  0  0  0  0
  9  8  1  6  0  0  0
  9 10  1  0  0  0  0
  9 11  1  0  0  0  0
 10 15  1  0  0  0  0
 11 12  1  1  0  0  0
 11 13  1  0  0  0  0
 13 14  1  1  0  0  0
 13 15  1  0  0  0  0
 15 26  1  6  0  0  0
 17 18  2  0  0  0  0
 17 22  1  0  0  0  0
 18 19  1  0  0  0  0
 19 20  2  0  0  0  0
 20 21  1  0  0  0  0
 20 26  1  0  0  0  0
 21 22  2  0  0  0  0
 21 24  1  0  0  0  0
 22 23  1  0  0  0  0
 24 25  2  0  0  0  0
 25 26  1  0  0  0  0
M  END
>  <CHROM.1>
-10.24122694,-66.36429830,-177.18881480,45.59737678,59.13802643,-161.97831920
-100.70848076,-11.42044457,12.42471806,-22.58503803,-2.99435800,0.78533711
1.02907452

>  <Name>
ligand

>  <RI>
0

>  <Rbt.Current_Directory>
/home/itssahil/PROJECTS/Mol_Feturizer/New_Systems/rnas/3E5E

>  <Rbt.Executable>
rbdock ($Id: //depot/dev/client3/rdock/2013.1/src/exe/rbdock.cxx#4 $)

>  <Rbt.Library>
libRbt.so (2013.1, Build901 2013/11/27)

>  <Rbt.Parameter_File>
/export/apps/rDock/src/rDock_2013.1_src/data/scripts/dock_solv.prm

>  <Rbt.Receptor>
prm/blind_docking_40.prm

>  <SCORE>
-19.6132

>  <SCORE.INTER>
-16.0841

>  <SCORE.INTER.CONST>
1

>  <SCORE.INTER.POLAR>
0

>  <SCORE.INTER.ROT>
7

>  <SCORE.INTER.SOLV>
10.1453

>  <SCORE.INTER.VDW>
-22.3712

>  <SCORE.INTER.norm>
-0.618619

>  <SCORE.INTRA>
-3.52911

>  <SCORE.INTRA.DIHEDRAL>
-5.91601

>  <SCORE.INTRA.DIHEDRAL.0>
10.1225

>  <SCORE.INTRA.POLAR>
0

>  <SCORE.INTRA.POLAR.0>
0

>  <SCORE.INTRA.REPUL>
0

>  <SCORE.INTRA.REPUL.0>
0

>  <SCORE.INTRA.SOLV>
0.196686

>  <SCORE.INTRA.SOLV.lig_0>
-49.9393

>  <SCORE.INTRA.VDW>
-0.669449

>  <SCORE.INTRA.VDW.0>
-1.75437

>  <SCORE.INTRA.norm>
-0.135735

>  <SCORE.RESTR>
0

>  <SCORE.RESTR.CAVITY>
0

>  <SCORE.RESTR.norm>
0

>  <SCORE.SYSTEM>
0

>  <SCORE.SYSTEM.CONST>
0

>  <SCORE.SYSTEM.DIHEDRAL>
0

>  <SCORE.SYSTEM.SOLV>
0

>  <SCORE.SYSTEM.norm>
0

>  <SCORE.heavy>
26

>  <SCORE.norm>
-0.754354

>  <RMSD>
4.788

$$$$
ligand
 OpenBabel11021811473D
libRbt.so/2013.1/901 2013/11/27
 26 28  0  0  0  0  0  0  0  0999 V2000
  -13.4951    9.3579  -20.8375 N   0  0  0  0  0  0  0  0  0  0  0  0
  -13.7303   10.2931  -21.9446 C   0  0  2  0  0  0  0  0  0  0  0  0
  -14.6603    9.6601  -22.9459 C   0  0  0  0  0  0  0  0  0  0  0  0
  -15.1028    8.5533  -22.7455 O   0  0  0  0  0  0  0  0  0  0  0  0
  -12.3995   10.6251  -22.6218 C   0  0  0  0  0  0  0  0  0  0  0  0
  -12.5156   11.9655  -23.3454 C   0  0  0  0  0  0  0  0  0  0  0  0
  -12.4901   13.4227  -22.4736 S   0  0  0  0  0  0  0  0  0  0  0  0
  -12.1298   13.9731  -20.7859 C   0  0  0  0  0  0  0  0  0  0  0  0
  -11.0150   13.1915  -20.0803 C   0  0  1  0  0  0  0  0  0  0  0  0
   -9.8427   13.0917  -20.8681 O   0  0  0  0  0  0  0  0  0  0  0  0
  -10.5298   13.8939  -18.8342 C   0  0  1  0  0  0  0  0  0  0  0  0
   -9.9640   12.8745  -18.0396 O   0  0  0  0  0  0  0  0  0  0  0  0
   -9.4147   14.8010  -19.2998 C   0  0  1  0  0  0  0  0  0  0  0  0
   -8.3595   14.7763  -18.3635 O   0  0  0  0  0  0  0  0  0  0  0  0
   -8.9573   14.1608  -20.5926 C   0  0  2  0  0  0  0  0  0  0  0  0
  -14.9969   10.3237  -24.0641 O   0  0  0  0  0  0  0  0  0  0  0  0
   -7.0886   18.5638  -22.6747 N   0  0  0  0  0  0  0  0  0  0  0  0
   -6.8420   18.0451  -21.4256 C   0  0  0  0  0  0  0  0  0  0  0  0
   -7.4430   16.8678  -21.0504 N   0  0  0  0  0  0  0  0  0  0  0  0
   -8.2684   16.2174  -21.8936 C   0  0  0  0  0  0  0  0  0  0  0  0
   -8.5293   16.7208  -23.1542 C   0  0  0  0  0  0  0  0  0  0  0  0
   -7.9290   17.9129  -23.5423 C   0  0  0  0  0  0  0  0  0  0  0  0
   -8.1550   18.4339  -24.7419 N   0  0  0  0  0  0  0  0  0  0  0  0
   -9.3806   15.8769  -23.7792 N   0  0  0  0  0  0  0  0  0  0  0  0
   -9.6519   14.8568  -22.9419 C   0  0  0  0  0  0  0  0  0  0  0  0
   -8.9796   15.0569  -21.7633 N   0  0  0  0  0  0  0  0  0  0  0  0
  2  1  1  1  0  0  0
  2  3  1  0  0  0  0
  2  5  1  0  0  0  0
  3  4  1  0  0  0  0
  3 16  1  0  0  0  0
  5  6  1  0  0  0  0
  6  7  1  0  0  0  0
  7  8  1  0  0  0  0
  9  8  1  6  0  0  0
  9 10  1  0  0  0  0
  9 11  1  0  0  0  0
 10 15  1  0  0  0  0
 11 12  1  1  0  0  0
 11 13  1  0  0  0  0
 13 14  1  1  0  0  0
 13 15  1  0  0  0  0
 15 26  1  6  0  0  0
 17 18  2  0  0  0  0
 17 22  1  0  0  0  0
 18 19  1  0  0  0  0
 19 20  2  0  0  0  0
 20 21  1  0  0  0  0
 20 26  1  0  0  0  0
 21 22  2  0  0  0  0
 21 24  1  0  0  0  0
 22 23  1  0  0  0  0
 24 25  2  0  0  0  0
 25 26  1  0  0  0  0
M  END
>  <CHROM.1>
1.30638679,-156.81821607,75.89022025,10.69026547,34.68230616,50.41323179
179.39016146,-10.61932749,13.85835567,-21.72664531,-2.85530613,-0.81334590
-1.13634500

>  <Name>
ligand

>  <RI>
0

>  <Rbt.Current_Directory>
/home/itssahil/PROJECTS/Mol_Feturizer/New_Systems/rnas/3E5E

>  <Rbt.Executable>
rbdock ($Id: //depot/dev/client3/rdock/2013.1/src/exe/rbdock.cxx#4 $)

>  <Rbt.Library>
libRbt.so (2013.1, Build901 2013/11/27)

>  <Rbt.Parameter_File>
/export/apps/rDock/src/rDock_2013.1_src/data/scripts/dock_solv.prm

>  <Rbt.Receptor>
prm/blind_docking_80.prm

>  <SCORE>
-22.8239

>  <SCORE.INTER>
-20.7389

>  <SCORE.INTER.CONST>
1

>  <SCORE.INTER.POLAR>
0

>  <SCORE.INTER.ROT>
7

>  <SCORE.INTER.SOLV>
12.8845

>  <SCORE.INTER.VDW>
-26.3875

>  <SCORE.INTER.norm>
-0.797651

>  <SCORE.INTRA>
-2.08497

>  <SCORE.INTRA.DIHEDRAL>
-1.20171

>  <SCORE.INTRA.DIHEDRAL.0>
10.1225

>  <SCORE.INTRA.POLAR>
0

>  <SCORE.INTRA.POLAR.0>
0

>  <SCORE.INTRA.REPUL>
0

>  <SCORE.INTRA.REPUL.0>
0

>  <SCORE.INTRA.SOLV>
-0.167669

>  <SCORE.INTRA.SOLV.lig_0>
-49.9393

>  <SCORE.INTRA.VDW>
-1.40028

>  <SCORE.INTRA.VDW.0>
-1.75437

>  <SCORE.INTRA.norm>
-0.080191

>  <SCORE.RESTR>
0

>  <SCORE.RESTR.CAVITY>
0

>  <SCORE.RESTR.norm>
0

>  <SCORE.SYSTEM>
0

>  <SCORE.SYSTEM.CONST>
0

>  <SCORE.SYSTEM.DIHEDRAL>
0

>  <SCORE.SYSTEM.SOLV>
0

>  <SCORE.SYSTEM.norm>
0

>  <SCORE.heavy>
26

>  <SCORE.norm>
-0.877842

>  <RMSD>
4.800

$$$$
ligand
 OpenBabel11021811473D
libRbt.so/2013.1/901 2013/11/27
 26 28  0  0  0  0  0  0  0  0999 V2000
  -15.3186    9.3231  -20.1117 N   0  0  0  0  0  0  0  0  0  0  0  0
  -16.2485    8.6312  -21.0128 C   0  0  2  0  0  0  0  0  0  0  0  0
  -17.1221    7.7010  -20.2131 C   0  0  0  0  0  0  0  0  0  0  0  0
  -18.2924    7.5814  -20.4910 O   0  0  0  0  0  0  0  0  0  0  0  0
  -15.4546    7.8267  -22.0435 C   0  0  0  0  0  0  0  0  0  0  0  0
  -14.8845    8.7719  -23.0995 C   0  0  0  0  0  0  0  0  0  0  0  0
  -13.7794    9.9862  -22.6655 S   0  0  0  0  0  0  0  0  0  0  0  0
  -12.1213   10.0996  -21.9451 C   0  0  0  0  0  0  0  0  0  0  0  0
  -11.9290   11.2559  -20.9563 C   0  0  1  0  0  0  0  0  0  0  0  0
  -10.8567   12.1058  -21.3203 O   0  0  0  0  0  0  0  0  0  0  0  0
  -13.1149   12.1913  -20.9384 C   0  0  1  0  0  0  0  0  0  0  0  0
  -13.0593   12.8242  -19.6788 O   0  0  0  0  0  0  0  0  0  0  0  0
  -12.8185   13.2264  -21.9985 C   0  0  1  0  0  0  0  0  0  0  0  0
  -13.2058   14.5026  -21.5383 O   0  0  0  0  0  0  0  0  0  0  0  0
  -11.3118   13.1733  -22.1303 C   0  0  2  0  0  0  0  0  0  0  0  0
  -16.6026    7.0052  -19.1884 O   0  0  0  0  0  0  0  0  0  0  0  0
   -7.4438   11.1968  -25.0193 N   0  0  0  0  0  0  0  0  0  0  0  0
   -7.5124   11.2994  -23.6501 C   0  0  0  0  0  0  0  0  0  0  0  0
   -8.6199   11.8675  -23.0681 N   0  0  0  0  0  0  0  0  0  0  0  0
   -9.6378   12.3222  -23.8246 C   0  0  0  0  0  0  0  0  0  0  0  0
   -9.5898   12.2280  -25.2028 C   0  0  0  0  0  0  0  0  0  0  0  0
   -8.4724   11.6581  -25.8016 C   0  0  0  0  0  0  0  0  0  0  0  0
   -8.3831   11.5516  -27.1216 N   0  0  0  0  0  0  0  0  0  0  0  0
  -10.7293   12.7557  -25.7031 N   0  0  0  0  0  0  0  0  0  0  0  0
  -11.4892   13.1708  -24.6709 C   0  0  0  0  0  0  0  0  0  0  0  0
  -10.8234   12.9203  -23.4983 N   0  0  0  0  0  0  0  0  0  0  0  0
  2  1  1  1  0  0  0
  2  3  1  0  0  0  0
  2  5  1  0  0  0  0
  3  4  1  0  0  0  0
  3 16  1  0  0  0  0
  5  6  1  0  0  0  0
  6  7  1  0  0  0  0
  7  8  1  0  0  0  0
  9  8  1  6  0  0  0
  9 10  1  0  0  0  0
  9 11  1  0  0  0  0
 10 15  1  0  0  0  0
 11 12  1  1  0  0  0
 11 13  1  0  0  0  0
 13 14  1  1  0  0  0
 13 15  1  0  0  0  0
 15 26  1  6  0  0  0
 17 18  2  0  0  0  0
 17 22  1  0  0  0  0
 18 19  1  0  0  0  0
 19 20  2  0  0  0  0
 20 21  1  0  0  0  0
 20 26  1  0  0  0  0
 21 22  2  0  0  0  0
 21 24  1  0  0  0  0
 22 23  1  0  0  0  0
 24 25  2  0  0  0  0
 25 26  1  0  0  0  0
M  END
>  <CHROM.1>
140.99924837,-76.01451946,62.04761447,61.88257502,-141.27688376,-123.95304839
-33.84461005,-12.43348975,10.96777800,-22.49385135,3.04559333,-0.65534659
-2.53789199

>  <Name>
ligand

>  <RI>
0

>  <Rbt.Current_Directory>
/home/itssahil/PROJECTS/Mol_Feturizer/New_Systems/rnas/3E5E

>  <Rbt.Executable>
rbdock ($Id: //depot/dev/client3/rdock/2013.1/src/exe/rbdock.cxx#4 $)

>  <Rbt.Library>
libRbt.so (2013.1, Build901 2013/11/27)

>  <Rbt.Parameter_File>
/export/apps/rDock/src/rDock_2013.1_src/data/scripts/dock_solv.prm

>  <Rbt.Receptor>
prm/pocket_docking_4.prm

>  <SCORE>
-11.5633

>  <SCORE.INTER>
-13.3096

>  <SCORE.INTER.CONST>
1

>  <SCORE.INTER.POLAR>
0

>  <SCORE.INTER.ROT>
7

>  <SCORE.INTER.SOLV>
8.32427

>  <SCORE.INTER.VDW>
-19.9145

>  <SCORE.INTER.norm>
-0.511908

>  <SCORE.INTRA>
1.74635

>  <SCORE.INTRA.DIHEDRAL>
0.538106

>  <SCORE.INTRA.DIHEDRAL.0>
10.1225

>  <SCORE.INTRA.POLAR>
0

>  <SCORE.INTRA.POLAR.0>
0

>  <SCORE.INTRA.REPUL>
0

>  <SCORE.INTRA.REPUL.0>
0

>  <SCORE.INTRA.SOLV>
3.12791

>  <SCORE.INTRA.SOLV.lig_0>
-49.9393

>  <SCORE.INTRA.VDW>
-0.0866587

>  <SCORE.INTRA.VDW.0>
-1.75437

>  <SCORE.INTRA.norm>
0.0671673

>  <SCORE.RESTR>
0

>  <SCORE.RESTR.CAVITY>
0

>  <SCORE.RESTR.norm>
0

>  <SCORE.SYSTEM>
0

>  <SCORE.SYSTEM.CONST>
0

>  <SCORE.SYSTEM.DIHEDRAL>
0

>  <SCORE.SYSTEM.SOLV>
0

>  <SCORE.SYSTEM.norm>
0

>  <SCORE.heavy>
26

>  <SCORE.norm>
-0.444741

>  <RMSD>
4.897

$$$$
ligand
 OpenBabel11021811473D
libRbt.so/2013.1/901 2013/11/27
 26 28  0  0  0  0  0  0  0  0999 V2000
  -13.7205    8.1512  -23.3711 N   0  0  0  0  0  0  0  0  0  0  0  0
  -13.0937    7.9195  -24.6784 C   0  0  2  0  0  0  0  0  0  0  0  0
  -13.6351    6.6470  -25.2749 C   0  0  0  0  0  0  0  0  0  0  0  0
  -14.3499    5.9268  -24.6180 O   0  0  0  0  0  0  0  0  0  0  0  0
  -11.5792    7.7973  -24.5022 C   0  0  0  0  0  0  0  0  0  0  0  0
  -10.9992    9.1565  -24.1152 C   0  0  0  0  0  0  0  0  0  0  0  0
  -11.3160    9.8274  -22.5876 S   0  0  0  0  0  0  0  0  0  0  0  0
  -10.5550   11.0249  -21.4615 C   0  0  0  0  0  0  0  0  0  0  0  0
  -11.3564   11.3035  -20.1841 C   0  0  1  0  0  0  0  0  0  0  0  0
  -10.7242   12.2534  -19.3457 O   0  0  0  0  0  0  0  0  0  0  0  0
  -12.6918   11.9444  -20.4795 C   0  0  1  0  0  0  0  0  0  0  0  0
  -13.4964   11.6394  -19.3615 O   0  0  0  0  0  0  0  0  0  0  0  0
  -12.4263   13.4318  -20.4764 C   0  0  1  0  0  0  0  0  0  0  0  0
  -13.4897   14.1032  -19.8367 O   0  0  0  0  0  0  0  0  0  0  0  0
  -11.1713   13.5633  -19.6410 C   0  0  2  0  0  0  0  0  0  0  0  0
  -13.3222    6.3094  -26.5367 O   0  0  0  0  0  0  0  0  0  0  0  0
   -6.5963   15.9822  -18.9832 N   0  0  0  0  0  0  0  0  0  0  0  0
   -7.4272   15.4626  -18.0190 C   0  0  0  0  0  0  0  0  0  0  0  0
   -8.6086   14.8681  -18.3917 N   0  0  0  0  0  0  0  0  0  0  0  0
   -8.9589   14.7881  -19.6902 C   0  0  0  0  0  0  0  0  0  0  0  0
   -8.1379   15.3031  -20.6757 C   0  0  0  0  0  0  0  0  0  0  0  0
   -6.9422   15.9095  -20.3091 C   0  0  0  0  0  0  0  0  0  0  0  0
   -6.1262   16.4208  -21.2225 N   0  0  0  0  0  0  0  0  0  0  0  0
   -8.7279   15.0887  -21.8729 N   0  0  0  0  0  0  0  0  0  0  0  0
   -9.8932   14.4473  -21.6587 C   0  0  0  0  0  0  0  0  0  0  0  0
  -10.0586   14.2623  -20.3098 N   0  0  0  0  0  0  0  0  0  0  0  0
  2  1  1  1  0  0  0
  2  3  1  0  0  0  0
  2  5  1  0  0  0  0
  3  4  1  0  0  0  0
  3 16  1  0  0  0  0
  5  6  1  0  0  0  0
  6  7  1  0  0  0  0
  7  8  1  0  0  0  0
  9  8  1  6  0  0  0
  9 10  1  0  0  0  0
  9 11  1  0  0  0  0
 10 15  1  0  0  0  0
 11 12  1  1  0  0  0
 11 13  1  0  0  0  0
 13 14  1  1  0  0  0
 13 15  1  0  0  0  0
 15 26  1  6  0  0  0
 17 18  2  0  0  0  0
 17 22  1  0  0  0  0
 18 19  1  0  0  0  0
 19 20  2  0  0  0  0
 20 21  1  0  0  0  0
 20 26  1  0  0  0  0
 21 22  2  0  0  0  0
 21 24  1  0  0  0  0
 22 23  1  0  0  0  0
 24 25  2  0  0  0  0
 25 26  1  0  0  0  0
M  END
>  <CHROM.1>
-7.77029620,-69.23867168,69.62717214,156.12989671,177.06990157,-179.48642074
-77.72617138,-10.86759845,11.84905924,-21.53547715,2.11682798,-0.46606149
-2.32804331

>  <Name>
ligand

>  <RI>
0

>  <Rbt.Current_Directory>
/home/itssahil/PROJECTS/Mol_Feturizer/New_Systems/rnas/3E5E

>  <Rbt.Executable>
rbdock ($Id: //depot/dev/client3/rdock/2013.1/src/exe/rbdock.cxx#4 $)

>  <Rbt.Library>
libRbt.so (2013.1, Build901 2013/11/27)

>  <Rbt.Parameter_File>
/export/apps/rDock/src/rDock_2013.1_src/data/scripts/dock_solv.prm

>  <Rbt.Receptor>
prm/blind_docking_100.prm

>  <SCORE>
-22.9565

>  <SCORE.INTER>
-20.2935

>  <SCORE.INTER.CONST>
1

>  <SCORE.INTER.POLAR>
0

>  <SCORE.INTER.ROT>
7

>  <SCORE.INTER.SOLV>
12.3955

>  <SCORE.INTER.VDW>
-25.9275

>  <SCORE.INTER.norm>
-0.780521

>  <SCORE.INTRA>
-2.6647

>  <SCORE.INTRA.DIHEDRAL>
-6.01592

>  <SCORE.INTRA.DIHEDRAL.0>
10.1225

>  <SCORE.INTRA.POLAR>
0

>  <SCORE.INTRA.POLAR.0>
0

>  <SCORE.INTRA.REPUL>
0

>  <SCORE.INTRA.REPUL.0>
0

>  <SCORE.INTRA.SOLV>
1.29005

>  <SCORE.INTRA.SOLV.lig_0>
-49.9393

>  <SCORE.INTRA.VDW>
-0.301766

>  <SCORE.INTRA.VDW.0>
-1.75437

>  <SCORE.INTRA.norm>
-0.102488

>  <SCORE.RESTR>
0.00175206

>  <SCORE.RESTR.CAVITY>
0.00175206

>  <SCORE.RESTR.norm>
6.73871e-05

>  <SCORE.SYSTEM>
0

>  <SCORE.SYSTEM.CONST>
0

>  <SCORE.SYSTEM.DIHEDRAL>
0

>  <SCORE.SYSTEM.SOLV>
0

>  <SCORE.SYSTEM.norm>
0

>  <SCORE.heavy>
26

>  <SCORE.norm>
-0.882942

>  <RMSD>
4.905

$$$$
ligand
 OpenBabel11021811473D
libRbt.so/2013.1/901 2013/11/27
 26 28  0  0  0  0  0  0  0  0999 V2000
  -12.2215    5.8339  -24.4130 N   0  0  0  0  0  0  0  0  0  0  0  0
  -12.3083    7.2870  -24.2214 C   0  0  2  0  0  0  0  0  0  0  0  0
  -13.3184    7.8592  -25.1808 C   0  0  0  0  0  0  0  0  0  0  0  0
  -13.0942    7.8566  -26.3685 O   0  0  0  0  0  0  0  0  0  0  0  0
  -10.9397    7.9175  -24.4842 C   0  0  0  0  0  0  0  0  0  0  0  0
  -10.9927    9.4081  -24.1540 C   0  0  0  0  0  0  0  0  0  0  0  0
  -11.2593    9.9307  -22.5603 S   0  0  0  0  0  0  0  0  0  0  0  0
  -10.5148   11.0890  -21.3833 C   0  0  0  0  0  0  0  0  0  0  0  0
  -11.3491   11.3479  -20.1229 C   0  0  1  0  0  0  0  0  0  0  0  0
  -10.7579   12.3131  -19.2722 O   0  0  0  0  0  0  0  0  0  0  0  0
  -12.6934   11.9558  -20.4463 C   0  0  1  0  0  0  0  0  0  0  0  0
  -13.5133   11.6313  -19.3450 O   0  0  0  0  0  0  0  0  0  0  0  0
  -12.4646   13.4494  -20.4386 C   0  0  1  0  0  0  0  0  0  0  0  0
  -13.5572   14.0945  -19.8215 O   0  0  0  0  0  0  0  0  0  0  0  0
  -11.2307   13.6116  -19.5774 C   0  0  2  0  0  0  0  0  0  0  0  0
  -14.4685    8.3755  -24.7175 O   0  0  0  0  0  0  0  0  0  0  0  0
   -6.7775   16.2204  -18.8181 N   0  0  0  0  0  0  0  0  0  0  0  0
   -7.6223   15.6913  -17.8714 C   0  0  0  0  0  0  0  0  0  0  0  0
   -8.7661   15.0431  -18.2708 N   0  0  0  0  0  0  0  0  0  0  0  0
   -9.0660   14.9197  -19.5785 C   0  0  0  0  0  0  0  0  0  0  0  0
   -8.2301   15.4434  -20.5468 C   0  0  0  0  0  0  0  0  0  0  0  0
   -7.0722   16.1039  -20.1532 C   0  0  0  0  0  0  0  0  0  0  0  0
   -6.2437   16.6253  -21.0495 N   0  0  0  0  0  0  0  0  0  0  0  0
   -8.7679   15.1788  -21.7585 N   0  0  0  0  0  0  0  0  0  0  0  0
   -9.9150   14.4979  -21.5698 C   0  0  0  0  0  0  0  0  0  0  0  0
  -10.1219   14.3377  -20.2235 N   0  0  0  0  0  0  0  0  0  0  0  0
  2  1  1  6  0  0  0
  2  3  1  0  0  0  0
  2  5  1  0  0  0  0
  3  4  1  0  0  0  0
  3 16  1  0  0  0  0
  5  6  1  0  0  0  0
  6  7  1  0  0  0  0
  7  8  1  0  0  0  0
  9  8  1  6  0  0  0
  9 10  1  0  0  0  0
  9 11  1  0  0  0  0
 10 15  1  0  0  0  0
 11 12  1  1  0  0  0
 11 13  1  0  0  0  0
 13 14  1  1  0  0  0
 13 15  1  0  0  0  0
 15 26  1  6  0  0  0
 17 18  2  0  0  0  0
 17 22  1  0  0  0  0
 18 19  1  0  0  0  0
 19 20  2  0  0  0  0
 20 21  1  0  0  0  0
 20 26  1  0  0  0  0
 21 22  2  0  0  0  0
 21 24  1  0  0  0  0
 22 23  1  0  0  0  0
 24 25  2  0  0  0  0
 25 26  1  0  0  0  0
M  END
>  <CHROM.1>
-67.85211105,-174.51596586,64.86787063,130.22395115,169.25190047,-176.79498287
-79.49880911,-10.78570893,12.03403066,-21.49192553,-2.06259576,0.43731874
0.80014296

>  <Name>
ligand

>  <RI>
0

>  <Rbt.Current_Directory>
/home/itssahil/PROJECTS/Mol_Feturizer/New_Systems/rnas/3E5E

>  <Rbt.Executable>
rbdock ($Id: //depot/dev/client3/rdock/2013.1/src/exe/rbdock.cxx#4 $)

>  <Rbt.Library>
libRbt.so (2013.1, Build901 2013/11/27)

>  <Rbt.Parameter_File>
/export/apps/rDock/src/rDock_2013.1_src/data/scripts/dock_solv.prm

>  <Rbt.Receptor>
prm/blind_docking_100.prm

>  <SCORE>
-23.5221

>  <SCORE.INTER>
-20.6188

>  <SCORE.INTER.CONST>
1

>  <SCORE.INTER.POLAR>
0

>  <SCORE.INTER.ROT>
7

>  <SCORE.INTER.SOLV>
12.6665

>  <SCORE.INTER.VDW>
-26.2347

>  <SCORE.INTER.norm>
-0.793031

>  <SCORE.INTRA>
-2.90325

>  <SCORE.INTRA.DIHEDRAL>
-4.86675

>  <SCORE.INTRA.DIHEDRAL.0>
10.1225

>  <SCORE.INTRA.POLAR>
0

>  <SCORE.INTRA.POLAR.0>
0

>  <SCORE.INTRA.REPUL>
0

>  <SCORE.INTRA.REPUL.0>
0

>  <SCORE.INTRA.SOLV>
-0.535844

>  <SCORE.INTRA.SOLV.lig_0>
-49.9393

>  <SCORE.INTRA.VDW>
-0.201955

>  <SCORE.INTRA.VDW.0>
-1.75437

>  <SCORE.INTRA.norm>
-0.111664

>  <SCORE.RESTR>
0

>  <SCORE.RESTR.CAVITY>
0

>  <SCORE.RESTR.norm>
0

>  <SCORE.SYSTEM>
0

>  <SCORE.SYSTEM.CONST>
0

>  <SCORE.SYSTEM.DIHEDRAL>
0

>  <SCORE.SYSTEM.SOLV>
0

>  <SCORE.SYSTEM.norm>
0

>  <SCORE.heavy>
26

>  <SCORE.norm>
-0.904695

>  <RMSD>
4.979

$$$$
ligand
 OpenBabel11021811473D
libRbt.so/2013.1/901 2013/11/27
 26 28  0  0  0  0  0  0  0  0999 V2000
  -14.8161    8.5582  -20.2654 N   0  0  0  0  0  0  0  0  0  0  0  0
  -13.4963    8.8517  -19.6931 C   0  0  2  0  0  0  0  0  0  0  0  0
  -13.4465    8.3594  -18.2707 C   0  0  0  0  0  0  0  0  0  0  0  0
  -12.9857    7.2696  -18.0232 O   0  0  0  0  0  0  0  0  0  0  0  0
  -13.2544   10.3618  -19.7200 C   0  0  0  0  0  0  0  0  0  0  0  0
  -13.0764   10.8245  -21.1649 C   0  0  0  0  0  0  0  0  0  0  0  0
  -12.7202   12.4478  -21.5143 S   0  0  0  0  0  0  0  0  0  0  0  0
  -11.7828   13.8082  -20.7715 C   0  0  0  0  0  0  0  0  0  0  0  0
  -10.5662   13.3732  -19.9454 C   0  0  1  0  0  0  0  0  0  0  0  0
   -9.5509   12.7922  -20.7432 O   0  0  0  0  0  0  0  0  0  0  0  0
   -9.8658   14.5476  -19.3038 C   0  0  1  0  0  0  0  0  0  0  0  0
   -9.1756   14.0009  -18.2015 O   0  0  0  0  0  0  0  0  0  0  0  0
   -8.8443   15.0026  -20.3199 C   0  0  1  0  0  0  0  0  0  0  0  0
   -7.6414   15.3423  -19.6654 O   0  0  0  0  0  0  0  0  0  0  0  0
   -8.6245   13.7720  -21.1730 C   0  0  2  0  0  0  0  0  0  0  0  0
  -13.9164    9.1295  -17.2757 O   0  0  0  0  0  0  0  0  0  0  0  0
  -10.3448   11.6295  -25.6074 N   0  0  0  0  0  0  0  0  0  0  0  0
  -10.2452   11.0460  -24.3665 C   0  0  0  0  0  0  0  0  0  0  0  0
   -9.7508   11.7760  -23.3126 N   0  0  0  0  0  0  0  0  0  0  0  0
   -9.3653   13.0557  -23.4828 C   0  0  0  0  0  0  0  0  0  0  0  0
   -9.4578   13.6619  -24.7215 C   0  0  0  0  0  0  0  0  0  0  0  0
   -9.9534   12.9312  -25.7950 C   0  0  0  0  0  0  0  0  0  0  0  0
  -10.0555   13.4728  -27.0024 N   0  0  0  0  0  0  0  0  0  0  0  0
   -9.0072   14.9312  -24.6064 N   0  0  0  0  0  0  0  0  0  0  0  0
   -8.6419   15.1332  -23.3254 C   0  0  0  0  0  0  0  0  0  0  0  0
   -8.8465   13.9773  -22.6161 N   0  0  0  0  0  0  0  0  0  0  0  0
  2  1  1  1  0  0  0
  2  3  1  0  0  0  0
  2  5  1  0  0  0  0
  3  4  1  0  0  0  0
  3 16  1  0  0  0  0
  5  6  1  0  0  0  0
  6  7  1  0  0  0  0
  7  8  1  0  0  0  0
  9  8  1  6  0  0  0
  9 10  1  0  0  0  0
  9 11  1  0  0  0  0
 10 15  1  0  0  0  0
 11 12  1  1  0  0  0
 11 13  1  0  0  0  0
 13 14  1  1  0  0  0
 13 15  1  0  0  0  0
 15 26  1  6  0  0  0
 17 18  2  0  0  0  0
 17 22  1  0  0  0  0
 18 19  1  0  0  0  0
 19 20  2  0  0  0  0
 20 21  1  0  0  0  0
 20 26  1  0  0  0  0
 21 22  2  0  0  0  0
 21 24  1  0  0  0  0
 22 23  1  0  0  0  0
 24 25  2  0  0  0  0
 25 26  1  0  0  0  0
M  END
>  <CHROM.1>
95.32255359,-69.27347987,-177.18105154,34.17639863,30.23530409,67.00751837
-26.43324255,-10.86421123,12.28811304,-21.45909561,2.55677209,0.87305582
1.50760191

>  <Name>
ligand

>  <RI>
0

>  <Rbt.Current_Directory>
/home/itssahil/PROJECTS/Mol_Feturizer/New_Systems/rnas/3E5E

>  <Rbt.Executable>
rbdock ($Id: //depot/dev/client3/rdock/2013.1/src/exe/rbdock.cxx#4 $)

>  <Rbt.Library>
libRbt.so (2013.1, Build901 2013/11/27)

>  <Rbt.Parameter_File>
/export/apps/rDock/src/rDock_2013.1_src/data/scripts/dock_solv.prm

>  <Rbt.Receptor>
prm/pocket_docking_4.prm

>  <SCORE>
-15.5711

>  <SCORE.INTER>
-12.155

>  <SCORE.INTER.CONST>
1

>  <SCORE.INTER.POLAR>
0

>  <SCORE.INTER.ROT>
7

>  <SCORE.INTER.SOLV>
12.2621

>  <SCORE.INTER.VDW>
-20.4574

>  <SCORE.INTER.norm>
-0.4675

>  <SCORE.INTRA>
-3.41607

>  <SCORE.INTRA.DIHEDRAL>
-4.64826

>  <SCORE.INTRA.DIHEDRAL.0>
10.1225

>  <SCORE.INTRA.POLAR>
0

>  <SCORE.INTRA.POLAR.0>
0

>  <SCORE.INTRA.REPUL>
0

>  <SCORE.INTRA.REPUL.0>
0

>  <SCORE.INTRA.SOLV>
0.166448

>  <SCORE.INTRA.SOLV.lig_0>
-49.9393

>  <SCORE.INTRA.VDW>
-1.17516

>  <SCORE.INTRA.VDW.0>
-1.75437

>  <SCORE.INTRA.norm>
-0.131387

>  <SCORE.RESTR>
0

>  <SCORE.RESTR.CAVITY>
0

>  <SCORE.RESTR.norm>
0

>  <SCORE.SYSTEM>
0

>  <SCORE.SYSTEM.CONST>
0

>  <SCORE.SYSTEM.DIHEDRAL>
0

>  <SCORE.SYSTEM.SOLV>
0

>  <SCORE.SYSTEM.norm>
0

>  <SCORE.heavy>
26

>  <SCORE.norm>
-0.598887

>  <RMSD>
4.992

$$$$
ligand
 OpenBabel11021811473D
libRbt.so/2013.1/901 2013/11/27
 26 28  0  0  0  0  0  0  0  0999 V2000
  -14.1283    5.0442  -21.5860 N   0  0  0  0  0  0  0  0  0  0  0  0
  -14.3138    6.4716  -21.2968 C   0  0  2  0  0  0  0  0  0  0  0  0
  -14.0207    6.7302  -19.8424 C   0  0  0  0  0  0  0  0  0  0  0  0
  -14.3492    5.9220  -19.0058 O   0  0  0  0  0  0  0  0  0  0  0  0
  -15.7580    6.8699  -21.6057 C   0  0  0  0  0  0  0  0  0  0  0  0
  -15.9095    8.3841  -21.4718 C   0  0  0  0  0  0  0  0  0  0  0  0
  -14.9675    9.4335  -22.4182 S   0  0  0  0  0  0  0  0  0  0  0  0
  -13.2328    9.9400  -22.5419 C   0  0  0  0  0  0  0  0  0  0  0  0
  -12.6126   10.4314  -21.2283 C   0  0  1  0  0  0  0  0  0  0  0  0
  -11.2922   10.9127  -21.4007 O   0  0  0  0  0  0  0  0  0  0  0  0
  -13.3423   11.6297  -20.6688 C   0  0  1  0  0  0  0  0  0  0  0  0
  -13.0529   11.6192  -19.2880 O   0  0  0  0  0  0  0  0  0  0  0  0
  -12.6609   12.8303  -21.2832 C   0  0  1  0  0  0  0  0  0  0  0  0
  -12.5251   13.8472  -20.3145 O   0  0  0  0  0  0  0  0  0  0  0  0
  -11.2922   12.3043  -21.6580 C   0  0  2  0  0  0  0  0  0  0  0  0
  -13.3962    7.8605  -19.4729 O   0  0  0  0  0  0  0  0  0  0  0  0
   -7.5910   11.6399  -25.2737 N   0  0  0  0  0  0  0  0  0  0  0  0
   -7.5215   11.3649  -23.9285 C   0  0  0  0  0  0  0  0  0  0  0  0
   -8.6078   11.6226  -23.1275 N   0  0  0  0  0  0  0  0  0  0  0  0
   -9.7385   12.1392  -23.6469 C   0  0  0  0  0  0  0  0  0  0  0  0
   -9.8301   12.4223  -24.9967 C   0  0  0  0  0  0  0  0  0  0  0  0
   -8.7357   12.1685  -25.8151 C   0  0  0  0  0  0  0  0  0  0  0  0
   -8.7791   12.4290  -27.1159 N   0  0  0  0  0  0  0  0  0  0  0  0
  -11.0605   12.9261  -25.2410 N   0  0  0  0  0  0  0  0  0  0  0  0
  -11.7403   12.9584  -24.0782 C   0  0  0  0  0  0  0  0  0  0  0  0
  -10.9323   12.4846  -23.0764 N   0  0  0  0  0  0  0  0  0  0  0  0
  2  1  1  1  0  0  0
  2  3  1  0  0  0  0
  2  5  1  0  0  0  0
  3  4  1  0  0  0  0
  3 16  1  0  0  0  0
  5  6  1  0  0  0  0
  6  7  1  0  0  0  0
  7  8  1  0  0  0  0
  9  8  1  6  0  0  0
  9 10  1  0  0  0  0
  9 11  1  0  0  0  0
 10 15  1  0  0  0  0
 11 12  1  1  0  0  0
 11 13  1  0  0  0  0
 13 14  1  1  0  0  0
 13 15  1  0  0  0  0
 15 26  1  6  0  0  0
 17 18  2  0  0  0  0
 17 22  1  0  0  0  0
 18 19  1  0  0  0  0
 19 20  2  0  0  0  0
 20 21  1  0  0  0  0
 20 26  1  0  0  0  0
 21 22  2  0  0  0  0
 21 24  1  0  0  0  0
 22 23  1  0  0  0  0
 24 25  2  0  0  0  0
 25 26  1  0  0  0  0
M  END
>  <CHROM.1>
-37.70048643,-173.05760403,58.82366841,-69.60043968,-53.10717329,-175.34998317
-63.61947009,-12.18925254,10.38453020,-22.26974584,-2.74099472,0.81074887
0.37544057

>  <Name>
ligand

>  <RI>
0

>  <Rbt.Current_Directory>
/home/itssahil/PROJECTS/Mol_Feturizer/New_Systems/rnas/3E5E

>  <Rbt.Executable>
rbdock ($Id: //depot/dev/client3/rdock/2013.1/src/exe/rbdock.cxx#4 $)

>  <Rbt.Library>
libRbt.so (2013.1, Build901 2013/11/27)

>  <Rbt.Parameter_File>
/export/apps/rDock/src/rDock_2013.1_src/data/scripts/dock_solv.prm

>  <Rbt.Receptor>
prm/pocket_docking_6.prm

>  <SCORE>
-16.0291

>  <SCORE.INTER>
-11.0907

>  <SCORE.INTER.CONST>
1

>  <SCORE.INTER.POLAR>
0

>  <SCORE.INTER.ROT>
7

>  <SCORE.INTER.SOLV>
7.55365

>  <SCORE.INTER.VDW>
-18.1783

>  <SCORE.INTER.norm>
-0.426565

>  <SCORE.INTRA>
-4.93837

>  <SCORE.INTRA.DIHEDRAL>
-6.96438

>  <SCORE.INTRA.DIHEDRAL.0>
10.1225

>  <SCORE.INTRA.POLAR>
0

>  <SCORE.INTRA.POLAR.0>
0

>  <SCORE.INTRA.REPUL>
0

>  <SCORE.INTRA.REPUL.0>
0

>  <SCORE.INTRA.SOLV>
-0.347777

>  <SCORE.INTRA.SOLV.lig_0>
-49.9393

>  <SCORE.INTRA.VDW>
-1.28229

>  <SCORE.INTRA.VDW.0>
-1.75437

>  <SCORE.INTRA.norm>
-0.189937

>  <SCORE.RESTR>
0

>  <SCORE.RESTR.CAVITY>
0

>  <SCORE.RESTR.norm>
0

>  <SCORE.SYSTEM>
0

>  <SCORE.SYSTEM.CONST>
0

>  <SCORE.SYSTEM.DIHEDRAL>
0

>  <SCORE.SYSTEM.SOLV>
0

>  <SCORE.SYSTEM.norm>
0

>  <SCORE.heavy>
26

>  <SCORE.norm>
-0.616502

>  <RMSD>
5.000

$$$$
ligand
 OpenBabel11021811473D
libRbt.so/2013.1/901 2013/11/27
 26 28  0  0  0  0  0  0  0  0999 V2000
  -12.6307    7.8698  -23.9779 N   0  0  0  0  0  0  0  0  0  0  0  0
  -13.2588    8.8345  -23.0666 C   0  0  2  0  0  0  0  0  0  0  0  0
  -14.7000    9.0286  -23.4584 C   0  0  0  0  0  0  0  0  0  0  0  0
  -15.5442    9.1765  -22.6062 O   0  0  0  0  0  0  0  0  0  0  0  0
  -12.5210   10.1716  -23.1535 C   0  0  0  0  0  0  0  0  0  0  0  0
  -13.0982   11.1408  -22.1234 C   0  0  0  0  0  0  0  0  0  0  0  0
  -12.4748   12.7133  -21.9728 S   0  0  0  0  0  0  0  0  0  0  0  0
  -11.7835   13.7662  -20.6711 C   0  0  0  0  0  0  0  0  0  0  0  0
  -10.5757   13.1703  -19.9376 C   0  0  1  0  0  0  0  0  0  0  0  0
   -9.3986   13.1972  -20.7240 O   0  0  0  0  0  0  0  0  0  0  0  0
  -10.1927   13.9808  -18.7220 C   0  0  1  0  0  0  0  0  0  0  0  0
   -9.4974   13.0794  -17.8887 O   0  0  0  0  0  0  0  0  0  0  0  0
   -9.2082   15.0100  -19.2266 C   0  0  1  0  0  0  0  0  0  0  0  0
   -8.1618   15.1648  -18.2930 O   0  0  0  0  0  0  0  0  0  0  0  0
   -8.6655   14.3857  -20.4940 C   0  0  2  0  0  0  0  0  0  0  0  0
  -15.0492    9.0349  -24.7553 O   0  0  0  0  0  0  0  0  0  0  0  0
   -7.1547   18.7701  -22.8832 N   0  0  0  0  0  0  0  0  0  0  0  0
   -6.8064   18.3239  -21.6304 C   0  0  0  0  0  0  0  0  0  0  0  0
   -7.3224   17.1380  -21.1661 N   0  0  0  0  0  0  0  0  0  0  0  0
   -8.1631   16.4091  -21.9259 C   0  0  0  0  0  0  0  0  0  0  0  0
   -8.5255   16.8388  -23.1886 C   0  0  0  0  0  0  0  0  0  0  0  0
   -8.0118   18.0387  -23.6664 C   0  0  0  0  0  0  0  0  0  0  0  0
   -8.3366   18.4906  -24.8714 N   0  0  0  0  0  0  0  0  0  0  0  0
   -9.3688   15.9260  -23.7206 N   0  0  0  0  0  0  0  0  0  0  0  0
   -9.5362   14.9349  -22.8234 C   0  0  0  0  0  0  0  0  0  0  0  0
   -8.8047   15.2230  -21.6996 N   0  0  0  0  0  0  0  0  0  0  0  0
  2  1  1  6  0  0  0
  2  3  1  0  0  0  0
  2  5  1  0  0  0  0
  3  4  1  0  0  0  0
  3 16  1  0  0  0  0
  5  6  1  0  0  0  0
  6  7  1  0  0  0  0
  7  8  1  0  0  0  0
  9  8  1  6  0  0  0
  9 10  1  0  0  0  0
  9 11  1  0  0  0  0
 10 15  1  0  0  0  0
 11 12  1  1  0  0  0
 11 13  1  0  0  0  0
 13 14  1  1  0  0  0
 13 15  1  0  0  0  0
 15 26  1  6  0  0  0
 17 18  2  0  0  0  0
 17 22  1  0  0  0  0
 18 19  1  0  0  0  0
 19 20  2  0  0  0  0
 20 21  1  0  0  0  0
 20 26  1  0  0  0  0
 21 22  2  0  0  0  0
 21 24  1  0  0  0  0
 22 23  1  0  0  0  0
 24 25  2  0  0  0  0
 25 26  1  0  0  0  0
M  END
>  <CHROM.1>
142.81291840,-175.33857116,179.66406705,-125.09075757,56.18908247,74.06303879
-174.58176284,-10.50572808,13.68797195,-21.84067583,2.98333320,0.89954143
1.94015744

>  <Name>
ligand

>  <RI>
0

>  <Rbt.Current_Directory>
/home/itssahil/PROJECTS/Mol_Feturizer/New_Systems/rnas/3E5E

>  <Rbt.Executable>
rbdock ($Id: //depot/dev/client3/rdock/2013.1/src/exe/rbdock.cxx#4 $)

>  <Rbt.Library>
libRbt.so (2013.1, Build901 2013/11/27)

>  <Rbt.Parameter_File>
/export/apps/rDock/src/rDock_2013.1_src/data/scripts/dock_solv.prm

>  <Rbt.Receptor>
prm/blind_docking_100.prm

>  <SCORE>
-20.7964

>  <SCORE.INTER>
-17.8225

>  <SCORE.INTER.CONST>
1

>  <SCORE.INTER.POLAR>
0

>  <SCORE.INTER.ROT>
7

>  <SCORE.INTER.SOLV>
12.7568

>  <SCORE.INTER.VDW>
-24.4006

>  <SCORE.INTER.norm>
-0.685482

>  <SCORE.INTRA>
-2.99291

>  <SCORE.INTRA.DIHEDRAL>
-4.24893

>  <SCORE.INTRA.DIHEDRAL.0>
10.1225

>  <SCORE.INTRA.POLAR>
0

>  <SCORE.INTRA.POLAR.0>
0

>  <SCORE.INTRA.REPUL>
0

>  <SCORE.INTRA.REPUL.0>
0

>  <SCORE.INTRA.SOLV>
-0.547948

>  <SCORE.INTRA.SOLV.lig_0>
-49.9393

>  <SCORE.INTRA.VDW>
-0.594474

>  <SCORE.INTRA.VDW.0>
-1.75437

>  <SCORE.INTRA.norm>
-0.115112

>  <SCORE.RESTR>
0.0190824

>  <SCORE.RESTR.CAVITY>
0.0190824

>  <SCORE.RESTR.norm>
0.000733939

>  <SCORE.SYSTEM>
0

>  <SCORE.SYSTEM.CONST>
0

>  <SCORE.SYSTEM.DIHEDRAL>
0

>  <SCORE.SYSTEM.SOLV>
0

>  <SCORE.SYSTEM.norm>
0

>  <SCORE.heavy>
26

>  <SCORE.norm>
-0.79986

>  <RMSD>
5.035

$$$$
ligand
 OpenBabel11021811473D
libRbt.so/2013.1/901 2013/11/27
 26 28  0  0  0  0  0  0  0  0999 V2000
  -14.2376    8.7113  -24.1799 N   0  0  0  0  0  0  0  0  0  0  0  0
  -13.7636    8.7001  -22.7904 C   0  0  2  0  0  0  0  0  0  0  0  0
  -14.6665    7.8261  -21.9602 C   0  0  0  0  0  0  0  0  0  0  0  0
  -14.2008    6.9201  -21.3096 O   0  0  0  0  0  0  0  0  0  0  0  0
  -13.7805   10.1254  -22.2354 C   0  0  0  0  0  0  0  0  0  0  0  0
  -12.7893   10.9881  -23.0143 C   0  0  0  0  0  0  0  0  0  0  0  0
  -12.5674   12.6236  -22.6144 S   0  0  0  0  0  0  0  0  0  0  0  0
  -12.2905   13.6177  -21.1256 C   0  0  0  0  0  0  0  0  0  0  0  0
  -11.3500   12.9814  -20.0950 C   0  0  1  0  0  0  0  0  0  0  0  0
  -10.1288   12.5530  -20.6696 O   0  0  0  0  0  0  0  0  0  0  0  0
  -10.9042   13.9716  -19.0451 C   0  0  1  0  0  0  0  0  0  0  0  0
  -10.5433   13.1832  -17.9322 O   0  0  0  0  0  0  0  0  0  0  0  0
   -9.6489   14.6013  -19.6025 C   0  0  1  0  0  0  0  0  0  0  0  0
   -8.6980   14.7585  -18.5721 O   0  0  0  0  0  0  0  0  0  0  0  0
   -9.1513   13.5737  -20.5959 C   0  0  2  0  0  0  0  0  0  0  0  0
  -15.9906    8.0508  -21.9439 O   0  0  0  0  0  0  0  0  0  0  0  0
   -6.8433   12.7620  -25.2033 N   0  0  0  0  0  0  0  0  0  0  0  0
   -6.7322   12.0133  -24.0557 C   0  0  0  0  0  0  0  0  0  0  0  0
   -7.4149   12.3984  -22.9271 N   0  0  0  0  0  0  0  0  0  0  0  0
   -8.1916   13.4992  -22.9349 C   0  0  0  0  0  0  0  0  0  0  0  0
   -8.3181   14.2657  -24.0781 C   0  0  0  0  0  0  0  0  0  0  0  0
   -7.6291   13.8867  -25.2242 C   0  0  0  0  0  0  0  0  0  0  0  0
   -7.7188   14.5960  -26.3425 N   0  0  0  0  0  0  0  0  0  0  0  0
   -9.1474   15.2980  -23.8061 N   0  0  0  0  0  0  0  0  0  0  0  0
   -9.5459   15.1906  -22.5236 C   0  0  0  0  0  0  0  0  0  0  0  0
   -8.9543   14.0870  -21.9640 N   0  0  0  0  0  0  0  0  0  0  0  0
  2  1  1  6  0  0  0
  2  3  1  0  0  0  0
  2  5  1  0  0  0  0
  3  4  1  0  0  0  0
  3 16  1  0  0  0  0
  5  6  1  0  0  0  0
  6  7  1  0  0  0  0
  7  8  1  0  0  0  0
  9  8  1  6  0  0  0
  9 10  1  0  0  0  0
  9 11  1  0  0  0  0
 10 15  1  0  0  0  0
 11 12  1  1  0  0  0
 11 13  1  0  0  0  0
 13 14  1  1  0  0  0
 13 15  1  0  0  0  0
 15 26  1  6  0  0  0
 17 18  2  0  0  0  0
 17 22  1  0  0  0  0
 18 19  1  0  0  0  0
 19 20  2  0  0  0  0
 20 21  1  0  0  0  0
 20 26  1  0  0  0  0
 21 22  2  0  0  0  0
 21 24  1  0  0  0  0
 22 23  1  0  0  0  0
 24 25  2  0  0  0  0
 25 26  1  0  0  0  0
M  END
>  <CHROM.1>
125.40867278,-64.07697267,-179.19544184,47.84602038,39.22801077,51.07421927
-80.05654852,-10.75567618,12.31355479,-22.12987444,-2.95767613,0.69694376
1.14854104

>  <Name>
ligand

>  <RI>
0

>  <Rbt.Current_Directory>
/home/itssahil/PROJECTS/Mol_Feturizer/New_Systems/rnas/3E5E

>  <Rbt.Executable>
rbdock ($Id: //depot/dev/client3/rdock/2013.1/src/exe/rbdock.cxx#4 $)

>  <Rbt.Library>
libRbt.so (2013.1, Build901 2013/11/27)

>  <Rbt.Parameter_File>
/export/apps/rDock/src/rDock_2013.1_src/data/scripts/dock_solv.prm

>  <Rbt.Receptor>
prm/pocket_docking_5.prm

>  <SCORE>
-17.9464

>  <SCORE.INTER>
-13.7719

>  <SCORE.INTER.CONST>
1

>  <SCORE.INTER.POLAR>
0

>  <SCORE.INTER.ROT>
7

>  <SCORE.INTER.SOLV>
10.8602

>  <SCORE.INTER.VDW>
-21.068

>  <SCORE.INTER.norm>
-0.529688

>  <SCORE.INTRA>
-4.17447

>  <SCORE.INTRA.DIHEDRAL>
-6.32471

>  <SCORE.INTRA.DIHEDRAL.0>
10.1225

>  <SCORE.INTRA.POLAR>
0

>  <SCORE.INTRA.POLAR.0>
0

>  <SCORE.INTRA.REPUL>
0

>  <SCORE.INTRA.REPUL.0>
0

>  <SCORE.INTRA.SOLV>
0.250867

>  <SCORE.INTRA.SOLV.lig_0>
-49.9393

>  <SCORE.INTRA.VDW>
-1.13755

>  <SCORE.INTRA.VDW.0>
-1.75437

>  <SCORE.INTRA.norm>
-0.160557

>  <SCORE.RESTR>
0

>  <SCORE.RESTR.CAVITY>
0

>  <SCORE.RESTR.norm>
0

>  <SCORE.SYSTEM>
0

>  <SCORE.SYSTEM.CONST>
0

>  <SCORE.SYSTEM.DIHEDRAL>
0

>  <SCORE.SYSTEM.SOLV>
0

>  <SCORE.SYSTEM.norm>
0

>  <SCORE.heavy>
26

>  <SCORE.norm>
-0.690244

>  <RMSD>
5.036

$$$$
ligand
 OpenBabel11021811473D
libRbt.so/2013.1/901 2013/11/27
 26 28  0  0  0  0  0  0  0  0999 V2000
  -14.4903    9.7222  -23.4810 N   0  0  0  0  0  0  0  0  0  0  0  0
  -13.5830    9.7895  -22.3287 C   0  0  2  0  0  0  0  0  0  0  0  0
  -14.3188    9.3617  -21.0862 C   0  0  0  0  0  0  0  0  0  0  0  0
  -13.7592    8.6879  -20.2532 O   0  0  0  0  0  0  0  0  0  0  0  0
  -13.0831   11.2250  -22.1577 C   0  0  0  0  0  0  0  0  0  0  0  0
  -12.3252   11.6543  -23.4127 C   0  0  0  0  0  0  0  0  0  0  0  0
  -11.6846   13.2219  -23.5410 S   0  0  0  0  0  0  0  0  0  0  0  0
  -10.6125   14.3187  -22.5773 C   0  0  0  0  0  0  0  0  0  0  0  0
   -9.9204   13.6520  -21.3822 C   0  0  1  0  0  0  0  0  0  0  0  0
   -8.5358   13.4530  -21.6015 O   0  0  0  0  0  0  0  0  0  0  0  0
   -9.9488   14.5249  -20.1499 C   0  0  1  0  0  0  0  0  0  0  0  0
   -9.8056   13.6307  -19.0680 O   0  0  0  0  0  0  0  0  0  0  0  0
   -8.6972   15.3673  -20.2327 C   0  0  1  0  0  0  0  0  0  0  0  0
   -8.1156   15.4818  -18.9523 O   0  0  0  0  0  0  0  0  0  0  0  0
   -7.7866   14.5571  -21.1299 C   0  0  2  0  0  0  0  0  0  0  0  0
  -15.5985    9.7262  -20.9034 O   0  0  0  0  0  0  0  0  0  0  0  0
   -8.5532   18.5975  -24.3396 N   0  0  0  0  0  0  0  0  0  0  0  0
   -9.3382   18.1896  -23.2872 C   0  0  0  0  0  0  0  0  0  0  0  0
   -8.9737   17.0825  -22.5596 N   0  0  0  0  0  0  0  0  0  0  0  0
   -7.8560   16.3954  -22.8657 C   0  0  0  0  0  0  0  0  0  0  0  0
   -7.0520   16.7886  -23.9191 C   0  0  0  0  0  0  0  0  0  0  0  0
   -7.4135   17.9053  -24.6636 C   0  0  0  0  0  0  0  0  0  0  0  0
   -6.6727   18.3153  -25.6856 N   0  0  0  0  0  0  0  0  0  0  0  0
   -6.0109   15.9302  -24.0004 N   0  0  0  0  0  0  0  0  0  0  0  0
   -6.1425   15.0154  -23.0201 C   0  0  0  0  0  0  0  0  0  0  0  0
   -7.2873   15.2813  -22.3132 N   0  0  0  0  0  0  0  0  0  0  0  0
  2  1  1  6  0  0  0
  2  3  1  0  0  0  0
  2  5  1  0  0  0  0
  3  4  1  0  0  0  0
  3 16  1  0  0  0  0
  5  6  1  0  0  0  0
  6  7  1  0  0  0  0
  7  8  1  0  0  0  0
  9  8  1  6  0  0  0
  9 10  1  0  0  0  0
  9 11  1  0  0  0  0
 10 15  1  0  0  0  0
 11 12  1  1  0  0  0
 11 13  1  0  0  0  0
 13 14  1  1  0  0  0
 13 15  1  0  0  0  0
 15 26  1  6  0  0  0
 17 18  2  0  0  0  0
 17 22  1  0  0  0  0
 18 19  1  0  0  0  0
 19 20  2  0  0  0  0
 20 21  1  0  0  0  0
 20 26  1  0  0  0  0
 21 22  2  0  0  0  0
 21 24  1  0  0  0  0
 22 23  1  0  0  0  0
 24 25  2  0  0  0  0
 25 26  1  0  0  0  0
M  END
>  <CHROM.1>
141.04808605,-60.58767807,178.26859394,52.58942790,9.56834263,107.43707437
98.04715448,-10.06342090,14.01324161,-22.25938465,2.67926024,0.72012168,1.97904073

>  <Name>
ligand

>  <RI>
0

>  <Rbt.Current_Directory>
/home/itssahil/PROJECTS/Mol_Feturizer/New_Systems/rnas/3E5E

>  <Rbt.Executable>
rbdock ($Id: //depot/dev/client3/rdock/2013.1/src/exe/rbdock.cxx#4 $)

>  <Rbt.Library>
libRbt.so (2013.1, Build901 2013/11/27)

>  <Rbt.Parameter_File>
/export/apps/rDock/src/rDock_2013.1_src/data/scripts/dock_solv.prm

>  <Rbt.Receptor>
prm/blind_docking_100.prm

>  <SCORE>
-11.0515

>  <SCORE.INTER>
-10.0686

>  <SCORE.INTER.CONST>
1

>  <SCORE.INTER.POLAR>
0

>  <SCORE.INTER.ROT>
7

>  <SCORE.INTER.SOLV>
13.0562

>  <SCORE.INTER.VDW>
-19.3312

>  <SCORE.INTER.norm>
-0.387256

>  <SCORE.INTRA>
-0.991862

>  <SCORE.INTRA.DIHEDRAL>
-0.307641

>  <SCORE.INTRA.DIHEDRAL.0>
10.1225

>  <SCORE.INTRA.POLAR>
0

>  <SCORE.INTRA.POLAR.0>
0

>  <SCORE.INTRA.REPUL>
0

>  <SCORE.INTRA.REPUL.0>
0

>  <SCORE.INTRA.SOLV>
0.158473

>  <SCORE.INTRA.SOLV.lig_0>
-49.9393

>  <SCORE.INTRA.VDW>
-0.917278

>  <SCORE.INTRA.VDW.0>
-1.75437

>  <SCORE.INTRA.norm>
-0.0381485

>  <SCORE.RESTR>
0.00897567

>  <SCORE.RESTR.CAVITY>
0.00897567

>  <SCORE.RESTR.norm>
0.000345218

>  <SCORE.SYSTEM>
0

>  <SCORE.SYSTEM.CONST>
0

>  <SCORE.SYSTEM.DIHEDRAL>
0

>  <SCORE.SYSTEM.SOLV>
0

>  <SCORE.SYSTEM.norm>
0

>  <SCORE.heavy>
26

>  <SCORE.norm>
-0.425059

>  <RMSD>
5.048

$$$$
ligand
 OpenBabel11021811473D
libRbt.so/2013.1/901 2013/11/27
 26 28  0  0  0  0  0  0  0  0999 V2000
  -14.8669    6.9496  -16.6152 N   0  0  0  0  0  0  0  0  0  0  0  0
  -13.9510    8.0838  -16.7892 C   0  0  2  0  0  0  0  0  0  0  0  0
  -14.4135    9.2363  -15.9371 C   0  0  0  0  0  0  0  0  0  0  0  0
  -15.5915    9.4952  -15.8571 O   0  0  0  0  0  0  0  0  0  0  0  0
  -13.9391    8.5074  -18.2589 C   0  0  0  0  0  0  0  0  0  0  0  0
  -12.9968    9.6961  -18.4398 C   0  0  0  0  0  0  0  0  0  0  0  0
  -12.3890   10.0907  -19.9757 S   0  0  0  0  0  0  0  0  0  0  0  0
  -11.1966   11.2509  -20.6919 C   0  0  0  0  0  0  0  0  0  0  0  0
  -11.4909   12.7292  -20.4100 C   0  0  1  0  0  0  0  0  0  0  0  0
  -10.6744   13.5982  -21.1736 O   0  0  0  0  0  0  0  0  0  0  0  0
  -12.8889   13.1199  -20.8276 C   0  0  1  0  0  0  0  0  0  0  0  0
  -13.1972   14.2546  -20.0481 O   0  0  0  0  0  0  0  0  0  0  0  0
  -12.7636   13.5586  -22.2681 C   0  0  1  0  0  0  0  0  0  0  0  0
  -13.5677   14.6965  -22.4901 O   0  0  0  0  0  0  0  0  0  0  0  0
  -11.3043   13.9395  -22.3941 C   0  0  2  0  0  0  0  0  0  0  0  0
  -13.5174    9.9794  -15.2673 O   0  0  0  0  0  0  0  0  0  0  0  0
  -10.7758    9.4644  -25.0224 N   0  0  0  0  0  0  0  0  0  0  0  0
  -11.6051    9.7301  -23.9586 C   0  0  0  0  0  0  0  0  0  0  0  0
  -11.5928   10.9791  -23.3858 N   0  0  0  0  0  0  0  0  0  0  0  0
  -10.7791   11.9441  -23.8568 C   0  0  0  0  0  0  0  0  0  0  0  0
   -9.9382   11.6985  -24.9259 C   0  0  0  0  0  0  0  0  0  0  0  0
   -9.9404   10.4374  -25.5104 C   0  0  0  0  0  0  0  0  0  0  0  0
   -9.1461   10.1574  -26.5362 N   0  0  0  0  0  0  0  0  0  0  0  0
   -9.2422   12.8280  -25.1852 N   0  0  0  0  0  0  0  0  0  0  0  0
   -9.6328   13.7734  -24.3083 C   0  0  0  0  0  0  0  0  0  0  0  0
  -10.5776   13.2399  -23.4694 N   0  0  0  0  0  0  0  0  0  0  0  0
  2  1  1  6  0  0  0
  2  3  1  0  0  0  0
  2  5  1  0  0  0  0
  3  4  1  0  0  0  0
  3 16  1  0  0  0  0
  5  6  1  0  0  0  0
  6  7  1  0  0  0  0
  7  8  1  0  0  0  0
  9  8  1  6  0  0  0
  9 10  1  0  0  0  0
  9 11  1  0  0  0  0
 10 15  1  0  0  0  0
 11 12  1  1  0  0  0
 11 13  1  0  0  0  0
 13 14  1  1  0  0  0
 13 15  1  0  0  0  0
 15 26  1  6  0  0  0
 17 18  2  0  0  0  0
 17 22  1  0  0  0  0
 18 19  1  0  0  0  0
 19 20  2  0  0  0  0
 20 21  1  0  0  0  0
 20 26  1  0  0  0  0
 21 22  2  0  0  0  0
 21 24  1  0  0  0  0
 22 23  1  0  0  0  0
 24 25  2  0  0  0  0
 25 26  1  0  0  0  0
M  END
>  <CHROM.1>
-40.93017859,179.46244534,160.76121947,-173.87765812,-58.12562064,-169.80941599
83.28211976,-12.07675050,11.24965400,-21.11980886,-2.75244713,1.10012438
-0.06076839

>  <Name>
ligand

>  <RI>
0

>  <Rbt.Current_Directory>
/home/itssahil/PROJECTS/Mol_Feturizer/New_Systems/rnas/3E5E

>  <Rbt.Executable>
rbdock ($Id: //depot/dev/client3/rdock/2013.1/src/exe/rbdock.cxx#4 $)

>  <Rbt.Library>
libRbt.so (2013.1, Build901 2013/11/27)

>  <Rbt.Parameter_File>
/export/apps/rDock/src/rDock_2013.1_src/data/scripts/dock_solv.prm

>  <Rbt.Receptor>
prm/pocket_docking_5.prm

>  <SCORE>
-19.7966

>  <SCORE.INTER>
-16.7283

>  <SCORE.INTER.CONST>
1

>  <SCORE.INTER.POLAR>
0

>  <SCORE.INTER.ROT>
7

>  <SCORE.INTER.SOLV>
9.51782

>  <SCORE.INTER.VDW>
-22.5915

>  <SCORE.INTER.norm>
-0.643398

>  <SCORE.INTRA>
-3.06868

>  <SCORE.INTRA.DIHEDRAL>
-5.6071

>  <SCORE.INTRA.DIHEDRAL.0>
10.1225

>  <SCORE.INTRA.POLAR>
0

>  <SCORE.INTRA.POLAR.0>
0

>  <SCORE.INTRA.REPUL>
0

>  <SCORE.INTRA.REPUL.0>
0

>  <SCORE.INTRA.SOLV>
-0.511694

>  <SCORE.INTRA.SOLV.lig_0>
-49.9393

>  <SCORE.INTRA.VDW>
-0.00928338

>  <SCORE.INTRA.VDW.0>
-1.75437

>  <SCORE.INTRA.norm>
-0.118026

>  <SCORE.RESTR>
0.00042239

>  <SCORE.RESTR.CAVITY>
0.00042239

>  <SCORE.RESTR.norm>
1.62458e-05

>  <SCORE.SYSTEM>
0

>  <SCORE.SYSTEM.CONST>
0

>  <SCORE.SYSTEM.DIHEDRAL>
0

>  <SCORE.SYSTEM.SOLV>
0

>  <SCORE.SYSTEM.norm>
0

>  <SCORE.heavy>
26

>  <SCORE.norm>
-0.761408

>  <RMSD>
5.053

$$$$
ligand
 OpenBabel11021811473D
libRbt.so/2013.1/901 2013/11/27
 26 28  0  0  0  0  0  0  0  0999 V2000
  -14.4718    8.5764  -17.0523 N   0  0  0  0  0  0  0  0  0  0  0  0
  -15.1649    9.4000  -16.0538 C   0  0  2  0  0  0  0  0  0  0  0  0
  -14.4713    9.2643  -14.7239 C   0  0  0  0  0  0  0  0  0  0  0  0
  -13.5651   10.0102  -14.4351 O   0  0  0  0  0  0  0  0  0  0  0  0
  -16.6148    8.9302  -15.9243 C   0  0  0  0  0  0  0  0  0  0  0  0
  -17.4483    9.5288  -17.0559 C   0  0  0  0  0  0  0  0  0  0  0  0
  -17.1314    9.1174  -18.6729 S   0  0  0  0  0  0  0  0  0  0  0  0
  -15.6968    8.9921  -19.7716 C   0  0  0  0  0  0  0  0  0  0  0  0
  -16.0381    8.7603  -21.2486 C   0  0  1  0  0  0  0  0  0  0  0  0
  -15.5833    9.8124  -22.0800 O   0  0  0  0  0  0  0  0  0  0  0  0
  -15.3311    7.5503  -21.8119 C   0  0  1  0  0  0  0  0  0  0  0  0
  -16.1164    7.1510  -22.9139 O   0  0  0  0  0  0  0  0  0  0  0  0
  -14.0134    8.0707  -22.3372 C   0  0  1  0  0  0  0  0  0  0  0  0
  -13.7114    7.4461  -23.5658 O   0  0  0  0  0  0  0  0  0  0  0  0
  -14.2843    9.5410  -22.5717 C   0  0  2  0  0  0  0  0  0  0  0  0
  -14.8571    8.3125  -13.8584 O   0  0  0  0  0  0  0  0  0  0  0  0
  -11.6894   14.0581  -22.8474 N   0  0  0  0  0  0  0  0  0  0  0  0
  -12.4851   13.4774  -23.8064 C   0  0  0  0  0  0  0  0  0  0  0  0
  -13.0798   12.2656  -23.5499 N   0  0  0  0  0  0  0  0  0  0  0  0
  -12.8925   11.6432  -22.3698 C   0  0  0  0  0  0  0  0  0  0  0  0
  -12.0972   12.2098  -21.3915 C   0  0  0  0  0  0  0  0  0  0  0  0
  -11.4883   13.4339  -21.6421 C   0  0  0  0  0  0  0  0  0  0  0  0
  -10.7135   14.0116  -20.7324 N   0  0  0  0  0  0  0  0  0  0  0  0
  -12.0842   11.3808  -20.3238 N   0  0  0  0  0  0  0  0  0  0  0  0
  -12.8565   10.3145  -20.6098 C   0  0  0  0  0  0  0  0  0  0  0  0
  -13.3573   10.4546  -21.8789 N   0  0  0  0  0  0  0  0  0  0  0  0
  2  1  1  6  0  0  0
  2  3  1  0  0  0  0
  2  5  1  0  0  0  0
  3  4  1  0  0  0  0
  3 16  1  0  0  0  0
  5  6  1  0  0  0  0
  6  7  1  0  0  0  0
  7  8  1  0  0  0  0
  9  8  1  1  0  0  0
  9 10  1  0  0  0  0
  9 11  1  0  0  0  0
 10 15  1  0  0  0  0
 11 12  1  6  0  0  0
 11 13  1  0  0  0  0
 13 14  1  6  0  0  0
 13 15  1  0  0  0  0
 15 26  1  1  0  0  0
 17 18  2  0  0  0  0
 17 22  1  0  0  0  0
 18 19  1  0  0  0  0
 19 20  2  0  0  0  0
 20 21  1  0  0  0  0
 20 26  1  0  0  0  0
 21 22  2  0  0  0  0
 21 24  1  0  0  0  0
 22 23  1  0  0  0  0
 24 25  2  0  0  0  0
 25 26  1  0  0  0  0
M  END
>  <CHROM.1>
89.17788121,-81.09796096,64.22001279,-47.85471263,-171.16518580,118.41069187
-97.24058484,-14.32069285,10.01997123,-20.00483309,-2.16770203,-0.85361545
-1.65004494

>  <Name>
ligand

>  <RI>
0

>  <Rbt.Current_Directory>
/home/itssahil/PROJECTS/Mol_Feturizer/New_Systems/rnas/3E5E

>  <Rbt.Executable>
rbdock ($Id: //depot/dev/client3/rdock/2013.1/src/exe/rbdock.cxx#4 $)

>  <Rbt.Library>
libRbt.so (2013.1, Build901 2013/11/27)

>  <Rbt.Parameter_File>
/export/apps/rDock/src/rDock_2013.1_src/data/scripts/dock_solv.prm

>  <Rbt.Receptor>
prm/pocket_docking_5.prm

>  <SCORE>
-12.9116

>  <SCORE.INTER>
-13.5275

>  <SCORE.INTER.CONST>
1

>  <SCORE.INTER.POLAR>
0

>  <SCORE.INTER.ROT>
7

>  <SCORE.INTER.SOLV>
10.4797

>  <SCORE.INTER.VDW>
-20.7783

>  <SCORE.INTER.norm>
-0.520289

>  <SCORE.INTRA>
0.615907

>  <SCORE.INTRA.DIHEDRAL>
-0.318028

>  <SCORE.INTRA.DIHEDRAL.0>
10.1225

>  <SCORE.INTRA.POLAR>
0

>  <SCORE.INTRA.POLAR.0>
0

>  <SCORE.INTRA.REPUL>
0

>  <SCORE.INTRA.REPUL.0>
0

>  <SCORE.INTRA.SOLV>
2.21117

>  <SCORE.INTRA.SOLV.lig_0>
-49.9393

>  <SCORE.INTRA.VDW>
-0.330662

>  <SCORE.INTRA.VDW.0>
-1.75437

>  <SCORE.INTRA.norm>
0.0236887

>  <SCORE.RESTR>
0

>  <SCORE.RESTR.CAVITY>
0

>  <SCORE.RESTR.norm>
0

>  <SCORE.SYSTEM>
0

>  <SCORE.SYSTEM.CONST>
0

>  <SCORE.SYSTEM.DIHEDRAL>
0

>  <SCORE.SYSTEM.SOLV>
0

>  <SCORE.SYSTEM.norm>
0

>  <SCORE.heavy>
26

>  <SCORE.norm>
-0.4966

>  <RMSD>
5.070

$$$$
ligand
 OpenBabel11021811473D
libRbt.so/2013.1/901 2013/11/27
 26 28  0  0  0  0  0  0  0  0999 V2000
  -12.6060    7.9473  -23.9793 N   0  0  0  0  0  0  0  0  0  0  0  0
  -13.2134    8.9200  -23.0626 C   0  0  2  0  0  0  0  0  0  0  0  0
  -14.6533    9.1382  -23.4460 C   0  0  0  0  0  0  0  0  0  0  0  0
  -15.4840    9.3366  -22.5905 O   0  0  0  0  0  0  0  0  0  0  0  0
  -12.4546   10.2452  -23.1510 C   0  0  0  0  0  0  0  0  0  0  0  0
  -13.0368   11.2349  -22.1434 C   0  0  0  0  0  0  0  0  0  0  0  0
  -12.3923   12.7994  -21.9981 S   0  0  0  0  0  0  0  0  0  0  0  0
  -11.6970   13.8512  -20.6977 C   0  0  0  0  0  0  0  0  0  0  0  0
  -10.4909   13.2521  -19.9642 C   0  0  1  0  0  0  0  0  0  0  0  0
   -9.3088   13.2955  -20.7425 O   0  0  0  0  0  0  0  0  0  0  0  0
  -10.1200   14.0486  -18.7356 C   0  0  1  0  0  0  0  0  0  0  0  0
   -9.4253   13.1399  -17.9097 O   0  0  0  0  0  0  0  0  0  0  0  0
   -9.1378   15.0895  -19.2203 C   0  0  1  0  0  0  0  0  0  0  0  0
   -8.0983   15.2375  -18.2778 O   0  0  0  0  0  0  0  0  0  0  0  0
   -8.5836   14.4847  -20.4921 C   0  0  2  0  0  0  0  0  0  0  0  0
  -15.0167    9.1101  -24.7387 O   0  0  0  0  0  0  0  0  0  0  0  0
   -7.0255   18.8717  -22.8460 N   0  0  0  0  0  0  0  0  0  0  0  0
   -6.6743   18.4068  -21.6008 C   0  0  0  0  0  0  0  0  0  0  0  0
   -7.2045   17.2238  -21.1452 N   0  0  0  0  0  0  0  0  0  0  0  0
   -8.0619   16.5159  -21.9062 C   0  0  0  0  0  0  0  0  0  0  0  0
   -8.4275   16.9646  -23.1613 C   0  0  0  0  0  0  0  0  0  0  0  0
   -7.8995   18.1618  -23.6302 C   0  0  0  0  0  0  0  0  0  0  0  0
   -8.2268   18.6315  -24.8276 N   0  0  0  0  0  0  0  0  0  0  0  0
   -9.2885   16.0703  -23.6964 N   0  0  0  0  0  0  0  0  0  0  0  0
   -9.4638   15.0722  -22.8086 C   0  0  0  0  0  0  0  0  0  0  0  0
   -8.7195   15.3371  -21.6875 N   0  0  0  0  0  0  0  0  0  0  0  0
  2  1  1  6  0  0  0
  2  3  1  0  0  0  0
  2  5  1  0  0  0  0
  3  4  1  0  0  0  0
  3 16  1  0  0  0  0
  5  6  1  0  0  0  0
  6  7  1  0  0  0  0
  7  8  1  0  0  0  0
  9  8  1  6  0  0  0
  9 10  1  0  0  0  0
  9 11  1  0  0  0  0
 10 15  1  0  0  0  0
 11 12  1  1  0  0  0
 11 13  1  0  0  0  0
 13 14  1  1  0  0  0
 13 15  1  0  0  0  0
 15 26  1  6  0  0  0
 17 18  2  0  0  0  0
 17 22  1  0  0  0  0
 18 19  1  0  0  0  0
 19 20  2  0  0  0  0
 20 21  1  0  0  0  0
 20 26  1  0  0  0  0
 21 22  2  0  0  0  0
 21 24  1  0  0  0  0
 22 23  1  0  0  0  0
 24 25  2  0  0  0  0
 25 26  1  0  0  0  0
M  END
>  <CHROM.1>
144.95552508,-176.95784242,179.59908123,-124.39109674,57.06886413,75.08536287
-173.15328381,-10.42637020,13.78572169,-21.83552422,2.97696599,0.89539409
1.94928890

>  <Name>
ligand

>  <RI>
0

>  <Rbt.Current_Directory>
/home/itssahil/PROJECTS/Mol_Feturizer/New_Systems/rnas/3E5E

>  <Rbt.Executable>
rbdock ($Id: //depot/dev/client3/rdock/2013.1/src/exe/rbdock.cxx#4 $)

>  <Rbt.Library>
libRbt.so (2013.1, Build901 2013/11/27)

>  <Rbt.Parameter_File>
/export/apps/rDock/src/rDock_2013.1_src/data/scripts/dock_solv.prm

>  <Rbt.Receptor>
prm/pocket_docking_6.prm

>  <SCORE>
-20.978

>  <SCORE.INTER>
-18.1032

>  <SCORE.INTER.CONST>
1

>  <SCORE.INTER.POLAR>
0

>  <SCORE.INTER.ROT>
7

>  <SCORE.INTER.SOLV>
12.0492

>  <SCORE.INTER.VDW>
-24.3519

>  <SCORE.INTER.norm>
-0.696277

>  <SCORE.INTRA>
-2.87484

>  <SCORE.INTRA.DIHEDRAL>
-4.19217

>  <SCORE.INTRA.DIHEDRAL.0>
10.1225

>  <SCORE.INTRA.POLAR>
0

>  <SCORE.INTRA.POLAR.0>
0

>  <SCORE.INTRA.REPUL>
0

>  <SCORE.INTRA.REPUL.0>
0

>  <SCORE.INTRA.SOLV>
-0.554469

>  <SCORE.INTRA.SOLV.lig_0>
-49.9393

>  <SCORE.INTRA.VDW>
-0.501517

>  <SCORE.INTRA.VDW.0>
-1.75437

>  <SCORE.INTRA.norm>
-0.110571

>  <SCORE.RESTR>
0

>  <SCORE.RESTR.CAVITY>
0

>  <SCORE.RESTR.norm>
0

>  <SCORE.SYSTEM>
0

>  <SCORE.SYSTEM.CONST>
0

>  <SCORE.SYSTEM.DIHEDRAL>
0

>  <SCORE.SYSTEM.SOLV>
0

>  <SCORE.SYSTEM.norm>
0

>  <SCORE.heavy>
26

>  <SCORE.norm>
-0.806848

>  <RMSD>
5.073

$$$$
ligand
 OpenBabel11021811473D
libRbt.so/2013.1/901 2013/11/27
 26 28  0  0  0  0  0  0  0  0999 V2000
  -13.2372    6.2926  -24.0691 N   0  0  0  0  0  0  0  0  0  0  0  0
  -12.1218    6.5685  -24.9831 C   0  0  2  0  0  0  0  0  0  0  0  0
  -10.8734    5.9044  -24.4646 C   0  0  0  0  0  0  0  0  0  0  0  0
  -10.9349    5.1555  -23.5178 O   0  0  0  0  0  0  0  0  0  0  0  0
  -11.8979    8.0790  -25.0715 C   0  0  0  0  0  0  0  0  0  0  0  0
  -11.5582    8.6266  -23.6865 C   0  0  0  0  0  0  0  0  0  0  0  0
  -11.2224   10.2770  -23.4687 S   0  0  0  0  0  0  0  0  0  0  0  0
  -10.5130   11.3471  -22.1909 C   0  0  0  0  0  0  0  0  0  0  0  0
  -11.3090   11.3970  -20.8811 C   0  0  1  0  0  0  0  0  0  0  0  0
  -10.6736   12.1863  -19.8921 O   0  0  0  0  0  0  0  0  0  0  0  0
  -12.6459   12.0783  -21.0544 C   0  0  1  0  0  0  0  0  0  0  0  0
  -13.4457   11.5816  -20.0036 O   0  0  0  0  0  0  0  0  0  0  0  0
  -12.3809   13.5426  -20.7922 C   0  0  1  0  0  0  0  0  0  0  0  0
  -13.4418   14.0905  -20.0406 O   0  0  0  0  0  0  0  0  0  0  0  0
  -11.1224   13.5272  -19.9519 C   0  0  2  0  0  0  0  0  0  0  0  0
   -9.6899    6.1455  -25.0521 O   0  0  0  0  0  0  0  0  0  0  0  0
   -6.7804   16.1831  -18.8087 N   0  0  0  0  0  0  0  0  0  0  0  0
   -7.6433   15.5552  -17.9420 C   0  0  0  0  0  0  0  0  0  0  0  0
   -8.7516   14.9116  -18.4374 N   0  0  0  0  0  0  0  0  0  0  0  0
   -8.9993   14.8886  -19.7616 C   0  0  0  0  0  0  0  0  0  0  0  0
   -8.1444   15.5127  -20.6505 C   0  0  0  0  0  0  0  0  0  0  0  0
   -7.0221   16.1694  -20.1593 C   0  0  0  0  0  0  0  0  0  0  0  0
   -6.1772   16.7851  -20.9770 N   0  0  0  0  0  0  0  0  0  0  0  0
   -8.6290   15.3347  -21.8998 N   0  0  0  0  0  0  0  0  0  0  0  0
   -9.7614   14.6100  -21.8124 C   0  0  0  0  0  0  0  0  0  0  0  0
  -10.0128   14.3336  -20.4927 N   0  0  0  0  0  0  0  0  0  0  0  0
  2  1  1  1  0  0  0
  2  3  1  0  0  0  0
  2  5  1  0  0  0  0
  3  4  1  0  0  0  0
  3 16  1  0  0  0  0
  5  6  1  0  0  0  0
  6  7  1  0  0  0  0
  7  8  1  0  0  0  0
  9  8  1  6  0  0  0
  9 10  1  0  0  0  0
  9 11  1  0  0  0  0
 10 15  1  0  0  0  0
 11 12  1  1  0  0  0
 11 13  1  0  0  0  0
 13 14  1  1  0  0  0
 13 15  1  0  0  0  0
 15 26  1  6  0  0  0
 17 18  2  0  0  0  0
 17 22  1  0  0  0  0
 18 19  1  0  0  0  0
 19 20  2  0  0  0  0
 20 21  1  0  0  0  0
 20 26  1  0  0  0  0
 21 22  2  0  0  0  0
 21 24  1  0  0  0  0
 22 23  1  0  0  0  0
 24 25  2  0  0  0  0
 25 26  1  0  0  0  0
M  END
>  <CHROM.1>
7.59973590,60.38158406,178.71378192,-166.41565693,-63.47253940,176.67850469
-86.65506844,-10.45290630,11.77596477,-21.66194389,1.89477629,-0.27004010
-2.57444599

>  <Name>
ligand

>  <RI>
0

>  <Rbt.Current_Directory>
/home/itssahil/PROJECTS/Mol_Feturizer/New_Systems/rnas/3E5E

>  <Rbt.Executable>
rbdock ($Id: //depot/dev/client3/rdock/2013.1/src/exe/rbdock.cxx#4 $)

>  <Rbt.Library>
libRbt.so (2013.1, Build901 2013/11/27)

>  <Rbt.Parameter_File>
/export/apps/rDock/src/rDock_2013.1_src/data/scripts/dock_solv.prm

>  <Rbt.Receptor>
prm/blind_docking_100.prm

>  <SCORE>
-23.3755

>  <SCORE.INTER>
-20.3022

>  <SCORE.INTER.CONST>
1

>  <SCORE.INTER.POLAR>
0

>  <SCORE.INTER.ROT>
7

>  <SCORE.INTER.SOLV>
12.2825

>  <SCORE.INTER.VDW>
-25.8956

>  <SCORE.INTER.norm>
-0.780854

>  <SCORE.INTRA>
-3.07327

>  <SCORE.INTRA.DIHEDRAL>
-7.19398

>  <SCORE.INTRA.DIHEDRAL.0>
10.1225

>  <SCORE.INTRA.POLAR>
0

>  <SCORE.INTRA.POLAR.0>
0

>  <SCORE.INTRA.REPUL>
0

>  <SCORE.INTRA.REPUL.0>
0

>  <SCORE.INTRA.SOLV>
0.159218

>  <SCORE.INTRA.SOLV.lig_0>
-49.9393

>  <SCORE.INTRA.VDW>
0.444115

>  <SCORE.INTRA.VDW.0>
-1.75437

>  <SCORE.INTRA.norm>
-0.118203

>  <SCORE.RESTR>
0

>  <SCORE.RESTR.CAVITY>
0

>  <SCORE.RESTR.norm>
0

>  <SCORE.SYSTEM>
0

>  <SCORE.SYSTEM.CONST>
0

>  <SCORE.SYSTEM.DIHEDRAL>
0

>  <SCORE.SYSTEM.SOLV>
0

>  <SCORE.SYSTEM.norm>
0

>  <SCORE.heavy>
26

>  <SCORE.norm>
-0.899056

>  <RMSD>
5.115

$$$$
ligand
 OpenBabel11021811473D
libRbt.so/2013.1/901 2013/11/27
 26 28  0  0  0  0  0  0  0  0999 V2000
  -13.7790    9.1929  -21.2252 N   0  0  0  0  0  0  0  0  0  0  0  0
  -13.6401   10.1333  -22.3442 C   0  0  2  0  0  0  0  0  0  0  0  0
  -14.3195    9.5658  -23.5626 C   0  0  0  0  0  0  0  0  0  0  0  0
  -15.1969   10.1898  -24.1120 O   0  0  0  0  0  0  0  0  0  0  0  0
  -12.1561   10.3536  -22.6426 C   0  0  0  0  0  0  0  0  0  0  0  0
  -11.9840   11.6348  -23.4565 C   0  0  0  0  0  0  0  0  0  0  0  0
  -12.1759   13.1553  -22.7246 S   0  0  0  0  0  0  0  0  0  0  0  0
  -11.7382   13.9596  -21.1617 C   0  0  0  0  0  0  0  0  0  0  0  0
  -10.6817   13.2190  -20.3328 C   0  0  1  0  0  0  0  0  0  0  0  0
   -9.4494   13.0905  -21.0182 O   0  0  0  0  0  0  0  0  0  0  0  0
  -10.3008   13.9816  -19.0859 C   0  0  1  0  0  0  0  0  0  0  0  0
   -9.7981   13.0040  -18.2016 O   0  0  0  0  0  0  0  0  0  0  0  0
   -9.1544   14.8735  -19.5022 C   0  0  1  0  0  0  0  0  0  0  0  0
   -8.1782   14.8993  -18.4838 O   0  0  0  0  0  0  0  0  0  0  0  0
   -8.5922   14.1771  -20.7226 C   0  0  2  0  0  0  0  0  0  0  0  0
  -13.9532    8.3645  -24.0385 O   0  0  0  0  0  0  0  0  0  0  0  0
   -5.4970   16.0759  -24.4679 N   0  0  0  0  0  0  0  0  0  0  0  0
   -5.1454   15.2965  -23.3914 C   0  0  0  0  0  0  0  0  0  0  0  0
   -6.1109   14.9017  -22.4970 N   0  0  0  0  0  0  0  0  0  0  0  0
   -7.3962   15.2688  -22.6655 C   0  0  0  0  0  0  0  0  0  0  0  0
   -7.7715   16.0513  -23.7413 C   0  0  0  0  0  0  0  0  0  0  0  0
   -6.8020   16.4588  -24.6501 C   0  0  0  0  0  0  0  0  0  0  0  0
   -7.1178   17.2141  -25.6948 N   0  0  0  0  0  0  0  0  0  0  0  0
   -9.1038   16.2667  -23.6637 N   0  0  0  0  0  0  0  0  0  0  0  0
   -9.5693   15.6329  -22.5698 C   0  0  0  0  0  0  0  0  0  0  0  0
   -8.5225   15.0177  -21.9319 N   0  0  0  0  0  0  0  0  0  0  0  0
  2  1  1  1  0  0  0
  2  3  1  0  0  0  0
  2  5  1  0  0  0  0
  3  4  1  0  0  0  0
  3 16  1  0  0  0  0
  5  6  1  0  0  0  0
  6  7  1  0  0  0  0
  7  8  1  0  0  0  0
  9  8  1  6  0  0  0
  9 10  1  0  0  0  0
  9 11  1  0  0  0  0
 10 15  1  0  0  0  0
 11 12  1  1  0  0  0
 11 13  1  0  0  0  0
 13 14  1  1  0  0  0
 13 15  1  0  0  0  0
 15 26  1  6  0  0  0
 17 18  2  0  0  0  0
 17 22  1  0  0  0  0
 18 19  1  0  0  0  0
 19 20  2  0  0  0  0
 20 21  1  0  0  0  0
 20 26  1  0  0  0  0
 21 22  2  0  0  0  0
 21 24  1  0  0  0  0
 22 23  1  0  0  0  0
 24 25  2  0  0  0  0
 25 26  1  0  0  0  0
M  END
>  <CHROM.1>
122.77073160,-161.45965235,73.18918042,40.73166717,15.12283667,60.97239679
-117.28209088,-10.11185987,13.44172954,-22.20810152,-3.10348271,-0.70998337
-1.53280314

>  <Name>
ligand

>  <RI>
0

>  <Rbt.Current_Directory>
/home/itssahil/PROJECTS/Mol_Feturizer/New_Systems/rnas/3E5E

>  <Rbt.Executable>
rbdock ($Id: //depot/dev/client3/rdock/2013.1/src/exe/rbdock.cxx#4 $)

>  <Rbt.Library>
libRbt.so (2013.1, Build901 2013/11/27)

>  <Rbt.Parameter_File>
/export/apps/rDock/src/rDock_2013.1_src/data/scripts/dock_solv.prm

>  <Rbt.Receptor>
prm/pocket_docking_6.prm

>  <SCORE>
-20.7284

>  <SCORE.INTER>
-17.6834

>  <SCORE.INTER.CONST>
1

>  <SCORE.INTER.POLAR>
0

>  <SCORE.INTER.ROT>
7

>  <SCORE.INTER.SOLV>
9.03974

>  <SCORE.INTER.VDW>
-23.0689

>  <SCORE.INTER.norm>
-0.680131

>  <SCORE.INTRA>
-3.04548

>  <SCORE.INTRA.DIHEDRAL>
-2.91752

>  <SCORE.INTRA.DIHEDRAL.0>
10.1225

>  <SCORE.INTRA.POLAR>
0

>  <SCORE.INTRA.POLAR.0>
0

>  <SCORE.INTRA.REPUL>
0

>  <SCORE.INTRA.REPUL.0>
0

>  <SCORE.INTRA.SOLV>
-0.3473

>  <SCORE.INTRA.SOLV.lig_0>
-49.9393

>  <SCORE.INTRA.VDW>
-1.41307

>  <SCORE.INTRA.VDW.0>
-1.75437

>  <SCORE.INTRA.norm>
-0.117134

>  <SCORE.RESTR>
0.000503705

>  <SCORE.RESTR.CAVITY>
0.000503705

>  <SCORE.RESTR.norm>
1.93733e-05

>  <SCORE.SYSTEM>
0

>  <SCORE.SYSTEM.CONST>
0

>  <SCORE.SYSTEM.DIHEDRAL>
0

>  <SCORE.SYSTEM.SOLV>
0

>  <SCORE.SYSTEM.norm>
0

>  <SCORE.heavy>
26

>  <SCORE.norm>
-0.797246

>  <RMSD>
5.137

$$$$
ligand
 OpenBabel11021811473D
libRbt.so/2013.1/901 2013/11/27
 26 28  0  0  0  0  0  0  0  0999 V2000
  -12.9436    9.8660  -23.4780 N   0  0  0  0  0  0  0  0  0  0  0  0
  -11.6388   10.1924  -22.8893 C   0  0  2  0  0  0  0  0  0  0  0  0
  -11.7854   10.3413  -21.3979 C   0  0  0  0  0  0  0  0  0  0  0  0
  -12.8839   10.4519  -20.9058 O   0  0  0  0  0  0  0  0  0  0  0  0
  -11.1251   11.5039  -23.4858 C   0  0  0  0  0  0  0  0  0  0  0  0
  -12.2435   12.5443  -23.4701 C   0  0  0  0  0  0  0  0  0  0  0  0
  -12.7705   13.2239  -22.0057 S   0  0  0  0  0  0  0  0  0  0  0  0
  -12.0400   14.0390  -20.5624 C   0  0  0  0  0  0  0  0  0  0  0  0
  -10.9081   13.2550  -19.8872 C   0  0  1  0  0  0  0  0  0  0  0  0
   -9.7656   13.1345  -20.7149 O   0  0  0  0  0  0  0  0  0  0  0  0
  -10.3724   13.9673  -18.6678 C   0  0  1  0  0  0  0  0  0  0  0  0
   -9.7882   12.9520  -17.8814 O   0  0  0  0  0  0  0  0  0  0  0  0
   -9.2662   14.8580  -19.1837 C   0  0  1  0  0  0  0  0  0  0  0  0
   -8.1786   14.8342  -18.2852 O   0  0  0  0  0  0  0  0  0  0  0  0
   -8.8610   14.1981  -20.4840 C   0  0  2  0  0  0  0  0  0  0  0  0
  -10.6956   10.3541  -20.6130 O   0  0  0  0  0  0  0  0  0  0  0  0
   -7.0612   18.5820  -22.6648 N   0  0  0  0  0  0  0  0  0  0  0  0
   -6.7805   18.0786  -21.4167 C   0  0  0  0  0  0  0  0  0  0  0  0
   -7.3678   16.9040  -21.0124 N   0  0  0  0  0  0  0  0  0  0  0  0
   -8.2128   16.2415  -21.8262 C   0  0  0  0  0  0  0  0  0  0  0  0
   -8.5081   16.7294  -23.0853 C   0  0  0  0  0  0  0  0  0  0  0  0
   -7.9219   17.9186  -23.5027 C   0  0  0  0  0  0  0  0  0  0  0  0
   -8.1807   18.4250  -24.7019 N   0  0  0  0  0  0  0  0  0  0  0  0
   -9.3726   15.8759  -23.6781 N   0  0  0  0  0  0  0  0  0  0  0  0
   -9.6188   14.8648  -22.8223 C   0  0  0  0  0  0  0  0  0  0  0  0
   -8.9167   15.0805  -21.6640 N   0  0  0  0  0  0  0  0  0  0  0  0
  2  1  1  6  0  0  0
  2  3  1  0  0  0  0
  2  5  1  0  0  0  0
  3  4  1  0  0  0  0
  3 16  1  0  0  0  0
  5  6  1  0  0  0  0
  6  7  1  0  0  0  0
  7  8  1  0  0  0  0
  9  8  1  6  0  0  0
  9 10  1  0  0  0  0
  9 11  1  0  0  0  0
 10 15  1  0  0  0  0
 11 12  1  1  0  0  0
 11 13  1  0  0  0  0
 13 14  1  1  0  0  0
 13 15  1  0  0  0  0
 15 26  1  6  0  0  0
 17 18  2  0  0  0  0
 17 22  1  0  0  0  0
 18 19  1  0  0  0  0
 19 20  2  0  0  0  0
 20 21  1  0  0  0  0
 20 26  1  0  0  0  0
 21 22  2  0  0  0  0
 21 24  1  0  0  0  0
 22 23  1  0  0  0  0
 24 25  2  0  0  0  0
 25 26  1  0  0  0  0
M  END
>  <CHROM.1>
-14.43642936,46.99232522,70.77226926,51.66842921,-53.22884885,66.22506348
178.49243015,-10.07169257,14.03851822,-21.51412674,2.74574604,0.91411796
1.96170392

>  <Name>
ligand

>  <RI>
0

>  <Rbt.Current_Directory>
/home/itssahil/PROJECTS/Mol_Feturizer/New_Systems/rnas/3E5E

>  <Rbt.Executable>
rbdock ($Id: //depot/dev/client3/rdock/2013.1/src/exe/rbdock.cxx#4 $)

>  <Rbt.Library>
libRbt.so (2013.1, Build901 2013/11/27)

>  <Rbt.Parameter_File>
/export/apps/rDock/src/rDock_2013.1_src/data/scripts/dock_solv.prm

>  <Rbt.Receptor>
prm/blind_docking_80.prm

>  <SCORE>
-23.5168

>  <SCORE.INTER>
-19.1968

>  <SCORE.INTER.CONST>
1

>  <SCORE.INTER.POLAR>
0

>  <SCORE.INTER.ROT>
7

>  <SCORE.INTER.SOLV>
13.4203

>  <SCORE.INTER.VDW>
-25.538

>  <SCORE.INTER.norm>
-0.738339

>  <SCORE.INTRA>
-4.32001

>  <SCORE.INTRA.DIHEDRAL>
-6.04182

>  <SCORE.INTRA.DIHEDRAL.0>
10.1225

>  <SCORE.INTRA.POLAR>
0

>  <SCORE.INTRA.POLAR.0>
0

>  <SCORE.INTRA.REPUL>
0

>  <SCORE.INTRA.REPUL.0>
0

>  <SCORE.INTRA.SOLV>
1.43035

>  <SCORE.INTRA.SOLV.lig_0>
-49.9393

>  <SCORE.INTRA.VDW>
-2.01427

>  <SCORE.INTRA.VDW.0>
-1.75437

>  <SCORE.INTRA.norm>
-0.166154

>  <SCORE.RESTR>
0

>  <SCORE.RESTR.CAVITY>
0

>  <SCORE.RESTR.norm>
0

>  <SCORE.SYSTEM>
0

>  <SCORE.SYSTEM.CONST>
0

>  <SCORE.SYSTEM.DIHEDRAL>
0

>  <SCORE.SYSTEM.SOLV>
0

>  <SCORE.SYSTEM.norm>
0

>  <SCORE.heavy>
26

>  <SCORE.norm>
-0.904494

>  <RMSD>
5.153

$$$$
ligand
 OpenBabel11021811473D
libRbt.so/2013.1/901 2013/11/27
 26 28  0  0  0  0  0  0  0  0999 V2000
  -10.8280    5.5717  -25.0421 N   0  0  0  0  0  0  0  0  0  0  0  0
  -11.8064    6.5672  -24.5868 C   0  0  2  0  0  0  0  0  0  0  0  0
  -12.8432    6.7771  -25.6588 C   0  0  0  0  0  0  0  0  0  0  0  0
  -12.6303    7.5495  -26.5638 O   0  0  0  0  0  0  0  0  0  0  0  0
  -11.0920    7.8892  -24.3010 C   0  0  0  0  0  0  0  0  0  0  0  0
  -12.0785    8.8796  -23.6849 C   0  0  0  0  0  0  0  0  0  0  0  0
  -11.5751   10.4416  -23.2483 S   0  0  0  0  0  0  0  0  0  0  0  0
  -10.6533   11.2297  -21.9028 C   0  0  0  0  0  0  0  0  0  0  0  0
  -11.4270   11.3602  -20.5852 C   0  0  1  0  0  0  0  0  0  0  0  0
  -10.7581   12.1802  -19.6445 O   0  0  0  0  0  0  0  0  0  0  0  0
  -12.7506   12.0637  -20.7709 C   0  0  1  0  0  0  0  0  0  0  0  0
  -13.5446   11.6361  -19.6859 O   0  0  0  0  0  0  0  0  0  0  0  0
  -12.4482   13.5321  -20.5827 C   0  0  1  0  0  0  0  0  0  0  0  0
  -13.4843   14.1397  -19.8423 O   0  0  0  0  0  0  0  0  0  0  0  0
  -11.1771   13.5269  -19.7613 C   0  0  2  0  0  0  0  0  0  0  0  0
  -14.0068    6.1082  -25.6090 O   0  0  0  0  0  0  0  0  0  0  0  0
   -6.7313   16.0871  -18.8157 N   0  0  0  0  0  0  0  0  0  0  0  0
   -7.5903   15.5153  -17.9072 C   0  0  0  0  0  0  0  0  0  0  0  0
   -8.7292   14.8892  -18.3533 N   0  0  0  0  0  0  0  0  0  0  0  0
   -9.0107   14.8290  -19.6695 C   0  0  0  0  0  0  0  0  0  0  0  0
   -8.1604   15.3965  -20.5998 C   0  0  0  0  0  0  0  0  0  0  0  0
   -7.0073   16.0351  -20.1588 C   0  0  0  0  0  0  0  0  0  0  0  0
   -6.1654   16.5969  -21.0174 N   0  0  0  0  0  0  0  0  0  0  0  0
   -8.6814   15.1911  -21.8301 N   0  0  0  0  0  0  0  0  0  0  0  0
   -9.8321   14.5044  -21.6904 C   0  0  0  0  0  0  0  0  0  0  0  0
  -10.0582   14.2806  -20.3563 N   0  0  0  0  0  0  0  0  0  0  0  0
  2  1  1  6  0  0  0
  2  3  1  0  0  0  0
  2  5  1  0  0  0  0
  3  4  1  0  0  0  0
  3 16  1  0  0  0  0
  5  6  1  0  0  0  0
  6  7  1  0  0  0  0
  7  8  1  0  0  0  0
  9  8  1  6  0  0  0
  9 10  1  0  0  0  0
  9 11  1  0  0  0  0
 10 15  1  0  0  0  0
 11 12  1  1  0  0  0
 11 13  1  0  0  0  0
 13 14  1  1  0  0  0
 13 15  1  0  0  0  0
 15 26  1  6  0  0  0
 17 18  2  0  0  0  0
 17 22  1  0  0  0  0
 18 19  1  0  0  0  0
 19 20  2  0  0  0  0
 20 21  1  0  0  0  0
 20 26  1  0  0  0  0
 21 22  2  0  0  0  0
 21 24  1  0  0  0  0
 22 23  1  0  0  0  0
 24 25  2  0  0  0  0
 25 26  1  0  0  0  0
M  END
>  <CHROM.1>
-84.17955540,-173.92235525,179.67807719,-77.55140619,-74.67802250,-169.78406203
-85.65113918,-10.71917861,11.85808675,-21.73267419,-1.98625565,0.36633142
0.73307735

>  <Name>
ligand

>  <RI>
0

>  <Rbt.Current_Directory>
/home/itssahil/PROJECTS/Mol_Feturizer/New_Systems/rnas/3E5E

>  <Rbt.Executable>
rbdock ($Id: //depot/dev/client3/rdock/2013.1/src/exe/rbdock.cxx#4 $)

>  <Rbt.Library>
libRbt.so (2013.1, Build901 2013/11/27)

>  <Rbt.Parameter_File>
/export/apps/rDock/src/rDock_2013.1_src/data/scripts/dock_solv.prm

>  <Rbt.Receptor>
prm/blind_docking_60.prm

>  <SCORE>
-22.4381

>  <SCORE.INTER>
-19.317

>  <SCORE.INTER.CONST>
1

>  <SCORE.INTER.POLAR>
0

>  <SCORE.INTER.ROT>
7

>  <SCORE.INTER.SOLV>
14.3405

>  <SCORE.INTER.VDW>
-25.9248

>  <SCORE.INTER.norm>
-0.742962

>  <SCORE.INTRA>
-3.12108

>  <SCORE.INTRA.DIHEDRAL>
-6.20885

>  <SCORE.INTRA.DIHEDRAL.0>
10.1225

>  <SCORE.INTRA.POLAR>
0

>  <SCORE.INTRA.POLAR.0>
0

>  <SCORE.INTRA.REPUL>
0

>  <SCORE.INTRA.REPUL.0>
0

>  <SCORE.INTRA.SOLV>
-0.588662

>  <SCORE.INTRA.SOLV.lig_0>
-49.9393

>  <SCORE.INTRA.VDW>
0.277673

>  <SCORE.INTRA.VDW.0>
-1.75437

>  <SCORE.INTRA.norm>
-0.120042

>  <SCORE.RESTR>
0

>  <SCORE.RESTR.CAVITY>
0

>  <SCORE.RESTR.norm>
0

>  <SCORE.SYSTEM>
0

>  <SCORE.SYSTEM.CONST>
0

>  <SCORE.SYSTEM.DIHEDRAL>
0

>  <SCORE.SYSTEM.SOLV>
0

>  <SCORE.SYSTEM.norm>
0

>  <SCORE.heavy>
26

>  <SCORE.norm>
-0.863003

>  <RMSD>
5.167

$$$$
ligand
 OpenBabel11021811473D
libRbt.so/2013.1/901 2013/11/27
 26 28  0  0  0  0  0  0  0  0999 V2000
  -14.7728    7.8304  -22.1884 N   0  0  0  0  0  0  0  0  0  0  0  0
  -14.7322    8.3263  -23.5697 C   0  0  2  0  0  0  0  0  0  0  0  0
  -13.5469    7.7292  -24.2815 C   0  0  0  0  0  0  0  0  0  0  0  0
  -12.6903    7.1532  -23.6525 O   0  0  0  0  0  0  0  0  0  0  0  0
  -14.6076    9.8508  -23.5597 C   0  0  0  0  0  0  0  0  0  0  0  0
  -13.3183   10.2528  -22.8458 C   0  0  0  0  0  0  0  0  0  0  0  0
  -12.8105   11.8732  -22.8273 S   0  0  0  0  0  0  0  0  0  0  0  0
  -12.4434   13.1528  -21.5988 C   0  0  0  0  0  0  0  0  0  0  0  0
  -11.4936   12.7127  -20.4782 C   0  0  1  0  0  0  0  0  0  0  0  0
  -10.2192   12.3355  -20.9667 O   0  0  0  0  0  0  0  0  0  0  0  0
  -11.1740   13.8425  -19.5279 C   0  0  1  0  0  0  0  0  0  0  0  0
  -10.7917   13.2095  -18.3265 O   0  0  0  0  0  0  0  0  0  0  0  0
   -9.9554   14.5183  -20.1121 C   0  0  1  0  0  0  0  0  0  0  0  0
   -9.0620   14.8653  -19.0766 O   0  0  0  0  0  0  0  0  0  0  0  0
   -9.3347   13.4402  -20.9740 C   0  0  2  0  0  0  0  0  0  0  0  0
  -13.4388    7.8384  -25.6158 O   0  0  0  0  0  0  0  0  0  0  0  0
   -8.5337   17.3922  -24.2838 N   0  0  0  0  0  0  0  0  0  0  0  0
   -8.7448   17.4522  -22.9266 C   0  0  0  0  0  0  0  0  0  0  0  0
   -8.9512   16.2912  -22.2213 N   0  0  0  0  0  0  0  0  0  0  0  0
   -8.9469   15.0971  -22.8453 C   0  0  0  0  0  0  0  0  0  0  0  0
   -8.7358   15.0140  -24.2088 C   0  0  0  0  0  0  0  0  0  0  0  0
   -8.5293   16.1828  -24.9321 C   0  0  0  0  0  0  0  0  0  0  0  0
   -8.3267   16.1491  -26.2434 N   0  0  0  0  0  0  0  0  0  0  0  0
   -8.7835   13.7111  -24.5659 N   0  0  0  0  0  0  0  0  0  0  0  0
   -9.0131   12.9795  -23.4581 C   0  0  0  0  0  0  0  0  0  0  0  0
   -9.1284   13.8231  -22.3829 N   0  0  0  0  0  0  0  0  0  0  0  0
  2  1  1  1  0  0  0
  2  3  1  0  0  0  0
  2  5  1  0  0  0  0
  3  4  1  0  0  0  0
  3 16  1  0  0  0  0
  5  6  1  0  0  0  0
  6  7  1  0  0  0  0
  7  8  1  0  0  0  0
  9  8  1  6  0  0  0
  9 10  1  0  0  0  0
  9 11  1  0  0  0  0
 10 15  1  0  0  0  0
 11 12  1  1  0  0  0
 11 13  1  0  0  0  0
 13 14  1  1  0  0  0
 13 15  1  0  0  0  0
 15 26  1  6  0  0  0
 17 18  2  0  0  0  0
 17 22  1  0  0  0  0
 18 19  1  0  0  0  0
 19 20  2  0  0  0  0
 20 21  1  0  0  0  0
 20 26  1  0  0  0  0
 21 22  2  0  0  0  0
 21 24  1  0  0  0  0
 22 23  1  0  0  0  0
 24 25  2  0  0  0  0
 25 26  1  0  0  0  0
M  END
>  <CHROM.1>
-12.36520670,60.43492478,173.01251217,120.90357478,50.03528500,61.57993547
145.54368384,-10.98840608,12.68018095,-22.56951661,2.90895440,-0.94856619
-1.74561409

>  <Name>
ligand

>  <RI>
0

>  <Rbt.Current_Directory>
/home/itssahil/PROJECTS/Mol_Feturizer/New_Systems/rnas/3E5E

>  <Rbt.Executable>
rbdock ($Id: //depot/dev/client3/rdock/2013.1/src/exe/rbdock.cxx#4 $)

>  <Rbt.Library>
libRbt.so (2013.1, Build901 2013/11/27)

>  <Rbt.Parameter_File>
/export/apps/rDock/src/rDock_2013.1_src/data/scripts/dock_solv.prm

>  <Rbt.Receptor>
prm/pocket_docking_7.prm

>  <SCORE>
-17.6157

>  <SCORE.INTER>
-15.3362

>  <SCORE.INTER.CONST>
1

>  <SCORE.INTER.POLAR>
0

>  <SCORE.INTER.ROT>
7

>  <SCORE.INTER.SOLV>
10.9187

>  <SCORE.INTER.VDW>
-22.1304

>  <SCORE.INTER.norm>
-0.589854

>  <SCORE.INTRA>
-2.27951

>  <SCORE.INTRA.DIHEDRAL>
-4.7922

>  <SCORE.INTRA.DIHEDRAL.0>
10.1225

>  <SCORE.INTRA.POLAR>
0

>  <SCORE.INTRA.POLAR.0>
0

>  <SCORE.INTRA.REPUL>
0

>  <SCORE.INTRA.REPUL.0>
0

>  <SCORE.INTRA.SOLV>
0.243289

>  <SCORE.INTRA.SOLV.lig_0>
-49.9393

>  <SCORE.INTRA.VDW>
-0.0050577

>  <SCORE.INTRA.VDW.0>
-1.75437

>  <SCORE.INTRA.norm>
-0.0876735

>  <SCORE.RESTR>
0

>  <SCORE.RESTR.CAVITY>
0

>  <SCORE.RESTR.norm>
0

>  <SCORE.SYSTEM>
0

>  <SCORE.SYSTEM.CONST>
0

>  <SCORE.SYSTEM.DIHEDRAL>
0

>  <SCORE.SYSTEM.SOLV>
0

>  <SCORE.SYSTEM.norm>
0

>  <SCORE.heavy>
26

>  <SCORE.norm>
-0.677528

>  <RMSD>
5.175

$$$$
ligand
 OpenBabel11021811473D
libRbt.so/2013.1/901 2013/11/27
 26 28  0  0  0  0  0  0  0  0999 V2000
  -15.6335    8.8778  -21.9648 N   0  0  0  0  0  0  0  0  0  0  0  0
  -14.4548    9.5294  -21.3803 C   0  0  2  0  0  0  0  0  0  0  0  0
  -13.4544    9.8231  -22.4671 C   0  0  0  0  0  0  0  0  0  0  0  0
  -13.2240   10.9663  -22.7847 O   0  0  0  0  0  0  0  0  0  0  0  0
  -13.8230    8.6015  -20.3413 C   0  0  0  0  0  0  0  0  0  0  0  0
  -12.8078    9.3829  -19.5093 C   0  0  0  0  0  0  0  0  0  0  0  0
  -11.3001    9.8098  -20.1642 S   0  0  0  0  0  0  0  0  0  0  0  0
  -10.5838   11.1806  -21.1071 C   0  0  0  0  0  0  0  0  0  0  0  0
  -10.8299   12.5701  -20.5068 C   0  0  1  0  0  0  0  0  0  0  0  0
  -10.3165   13.6091  -21.3203 O   0  0  0  0  0  0  0  0  0  0  0  0
  -12.3015   12.8994  -20.4210 C   0  0  1  0  0  0  0  0  0  0  0  0
  -12.3970   13.8749  -19.4062 O   0  0  0  0  0  0  0  0  0  0  0  0
  -12.6374   13.5573  -21.7391 C   0  0  1  0  0  0  0  0  0  0  0  0
  -13.5104   14.6437  -21.5194 O   0  0  0  0  0  0  0  0  0  0  0  0
  -11.3005   14.0744  -22.2247 C   0  0  2  0  0  0  0  0  0  0  0  0
  -12.8189    8.8148  -23.0864 O   0  0  0  0  0  0  0  0  0  0  0  0
   -7.7814   14.4468  -26.0577 N   0  0  0  0  0  0  0  0  0  0  0  0
   -7.8237   15.1456  -24.8745 C   0  0  0  0  0  0  0  0  0  0  0  0
   -8.8476   14.9146  -23.9877 N   0  0  0  0  0  0  0  0  0  0  0  0
   -9.8074   14.0107  -24.2652 C   0  0  0  0  0  0  0  0  0  0  0  0
   -9.7835   13.2966  -25.4484 C   0  0  0  0  0  0  0  0  0  0  0  0
   -8.7539   13.5251  -26.3538 C   0  0  0  0  0  0  0  0  0  0  0  0
   -8.6946   12.8645  -27.5035 N   0  0  0  0  0  0  0  0  0  0  0  0
  -10.8533   12.4705  -25.4660 N   0  0  0  0  0  0  0  0  0  0  0  0
  -11.5402   12.6474  -24.3205 C   0  0  0  0  0  0  0  0  0  0  0  0
  -10.9124   13.6071  -23.5682 N   0  0  0  0  0  0  0  0  0  0  0  0
  2  1  1  6  0  0  0
  2  3  1  0  0  0  0
  2  5  1  0  0  0  0
  3  4  1  0  0  0  0
  3 16  1  0  0  0  0
  5  6  1  0  0  0  0
  6  7  1  0  0  0  0
  7  8  1  0  0  0  0
  9  8  1  6  0  0  0
  9 10  1  0  0  0  0
  9 11  1  0  0  0  0
 10 15  1  0  0  0  0
 11 12  1  1  0  0  0
 11 13  1  0  0  0  0
 13 14  1  1  0  0  0
 13 15  1  0  0  0  0
 15 26  1  6  0  0  0
 17 18  2  0  0  0  0
 17 22  1  0  0  0  0
 18 19  1  0  0  0  0
 19 20  2  0  0  0  0
 20 21  1  0  0  0  0
 20 26  1  0  0  0  0
 21 22  2  0  0  0  0
 21 24  1  0  0  0  0
 22 23  1  0  0  0  0
 24 25  2  0  0  0  0
 25 26  1  0  0  0  0
M  END
>  <CHROM.1>
111.68738767,-167.05684046,-74.44121887,88.91111851,51.84859007,-176.61865967
-66.34538982,-11.44211479,12.12981424,-22.56606407,2.98994266,0.95332602
0.92632799

>  <Name>
ligand

>  <RI>
0

>  <Rbt.Current_Directory>
/home/itssahil/PROJECTS/Mol_Feturizer/New_Systems/rnas/3E5E

>  <Rbt.Executable>
rbdock ($Id: //depot/dev/client3/rdock/2013.1/src/exe/rbdock.cxx#4 $)

>  <Rbt.Library>
libRbt.so (2013.1, Build901 2013/11/27)

>  <Rbt.Parameter_File>
/export/apps/rDock/src/rDock_2013.1_src/data/scripts/dock_solv.prm

>  <Rbt.Receptor>
prm/pocket_docking_7.prm

>  <SCORE>
-18.5332

>  <SCORE.INTER>
-13.7766

>  <SCORE.INTER.CONST>
1

>  <SCORE.INTER.POLAR>
0

>  <SCORE.INTER.ROT>
7

>  <SCORE.INTER.SOLV>
12.8657

>  <SCORE.INTER.VDW>
-21.7397

>  <SCORE.INTER.norm>
-0.52987

>  <SCORE.INTRA>
-4.82477

>  <SCORE.INTRA.DIHEDRAL>
-4.79671

>  <SCORE.INTRA.DIHEDRAL.0>
10.1225

>  <SCORE.INTRA.POLAR>
0

>  <SCORE.INTRA.POLAR.0>
0

>  <SCORE.INTRA.REPUL>
0

>  <SCORE.INTRA.REPUL.0>
0

>  <SCORE.INTRA.SOLV>
-0.246431

>  <SCORE.INTRA.SOLV.lig_0>
-49.9393

>  <SCORE.INTRA.VDW>
-2.3032

>  <SCORE.INTRA.VDW.0>
-1.75437

>  <SCORE.INTRA.norm>
-0.185568

>  <SCORE.RESTR>
0.0681707

>  <SCORE.RESTR.CAVITY>
0.0681707

>  <SCORE.RESTR.norm>
0.00262195

>  <SCORE.SYSTEM>
0

>  <SCORE.SYSTEM.CONST>
0

>  <SCORE.SYSTEM.DIHEDRAL>
0

>  <SCORE.SYSTEM.SOLV>
0

>  <SCORE.SYSTEM.norm>
0

>  <SCORE.heavy>
26

>  <SCORE.norm>
-0.712816

>  <RMSD>
5.188

$$$$
ligand
 OpenBabel11021811473D
libRbt.so/2013.1/901 2013/11/27
 26 28  0  0  0  0  0  0  0  0999 V2000
  -11.2602    8.5466  -25.2730 N   0  0  0  0  0  0  0  0  0  0  0  0
  -12.3756    7.6778  -24.8772 C   0  0  2  0  0  0  0  0  0  0  0  0
  -12.9515    7.0137  -26.1001 C   0  0  0  0  0  0  0  0  0  0  0  0
  -13.6103    6.0065  -25.9882 O   0  0  0  0  0  0  0  0  0  0  0  0
  -13.4569    8.5170  -24.1944 C   0  0  0  0  0  0  0  0  0  0  0  0
  -12.9337    9.0310  -22.8544 C   0  0  0  0  0  0  0  0  0  0  0  0
  -11.7255   10.2232  -22.7989 S   0  0  0  0  0  0  0  0  0  0  0  0
  -10.7462   11.0869  -21.5435 C   0  0  0  0  0  0  0  0  0  0  0  0
  -11.4916   11.3758  -20.2349 C   0  0  1  0  0  0  0  0  0  0  0  0
  -10.7868   12.2749  -19.3984 O   0  0  0  0  0  0  0  0  0  0  0  0
  -12.8025   12.0874  -20.4730 C   0  0  1  0  0  0  0  0  0  0  0  0
  -13.5851   11.7973  -19.3355 O   0  0  0  0  0  0  0  0  0  0  0  0
  -12.4638   13.5598  -20.4480 C   0  0  1  0  0  0  0  0  0  0  0  0
  -13.4717   14.2678  -19.7599 O   0  0  0  0  0  0  0  0  0  0  0  0
  -11.1777   13.6113  -19.6518 C   0  0  2  0  0  0  0  0  0  0  0  0
  -12.7314    7.5382  -27.3168 O   0  0  0  0  0  0  0  0  0  0  0  0
   -6.6127   16.0664  -19.0630 N   0  0  0  0  0  0  0  0  0  0  0  0
   -7.4596   15.6045  -18.0835 C   0  0  0  0  0  0  0  0  0  0  0  0
   -8.6351   14.9886  -18.4398 N   0  0  0  0  0  0  0  0  0  0  0  0
   -8.9640   14.8317  -19.7369 C   0  0  0  0  0  0  0  0  0  0  0  0
   -8.1266   15.2878  -20.7376 C   0  0  0  0  0  0  0  0  0  0  0  0
   -6.9367   15.9152  -20.3878 C   0  0  0  0  0  0  0  0  0  0  0  0
   -6.1054   16.3719  -21.3163 N   0  0  0  0  0  0  0  0  0  0  0  0
   -8.6970   15.0027  -21.9295 N   0  0  0  0  0  0  0  0  0  0  0  0
   -9.8660   14.3748  -21.6970 C   0  0  0  0  0  0  0  0  0  0  0  0
  -10.0538   14.2698  -20.3424 N   0  0  0  0  0  0  0  0  0  0  0  0
  2  1  1  6  0  0  0
  2  3  1  0  0  0  0
  2  5  1  0  0  0  0
  3  4  1  0  0  0  0
  3 16  1  0  0  0  0
  5  6  1  0  0  0  0
  6  7  1  0  0  0  0
  7  8  1  0  0  0  0
  9  8  1  6  0  0  0
  9 10  1  0  0  0  0
  9 11  1  0  0  0  0
 10 15  1  0  0  0  0
 11 12  1  1  0  0  0
 11 13  1  0  0  0  0
 13 14  1  1  0  0  0
 13 15  1  0  0  0  0
 15 26  1  6  0  0  0
 17 18  2  0  0  0  0
 17 22  1  0  0  0  0
 18 19  1  0  0  0  0
 19 20  2  0  0  0  0
 20 21  1  0  0  0  0
 20 26  1  0  0  0  0
 21 22  2  0  0  0  0
 21 24  1  0  0  0  0
 22 23  1  0  0  0  0
 24 25  2  0  0  0  0
 25 26  1  0  0  0  0
M  END
>  <CHROM.1>
159.69910554,-67.92627290,70.33079555,-176.61995509,-35.41633118,-168.15841021
-83.81265185,-10.87190535,12.01570444,-21.71357313,-2.08882831,0.49766857
0.89022288

>  <Name>
ligand

>  <RI>
0

>  <Rbt.Current_Directory>
/home/itssahil/PROJECTS/Mol_Feturizer/New_Systems/rnas/3E5E

>  <Rbt.Executable>
rbdock ($Id: //depot/dev/client3/rdock/2013.1/src/exe/rbdock.cxx#4 $)

>  <Rbt.Library>
libRbt.so (2013.1, Build901 2013/11/27)

>  <Rbt.Parameter_File>
/export/apps/rDock/src/rDock_2013.1_src/data/scripts/dock_solv.prm

>  <Rbt.Receptor>
prm/blind_docking_60.prm

>  <SCORE>
-21.8756

>  <SCORE.INTER>
-19.2935

>  <SCORE.INTER.CONST>
1

>  <SCORE.INTER.POLAR>
0

>  <SCORE.INTER.ROT>
7

>  <SCORE.INTER.SOLV>
11.9255

>  <SCORE.INTER.VDW>
-25.1042

>  <SCORE.INTER.norm>
-0.74206

>  <SCORE.INTRA>
-2.58201

>  <SCORE.INTRA.DIHEDRAL>
-5.51604

>  <SCORE.INTRA.DIHEDRAL.0>
10.1225

>  <SCORE.INTRA.POLAR>
0

>  <SCORE.INTRA.POLAR.0>
0

>  <SCORE.INTRA.REPUL>
0

>  <SCORE.INTRA.REPUL.0>
0

>  <SCORE.INTRA.SOLV>
1.51001

>  <SCORE.INTRA.SOLV.lig_0>
-49.9393

>  <SCORE.INTRA.VDW>
-0.578988

>  <SCORE.INTRA.VDW.0>
-1.75437

>  <SCORE.INTRA.norm>
-0.0993079

>  <SCORE.RESTR>
0

>  <SCORE.RESTR.CAVITY>
0

>  <SCORE.RESTR.norm>
0

>  <SCORE.SYSTEM>
0

>  <SCORE.SYSTEM.CONST>
0

>  <SCORE.SYSTEM.DIHEDRAL>
0

>  <SCORE.SYSTEM.SOLV>
0

>  <SCORE.SYSTEM.norm>
0

>  <SCORE.heavy>
26

>  <SCORE.norm>
-0.841367

>  <RMSD>
5.208

$$$$
ligand
 OpenBabel11021811473D
libRbt.so/2013.1/901 2013/11/27
 26 28  0  0  0  0  0  0  0  0999 V2000
  -13.5957    8.9526  -21.2421 N   0  0  0  0  0  0  0  0  0  0  0  0
  -14.1345    9.9806  -22.1412 C   0  0  2  0  0  0  0  0  0  0  0  0
  -14.4498    9.3618  -23.4775 C   0  0  0  0  0  0  0  0  0  0  0  0
  -13.9530    8.3043  -23.7871 O   0  0  0  0  0  0  0  0  0  0  0  0
  -13.0983   11.0908  -22.3238 C   0  0  0  0  0  0  0  0  0  0  0  0
  -13.0409   11.9482  -21.0608 C   0  0  0  0  0  0  0  0  0  0  0  0
  -12.2865   13.4695  -21.0831 S   0  0  0  0  0  0  0  0  0  0  0  0
  -10.6465   14.1514  -21.4387 C   0  0  0  0  0  0  0  0  0  0  0  0
   -9.5348   13.6737  -20.4966 C   0  0  1  0  0  0  0  0  0  0  0  0
   -8.2467   14.0573  -20.9422 O   0  0  0  0  0  0  0  0  0  0  0  0
   -9.6299   14.3171  -19.1334 C   0  0  1  0  0  0  0  0  0  0  0  0
   -8.9579   13.4306  -18.2656 O   0  0  0  0  0  0  0  0  0  0  0  0
   -8.8135   15.5843  -19.2359 C   0  0  1  0  0  0  0  0  0  0  0  0
   -8.0687   15.7672  -18.0516 O   0  0  0  0  0  0  0  0  0  0  0  0
   -7.8711   15.3034  -20.3863 C   0  0  2  0  0  0  0  0  0  0  0  0
  -15.2814    9.9857  -24.3280 O   0  0  0  0  0  0  0  0  0  0  0  0
   -5.1236   18.7312  -23.1998 N   0  0  0  0  0  0  0  0  0  0  0  0
   -4.6935   17.9620  -22.1446 C   0  0  0  0  0  0  0  0  0  0  0  0
   -5.5781   17.1189  -21.5163 N   0  0  0  0  0  0  0  0  0  0  0  0
   -6.8595   17.0376  -21.9246 C   0  0  0  0  0  0  0  0  0  0  0  0
   -7.3125   17.8013  -22.9838 C   0  0  0  0  0  0  0  0  0  0  0  0
   -6.4266   18.6599  -23.6242 C   0  0  0  0  0  0  0  0  0  0  0  0
   -6.8204   19.4142  -24.6428 N   0  0  0  0  0  0  0  0  0  0  0  0
   -8.6216   17.5245  -23.1759 N   0  0  0  0  0  0  0  0  0  0  0  0
   -8.9944   16.6026  -22.2668 C   0  0  0  0  0  0  0  0  0  0  0  0
   -7.9172   16.2969  -21.4748 N   0  0  0  0  0  0  0  0  0  0  0  0
  2  1  1  1  0  0  0
  2  3  1  0  0  0  0
  2  5  1  0  0  0  0
  3  4  1  0  0  0  0
  3 16  1  0  0  0  0
  5  6  1  0  0  0  0
  6  7  1  0  0  0  0
  7  8  1  0  0  0  0
  9  8  1  6  0  0  0
  9 10  1  0  0  0  0
  9 11  1  0  0  0  0
 10 15  1  0  0  0  0
 11 12  1  1  0  0  0
 11 13  1  0  0  0  0
 13 14  1  1  0  0  0
 13 15  1  0  0  0  0
 15 26  1  6  0  0  0
 17 18  2  0  0  0  0
 17 22  1  0  0  0  0
 18 19  1  0  0  0  0
 19 20  2  0  0  0  0
 20 21  1  0  0  0  0
 20 26  1  0  0  0  0
 21 22  2  0  0  0  0
 21 24  1  0  0  0  0
 22 23  1  0  0  0  0
 24 25  2  0  0  0  0
 25 26  1  0  0  0  0
M  END
>  <CHROM.1>
-18.73523736,-74.44703357,-164.70802770,-59.32887038,-63.08845281,170.38941321
-119.39753599,-9.81941256,14.32844613,-21.64484484,-2.94590675,-0.78600146
-1.25391498

>  <Name>
ligand

>  <RI>
0

>  <Rbt.Current_Directory>
/home/itssahil/PROJECTS/Mol_Feturizer/New_Systems/rnas/3E5E

>  <Rbt.Executable>
rbdock ($Id: //depot/dev/client3/rdock/2013.1/src/exe/rbdock.cxx#4 $)

>  <Rbt.Library>
libRbt.so (2013.1, Build901 2013/11/27)

>  <Rbt.Parameter_File>
/export/apps/rDock/src/rDock_2013.1_src/data/scripts/dock_solv.prm

>  <Rbt.Receptor>
prm/pocket_docking_6.prm

>  <SCORE>
-20.6495

>  <SCORE.INTER>
-17.4832

>  <SCORE.INTER.CONST>
1

>  <SCORE.INTER.POLAR>
0

>  <SCORE.INTER.ROT>
7

>  <SCORE.INTER.SOLV>
11.4079

>  <SCORE.INTER.VDW>
-23.7248

>  <SCORE.INTER.norm>
-0.672431

>  <SCORE.INTRA>
-3.16627

>  <SCORE.INTRA.DIHEDRAL>
-5.46669

>  <SCORE.INTRA.DIHEDRAL.0>
10.1225

>  <SCORE.INTRA.POLAR>
0

>  <SCORE.INTRA.POLAR.0>
0

>  <SCORE.INTRA.REPUL>
0

>  <SCORE.INTRA.REPUL.0>
0

>  <SCORE.INTRA.SOLV>
-0.0662097

>  <SCORE.INTRA.SOLV.lig_0>
-49.9393

>  <SCORE.INTRA.VDW>
-0.399816

>  <SCORE.INTRA.VDW.0>
-1.75437

>  <SCORE.INTRA.norm>
-0.121779

>  <SCORE.RESTR>
0

>  <SCORE.RESTR.CAVITY>
0

>  <SCORE.RESTR.norm>
0

>  <SCORE.SYSTEM>
0

>  <SCORE.SYSTEM.CONST>
0

>  <SCORE.SYSTEM.DIHEDRAL>
0

>  <SCORE.SYSTEM.SOLV>
0

>  <SCORE.SYSTEM.norm>
0

>  <SCORE.heavy>
26

>  <SCORE.norm>
-0.794211

>  <RMSD>
5.212

$$$$
ligand
 OpenBabel11021811473D
libRbt.so/2013.1/901 2013/11/27
 26 28  0  0  0  0  0  0  0  0999 V2000
  -12.9588    8.7582  -24.0954 N   0  0  0  0  0  0  0  0  0  0  0  0
  -13.4975    9.1339  -22.7823 C   0  0  2  0  0  0  0  0  0  0  0  0
  -14.9463    9.5191  -22.9269 C   0  0  0  0  0  0  0  0  0  0  0  0
  -15.7069    9.3727  -21.9990 O   0  0  0  0  0  0  0  0  0  0  0  0
  -12.7063   10.3198  -22.2280 C   0  0  0  0  0  0  0  0  0  0  0  0
  -12.9232   11.5401  -23.1210 C   0  0  0  0  0  0  0  0  0  0  0  0
  -12.4976   13.0927  -22.5802 S   0  0  0  0  0  0  0  0  0  0  0  0
  -12.2217   13.9376  -21.0018 C   0  0  0  0  0  0  0  0  0  0  0  0
  -11.3479   13.1662  -20.0053 C   0  0  1  0  0  0  0  0  0  0  0  0
  -10.1468   12.6968  -20.5901 O   0  0  0  0  0  0  0  0  0  0  0  0
  -10.8581   14.0460  -18.8794 C   0  0  1  0  0  0  0  0  0  0  0  0
  -10.5745   13.1573  -17.8210 O   0  0  0  0  0  0  0  0  0  0  0  0
   -9.5519   14.6259  -19.3698 C   0  0  1  0  0  0  0  0  0  0  0  0
   -8.6141   14.6435  -18.3157 O   0  0  0  0  0  0  0  0  0  0  0  0
   -9.1043   13.6399  -20.4271 C   0  0  2  0  0  0  0  0  0  0  0  0
  -15.3954   10.0232  -24.0880 O   0  0  0  0  0  0  0  0  0  0  0  0
   -6.6356   13.0729  -24.9876 N   0  0  0  0  0  0  0  0  0  0  0  0
   -6.5833   12.2506  -23.8870 C   0  0  0  0  0  0  0  0  0  0  0  0
   -7.3017   12.5779  -22.7624 N   0  0  0  0  0  0  0  0  0  0  0  0
   -8.0565   13.6934  -22.7285 C   0  0  0  0  0  0  0  0  0  0  0  0
   -8.1240   14.5335  -23.8241 C   0  0  0  0  0  0  0  0  0  0  0  0
   -7.3985   14.2132  -24.9656 C   0  0  0  0  0  0  0  0  0  0  0  0
   -7.4313   14.9938  -26.0385 N   0  0  0  0  0  0  0  0  0  0  0  0
   -8.9433   15.5640  -23.5175 N   0  0  0  0  0  0  0  0  0  0  0  0
   -9.3932   15.3840  -22.2603 C   0  0  0  0  0  0  0  0  0  0  0  0
   -8.8448   14.2347  -21.7511 N   0  0  0  0  0  0  0  0  0  0  0  0
  2  1  1  6  0  0  0
  2  3  1  0  0  0  0
  2  5  1  0  0  0  0
  3  4  1  0  0  0  0
  3 16  1  0  0  0  0
  5  6  1  0  0  0  0
  6  7  1  0  0  0  0
  7  8  1  0  0  0  0
  9  8  1  6  0  0  0
  9 10  1  0  0  0  0
  9 11  1  0  0  0  0
 10 15  1  0  0  0  0
 11 12  1  1  0  0  0
 11 13  1  0  0  0  0
 13 14  1  1  0  0  0
 13 15  1  0  0  0  0
 15 26  1  6  0  0  0
 17 18  2  0  0  0  0
 17 22  1  0  0  0  0
 18 19  1  0  0  0  0
 19 20  2  0  0  0  0
 20 21  1  0  0  0  0
 20 26  1  0  0  0  0
 21 22  2  0  0  0  0
 21 24  1  0  0  0  0
 22 23  1  0  0  0  0
 24 25  2  0  0  0  0
 25 26  1  0  0  0  0
M  END
>  <CHROM.1>
151.87630751,64.87161172,165.01095814,-21.83027011,46.30582531,49.51549937
-83.06709020,-10.63271489,12.75294248,-22.15140252,-2.94123657,0.55532011
1.23226514

>  <Name>
ligand

>  <RI>
0

>  <Rbt.Current_Directory>
/home/itssahil/PROJECTS/Mol_Feturizer/New_Systems/rnas/3E5E

>  <Rbt.Executable>
rbdock ($Id: //depot/dev/client3/rdock/2013.1/src/exe/rbdock.cxx#4 $)

>  <Rbt.Library>
libRbt.so (2013.1, Build901 2013/11/27)

>  <Rbt.Parameter_File>
/export/apps/rDock/src/rDock_2013.1_src/data/scripts/dock_solv.prm

>  <Rbt.Receptor>
prm/pocket_docking_5.prm

>  <SCORE>
-20.2191

>  <SCORE.INTER>
-17.6324

>  <SCORE.INTER.CONST>
1

>  <SCORE.INTER.POLAR>
0

>  <SCORE.INTER.ROT>
7

>  <SCORE.INTER.SOLV>
10.5186

>  <SCORE.INTER.VDW>
-23.5278

>  <SCORE.INTER.norm>
-0.67817

>  <SCORE.INTRA>
-2.5867

>  <SCORE.INTRA.DIHEDRAL>
-4.27698

>  <SCORE.INTRA.DIHEDRAL.0>
10.1225

>  <SCORE.INTRA.POLAR>
0

>  <SCORE.INTRA.POLAR.0>
0

>  <SCORE.INTRA.REPUL>
0

>  <SCORE.INTRA.REPUL.0>
0

>  <SCORE.INTRA.SOLV>
0.260177

>  <SCORE.INTRA.SOLV.lig_0>
-49.9393

>  <SCORE.INTRA.VDW>
-0.578296

>  <SCORE.INTRA.VDW.0>
-1.75437

>  <SCORE.INTRA.norm>
-0.0994884

>  <SCORE.RESTR>
0

>  <SCORE.RESTR.CAVITY>
0

>  <SCORE.RESTR.norm>
0

>  <SCORE.SYSTEM>
0

>  <SCORE.SYSTEM.CONST>
0

>  <SCORE.SYSTEM.DIHEDRAL>
0

>  <SCORE.SYSTEM.SOLV>
0

>  <SCORE.SYSTEM.norm>
0

>  <SCORE.heavy>
26

>  <SCORE.norm>
-0.777659

>  <RMSD>
5.228

$$$$
ligand
 OpenBabel11021811473D
libRbt.so/2013.1/901 2013/11/27
 26 28  0  0  0  0  0  0  0  0999 V2000
  -15.4388    7.0601  -24.0811 N   0  0  0  0  0  0  0  0  0  0  0  0
  -14.3867    7.9009  -23.4966 C   0  0  2  0  0  0  0  0  0  0  0  0
  -14.9484    9.2637  -23.1877 C   0  0  0  0  0  0  0  0  0  0  0  0
  -15.1198    9.6016  -22.0399 O   0  0  0  0  0  0  0  0  0  0  0  0
  -13.2328    8.0373  -24.4915 C   0  0  0  0  0  0  0  0  0  0  0  0
  -11.9702    8.4756  -23.7517 C   0  0  0  0  0  0  0  0  0  0  0  0
  -12.0230    9.7550  -22.6361 S   0  0  0  0  0  0  0  0  0  0  0  0
  -10.8579   10.8801  -21.8251 C   0  0  0  0  0  0  0  0  0  0  0  0
  -11.4240   11.6222  -20.6084 C   0  0  1  0  0  0  0  0  0  0  0  0
  -10.6604   12.7653  -20.2691 O   0  0  0  0  0  0  0  0  0  0  0  0
  -12.7947   12.1958  -20.8799 C   0  0  1  0  0  0  0  0  0  0  0  0
  -13.3882   12.3362  -19.6077 O   0  0  0  0  0  0  0  0  0  0  0  0
  -12.5424   13.5777  -21.4365 C   0  0  1  0  0  0  0  0  0  0  0  0
  -13.4810   14.4847  -20.9007 O   0  0  0  0  0  0  0  0  0  0  0  0
  -11.1608   13.9177  -20.9206 C   0  0  2  0  0  0  0  0  0  0  0  0
  -15.2620   10.1042  -24.1873 O   0  0  0  0  0  0  0  0  0  0  0  0
   -9.7821   13.3109  -25.9150 N   0  0  0  0  0  0  0  0  0  0  0  0
  -10.8187   12.7085  -25.2423 C   0  0  0  0  0  0  0  0  0  0  0  0
  -11.0164   12.9889  -23.9117 N   0  0  0  0  0  0  0  0  0  0  0  0
  -10.2070   13.8480  -23.2620 C   0  0  0  0  0  0  0  0  0  0  0  0
   -9.1596   14.4653  -23.9195 C   0  0  0  0  0  0  0  0  0  0  0  0
   -8.9489   14.1860  -25.2647 C   0  0  0  0  0  0  0  0  0  0  0  0
   -7.9526   14.7533  -25.9335 N   0  0  0  0  0  0  0  0  0  0  0  0
   -8.5191   15.2654  -23.0380 N   0  0  0  0  0  0  0  0  0  0  0  0
   -9.1450   15.1670  -21.8490 C   0  0  0  0  0  0  0  0  0  0  0  0
  -10.1876   14.2836  -21.9660 N   0  0  0  0  0  0  0  0  0  0  0  0
  2  1  1  6  0  0  0
  2  3  1  0  0  0  0
  2  5  1  0  0  0  0
  3  4  1  0  0  0  0
  3 16  1  0  0  0  0
  5  6  1  0  0  0  0
  6  7  1  0  0  0  0
  7  8  1  0  0  0  0
  9  8  1  6  0  0  0
  9 10  1  0  0  0  0
  9 11  1  0  0  0  0
 10 15  1  0  0  0  0
 11 12  1  1  0  0  0
 11 13  1  0  0  0  0
 13 14  1  1  0  0  0
 13 15  1  0  0  0  0
 15 26  1  6  0  0  0
 17 18  2  0  0  0  0
 17 22  1  0  0  0  0
 18 19  1  0  0  0  0
 19 20  2  0  0  0  0
 20 21  1  0  0  0  0
 20 26  1  0  0  0  0
 21 22  2  0  0  0  0
 21 24  1  0  0  0  0
 22 23  1  0  0  0  0
 24 25  2  0  0  0  0
 25 26  1  0  0  0  0
M  END
>  <CHROM.1>
109.31114546,-160.58041089,-47.00164059,-162.11576790,-164.52701064,-161.45660930
90.71556197,-11.80113524,11.88488335,-22.80906166,-2.70285392,0.78070727
0.95548053

>  <Name>
ligand

>  <RI>
0

>  <Rbt.Current_Directory>
/home/itssahil/PROJECTS/Mol_Feturizer/New_Systems/rnas/3E5E

>  <Rbt.Executable>
rbdock ($Id: //depot/dev/client3/rdock/2013.1/src/exe/rbdock.cxx#4 $)

>  <Rbt.Library>
libRbt.so (2013.1, Build901 2013/11/27)

>  <Rbt.Parameter_File>
/export/apps/rDock/src/rDock_2013.1_src/data/scripts/dock_solv.prm

>  <Rbt.Receptor>
prm/pocket_docking_6.prm

>  <SCORE>
-19.4218

>  <SCORE.INTER>
-16.5166

>  <SCORE.INTER.CONST>
1

>  <SCORE.INTER.POLAR>
0

>  <SCORE.INTER.ROT>
7

>  <SCORE.INTER.SOLV>
10.8321

>  <SCORE.INTER.VDW>
-22.8885

>  <SCORE.INTER.norm>
-0.635255

>  <SCORE.INTRA>
-2.90523

>  <SCORE.INTRA.DIHEDRAL>
-3.30116

>  <SCORE.INTRA.DIHEDRAL.0>
10.1225

>  <SCORE.INTRA.POLAR>
0

>  <SCORE.INTRA.POLAR.0>
0

>  <SCORE.INTRA.REPUL>
0

>  <SCORE.INTRA.REPUL.0>
0

>  <SCORE.INTRA.SOLV>
-0.247412

>  <SCORE.INTRA.SOLV.lig_0>
-49.9393

>  <SCORE.INTRA.VDW>
-1.13095

>  <SCORE.INTRA.VDW.0>
-1.75437

>  <SCORE.INTRA.norm>
-0.11174

>  <SCORE.RESTR>
0

>  <SCORE.RESTR.CAVITY>
0

>  <SCORE.RESTR.norm>
0

>  <SCORE.SYSTEM>
0

>  <SCORE.SYSTEM.CONST>
0

>  <SCORE.SYSTEM.DIHEDRAL>
0

>  <SCORE.SYSTEM.SOLV>
0

>  <SCORE.SYSTEM.norm>
0

>  <SCORE.heavy>
26

>  <SCORE.norm>
-0.746994

>  <RMSD>
5.229

$$$$
ligand
 OpenBabel11021811473D
libRbt.so/2013.1/901 2013/11/27
 26 28  0  0  0  0  0  0  0  0999 V2000
  -15.9170    8.0204  -17.5588 N   0  0  0  0  0  0  0  0  0  0  0  0
  -15.6888    7.9671  -19.0081 C   0  0  2  0  0  0  0  0  0  0  0  0
  -14.2252    7.7348  -19.2765 C   0  0  0  0  0  0  0  0  0  0  0  0
  -13.3942    8.4347  -18.7466 O   0  0  0  0  0  0  0  0  0  0  0  0
  -16.1203    9.2915  -19.6403 C   0  0  0  0  0  0  0  0  0  0  0  0
  -16.1726    9.1388  -21.1593 C   0  0  0  0  0  0  0  0  0  0  0  0
  -14.7413    9.0125  -22.0645 S   0  0  0  0  0  0  0  0  0  0  0  0
  -13.1759    9.9077  -22.2360 C   0  0  0  0  0  0  0  0  0  0  0  0
  -12.5510   10.3666  -20.9129 C   0  0  1  0  0  0  0  0  0  0  0  0
  -11.2258   10.8381  -21.0758 O   0  0  0  0  0  0  0  0  0  0  0  0
  -13.2687   11.5607  -20.3294 C   0  0  1  0  0  0  0  0  0  0  0  0
  -12.9795   11.5196  -18.9492 O   0  0  0  0  0  0  0  0  0  0  0  0
  -12.5754   12.7665  -20.9197 C   0  0  1  0  0  0  0  0  0  0  0  0
  -12.4295   13.7623  -19.9310 O   0  0  0  0  0  0  0  0  0  0  0  0
  -11.2120   12.2345  -21.3052 C   0  0  2  0  0  0  0  0  0  0  0  0
  -13.8416    6.7514  -20.1070 O   0  0  0  0  0  0  0  0  0  0  0  0
  -10.1115    9.9092  -25.8434 N   0  0  0  0  0  0  0  0  0  0  0  0
  -10.3725    9.3190  -24.6295 C   0  0  0  0  0  0  0  0  0  0  0  0
  -10.6307   10.1078  -23.5345 N   0  0  0  0  0  0  0  0  0  0  0  0
  -10.6323   11.4510  -23.6391 C   0  0  0  0  0  0  0  0  0  0  0  0
  -10.3734   12.0649  -24.8501 C   0  0  0  0  0  0  0  0  0  0  0  0
  -10.1077   11.2761  -25.9633 C   0  0  0  0  0  0  0  0  0  0  0  0
   -9.8499   11.8241  -27.1444 N   0  0  0  0  0  0  0  0  0  0  0  0
  -10.4380   13.4029  -24.6688 N   0  0  0  0  0  0  0  0  0  0  0  0
  -10.7369   13.6383  -23.3764 C   0  0  0  0  0  0  0  0  0  0  0  0
  -10.8501   12.4395  -22.7197 N   0  0  0  0  0  0  0  0  0  0  0  0
  2  1  1  1  0  0  0
  2  3  1  0  0  0  0
  2  5  1  0  0  0  0
  3  4  1  0  0  0  0
  3 16  1  0  0  0  0
  5  6  1  0  0  0  0
  6  7  1  0  0  0  0
  7  8  1  0  0  0  0
  9  8  1  6  0  0  0
  9 10  1  0  0  0  0
  9 11  1  0  0  0  0
 10 15  1  0  0  0  0
 11 12  1  1  0  0  0
 11 13  1  0  0  0  0
 13 14  1  1  0  0  0
 13 15  1  0  0  0  0
 15 26  1  6  0  0  0
 17 18  2  0  0  0  0
 17 22  1  0  0  0  0
 18 19  1  0  0  0  0
 19 20  2  0  0  0  0
 20 21  1  0  0  0  0
 20 26  1  0  0  0  0
 21 22  2  0  0  0  0
 21 24  1  0  0  0  0
 22 23  1  0  0  0  0
 24 25  2  0  0  0  0
 25 26  1  0  0  0  0
M  END
>  <CHROM.1>
-51.03483973,-167.80549027,-71.92684790,-51.11816348,42.46973257,169.16130973
2.71094348,-12.60218922,10.46737299,-21.82161399,-2.97559015,-0.92777099
-2.39810933

>  <Name>
ligand

>  <RI>
0

>  <Rbt.Current_Directory>
/home/itssahil/PROJECTS/Mol_Feturizer/New_Systems/rnas/3E5E

>  <Rbt.Executable>
rbdock ($Id: //depot/dev/client3/rdock/2013.1/src/exe/rbdock.cxx#4 $)

>  <Rbt.Library>
libRbt.so (2013.1, Build901 2013/11/27)

>  <Rbt.Parameter_File>
/export/apps/rDock/src/rDock_2013.1_src/data/scripts/dock_solv.prm

>  <Rbt.Receptor>
prm/pocket_docking_4.prm

>  <SCORE>
-13.8559

>  <SCORE.INTER>
-9.12708

>  <SCORE.INTER.CONST>
1

>  <SCORE.INTER.POLAR>
0

>  <SCORE.INTER.ROT>
7

>  <SCORE.INTER.SOLV>
9.135

>  <SCORE.INTER.VDW>
-17.3964

>  <SCORE.INTER.norm>
-0.351042

>  <SCORE.INTRA>
-4.72885

>  <SCORE.INTRA.DIHEDRAL>
-5.35139

>  <SCORE.INTRA.DIHEDRAL.0>
10.1225

>  <SCORE.INTRA.POLAR>
0

>  <SCORE.INTRA.POLAR.0>
0

>  <SCORE.INTRA.REPUL>
0

>  <SCORE.INTRA.REPUL.0>
0

>  <SCORE.INTRA.SOLV>
-0.11219

>  <SCORE.INTRA.SOLV.lig_0>
-49.9393

>  <SCORE.INTRA.VDW>
-1.99706

>  <SCORE.INTRA.VDW.0>
-1.75437

>  <SCORE.INTRA.norm>
-0.181879

>  <SCORE.RESTR>
0

>  <SCORE.RESTR.CAVITY>
0

>  <SCORE.RESTR.norm>
0

>  <SCORE.SYSTEM>
0

>  <SCORE.SYSTEM.CONST>
0

>  <SCORE.SYSTEM.DIHEDRAL>
0

>  <SCORE.SYSTEM.SOLV>
0

>  <SCORE.SYSTEM.norm>
0

>  <SCORE.heavy>
26

>  <SCORE.norm>
-0.53292

>  <RMSD>
5.236

$$$$
ligand
 OpenBabel11021811473D
libRbt.so/2013.1/901 2013/11/27
 26 28  0  0  0  0  0  0  0  0999 V2000
  -16.0825    8.2523  -14.9999 N   0  0  0  0  0  0  0  0  0  0  0  0
  -14.7861    8.7545  -15.4719 C   0  0  2  0  0  0  0  0  0  0  0  0
  -14.3152    9.8584  -14.5621 C   0  0  0  0  0  0  0  0  0  0  0  0
  -15.1182   10.5147  -13.9411 O   0  0  0  0  0  0  0  0  0  0  0  0
  -14.9370    9.2945  -16.8950 C   0  0  0  0  0  0  0  0  0  0  0  0
  -13.5642    9.6809  -17.4425 C   0  0  0  0  0  0  0  0  0  0  0  0
  -13.3585   10.0273  -19.0923 S   0  0  0  0  0  0  0  0  0  0  0  0
  -12.0248   10.5539  -20.1990 C   0  0  0  0  0  0  0  0  0  0  0  0
  -11.7082   12.0537  -20.1540 C   0  0  1  0  0  0  0  0  0  0  0  0
  -10.7098   12.4237  -21.0875 O   0  0  0  0  0  0  0  0  0  0  0  0
  -12.8912   12.8968  -20.5676 C   0  0  1  0  0  0  0  0  0  0  0  0
  -12.6645   14.1567  -19.9747 O   0  0  0  0  0  0  0  0  0  0  0  0
  -12.7627   13.0516  -22.0652 C   0  0  1  0  0  0  0  0  0  0  0  0
  -13.0967   14.3710  -22.4371 O   0  0  0  0  0  0  0  0  0  0  0  0
  -11.2897   12.8136  -22.3182 C   0  0  2  0  0  0  0  0  0  0  0  0
  -13.0027   10.1168  -14.4417 O   0  0  0  0  0  0  0  0  0  0  0  0
   -9.6874   11.7383  -27.1649 N   0  0  0  0  0  0  0  0  0  0  0  0
   -9.8946   12.9718  -26.5943 C   0  0  0  0  0  0  0  0  0  0  0  0
  -10.3346   13.0518  -25.2950 N   0  0  0  0  0  0  0  0  0  0  0  0
  -10.5626   11.9355  -24.5759 C   0  0  0  0  0  0  0  0  0  0  0  0
  -10.3599   10.6854  -25.1298 C   0  0  0  0  0  0  0  0  0  0  0  0
   -9.9181   10.5935  -26.4444 C   0  0  0  0  0  0  0  0  0  0  0  0
   -9.7144    9.4134  -27.0168 N   0  0  0  0  0  0  0  0  0  0  0  0
  -10.6630    9.7550  -24.1972 N   0  0  0  0  0  0  0  0  0  0  0  0
  -11.0438   10.3940  -23.0738 C   0  0  0  0  0  0  0  0  0  0  0  0
  -10.9985   11.7470  -23.2936 N   0  0  0  0  0  0  0  0  0  0  0  0
  2  1  1  1  0  0  0
  2  3  1  0  0  0  0
  2  5  1  0  0  0  0
  3  4  1  0  0  0  0
  3 16  1  0  0  0  0
  5  6  1  0  0  0  0
  6  7  1  0  0  0  0
  7  8  1  0  0  0  0
  9  8  1  6  0  0  0
  9 10  1  0  0  0  0
  9 11  1  0  0  0  0
 10 15  1  0  0  0  0
 11 12  1  1  0  0  0
 11 13  1  0  0  0  0
 13 14  1  1  0  0  0
 13 15  1  0  0  0  0
 15 26  1  6  0  0  0
 17 18  2  0  0  0  0
 17 22  1  0  0  0  0
 18 19  1  0  0  0  0
 19 20  2  0  0  0  0
 20 21  1  0  0  0  0
 20 26  1  0  0  0  0
 21 22  2  0  0  0  0
 21 24  1  0  0  0  0
 22 23  1  0  0  0  0
 24 25  2  0  0  0  0
 25 26  1  0  0  0  0
M  END
>  <CHROM.1>
-26.19471304,-174.06047944,168.05944944,177.93586512,-79.16184719,-176.82969742
-135.21242355,-12.24251478,11.16417178,-20.86419869,-2.90638044,1.16818980
-0.06270980

>  <Name>
ligand

>  <RI>
0

>  <Rbt.Current_Directory>
/home/itssahil/PROJECTS/Mol_Feturizer/New_Systems/rnas/3E5E

>  <Rbt.Executable>
rbdock ($Id: //depot/dev/client3/rdock/2013.1/src/exe/rbdock.cxx#4 $)

>  <Rbt.Library>
libRbt.so (2013.1, Build901 2013/11/27)

>  <Rbt.Parameter_File>
/export/apps/rDock/src/rDock_2013.1_src/data/scripts/dock_solv.prm

>  <Rbt.Receptor>
prm/pocket_docking_8.prm

>  <SCORE>
-21.376

>  <SCORE.INTER>
-18.0766

>  <SCORE.INTER.CONST>
1

>  <SCORE.INTER.POLAR>
0

>  <SCORE.INTER.ROT>
7

>  <SCORE.INTER.SOLV>
9.5815

>  <SCORE.INTER.VDW>
-23.5116

>  <SCORE.INTER.norm>
-0.695253

>  <SCORE.INTRA>
-3.29939

>  <SCORE.INTRA.DIHEDRAL>
-6.08466

>  <SCORE.INTRA.DIHEDRAL.0>
10.1225

>  <SCORE.INTRA.POLAR>
0

>  <SCORE.INTRA.POLAR.0>
0

>  <SCORE.INTRA.REPUL>
0

>  <SCORE.INTRA.REPUL.0>
0

>  <SCORE.INTRA.SOLV>
-0.619046

>  <SCORE.INTRA.SOLV.lig_0>
-49.9393

>  <SCORE.INTRA.VDW>
0.0524637

>  <SCORE.INTRA.VDW.0>
-1.75437

>  <SCORE.INTRA.norm>
-0.1269

>  <SCORE.RESTR>
0

>  <SCORE.RESTR.CAVITY>
0

>  <SCORE.RESTR.norm>
0

>  <SCORE.SYSTEM>
0

>  <SCORE.SYSTEM.CONST>
0

>  <SCORE.SYSTEM.DIHEDRAL>
0

>  <SCORE.SYSTEM.SOLV>
0

>  <SCORE.SYSTEM.norm>
0

>  <SCORE.heavy>
26

>  <SCORE.norm>
-0.822153

>  <RMSD>
5.248

$$$$
ligand
 OpenBabel11021811473D
libRbt.so/2013.1/901 2013/11/27
 26 28  0  0  0  0  0  0  0  0999 V2000
  -10.9769    6.3146  -26.4024 N   0  0  0  0  0  0  0  0  0  0  0  0
  -10.5942    6.4950  -24.9965 C   0  0  2  0  0  0  0  0  0  0  0  0
  -11.4251    5.5851  -24.1305 C   0  0  0  0  0  0  0  0  0  0  0  0
  -10.8990    4.9299  -23.2616 O   0  0  0  0  0  0  0  0  0  0  0  0
  -10.8331    7.9491  -24.5865 C   0  0  0  0  0  0  0  0  0  0  0  0
   -9.8991    8.8626  -25.3782 C   0  0  0  0  0  0  0  0  0  0  0  0
   -9.9188   10.5425  -25.1298 S   0  0  0  0  0  0  0  0  0  0  0  0
   -9.7137   11.6999  -23.7516 C   0  0  0  0  0  0  0  0  0  0  0  0
  -10.7248   11.5262  -22.6118 C   0  0  1  0  0  0  0  0  0  0  0  0
  -10.4075   12.3187  -21.4822 O   0  0  0  0  0  0  0  0  0  0  0  0
  -12.1021   12.0140  -22.9949 C   0  0  1  0  0  0  0  0  0  0  0  0
  -12.9839   11.3217  -22.1384 O   0  0  0  0  0  0  0  0  0  0  0  0
  -12.1249   13.4755  -22.6120 C   0  0  1  0  0  0  0  0  0  0  0  0
  -13.3751   13.7984  -22.0432 O   0  0  0  0  0  0  0  0  0  0  0  0
  -11.0474   13.5789  -21.5543 C   0  0  2  0  0  0  0  0  0  0  0  0
  -12.7513    5.4985  -24.3245 O   0  0  0  0  0  0  0  0  0  0  0  0
   -7.4012   16.6889  -19.4936 N   0  0  0  0  0  0  0  0  0  0  0  0
   -8.2832   15.8647  -18.8357 C   0  0  0  0  0  0  0  0  0  0  0  0
   -9.1871   15.1248  -19.5593 N   0  0  0  0  0  0  0  0  0  0  0  0
   -9.2160   15.1976  -20.9043 C   0  0  0  0  0  0  0  0  0  0  0  0
   -8.3376   16.0191  -21.5856 C   0  0  0  0  0  0  0  0  0  0  0  0
   -7.4215   16.7744  -20.8629 C   0  0  0  0  0  0  0  0  0  0  0  0
   -6.5628   17.5792  -21.4766 N   0  0  0  0  0  0  0  0  0  0  0  0
   -8.5855   15.8989  -22.9091 N   0  0  0  0  0  0  0  0  0  0  0  0
   -9.5924   15.0183  -23.0700 C   0  0  0  0  0  0  0  0  0  0  0  0
  -10.0037   14.5813  -21.8367 N   0  0  0  0  0  0  0  0  0  0  0  0
  2  1  1  6  0  0  0
  2  3  1  0  0  0  0
  2  5  1  0  0  0  0
  3  4  1  0  0  0  0
  3 16  1  0  0  0  0
  5  6  1  0  0  0  0
  6  7  1  0  0  0  0
  7  8  1  0  0  0  0
  9  8  1  6  0  0  0
  9 10  1  0  0  0  0
  9 11  1  0  0  0  0
 10 15  1  0  0  0  0
 11 12  1  1  0  0  0
 11 13  1  0  0  0  0
 13 14  1  1  0  0  0
 13 15  1  0  0  0  0
 15 26  1  6  0  0  0
 17 18  2  0  0  0  0
 17 22  1  0  0  0  0
 18 19  1  0  0  0  0
 19 20  2  0  0  0  0
 20 21  1  0  0  0  0
 20 26  1  0  0  0  0
 21 22  2  0  0  0  0
 21 24  1  0  0  0  0
 22 23  1  0  0  0  0
 24 25  2  0  0  0  0
 25 26  1  0  0  0  0
M  END
>  <CHROM.1>
134.16018588,-65.07791420,-179.36118192,56.28991171,-59.80931409,171.52051433
-85.11139560,-10.22751035,11.90566698,-22.76408746,-1.85389264,0.38456816
0.49533933

>  <Name>
ligand

>  <RI>
0

>  <Rbt.Current_Directory>
/home/itssahil/PROJECTS/Mol_Feturizer/New_Systems/rnas/3E5E

>  <Rbt.Executable>
rbdock ($Id: //depot/dev/client3/rdock/2013.1/src/exe/rbdock.cxx#4 $)

>  <Rbt.Library>
libRbt.so (2013.1, Build901 2013/11/27)

>  <Rbt.Parameter_File>
/export/apps/rDock/src/rDock_2013.1_src/data/scripts/dock_solv.prm

>  <Rbt.Receptor>
prm/blind_docking_60.prm

>  <SCORE>
-21.3748

>  <SCORE.INTER>
-17.1244

>  <SCORE.INTER.CONST>
1

>  <SCORE.INTER.POLAR>
0

>  <SCORE.INTER.ROT>
7

>  <SCORE.INTER.SOLV>
10.2413

>  <SCORE.INTER.VDW>
-23.0967

>  <SCORE.INTER.norm>
-0.658629

>  <SCORE.INTRA>
-4.25046

>  <SCORE.INTRA.DIHEDRAL>
-7.17661

>  <SCORE.INTRA.DIHEDRAL.0>
10.1225

>  <SCORE.INTRA.POLAR>
0

>  <SCORE.INTRA.POLAR.0>
0

>  <SCORE.INTRA.REPUL>
0

>  <SCORE.INTRA.REPUL.0>
0

>  <SCORE.INTRA.SOLV>
0.119799

>  <SCORE.INTRA.SOLV.lig_0>
-49.9393

>  <SCORE.INTRA.VDW>
-0.722053

>  <SCORE.INTRA.VDW.0>
-1.75437

>  <SCORE.INTRA.norm>
-0.163479

>  <SCORE.RESTR>
0

>  <SCORE.RESTR.CAVITY>
0

>  <SCORE.RESTR.norm>
0

>  <SCORE.SYSTEM>
0

>  <SCORE.SYSTEM.CONST>
0

>  <SCORE.SYSTEM.DIHEDRAL>
0

>  <SCORE.SYSTEM.SOLV>
0

>  <SCORE.SYSTEM.norm>
0

>  <SCORE.heavy>
26

>  <SCORE.norm>
-0.822108

>  <RMSD>
5.251

$$$$
ligand
 OpenBabel11021811473D
libRbt.so/2013.1/901 2013/11/27
 26 28  0  0  0  0  0  0  0  0999 V2000
  -12.8091    7.6089  -26.1626 N   0  0  0  0  0  0  0  0  0  0  0  0
  -12.5770    7.5969  -24.7129 C   0  0  2  0  0  0  0  0  0  0  0  0
  -11.6441    6.4671  -24.3644 C   0  0  0  0  0  0  0  0  0  0  0  0
  -10.4496    6.6513  -24.3495 O   0  0  0  0  0  0  0  0  0  0  0  0
  -13.9088    7.4027  -23.9859 C   0  0  0  0  0  0  0  0  0  0  0  0
  -14.7389    8.6807  -24.0914 C   0  0  0  0  0  0  0  0  0  0  0  0
  -14.2019   10.1214  -23.3701 S   0  0  0  0  0  0  0  0  0  0  0  0
  -12.6250   10.9240  -22.9825 C   0  0  0  0  0  0  0  0  0  0  0  0
  -11.9347   10.4042  -21.7156 C   0  0  1  0  0  0  0  0  0  0  0  0
  -10.6101   10.8871  -21.5849 O   0  0  0  0  0  0  0  0  0  0  0  0
  -12.6056   10.9033  -20.4577 C   0  0  1  0  0  0  0  0  0  0  0  0
  -12.2568    9.9652  -19.4633 O   0  0  0  0  0  0  0  0  0  0  0  0
  -11.9182   12.2094  -20.1341 C   0  0  1  0  0  0  0  0  0  0  0  0
  -11.7120   12.3059  -18.7416 O   0  0  0  0  0  0  0  0  0  0  0  0
  -10.5824   12.0869  -20.8348 C   0  0  2  0  0  0  0  0  0  0  0  0
  -12.1382    5.2528  -24.0722 O   0  0  0  0  0  0  0  0  0  0  0  0
   -8.1007   16.6278  -21.4943 N   0  0  0  0  0  0  0  0  0  0  0  0
   -8.1933   15.8703  -20.3507 C   0  0  0  0  0  0  0  0  0  0  0  0
   -8.9094   14.6978  -20.3712 N   0  0  0  0  0  0  0  0  0  0  0  0
   -9.5187   14.2833  -21.4991 C   0  0  0  0  0  0  0  0  0  0  0  0
   -9.4376   15.0291  -22.6600 C   0  0  0  0  0  0  0  0  0  0  0  0
   -8.7185   16.2184  -22.6491 C   0  0  0  0  0  0  0  0  0  0  0  0
   -8.6183   16.9674  -23.7403 N   0  0  0  0  0  0  0  0  0  0  0  0
  -10.1334   14.3871  -23.6250 N   0  0  0  0  0  0  0  0  0  0  0  0
  -10.6411   13.2567  -23.0962 C   0  0  0  0  0  0  0  0  0  0  0  0
  -10.2795   13.1812  -21.7753 N   0  0  0  0  0  0  0  0  0  0  0  0
  2  1  1  6  0  0  0
  2  3  1  0  0  0  0
  2  5  1  0  0  0  0
  3  4  1  0  0  0  0
  3 16  1  0  0  0  0
  5  6  1  0  0  0  0
  6  7  1  0  0  0  0
  7  8  1  0  0  0  0
  9  8  1  6  0  0  0
  9 10  1  0  0  0  0
  9 11  1  0  0  0  0
 10 15  1  0  0  0  0
 11 12  1  1  0  0  0
 11 13  1  0  0  0  0
 13 14  1  1  0  0  0
 13 15  1  0  0  0  0
 15 26  1  6  0  0  0
 17 18  2  0  0  0  0
 17 22  1  0  0  0  0
 18 19  1  0  0  0  0
 19 20  2  0  0  0  0
 20 21  1  0  0  0  0
 20 26  1  0  0  0  0
 21 22  2  0  0  0  0
 21 24  1  0  0  0  0
 22 23  1  0  0  0  0
 24 25  2  0  0  0  0
 25 26  1  0  0  0  0
M  END
>  <CHROM.1>
90.03830229,-72.17761857,-64.37110094,31.04724187,-80.08749821,169.55261655
-144.17326177,-11.31728499,11.35092009,-22.43219695,-2.46596869,1.01434273
1.11600612

>  <Name>
ligand

>  <RI>
0

>  <Rbt.Current_Directory>
/home/itssahil/PROJECTS/Mol_Feturizer/New_Systems/rnas/3E5E

>  <Rbt.Executable>
rbdock ($Id: //depot/dev/client3/rdock/2013.1/src/exe/rbdock.cxx#4 $)

>  <Rbt.Library>
libRbt.so (2013.1, Build901 2013/11/27)

>  <Rbt.Parameter_File>
/export/apps/rDock/src/rDock_2013.1_src/data/scripts/dock_solv.prm

>  <Rbt.Receptor>
prm/blind_docking_60.prm

>  <SCORE>
-17.2083

>  <SCORE.INTER>
-14.825

>  <SCORE.INTER.CONST>
1

>  <SCORE.INTER.POLAR>
0

>  <SCORE.INTER.ROT>
7

>  <SCORE.INTER.SOLV>
12.5945

>  <SCORE.INTER.VDW>
-22.3482

>  <SCORE.INTER.norm>
-0.570193

>  <SCORE.INTRA>
-2.38359

>  <SCORE.INTRA.DIHEDRAL>
-4.57525

>  <SCORE.INTRA.DIHEDRAL.0>
10.1225

>  <SCORE.INTRA.POLAR>
0

>  <SCORE.INTRA.POLAR.0>
0

>  <SCORE.INTRA.REPUL>
0

>  <SCORE.INTRA.REPUL.0>
0

>  <SCORE.INTRA.SOLV>
0.593999

>  <SCORE.INTRA.SOLV.lig_0>
-49.9393

>  <SCORE.INTRA.VDW>
-0.392963

>  <SCORE.INTRA.VDW.0>
-1.75437

>  <SCORE.INTRA.norm>
-0.0916765

>  <SCORE.RESTR>
0.000319432

>  <SCORE.RESTR.CAVITY>
0.000319432

>  <SCORE.RESTR.norm>
1.22858e-05

>  <SCORE.SYSTEM>
0

>  <SCORE.SYSTEM.CONST>
0

>  <SCORE.SYSTEM.DIHEDRAL>
0

>  <SCORE.SYSTEM.SOLV>
0

>  <SCORE.SYSTEM.norm>
0

>  <SCORE.heavy>
26

>  <SCORE.norm>
-0.661857

>  <RMSD>
5.259

$$$$
ligand
 OpenBabel11021811473D
libRbt.so/2013.1/901 2013/11/27
 26 28  0  0  0  0  0  0  0  0999 V2000
  -12.5117    9.2974  -23.8051 N   0  0  0  0  0  0  0  0  0  0  0  0
  -13.2944    9.5292  -22.5848 C   0  0  2  0  0  0  0  0  0  0  0  0
  -14.7427    9.7254  -22.9485 C   0  0  0  0  0  0  0  0  0  0  0  0
  -15.6031    9.5652  -22.1148 O   0  0  0  0  0  0  0  0  0  0  0  0
  -12.7720   10.7793  -21.8748 C   0  0  0  0  0  0  0  0  0  0  0  0
  -12.8465   11.9740  -22.8239 C   0  0  0  0  0  0  0  0  0  0  0  0
  -12.3014   13.5047  -22.3301 S   0  0  0  0  0  0  0  0  0  0  0  0
  -10.7260   14.3092  -21.9405 C   0  0  0  0  0  0  0  0  0  0  0  0
   -9.8461   13.5473  -20.9419 C   0  0  1  0  0  0  0  0  0  0  0  0
   -8.4648   13.7724  -21.1571 O   0  0  0  0  0  0  0  0  0  0  0  0
  -10.0526   14.0242  -19.5237 C   0  0  1  0  0  0  0  0  0  0  0  0
   -9.6494   12.9414  -18.7140 O   0  0  0  0  0  0  0  0  0  0  0  0
   -9.0600   15.1477  -19.3353 C   0  0  1  0  0  0  0  0  0  0  0  0
   -8.4825   15.0615  -18.0509 O   0  0  0  0  0  0  0  0  0  0  0  0
   -8.0051   14.8642  -20.3829 C   0  0  2  0  0  0  0  0  0  0  0  0
  -15.0801   10.0761  -24.2004 O   0  0  0  0  0  0  0  0  0  0  0  0
   -8.2772   16.4857  -25.3337 N   0  0  0  0  0  0  0  0  0  0  0  0
   -8.5968   15.2479  -24.8280 C   0  0  0  0  0  0  0  0  0  0  0  0
   -8.4447   15.0054  -23.4841 N   0  0  0  0  0  0  0  0  0  0  0  0
   -7.9883   15.9675  -22.6587 C   0  0  0  0  0  0  0  0  0  0  0  0
   -7.6620   17.2192  -23.1460 C   0  0  0  0  0  0  0  0  0  0  0  0
   -7.8090   17.4737  -24.5045 C   0  0  0  0  0  0  0  0  0  0  0  0
   -7.5038   18.6601  -25.0153 N   0  0  0  0  0  0  0  0  0  0  0  0
   -7.2355   17.9781  -22.1119 N   0  0  0  0  0  0  0  0  0  0  0  0
   -7.2936   17.2327  -20.9911 C   0  0  0  0  0  0  0  0  0  0  0  0
   -7.7476   15.9791  -21.3127 N   0  0  0  0  0  0  0  0  0  0  0  0
  2  1  1  6  0  0  0
  2  3  1  0  0  0  0
  2  5  1  0  0  0  0
  3  4  1  0  0  0  0
  3 16  1  0  0  0  0
  5  6  1  0  0  0  0
  6  7  1  0  0  0  0
  7  8  1  0  0  0  0
  9  8  1  6  0  0  0
  9 10  1  0  0  0  0
  9 11  1  0  0  0  0
 10 15  1  0  0  0  0
 11 12  1  1  0  0  0
 11 13  1  0  0  0  0
 13 14  1  1  0  0  0
 13 15  1  0  0  0  0
 15 26  1  6  0  0  0
 17 18  2  0  0  0  0
 17 22  1  0  0  0  0
 18 19  1  0  0  0  0
 19 20  2  0  0  0  0
 20 21  1  0  0  0  0
 20 26  1  0  0  0  0
 21 22  2  0  0  0  0
 21 24  1  0  0  0  0
 22 23  1  0  0  0  0
 24 25  2  0  0  0  0
 25 26  1  0  0  0  0
M  END
>  <CHROM.1>
159.63833443,57.46632398,-178.63339409,69.07700513,-50.80553020,149.95050102
3.44943941,-10.25494933,13.94186344,-22.12025429,2.97462283,0.79303639,1.85171900

>  <Name>
ligand

>  <RI>
0

>  <Rbt.Current_Directory>
/home/itssahil/PROJECTS/Mol_Feturizer/New_Systems/rnas/3E5E

>  <Rbt.Executable>
rbdock ($Id: //depot/dev/client3/rdock/2013.1/src/exe/rbdock.cxx#4 $)

>  <Rbt.Library>
libRbt.so (2013.1, Build901 2013/11/27)

>  <Rbt.Parameter_File>
/export/apps/rDock/src/rDock_2013.1_src/data/scripts/dock_solv.prm

>  <Rbt.Receptor>
prm/blind_docking_80.prm

>  <SCORE>
-19.1419

>  <SCORE.INTER>
-17.2642

>  <SCORE.INTER.CONST>
1

>  <SCORE.INTER.POLAR>
0

>  <SCORE.INTER.ROT>
7

>  <SCORE.INTER.SOLV>
10.7617

>  <SCORE.INTER.VDW>
-23.3633

>  <SCORE.INTER.norm>
-0.664007

>  <SCORE.INTRA>
-1.87771

>  <SCORE.INTRA.DIHEDRAL>
-4.5665

>  <SCORE.INTRA.DIHEDRAL.0>
10.1225

>  <SCORE.INTRA.POLAR>
0

>  <SCORE.INTRA.POLAR.0>
0

>  <SCORE.INTRA.REPUL>
0

>  <SCORE.INTRA.REPUL.0>
0

>  <SCORE.INTRA.SOLV>
0.247586

>  <SCORE.INTRA.SOLV.lig_0>
-49.9393

>  <SCORE.INTRA.VDW>
0.281745

>  <SCORE.INTRA.VDW.0>
-1.75437

>  <SCORE.INTRA.norm>
-0.0722197

>  <SCORE.RESTR>
0

>  <SCORE.RESTR.CAVITY>
0

>  <SCORE.RESTR.norm>
0

>  <SCORE.SYSTEM>
0

>  <SCORE.SYSTEM.CONST>
0

>  <SCORE.SYSTEM.DIHEDRAL>
0

>  <SCORE.SYSTEM.SOLV>
0

>  <SCORE.SYSTEM.norm>
0

>  <SCORE.heavy>
26

>  <SCORE.norm>
-0.736226

>  <RMSD>
5.263

$$$$
ligand
 OpenBabel11021811473D
libRbt.so/2013.1/901 2013/11/27
 26 28  0  0  0  0  0  0  0  0999 V2000
  -13.6996    8.3722  -22.8463 N   0  0  0  0  0  0  0  0  0  0  0  0
  -12.9566    9.5194  -23.3826 C   0  0  2  0  0  0  0  0  0  0  0  0
  -11.4782    9.2551  -23.2712 C   0  0  0  0  0  0  0  0  0  0  0  0
  -10.9062    9.4477  -22.2239 O   0  0  0  0  0  0  0  0  0  0  0  0
  -13.3129   10.7747  -22.5844 C   0  0  0  0  0  0  0  0  0  0  0  0
  -12.6497   11.9924  -23.2254 C   0  0  0  0  0  0  0  0  0  0  0  0
  -12.5682   13.4700  -22.3924 S   0  0  0  0  0  0  0  0  0  0  0  0
  -12.1515   14.0542  -20.7292 C   0  0  0  0  0  0  0  0  0  0  0  0
  -11.0461   13.2562  -20.0271 C   0  0  1  0  0  0  0  0  0  0  0  0
   -9.8801   13.1341  -20.8211 O   0  0  0  0  0  0  0  0  0  0  0  0
  -10.5422   13.9544  -18.7860 C   0  0  1  0  0  0  0  0  0  0  0  0
   -9.9893   12.9283  -17.9912 O   0  0  0  0  0  0  0  0  0  0  0  0
   -9.4146   14.8410  -19.2609 C   0  0  1  0  0  0  0  0  0  0  0  0
   -8.3548   14.8017  -18.3303 O   0  0  0  0  0  0  0  0  0  0  0  0
   -8.9753   14.1890  -20.5540 C   0  0  2  0  0  0  0  0  0  0  0  0
  -10.7929    8.8076  -24.3361 O   0  0  0  0  0  0  0  0  0  0  0  0
   -7.0903   18.5850  -22.6364 N   0  0  0  0  0  0  0  0  0  0  0  0
   -6.8526   18.0700  -21.3840 C   0  0  0  0  0  0  0  0  0  0  0  0
   -7.4567   16.8941  -21.0095 N   0  0  0  0  0  0  0  0  0  0  0  0
   -8.2764   16.2414  -21.8565 C   0  0  0  0  0  0  0  0  0  0  0  0
   -8.5283   16.7411  -23.1204 C   0  0  0  0  0  0  0  0  0  0  0  0
   -7.9249   17.9317  -23.5079 C   0  0  0  0  0  0  0  0  0  0  0  0
   -8.1423   18.4491  -24.7107 N   0  0  0  0  0  0  0  0  0  0  0  0
   -9.3755   15.8956  -23.7487 N   0  0  0  0  0  0  0  0  0  0  0  0
   -9.6531   14.8782  -22.9102 C   0  0  0  0  0  0  0  0  0  0  0  0
   -8.9890   15.0815  -21.7276 N   0  0  0  0  0  0  0  0  0  0  0  0
  2  1  1  1  0  0  0
  2  3  1  0  0  0  0
  2  5  1  0  0  0  0
  3  4  1  0  0  0  0
  3 16  1  0  0  0  0
  5  6  1  0  0  0  0
  6  7  1  0  0  0  0
  7  8  1  0  0  0  0
  9  8  1  6  0  0  0
  9 10  1  0  0  0  0
  9 11  1  0  0  0  0
 10 15  1  0  0  0  0
 11 12  1  1  0  0  0
 11 13  1  0  0  0  0
 13 14  1  1  0  0  0
 13 15  1  0  0  0  0
 15 26  1  6  0  0  0
 17 18  2  0  0  0  0
 17 22  1  0  0  0  0
 18 19  1  0  0  0  0
 19 20  2  0  0  0  0
 20 21  1  0  0  0  0
 20 26  1  0  0  0  0
 21 22  2  0  0  0  0
 21 24  1  0  0  0  0
 22 23  1  0  0  0  0
 24 25  2  0  0  0  0
 25 26  1  0  0  0  0
M  END
>  <CHROM.1>
-81.61300589,-174.44235044,-166.44276897,45.33900064,34.11613978,52.33315159
178.20617784,-10.19216778,13.78828645,-21.81231963,3.05688087,1.02361467
1.77166286

>  <Name>
ligand

>  <RI>
0

>  <Rbt.Current_Directory>
/home/itssahil/PROJECTS/Mol_Feturizer/New_Systems/rnas/3E5E

>  <Rbt.Executable>
rbdock ($Id: //depot/dev/client3/rdock/2013.1/src/exe/rbdock.cxx#4 $)

>  <Rbt.Library>
libRbt.so (2013.1, Build901 2013/11/27)

>  <Rbt.Parameter_File>
/export/apps/rDock/src/rDock_2013.1_src/data/scripts/dock_solv.prm

>  <Rbt.Receptor>
prm/pocket_docking_6.prm

>  <SCORE>
-22.3049

>  <SCORE.INTER>
-18.8376

>  <SCORE.INTER.CONST>
1

>  <SCORE.INTER.POLAR>
0

>  <SCORE.INTER.ROT>
7

>  <SCORE.INTER.SOLV>
12.3966

>  <SCORE.INTER.VDW>
-24.9572

>  <SCORE.INTER.norm>
-0.724522

>  <SCORE.INTRA>
-3.46737

>  <SCORE.INTRA.DIHEDRAL>
-5.18545

>  <SCORE.INTRA.DIHEDRAL.0>
10.1225

>  <SCORE.INTRA.POLAR>
0

>  <SCORE.INTRA.POLAR.0>
0

>  <SCORE.INTRA.REPUL>
0

>  <SCORE.INTRA.REPUL.0>
0

>  <SCORE.INTRA.SOLV>
-0.434339

>  <SCORE.INTRA.SOLV.lig_0>
-49.9393

>  <SCORE.INTRA.VDW>
-0.657473

>  <SCORE.INTRA.VDW.0>
-1.75437

>  <SCORE.INTRA.norm>
-0.13336

>  <SCORE.RESTR>
0

>  <SCORE.RESTR.CAVITY>
0

>  <SCORE.RESTR.norm>
0

>  <SCORE.SYSTEM>
0

>  <SCORE.SYSTEM.CONST>
0

>  <SCORE.SYSTEM.DIHEDRAL>
0

>  <SCORE.SYSTEM.SOLV>
0

>  <SCORE.SYSTEM.norm>
0

>  <SCORE.heavy>
26

>  <SCORE.norm>
-0.857882

>  <RMSD>
5.264

$$$$
ligand
 OpenBabel11021811473D
libRbt.so/2013.1/901 2013/11/27
 26 28  0  0  0  0  0  0  0  0999 V2000
  -16.0955    5.4904  -14.4152 N   0  0  0  0  0  0  0  0  0  0  0  0
  -16.2160    6.9527  -14.4685 C   0  0  2  0  0  0  0  0  0  0  0  0
  -17.4943    7.3246  -15.1727 C   0  0  0  0  0  0  0  0  0  0  0  0
  -18.4219    7.7775  -14.5439 O   0  0  0  0  0  0  0  0  0  0  0  0
  -15.0245    7.5341  -15.2314 C   0  0  0  0  0  0  0  0  0  0  0  0
  -14.9163    9.0307  -14.9450 C   0  0  0  0  0  0  0  0  0  0  0  0
  -13.9354   10.0261  -15.9100 S   0  0  0  0  0  0  0  0  0  0  0  0
  -13.7736   10.4630  -17.6604 C   0  0  0  0  0  0  0  0  0  0  0  0
  -14.8560    9.8720  -18.5720 C   0  0  1  0  0  0  0  0  0  0  0  0
  -14.7121   10.2836  -19.9191 O   0  0  0  0  0  0  0  0  0  0  0  0
  -14.7625    8.3672  -18.6631 C   0  0  1  0  0  0  0  0  0  0  0  0
  -16.0565    7.9446  -19.0336 O   0  0  0  0  0  0  0  0  0  0  0  0
  -13.8300    8.0980  -19.8212 C   0  0  1  0  0  0  0  0  0  0  0  0
  -14.3136    7.0097  -20.5778 O   0  0  0  0  0  0  0  0  0  0  0  0
  -13.9181    9.3643  -20.6453 C   0  0  2  0  0  0  0  0  0  0  0  0
  -17.6060    7.1508  -16.4998 O   0  0  0  0  0  0  0  0  0  0  0  0
  -11.3722   12.8468  -23.5787 N   0  0  0  0  0  0  0  0  0  0  0  0
  -12.6820   12.4433  -23.6864 C   0  0  0  0  0  0  0  0  0  0  0  0
  -13.1723   11.4959  -22.8203 N   0  0  0  0  0  0  0  0  0  0  0  0
  -12.3840   10.9611  -21.8675 C   0  0  0  0  0  0  0  0  0  0  0  0
  -11.0646   11.3531  -21.7411 C   0  0  0  0  0  0  0  0  0  0  0  0
  -10.5578   12.3084  -22.6143 C   0  0  0  0  0  0  0  0  0  0  0  0
   -9.2957   12.7106  -22.5310 N   0  0  0  0  0  0  0  0  0  0  0  0
  -10.5144   10.6638  -20.7166 N   0  0  0  0  0  0  0  0  0  0  0  0
  -11.4597    9.8563  -20.1974 C   0  0  0  0  0  0  0  0  0  0  0  0
  -12.6229   10.0190  -20.9057 N   0  0  0  0  0  0  0  0  0  0  0  0
  2  1  1  6  0  0  0
  2  3  1  0  0  0  0
  2  5  1  0  0  0  0
  3  4  1  0  0  0  0
  3 16  1  0  0  0  0
  5  6  1  0  0  0  0
  6  7  1  0  0  0  0
  7  8  1  0  0  0  0
  9  8  1  1  0  0  0
  9 10  1  0  0  0  0
  9 11  1  0  0  0  0
 10 15  1  0  0  0  0
 11 12  1  6  0  0  0
 11 13  1  0  0  0  0
 13 14  1  6  0  0  0
 13 15  1  0  0  0  0
 15 26  1  1  0  0  0
 17 18  2  0  0  0  0
 17 22  1  0  0  0  0
 18 19  1  0  0  0  0
 19 20  2  0  0  0  0
 20 21  1  0  0  0  0
 20 26  1  0  0  0  0
 21 22  2  0  0  0  0
 21 24  1  0  0  0  0
 22 23  1  0  0  0  0
 24 25  2  0  0  0  0
 25 26  1  0  0  0  0
M  END
>  <CHROM.1>
107.89582406,-163.44624542,-165.64589817,56.82282272,5.24671983,177.81389902
-78.03792622,-13.98119493,9.47348236,-18.87702827,-2.30588944,-0.68144724
-1.55182614

>  <Name>
ligand

>  <RI>
0

>  <Rbt.Current_Directory>
/home/itssahil/PROJECTS/Mol_Feturizer/New_Systems/rnas/3E5E

>  <Rbt.Executable>
rbdock ($Id: //depot/dev/client3/rdock/2013.1/src/exe/rbdock.cxx#4 $)

>  <Rbt.Library>
libRbt.so (2013.1, Build901 2013/11/27)

>  <Rbt.Parameter_File>
/export/apps/rDock/src/rDock_2013.1_src/data/scripts/dock_solv.prm

>  <Rbt.Receptor>
prm/pocket_docking_3.prm

>  <SCORE>
-12.0507

>  <SCORE.INTER>
-8.82489

>  <SCORE.INTER.CONST>
1

>  <SCORE.INTER.POLAR>
0

>  <SCORE.INTER.ROT>
7

>  <SCORE.INTER.SOLV>
7.45466

>  <SCORE.INTER.VDW>
-16.6348

>  <SCORE.INTER.norm>
-0.339419

>  <SCORE.INTRA>
-3.22581

>  <SCORE.INTRA.DIHEDRAL>
-3.36927

>  <SCORE.INTRA.DIHEDRAL.0>
10.1225

>  <SCORE.INTRA.POLAR>
0

>  <SCORE.INTRA.POLAR.0>
0

>  <SCORE.INTRA.REPUL>
0

>  <SCORE.INTRA.REPUL.0>
0

>  <SCORE.INTRA.SOLV>
-0.355317

>  <SCORE.INTRA.SOLV.lig_0>
-49.9393

>  <SCORE.INTRA.VDW>
-1.36351

>  <SCORE.INTRA.VDW.0>
-1.75437

>  <SCORE.INTRA.norm>
-0.12407

>  <SCORE.RESTR>
0

>  <SCORE.RESTR.CAVITY>
0

>  <SCORE.RESTR.norm>
0

>  <SCORE.SYSTEM>
0

>  <SCORE.SYSTEM.CONST>
0

>  <SCORE.SYSTEM.DIHEDRAL>
0

>  <SCORE.SYSTEM.SOLV>
0

>  <SCORE.SYSTEM.norm>
0

>  <SCORE.heavy>
26

>  <SCORE.norm>
-0.463489

>  <RMSD>
5.275

$$$$
ligand
 OpenBabel11021811473D
libRbt.so/2013.1/901 2013/11/27
 26 28  0  0  0  0  0  0  0  0999 V2000
  -16.3896    8.3430  -19.4309 N   0  0  0  0  0  0  0  0  0  0  0  0
  -15.3013    9.3042  -19.6485 C   0  0  2  0  0  0  0  0  0  0  0  0
  -14.6465    9.0273  -20.9762 C   0  0  0  0  0  0  0  0  0  0  0  0
  -14.4804    9.9253  -21.7681 O   0  0  0  0  0  0  0  0  0  0  0  0
  -14.2675    9.1643  -18.5299 C   0  0  0  0  0  0  0  0  0  0  0  0
  -13.2532   10.3024  -18.6271 C   0  0  0  0  0  0  0  0  0  0  0  0
  -12.1358   10.3568  -19.9048 S   0  0  0  0  0  0  0  0  0  0  0  0
  -10.9511   11.5345  -20.6051 C   0  0  0  0  0  0  0  0  0  0  0  0
  -11.3253   13.0097  -20.4169 C   0  0  1  0  0  0  0  0  0  0  0  0
  -10.5916   13.8669  -21.2724 O   0  0  0  0  0  0  0  0  0  0  0  0
  -12.7587   13.2861  -20.8045 C   0  0  1  0  0  0  0  0  0  0  0  0
  -13.1079   14.4548  -20.0955 O   0  0  0  0  0  0  0  0  0  0  0  0
  -12.7125   13.6249  -22.2763 C   0  0  1  0  0  0  0  0  0  0  0  0
  -13.5924   14.6945  -22.5458 O   0  0  0  0  0  0  0  0  0  0  0  0
  -11.2848   14.0805  -22.4876 C   0  0  2  0  0  0  0  0  0  0  0  0
  -14.2488    7.7816  -21.2831 O   0  0  0  0  0  0  0  0  0  0  0  0
  -10.7320    9.5186  -24.9568 N   0  0  0  0  0  0  0  0  0  0  0  0
  -11.5608    9.8165  -23.9012 C   0  0  0  0  0  0  0  0  0  0  0  0
  -11.5557   11.0850  -23.3731 N   0  0  0  0  0  0  0  0  0  0  0  0
  -10.7494   12.0380  -23.8799 C   0  0  0  0  0  0  0  0  0  0  0  0
   -9.9090   11.7602  -24.9415 C   0  0  0  0  0  0  0  0  0  0  0  0
   -9.9040   10.4791  -25.4809 C   0  0  0  0  0  0  0  0  0  0  0  0
   -9.1100   10.1681  -26.4979 N   0  0  0  0  0  0  0  0  0  0  0  0
   -9.2210   12.8843  -25.2423 N   0  0  0  0  0  0  0  0  0  0  0  0
   -9.6161   13.8575  -24.3986 C   0  0  0  0  0  0  0  0  0  0  0  0
  -10.5556   13.3480  -23.5391 N   0  0  0  0  0  0  0  0  0  0  0  0
  2  1  1  1  0  0  0
  2  3  1  0  0  0  0
  2  5  1  0  0  0  0
  3  4  1  0  0  0  0
  3 16  1  0  0  0  0
  5  6  1  0  0  0  0
  6  7  1  0  0  0  0
  7  8  1  0  0  0  0
  9  8  1  6  0  0  0
  9 10  1  0  0  0  0
  9 11  1  0  0  0  0
 10 15  1  0  0  0  0
 11 12  1  1  0  0  0
 11 13  1  0  0  0  0
 13 14  1  1  0  0  0
 13 15  1  0  0  0  0
 15 26  1  6  0  0  0
 17 18  2  0  0  0  0
 17 22  1  0  0  0  0
 18 19  1  0  0  0  0
 19 20  2  0  0  0  0
 20 21  1  0  0  0  0
 20 26  1  0  0  0  0
 21 22  2  0  0  0  0
 21 24  1  0  0  0  0
 22 23  1  0  0  0  0
 24 25  2  0  0  0  0
 25 26  1  0  0  0  0
M  END
>  <CHROM.1>
129.45657370,-171.12140426,-69.93812647,168.65326011,-28.99486159,-163.85210768
87.53342939,-12.13275325,11.40933841,-22.01484831,-3.06516983,0.90668652
0.43484920

>  <Name>
ligand

>  <RI>
0

>  <Rbt.Current_Directory>
/home/itssahil/PROJECTS/Mol_Feturizer/New_Systems/rnas/3E5E

>  <Rbt.Executable>
rbdock ($Id: //depot/dev/client3/rdock/2013.1/src/exe/rbdock.cxx#4 $)

>  <Rbt.Library>
libRbt.so (2013.1, Build901 2013/11/27)

>  <Rbt.Parameter_File>
/export/apps/rDock/src/rDock_2013.1_src/data/scripts/dock_solv.prm

>  <Rbt.Receptor>
prm/pocket_docking_5.prm

>  <SCORE>
-19.4302

>  <SCORE.INTER>
-15.5309

>  <SCORE.INTER.CONST>
1

>  <SCORE.INTER.POLAR>
0

>  <SCORE.INTER.ROT>
7

>  <SCORE.INTER.SOLV>
9.26255

>  <SCORE.INTER.VDW>
-21.7081

>  <SCORE.INTER.norm>
-0.597341

>  <SCORE.INTRA>
-3.89931

>  <SCORE.INTRA.DIHEDRAL>
-4.28092

>  <SCORE.INTRA.DIHEDRAL.0>
10.1225

>  <SCORE.INTRA.POLAR>
0

>  <SCORE.INTRA.POLAR.0>
0

>  <SCORE.INTRA.REPUL>
0

>  <SCORE.INTRA.REPUL.0>
0

>  <SCORE.INTRA.SOLV>
-0.232057

>  <SCORE.INTRA.SOLV.lig_0>
-49.9393

>  <SCORE.INTRA.VDW>
-1.64282

>  <SCORE.INTRA.VDW.0>
-1.75437

>  <SCORE.INTRA.norm>
-0.149974

>  <SCORE.RESTR>
0

>  <SCORE.RESTR.CAVITY>
0

>  <SCORE.RESTR.norm>
0

>  <SCORE.SYSTEM>
0

>  <SCORE.SYSTEM.CONST>
0

>  <SCORE.SYSTEM.DIHEDRAL>
0

>  <SCORE.SYSTEM.SOLV>
0

>  <SCORE.SYSTEM.norm>
0

>  <SCORE.heavy>
26

>  <SCORE.norm>
-0.747314

>  <RMSD>
5.288

$$$$
ligand
 OpenBabel11021811473D
libRbt.so/2013.1/901 2013/11/27
 26 28  0  0  0  0  0  0  0  0999 V2000
  -11.0191    8.1806  -26.0845 N   0  0  0  0  0  0  0  0  0  0  0  0
  -11.0626    7.5228  -24.7726 C   0  0  2  0  0  0  0  0  0  0  0  0
  -10.9707    6.0310  -24.9570 C   0  0  0  0  0  0  0  0  0  0  0  0
  -10.6708    5.3232  -24.0242 O   0  0  0  0  0  0  0  0  0  0  0  0
  -12.3770    7.8711  -24.0720 C   0  0  0  0  0  0  0  0  0  0  0  0
  -12.2910    9.2846  -23.4991 C   0  0  0  0  0  0  0  0  0  0  0  0
  -11.0301    9.7145  -22.4459 S   0  0  0  0  0  0  0  0  0  0  0  0
  -10.5275   11.1538  -21.4677 C   0  0  0  0  0  0  0  0  0  0  0  0
  -11.3509   11.3835  -20.1945 C   0  0  1  0  0  0  0  0  0  0  0  0
  -10.7476   12.3219  -19.3226 O   0  0  0  0  0  0  0  0  0  0  0  0
  -12.6938   12.0078  -20.4913 C   0  0  1  0  0  0  0  0  0  0  0  0
  -13.5076   11.6586  -19.3930 O   0  0  0  0  0  0  0  0  0  0  0  0
  -12.4559   13.4992  -20.4451 C   0  0  1  0  0  0  0  0  0  0  0  0
  -13.5399   14.1339  -19.8026 O   0  0  0  0  0  0  0  0  0  0  0  0
  -11.2147   13.6309  -19.5892 C   0  0  2  0  0  0  0  0  0  0  0  0
  -11.2194    5.4854  -26.1589 O   0  0  0  0  0  0  0  0  0  0  0  0
   -6.7013   16.1257  -18.8024 N   0  0  0  0  0  0  0  0  0  0  0  0
   -7.5363   15.5672  -17.8638 C   0  0  0  0  0  0  0  0  0  0  0  0
   -8.6993   14.9578  -18.2691 N   0  0  0  0  0  0  0  0  0  0  0  0
   -9.0274   14.9009  -19.5746 C   0  0  0  0  0  0  0  0  0  0  0  0
   -8.2019   15.4551  -20.5347 C   0  0  0  0  0  0  0  0  0  0  0  0
   -7.0248   16.0769  -20.1350 C   0  0  0  0  0  0  0  0  0  0  0  0
   -6.2051   16.6256  -21.0231 N   0  0  0  0  0  0  0  0  0  0  0  0
   -8.7685   15.2567  -21.7458 N   0  0  0  0  0  0  0  0  0  0  0  0
   -9.9236   14.5871  -21.5652 C   0  0  0  0  0  0  0  0  0  0  0  0
  -10.1063   14.3676  -20.2238 N   0  0  0  0  0  0  0  0  0  0  0  0
  2  1  1  6  0  0  0
  2  3  1  0  0  0  0
  2  5  1  0  0  0  0
  3  4  1  0  0  0  0
  3 16  1  0  0  0  0
  5  6  1  0  0  0  0
  6  7  1  0  0  0  0
  7  8  1  0  0  0  0
  9  8  1  6  0  0  0
  9 10  1  0  0  0  0
  9 11  1  0  0  0  0
 10 15  1  0  0  0  0
 11 12  1  1  0  0  0
 11 13  1  0  0  0  0
 13 14  1  1  0  0  0
 13 15  1  0  0  0  0
 15 26  1  6  0  0  0
 17 18  2  0  0  0  0
 17 22  1  0  0  0  0
 18 19  1  0  0  0  0
 19 20  2  0  0  0  0
 20 21  1  0  0  0  0
 20 26  1  0  0  0  0
 21 22  2  0  0  0  0
 21 24  1  0  0  0  0
 22 23  1  0  0  0  0
 24 25  2  0  0  0  0
 25 26  1  0  0  0  0
M  END
>  <CHROM.1>
162.36991603,-77.50816724,-54.93246489,-176.33057281,75.12048735,166.91118875
-77.99849308,-10.44816062,11.82145488,-21.48575556,-1.87463900,0.39267076
0.65975232

>  <Name>
ligand

>  <RI>
0

>  <Rbt.Current_Directory>
/home/itssahil/PROJECTS/Mol_Feturizer/New_Systems/rnas/3E5E

>  <Rbt.Executable>
rbdock ($Id: //depot/dev/client3/rdock/2013.1/src/exe/rbdock.cxx#4 $)

>  <Rbt.Library>
libRbt.so (2013.1, Build901 2013/11/27)

>  <Rbt.Parameter_File>
/export/apps/rDock/src/rDock_2013.1_src/data/scripts/dock_solv.prm

>  <Rbt.Receptor>
prm/blind_docking_40.prm

>  <SCORE>
-22.4546

>  <SCORE.INTER>
-19.4232

>  <SCORE.INTER.CONST>
1

>  <SCORE.INTER.POLAR>
0

>  <SCORE.INTER.ROT>
7

>  <SCORE.INTER.SOLV>
13.0173

>  <SCORE.INTER.VDW>
-25.5545

>  <SCORE.INTER.norm>
-0.747045

>  <SCORE.INTRA>
-3.06533

>  <SCORE.INTRA.DIHEDRAL>
-5.33438

>  <SCORE.INTRA.DIHEDRAL.0>
10.1225

>  <SCORE.INTRA.POLAR>
0

>  <SCORE.INTRA.POLAR.0>
0

>  <SCORE.INTRA.REPUL>
0

>  <SCORE.INTRA.REPUL.0>
0

>  <SCORE.INTRA.SOLV>
0.538011

>  <SCORE.INTRA.SOLV.lig_0>
-49.9393

>  <SCORE.INTRA.VDW>
-0.667147

>  <SCORE.INTRA.VDW.0>
-1.75437

>  <SCORE.INTRA.norm>
-0.117897

>  <SCORE.RESTR>
0.0339179

>  <SCORE.RESTR.CAVITY>
0.0339179

>  <SCORE.RESTR.norm>
0.00130454

>  <SCORE.SYSTEM>
0

>  <SCORE.SYSTEM.CONST>
0

>  <SCORE.SYSTEM.DIHEDRAL>
0

>  <SCORE.SYSTEM.SOLV>
0

>  <SCORE.SYSTEM.norm>
0

>  <SCORE.heavy>
26

>  <SCORE.norm>
-0.863637

>  <RMSD>
5.314

$$$$
ligand
 OpenBabel11021811473D
libRbt.so/2013.1/901 2013/11/27
 26 28  0  0  0  0  0  0  0  0999 V2000
  -16.1009    7.8166  -16.3529 N   0  0  0  0  0  0  0  0  0  0  0  0
  -14.9245    8.1900  -15.5577 C   0  0  2  0  0  0  0  0  0  0  0  0
  -15.3298    8.3713  -14.1186 C   0  0  0  0  0  0  0  0  0  0  0  0
  -14.8954    7.6288  -13.2694 O   0  0  0  0  0  0  0  0  0  0  0  0
  -14.3427    9.4992  -16.0935 C   0  0  0  0  0  0  0  0  0  0  0  0
  -13.7990    9.2767  -17.5037 C   0  0  0  0  0  0  0  0  0  0  0  0
  -13.1926   10.5780  -18.4109 S   0  0  0  0  0  0  0  0  0  0  0  0
  -12.0648   10.8347  -19.8049 C   0  0  0  0  0  0  0  0  0  0  0  0
  -11.6565   12.2941  -20.0395 C   0  0  1  0  0  0  0  0  0  0  0  0
  -10.7347   12.4329  -21.1053 O   0  0  0  0  0  0  0  0  0  0  0  0
  -12.8222   13.1459  -20.4836 C   0  0  1  0  0  0  0  0  0  0  0  0
  -12.4635   14.4643  -20.1321 O   0  0  0  0  0  0  0  0  0  0  0  0
  -12.8328   13.0472  -21.9913 C   0  0  1  0  0  0  0  0  0  0  0  0
  -13.1226   14.3107  -22.5483 O   0  0  0  0  0  0  0  0  0  0  0  0
  -11.4086   12.6618  -22.3285 C   0  0  2  0  0  0  0  0  0  0  0  0
  -16.1765    9.3565  -13.7774 O   0  0  0  0  0  0  0  0  0  0  0  0
   -9.8945   10.6539  -26.8990 N   0  0  0  0  0  0  0  0  0  0  0  0
   -9.9032   11.9736  -26.5138 C   0  0  0  0  0  0  0  0  0  0  0  0
  -10.3548   12.3103  -25.2605 N   0  0  0  0  0  0  0  0  0  0  0  0
  -10.7864   11.3615  -24.4068 C   0  0  0  0  0  0  0  0  0  0  0  0
  -10.7853   10.0288  -24.7734 C   0  0  0  0  0  0  0  0  0  0  0  0
  -10.3336    9.6779  -26.0403 C   0  0  0  0  0  0  0  0  0  0  0  0
  -10.3192    8.4107  -26.4348 N   0  0  0  0  0  0  0  0  0  0  0  0
  -11.2645    9.3044  -23.7377 N   0  0  0  0  0  0  0  0  0  0  0  0
  -11.5586   10.1517  -22.7322 C   0  0  0  0  0  0  0  0  0  0  0  0
  -11.2790   11.4331  -23.1332 N   0  0  0  0  0  0  0  0  0  0  0  0
  2  1  1  6  0  0  0
  2  3  1  0  0  0  0
  2  5  1  0  0  0  0
  3  4  1  0  0  0  0
  3 16  1  0  0  0  0
  5  6  1  0  0  0  0
  6  7  1  0  0  0  0
  7  8  1  0  0  0  0
  9  8  1  6  0  0  0
  9 10  1  0  0  0  0
  9 11  1  0  0  0  0
 10 15  1  0  0  0  0
 11 12  1  6  0  0  0
 11 13  1  0  0  0  0
 13 14  1  6  0  0  0
 13 15  1  0  0  0  0
 15 26  1  6  0  0  0
 17 18  2  0  0  0  0
 17 22  1  0  0  0  0
 18 19  1  0  0  0  0
 19 20  2  0  0  0  0
 20 21  1  0  0  0  0
 20 26  1  0  0  0  0
 21 22  2  0  0  0  0
 21 24  1  0  0  0  0
 22 23  1  0  0  0  0
 24 25  2  0  0  0  0
 25 26  1  0  0  0  0
M  END
>  <CHROM.1>
115.05561448,-65.89382357,175.36757992,157.68046903,-167.99444628,177.65468136
-125.70084795,-12.49090967,10.75542836,-20.64972990,-3.00103606,1.16056161
0.07868236

>  <Name>
ligand

>  <RI>
0

>  <Rbt.Current_Directory>
/home/itssahil/PROJECTS/Mol_Feturizer/New_Systems/rnas/3E5E

>  <Rbt.Executable>
rbdock ($Id: //depot/dev/client3/rdock/2013.1/src/exe/rbdock.cxx#4 $)

>  <Rbt.Library>
libRbt.so (2013.1, Build901 2013/11/27)

>  <Rbt.Parameter_File>
/export/apps/rDock/src/rDock_2013.1_src/data/scripts/dock_solv.prm

>  <Rbt.Receptor>
prm/pocket_docking_8.prm

>  <SCORE>
-18.7282

>  <SCORE.INTER>
-15.548

>  <SCORE.INTER.CONST>
1

>  <SCORE.INTER.POLAR>
0

>  <SCORE.INTER.ROT>
7

>  <SCORE.INTER.SOLV>
8.43271

>  <SCORE.INTER.VDW>
-21.4429

>  <SCORE.INTER.norm>
-0.598

>  <SCORE.INTRA>
-3.18024

>  <SCORE.INTRA.DIHEDRAL>
-6.19612

>  <SCORE.INTRA.DIHEDRAL.0>
10.1225

>  <SCORE.INTRA.POLAR>
0

>  <SCORE.INTRA.POLAR.0>
0

>  <SCORE.INTRA.REPUL>
0

>  <SCORE.INTRA.REPUL.0>
0

>  <SCORE.INTRA.SOLV>
0.103425

>  <SCORE.INTRA.SOLV.lig_0>
-49.9393

>  <SCORE.INTRA.VDW>
-0.133889

>  <SCORE.INTRA.VDW.0>
-1.75437

>  <SCORE.INTRA.norm>
-0.122317

>  <SCORE.RESTR>
0

>  <SCORE.RESTR.CAVITY>
0

>  <SCORE.RESTR.norm>
0

>  <SCORE.SYSTEM>
0

>  <SCORE.SYSTEM.CONST>
0

>  <SCORE.SYSTEM.DIHEDRAL>
0

>  <SCORE.SYSTEM.SOLV>
0

>  <SCORE.SYSTEM.norm>
0

>  <SCORE.heavy>
26

>  <SCORE.norm>
-0.720317

>  <RMSD>
5.323

$$$$
ligand
 OpenBabel11021811473D
libRbt.so/2013.1/901 2013/11/27
 26 28  0  0  0  0  0  0  0  0999 V2000
  -13.6635    8.1095  -20.1743 N   0  0  0  0  0  0  0  0  0  0  0  0
  -13.4501    7.4560  -18.8770 C   0  0  2  0  0  0  0  0  0  0  0  0
  -13.7465    5.9847  -19.0025 C   0  0  0  0  0  0  0  0  0  0  0  0
  -13.0594    5.1773  -18.4221 O   0  0  0  0  0  0  0  0  0  0  0  0
  -14.3811    8.0778  -17.8346 C   0  0  0  0  0  0  0  0  0  0  0  0
  -13.7554    9.3617  -17.2928 C   0  0  0  0  0  0  0  0  0  0  0  0
  -13.3333   10.6272  -18.3437 S   0  0  0  0  0  0  0  0  0  0  0  0
  -12.1840   10.9087  -19.7152 C   0  0  0  0  0  0  0  0  0  0  0  0
  -11.7739   12.3723  -19.9186 C   0  0  1  0  0  0  0  0  0  0  0  0
  -10.8031   12.5250  -20.9379 O   0  0  0  0  0  0  0  0  0  0  0  0
  -12.9223   13.2209  -20.4111 C   0  0  1  0  0  0  0  0  0  0  0  0
  -12.5889   14.5384  -20.0325 O   0  0  0  0  0  0  0  0  0  0  0  0
  -12.8603   13.1345  -21.9184 C   0  0  1  0  0  0  0  0  0  0  0  0
  -13.1309   14.4008  -22.4786 O   0  0  0  0  0  0  0  0  0  0  0  0
  -11.4193   12.7600  -22.1901 C   0  0  2  0  0  0  0  0  0  0  0  0
  -14.7732    5.5680  -19.7616 O   0  0  0  0  0  0  0  0  0  0  0  0
   -9.9789   10.8346  -26.8196 N   0  0  0  0  0  0  0  0  0  0  0  0
  -10.0585   12.1527  -26.4369 C   0  0  0  0  0  0  0  0  0  0  0  0
  -10.4754   12.4648  -25.1654 N   0  0  0  0  0  0  0  0  0  0  0  0
  -10.8045   11.4937  -24.2915 C   0  0  0  0  0  0  0  0  0  0  0  0
  -10.7308   10.1622  -24.6551 C   0  0  0  0  0  0  0  0  0  0  0  0
  -10.3134    9.8358  -25.9401 C   0  0  0  0  0  0  0  0  0  0  0  0
  -10.2321    8.5705  -26.3323 N   0  0  0  0  0  0  0  0  0  0  0  0
  -11.1143    9.4127  -23.5975 N   0  0  0  0  0  0  0  0  0  0  0  0
  -11.4193   10.2435  -22.5817 C   0  0  0  0  0  0  0  0  0  0  0  0
  -11.2439   11.5387  -22.9973 N   0  0  0  0  0  0  0  0  0  0  0  0
  2  1  1  6  0  0  0
  2  3  1  0  0  0  0
  2  5  1  0  0  0  0
  3  4  1  0  0  0  0
  3 16  1  0  0  0  0
  5  6  1  0  0  0  0
  6  7  1  0  0  0  0
  7  8  1  0  0  0  0
  9  8  1  6  0  0  0
  9 10  1  0  0  0  0
  9 11  1  0  0  0  0
 10 15  1  0  0  0  0
 11 12  1  6  0  0  0
 11 13  1  0  0  0  0
 13 14  1  6  0  0  0
 13 15  1  0  0  0  0
 15 26  1  6  0  0  0
 17 18  2  0  0  0  0
 17 22  1  0  0  0  0
 18 19  1  0  0  0  0
 19 20  2  0  0  0  0
 20 21  1  0  0  0  0
 20 26  1  0  0  0  0
 21 22  2  0  0  0  0
 21 24  1  0  0  0  0
 22 23  1  0  0  0  0
 24 25  2  0  0  0  0
 25 26  1  0  0  0  0
M  END
>  <CHROM.1>
141.37177918,-82.74346806,57.17220154,-63.73048110,-154.43579668,175.72856386
-132.06585569,-12.19000836,10.42689592,-21.51959556,-2.80289997,1.15947771
0.18622149

>  <Name>
ligand

>  <RI>
0

>  <Rbt.Current_Directory>
/home/itssahil/PROJECTS/Mol_Feturizer/New_Systems/rnas/3E5E

>  <Rbt.Executable>
rbdock ($Id: //depot/dev/client3/rdock/2013.1/src/exe/rbdock.cxx#4 $)

>  <Rbt.Library>
libRbt.so (2013.1, Build901 2013/11/27)

>  <Rbt.Parameter_File>
/export/apps/rDock/src/rDock_2013.1_src/data/scripts/dock_solv.prm

>  <Rbt.Receptor>
prm/pocket_docking_8.prm

>  <SCORE>
-16.8057

>  <SCORE.INTER>
-14.8755

>  <SCORE.INTER.CONST>
1

>  <SCORE.INTER.POLAR>
0

>  <SCORE.INTER.ROT>
7

>  <SCORE.INTER.SOLV>
12.0959

>  <SCORE.INTER.VDW>
-22.2156

>  <SCORE.INTER.norm>
-0.572133

>  <SCORE.INTRA>
-1.93518

>  <SCORE.INTRA.DIHEDRAL>
-4.46924

>  <SCORE.INTRA.DIHEDRAL.0>
10.1225

>  <SCORE.INTRA.POLAR>
0

>  <SCORE.INTRA.POLAR.0>
0

>  <SCORE.INTRA.REPUL>
0

>  <SCORE.INTRA.REPUL.0>
0

>  <SCORE.INTRA.SOLV>
2.16928

>  <SCORE.INTRA.SOLV.lig_0>
-49.9393

>  <SCORE.INTRA.VDW>
-0.785195

>  <SCORE.INTRA.VDW.0>
-1.75437

>  <SCORE.INTRA.norm>
-0.0744299

>  <SCORE.RESTR>
0.00494414

>  <SCORE.RESTR.CAVITY>
0.00494414

>  <SCORE.RESTR.norm>
0.000190159

>  <SCORE.SYSTEM>
0

>  <SCORE.SYSTEM.CONST>
0

>  <SCORE.SYSTEM.DIHEDRAL>
0

>  <SCORE.SYSTEM.SOLV>
0

>  <SCORE.SYSTEM.norm>
0

>  <SCORE.heavy>
26

>  <SCORE.norm>
-0.646373

>  <RMSD>
5.329

$$$$
ligand
 OpenBabel11021811473D
libRbt.so/2013.1/901 2013/11/27
 26 28  0  0  0  0  0  0  0  0999 V2000
  -12.1153    8.9368  -23.8306 N   0  0  0  0  0  0  0  0  0  0  0  0
  -13.2574    9.1459  -22.9320 C   0  0  2  0  0  0  0  0  0  0  0  0
  -14.5210    9.2527  -23.7444 C   0  0  0  0  0  0  0  0  0  0  0  0
  -14.6176    8.6606  -24.7938 O   0  0  0  0  0  0  0  0  0  0  0  0
  -13.0501   10.4364  -22.1374 C   0  0  0  0  0  0  0  0  0  0  0  0
  -12.8321   11.6004  -23.1023 C   0  0  0  0  0  0  0  0  0  0  0  0
  -12.7143   13.1923  -22.5226 S   0  0  0  0  0  0  0  0  0  0  0  0
  -12.2690   14.0318  -20.9805 C   0  0  0  0  0  0  0  0  0  0  0  0
  -11.4179   13.1954  -20.0173 C   0  0  1  0  0  0  0  0  0  0  0  0
  -10.2507   12.6826  -20.6333 O   0  0  0  0  0  0  0  0  0  0  0  0
  -10.8679   14.0232  -18.8799 C   0  0  1  0  0  0  0  0  0  0  0  0
  -10.6110   13.0967  -17.8474 O   0  0  0  0  0  0  0  0  0  0  0  0
   -9.5430   14.5509  -19.3790 C   0  0  1  0  0  0  0  0  0  0  0  0
   -8.5887   14.4978  -18.3411 O   0  0  0  0  0  0  0  0  0  0  0  0
   -9.1610   13.5701  -20.4665 C   0  0  2  0  0  0  0  0  0  0  0  0
  -15.5410   10.0081  -23.3052 O   0  0  0  0  0  0  0  0  0  0  0  0
   -6.5429   13.1452  -24.9585 N   0  0  0  0  0  0  0  0  0  0  0  0
   -6.4813   12.3210  -23.8599 C   0  0  0  0  0  0  0  0  0  0  0  0
   -7.2454   12.6077  -22.7545 N   0  0  0  0  0  0  0  0  0  0  0  0
   -8.0538   13.6854  -22.7376 C   0  0  0  0  0  0  0  0  0  0  0  0
   -8.1316   14.5266  -23.8316 C   0  0  0  0  0  0  0  0  0  0  0  0
   -7.3602   14.2473  -24.9536 C   0  0  0  0  0  0  0  0  0  0  0  0
   -7.4011   15.0308  -26.0242 N   0  0  0  0  0  0  0  0  0  0  0  0
   -9.0079   15.5149  -23.5442 N   0  0  0  0  0  0  0  0  0  0  0  0
   -9.4831   15.3073  -22.3007 C   0  0  0  0  0  0  0  0  0  0  0  0
   -8.8941   14.1832  -21.7805 N   0  0  0  0  0  0  0  0  0  0  0  0
  2  1  1  6  0  0  0
  2  3  1  0  0  0  0
  2  5  1  0  0  0  0
  3  4  1  0  0  0  0
  3 16  1  0  0  0  0
  5  6  1  0  0  0  0
  6  7  1  0  0  0  0
  7  8  1  0  0  0  0
  9  8  1  6  0  0  0
  9 10  1  0  0  0  0
  9 11  1  0  0  0  0
 10 15  1  0  0  0  0
 11 12  1  1  0  0  0
 11 13  1  0  0  0  0
 13 14  1  1  0  0  0
 13 15  1  0  0  0  0
 15 26  1  6  0  0  0
 17 18  2  0  0  0  0
 17 22  1  0  0  0  0
 18 19  1  0  0  0  0
 19 20  2  0  0  0  0
 20 21  1  0  0  0  0
 20 26  1  0  0  0  0
 21 22  2  0  0  0  0
 21 24  1  0  0  0  0
 22 23  1  0  0  0  0
 24 25  2  0  0  0  0
 25 26  1  0  0  0  0
M  END
>  <CHROM.1>
30.21951630,55.74493758,174.38198829,24.08386998,20.88168186,53.84123885
-89.26856860,-10.57422803,12.72678056,-22.25576030,-2.80851804,0.55359555
1.19244670

>  <Name>
ligand

>  <RI>
0

>  <Rbt.Current_Directory>
/home/itssahil/PROJECTS/Mol_Feturizer/New_Systems/rnas/3E5E

>  <Rbt.Executable>
rbdock ($Id: //depot/dev/client3/rdock/2013.1/src/exe/rbdock.cxx#4 $)

>  <Rbt.Library>
libRbt.so (2013.1, Build901 2013/11/27)

>  <Rbt.Parameter_File>
/export/apps/rDock/src/rDock_2013.1_src/data/scripts/dock_solv.prm

>  <Rbt.Receptor>
prm/pocket_docking_6.prm

>  <SCORE>
-19.9686

>  <SCORE.INTER>
-18.0834

>  <SCORE.INTER.CONST>
1

>  <SCORE.INTER.POLAR>
0

>  <SCORE.INTER.ROT>
7

>  <SCORE.INTER.SOLV>
10.2442

>  <SCORE.INTER.VDW>
-23.737

>  <SCORE.INTER.norm>
-0.695516

>  <SCORE.INTRA>
-1.88517

>  <SCORE.INTRA.DIHEDRAL>
-3.90988

>  <SCORE.INTRA.DIHEDRAL.0>
10.1225

>  <SCORE.INTRA.POLAR>
0

>  <SCORE.INTRA.POLAR.0>
0

>  <SCORE.INTRA.REPUL>
0

>  <SCORE.INTRA.REPUL.0>
0

>  <SCORE.INTRA.SOLV>
0.365391

>  <SCORE.INTRA.SOLV.lig_0>
-49.9393

>  <SCORE.INTRA.VDW>
-0.112923

>  <SCORE.INTRA.VDW.0>
-1.75437

>  <SCORE.INTRA.norm>
-0.0725064

>  <SCORE.RESTR>
0

>  <SCORE.RESTR.CAVITY>
0

>  <SCORE.RESTR.norm>
0

>  <SCORE.SYSTEM>
0

>  <SCORE.SYSTEM.CONST>
0

>  <SCORE.SYSTEM.DIHEDRAL>
0

>  <SCORE.SYSTEM.SOLV>
0

>  <SCORE.SYSTEM.norm>
0

>  <SCORE.heavy>
26

>  <SCORE.norm>
-0.768022

>  <RMSD>
5.343

$$$$
ligand
 OpenBabel11021811473D
libRbt.so/2013.1/901 2013/11/27
 26 28  0  0  0  0  0  0  0  0999 V2000
  -11.9971    8.1249  -24.4238 N   0  0  0  0  0  0  0  0  0  0  0  0
  -12.8628    6.9714  -24.1488 C   0  0  2  0  0  0  0  0  0  0  0  0
  -12.2632    5.7363  -24.7678 C   0  0  0  0  0  0  0  0  0  0  0  0
  -11.5253    5.0317  -24.1196 O   0  0  0  0  0  0  0  0  0  0  0  0
  -14.2486    7.2212  -24.7463 C   0  0  0  0  0  0  0  0  0  0  0  0
  -15.0224    8.1893  -23.8532 C   0  0  0  0  0  0  0  0  0  0  0  0
  -14.3732    9.7084  -23.4599 S   0  0  0  0  0  0  0  0  0  0  0  0
  -12.9854   10.3698  -22.5018 C   0  0  0  0  0  0  0  0  0  0  0  0
  -12.7038    9.6321  -21.1872 C   0  0  1  0  0  0  0  0  0  0  0  0
  -11.4322    9.9492  -20.6511 O   0  0  0  0  0  0  0  0  0  0  0  0
  -13.6514   10.0491  -20.0874 C   0  0  1  0  0  0  0  0  0  0  0  0
  -13.6546    8.9678  -19.1812 O   0  0  0  0  0  0  0  0  0  0  0  0
  -12.9833   11.2253  -19.4142 C   0  0  1  0  0  0  0  0  0  0  0  0
  -13.1550   11.1336  -18.0167 O   0  0  0  0  0  0  0  0  0  0  0  0
  -11.5205   11.0418  -19.7560 C   0  0  2  0  0  0  0  0  0  0  0  0
  -12.5456    5.4177  -26.0417 O   0  0  0  0  0  0  0  0  0  0  0  0
   -8.2950   15.1019  -19.1852 N   0  0  0  0  0  0  0  0  0  0  0  0
   -8.6995   14.1994  -18.2302 C   0  0  0  0  0  0  0  0  0  0  0  0
   -9.5725   13.1955  -18.5737 N   0  0  0  0  0  0  0  0  0  0  0  0
  -10.0335   13.0862  -19.8350 C   0  0  0  0  0  0  0  0  0  0  0  0
   -9.6390   13.9823  -20.8107 C   0  0  0  0  0  0  0  0  0  0  0  0
   -8.7588   15.0035  -20.4729 C   0  0  0  0  0  0  0  0  0  0  0  0
   -8.3573   15.8879  -21.3775 N   0  0  0  0  0  0  0  0  0  0  0  0
  -10.2473   13.6418  -21.9690 N   0  0  0  0  0  0  0  0  0  0  0  0
  -11.0062   12.5522  -21.7410 C   0  0  0  0  0  0  0  0  0  0  0  0
  -10.8949   12.2000  -20.4201 N   0  0  0  0  0  0  0  0  0  0  0  0
  2  1  1  6  0  0  0
  2  3  1  0  0  0  0
  2  5  1  0  0  0  0
  3  4  1  0  0  0  0
  3 16  1  0  0  0  0
  5  6  1  0  0  0  0
  6  7  1  0  0  0  0
  7  8  1  0  0  0  0
  9  8  1  6  0  0  0
  9 10  1  0  0  0  0
  9 11  1  0  0  0  0
 10 15  1  0  0  0  0
 11 12  1  1  0  0  0
 11 13  1  0  0  0  0
 13 14  1  1  0  0  0
 13 15  1  0  0  0  0
 15 26  1  6  0  0  0
 17 18  2  0  0  0  0
 17 22  1  0  0  0  0
 18 19  1  0  0  0  0
 19 20  2  0  0  0  0
 20 21  1  0  0  0  0
 20 26  1  0  0  0  0
 21 22  2  0  0  0  0
 21 24  1  0  0  0  0
 22 23  1  0  0  0  0
 24 25  2  0  0  0  0
 25 26  1  0  0  0  0
M  END
>  <CHROM.1>
92.23910696,-76.94407455,55.41618293,-67.06846719,-39.16530337,164.85230738
-136.15322445,-11.82144853,10.51827855,-21.62064692,-2.13222974,0.72501986
0.96539064

>  <Name>
ligand

>  <RI>
0

>  <Rbt.Current_Directory>
/home/itssahil/PROJECTS/Mol_Feturizer/New_Systems/rnas/3E5E

>  <Rbt.Executable>
rbdock ($Id: //depot/dev/client3/rdock/2013.1/src/exe/rbdock.cxx#4 $)

>  <Rbt.Library>
libRbt.so (2013.1, Build901 2013/11/27)

>  <Rbt.Parameter_File>
/export/apps/rDock/src/rDock_2013.1_src/data/scripts/dock_solv.prm

>  <Rbt.Receptor>
prm/blind_docking_100.prm

>  <SCORE>
-17.946

>  <SCORE.INTER>
-16.6703

>  <SCORE.INTER.CONST>
1

>  <SCORE.INTER.POLAR>
0

>  <SCORE.INTER.ROT>
7

>  <SCORE.INTER.SOLV>
11.1014

>  <SCORE.INTER.VDW>
-23.0807

>  <SCORE.INTER.norm>
-0.641167

>  <SCORE.INTRA>
-1.27562

>  <SCORE.INTRA.DIHEDRAL>
-4.70408

>  <SCORE.INTRA.DIHEDRAL.0>
10.1225

>  <SCORE.INTRA.POLAR>
0

>  <SCORE.INTRA.POLAR.0>
0

>  <SCORE.INTRA.REPUL>
0

>  <SCORE.INTRA.REPUL.0>
0

>  <SCORE.INTRA.SOLV>
2.95598

>  <SCORE.INTRA.SOLV.lig_0>
-49.9393

>  <SCORE.INTRA.VDW>
-0.401567

>  <SCORE.INTRA.VDW.0>
-1.75437

>  <SCORE.INTRA.norm>
-0.0490622

>  <SCORE.RESTR>
0

>  <SCORE.RESTR.CAVITY>
0

>  <SCORE.RESTR.norm>
0

>  <SCORE.SYSTEM>
0

>  <SCORE.SYSTEM.CONST>
0

>  <SCORE.SYSTEM.DIHEDRAL>
0

>  <SCORE.SYSTEM.SOLV>
0

>  <SCORE.SYSTEM.norm>
0

>  <SCORE.heavy>
26

>  <SCORE.norm>
-0.690229

>  <RMSD>
5.354

$$$$
ligand
 OpenBabel11021811473D
libRbt.so/2013.1/901 2013/11/27
 26 28  0  0  0  0  0  0  0  0999 V2000
  -12.0350    7.5367  -26.9221 N   0  0  0  0  0  0  0  0  0  0  0  0
  -11.5757    7.9468  -25.5892 C   0  0  2  0  0  0  0  0  0  0  0  0
  -10.7349    6.8505  -24.9899 C   0  0  0  0  0  0  0  0  0  0  0  0
   -9.5315    6.8824  -25.0992 O   0  0  0  0  0  0  0  0  0  0  0  0
  -12.7866    8.2104  -24.6925 C   0  0  0  0  0  0  0  0  0  0  0  0
  -12.3134    8.7267  -23.3348 C   0  0  0  0  0  0  0  0  0  0  0  0
  -11.4501   10.1845  -23.2183 S   0  0  0  0  0  0  0  0  0  0  0  0
  -10.6344   11.1643  -21.9316 C   0  0  0  0  0  0  0  0  0  0  0  0
  -11.4339   11.3081  -20.6309 C   0  0  1  0  0  0  0  0  0  0  0  0
  -10.7817   12.1344  -19.6840 O   0  0  0  0  0  0  0  0  0  0  0  0
  -12.7516   12.0135  -20.8490 C   0  0  1  0  0  0  0  0  0  0  0  0
  -13.5683   11.5974  -19.7766 O   0  0  0  0  0  0  0  0  0  0  0  0
  -12.4489   13.4827  -20.6673 C   0  0  1  0  0  0  0  0  0  0  0  0
  -13.4978   14.0994  -19.9531 O   0  0  0  0  0  0  0  0  0  0  0  0
  -11.1944   13.4811  -19.8206 C   0  0  2  0  0  0  0  0  0  0  0  0
  -11.3213    5.8346  -24.3356 O   0  0  0  0  0  0  0  0  0  0  0  0
   -6.7681   16.0490  -18.8069 N   0  0  0  0  0  0  0  0  0  0  0  0
   -7.6477   15.4888  -17.9110 C   0  0  0  0  0  0  0  0  0  0  0  0
   -8.7771   14.8584  -18.3748 N   0  0  0  0  0  0  0  0  0  0  0  0
   -9.0292   14.7825  -19.6961 C   0  0  0  0  0  0  0  0  0  0  0  0
   -8.1578   15.3381  -20.6140 C   0  0  0  0  0  0  0  0  0  0  0  0
   -7.0141   15.9810  -20.1551 C   0  0  0  0  0  0  0  0  0  0  0  0
   -6.1527   16.5318  -21.0014 N   0  0  0  0  0  0  0  0  0  0  0  0
   -8.6514   15.1184  -21.8531 N   0  0  0  0  0  0  0  0  0  0  0  0
   -9.8057   14.4343  -21.7309 C   0  0  0  0  0  0  0  0  0  0  0  0
  -10.0618   14.2267  -20.3995 N   0  0  0  0  0  0  0  0  0  0  0  0
  2  1  1  6  0  0  0
  2  3  1  0  0  0  0
  2  5  1  0  0  0  0
  3  4  1  0  0  0  0
  3 16  1  0  0  0  0
  5  6  1  0  0  0  0
  6  7  1  0  0  0  0
  7  8  1  0  0  0  0
  9  8  1  6  0  0  0
  9 10  1  0  0  0  0
  9 11  1  0  0  0  0
 10 15  1  0  0  0  0
 11 12  1  1  0  0  0
 11 13  1  0  0  0  0
 13 14  1  1  0  0  0
 13 15  1  0  0  0  0
 15 26  1  6  0  0  0
 17 18  2  0  0  0  0
 17 22  1  0  0  0  0
 18 19  1  0  0  0  0
 19 20  2  0  0  0  0
 20 21  1  0  0  0  0
 20 26  1  0  0  0  0
 21 22  2  0  0  0  0
 21 24  1  0  0  0  0
 22 23  1  0  0  0  0
 24 25  2  0  0  0  0
 25 26  1  0  0  0  0
M  END
>  <CHROM.1>
94.93364892,-176.24632632,61.74341488,-176.68482509,-44.15344149,-177.16858796
-85.91030555,-10.50980924,11.89332093,-21.72404791,-1.91348588,0.34361808
0.70523152

>  <Name>
ligand

>  <RI>
0

>  <Rbt.Current_Directory>
/home/itssahil/PROJECTS/Mol_Feturizer/New_Systems/rnas/3E5E

>  <Rbt.Executable>
rbdock ($Id: //depot/dev/client3/rdock/2013.1/src/exe/rbdock.cxx#4 $)

>  <Rbt.Library>
libRbt.so (2013.1, Build901 2013/11/27)

>  <Rbt.Parameter_File>
/export/apps/rDock/src/rDock_2013.1_src/data/scripts/dock_solv.prm

>  <Rbt.Receptor>
prm/blind_docking_100.prm

>  <SCORE>
-23.159

>  <SCORE.INTER>
-19.1994

>  <SCORE.INTER.CONST>
1

>  <SCORE.INTER.POLAR>
0

>  <SCORE.INTER.ROT>
7

>  <SCORE.INTER.SOLV>
12.4683

>  <SCORE.INTER.VDW>
-25.2224

>  <SCORE.INTER.norm>
-0.738438

>  <SCORE.INTRA>
-3.95964

>  <SCORE.INTRA.DIHEDRAL>
-7.04361

>  <SCORE.INTRA.DIHEDRAL.0>
10.1225

>  <SCORE.INTRA.POLAR>
0

>  <SCORE.INTRA.POLAR.0>
0

>  <SCORE.INTRA.REPUL>
0

>  <SCORE.INTRA.REPUL.0>
0

>  <SCORE.INTRA.SOLV>
-0.504642

>  <SCORE.INTRA.SOLV.lig_0>
-49.9393

>  <SCORE.INTRA.VDW>
-0.185511

>  <SCORE.INTRA.VDW.0>
-1.75437

>  <SCORE.INTRA.norm>
-0.152294

>  <SCORE.RESTR>
0

>  <SCORE.RESTR.CAVITY>
0

>  <SCORE.RESTR.norm>
0

>  <SCORE.SYSTEM>
0

>  <SCORE.SYSTEM.CONST>
0

>  <SCORE.SYSTEM.DIHEDRAL>
0

>  <SCORE.SYSTEM.SOLV>
0

>  <SCORE.SYSTEM.norm>
0

>  <SCORE.heavy>
26

>  <SCORE.norm>
-0.890732

>  <RMSD>
5.360

$$$$
ligand
 OpenBabel11021811473D
libRbt.so/2013.1/901 2013/11/27
 26 28  0  0  0  0  0  0  0  0999 V2000
  -17.1981    7.3102  -13.4885 N   0  0  0  0  0  0  0  0  0  0  0  0
  -16.7021    8.6541  -13.8102 C   0  0  2  0  0  0  0  0  0  0  0  0
  -17.6986    9.3577  -14.6934 C   0  0  0  0  0  0  0  0  0  0  0  0
  -18.3147    8.7350  -15.5263 O   0  0  0  0  0  0  0  0  0  0  0  0
  -15.3626    8.5411  -14.5401 C   0  0  0  0  0  0  0  0  0  0  0  0
  -14.7178    9.9223  -14.6403 C   0  0  0  0  0  0  0  0  0  0  0  0
  -13.5384   10.2414  -15.8198 S   0  0  0  0  0  0  0  0  0  0  0  0
  -13.4746   10.6017  -17.5938 C   0  0  0  0  0  0  0  0  0  0  0  0
  -14.5851    9.9445  -18.4224 C   0  0  1  0  0  0  0  0  0  0  0  0
  -14.5471   10.3344  -19.7830 O   0  0  0  0  0  0  0  0  0  0  0  0
  -14.4288    8.4438  -18.4930 C   0  0  1  0  0  0  0  0  0  0  0  0
  -15.7232    7.9564  -18.7709 O   0  0  0  0  0  0  0  0  0  0  0  0
  -13.5614    8.1928  -19.7045 C   0  0  1  0  0  0  0  0  0  0  0  0
  -14.0422    7.0688  -20.4088 O   0  0  0  0  0  0  0  0  0  0  0  0
  -13.7601    9.4368  -20.5432 C   0  0  2  0  0  0  0  0  0  0  0  0
  -17.9020   10.6784  -14.5584 O   0  0  0  0  0  0  0  0  0  0  0  0
  -11.5847   13.0158  -23.6531 N   0  0  0  0  0  0  0  0  0  0  0  0
  -12.8815   12.5595  -23.6630 C   0  0  0  0  0  0  0  0  0  0  0  0
  -13.2666   11.5941  -22.7642 N   0  0  0  0  0  0  0  0  0  0  0  0
  -12.3880   11.0929  -21.8742 C   0  0  0  0  0  0  0  0  0  0  0  0
  -11.0798   11.5382  -21.8464 C   0  0  0  0  0  0  0  0  0  0  0  0
  -10.6791   12.5121  -22.7535 C   0  0  0  0  0  0  0  0  0  0  0  0
   -9.4317   12.9653  -22.7644 N   0  0  0  0  0  0  0  0  0  0  0  0
  -10.4269   10.8730  -20.8674 N   0  0  0  0  0  0  0  0  0  0  0  0
  -11.2971   10.0286  -20.2801 C   0  0  0  0  0  0  0  0  0  0  0  0
  -12.5157   10.1431  -20.8989 N   0  0  0  0  0  0  0  0  0  0  0  0
  2  1  1  6  0  0  0
  2  3  1  0  0  0  0
  2  5  1  0  0  0  0
  3  4  1  0  0  0  0
  3 16  1  0  0  0  0
  5  6  1  0  0  0  0
  6  7  1  0  0  0  0
  7  8  1  0  0  0  0
  9  8  1  1  0  0  0
  9 10  1  0  0  0  0
  9 11  1  0  0  0  0
 10 15  1  0  0  0  0
 11 12  1  6  0  0  0
 11 13  1  0  0  0  0
 13 14  1  6  0  0  0
 13 15  1  0  0  0  0
 15 26  1  1  0  0  0
 17 18  2  0  0  0  0
 17 22  1  0  0  0  0
 18 19  1  0  0  0  0
 19 20  2  0  0  0  0
 20 21  1  0  0  0  0
 20 26  1  0  0  0  0
 21 22  2  0  0  0  0
 21 24  1  0  0  0  0
 22 23  1  0  0  0  0
 24 25  2  0  0  0  0
 25 26  1  0  0  0  0
M  END
>  <CHROM.1>
-36.13799997,-169.31958543,-158.64023203,78.15707891,-31.58295951,175.73144561
-76.75629224,-13.96028069,10.02513934,-18.69780224,2.38422953,0.74956092
1.29522312

>  <Name>
ligand

>  <RI>
0

>  <Rbt.Current_Directory>
/home/itssahil/PROJECTS/Mol_Feturizer/New_Systems/rnas/3E5E

>  <Rbt.Executable>
rbdock ($Id: //depot/dev/client3/rdock/2013.1/src/exe/rbdock.cxx#4 $)

>  <Rbt.Library>
libRbt.so (2013.1, Build901 2013/11/27)

>  <Rbt.Parameter_File>
/export/apps/rDock/src/rDock_2013.1_src/data/scripts/dock_solv.prm

>  <Rbt.Receptor>
prm/pocket_docking_4.prm

>  <SCORE>
-16.2988

>  <SCORE.INTER>
-13.0669

>  <SCORE.INTER.CONST>
1

>  <SCORE.INTER.POLAR>
0

>  <SCORE.INTER.ROT>
7

>  <SCORE.INTER.SOLV>
6.91342

>  <SCORE.INTER.VDW>
-19.2824

>  <SCORE.INTER.norm>
-0.502572

>  <SCORE.INTRA>
-3.23195

>  <SCORE.INTRA.DIHEDRAL>
-3.86986

>  <SCORE.INTRA.DIHEDRAL.0>
10.1225

>  <SCORE.INTRA.POLAR>
0

>  <SCORE.INTRA.POLAR.0>
0

>  <SCORE.INTRA.REPUL>
0

>  <SCORE.INTRA.REPUL.0>
0

>  <SCORE.INTRA.SOLV>
-0.556911

>  <SCORE.INTRA.SOLV.lig_0>
-49.9393

>  <SCORE.INTRA.VDW>
-1.01856

>  <SCORE.INTRA.VDW.0>
-1.75437

>  <SCORE.INTRA.norm>
-0.124306

>  <SCORE.RESTR>
0

>  <SCORE.RESTR.CAVITY>
0

>  <SCORE.RESTR.norm>
0

>  <SCORE.SYSTEM>
0

>  <SCORE.SYSTEM.CONST>
0

>  <SCORE.SYSTEM.DIHEDRAL>
0

>  <SCORE.SYSTEM.SOLV>
0

>  <SCORE.SYSTEM.norm>
0

>  <SCORE.heavy>
26

>  <SCORE.norm>
-0.626877

>  <RMSD>
5.368

$$$$
ligand
 OpenBabel11021811473D
libRbt.so/2013.1/901 2013/11/27
 26 28  0  0  0  0  0  0  0  0999 V2000
  -13.2721    3.0650  -18.1387 N   0  0  0  0  0  0  0  0  0  0  0  0
  -13.8906    4.3098  -17.6662 C   0  0  2  0  0  0  0  0  0  0  0  0
  -15.3602    4.2953  -17.9953 C   0  0  0  0  0  0  0  0  0  0  0  0
  -16.1757    4.5268  -17.1336 O   0  0  0  0  0  0  0  0  0  0  0  0
  -13.2245    5.5024  -18.3546 C   0  0  0  0  0  0  0  0  0  0  0  0
  -13.7720    6.8019  -17.7671 C   0  0  0  0  0  0  0  0  0  0  0  0
  -13.2336    8.3053  -18.3451 S   0  0  0  0  0  0  0  0  0  0  0  0
  -13.1978    9.2070  -19.9156 C   0  0  0  0  0  0  0  0  0  0  0  0
  -14.5348    9.2424  -20.6658 C   0  0  1  0  0  0  0  0  0  0  0  0
  -14.5225   10.1534  -21.7498 O   0  0  0  0  0  0  0  0  0  0  0  0
  -14.8475    7.9235  -21.3321 C   0  0  1  0  0  0  0  0  0  0  0  0
  -16.2503    7.9160  -21.4825 O   0  0  0  0  0  0  0  0  0  0  0  0
  -14.2274    8.0176  -22.7068 C   0  0  1  0  0  0  0  0  0  0  0  0
  -15.0960    7.4456  -23.6603 O   0  0  0  0  0  0  0  0  0  0  0  0
  -14.1271    9.5087  -22.9459 C   0  0  2  0  0  0  0  0  0  0  0  0
  -15.7665    4.0226  -19.2461 O   0  0  0  0  0  0  0  0  0  0  0  0
  -11.1518   13.6942  -23.8640 N   0  0  0  0  0  0  0  0  0  0  0  0
  -12.5051   13.6516  -23.6252 C   0  0  0  0  0  0  0  0  0  0  0  0
  -13.1181   12.4398  -23.4160 N   0  0  0  0  0  0  0  0  0  0  0  0
  -12.4070   11.2957  -23.4408 C   0  0  0  0  0  0  0  0  0  0  0  0
  -11.0455   11.3159  -23.6782 C   0  0  0  0  0  0  0  0  0  0  0  0
  -10.4163   12.5363  -23.8943 C   0  0  0  0  0  0  0  0  0  0  0  0
   -9.1117   12.6012  -24.1299 N   0  0  0  0  0  0  0  0  0  0  0  0
  -10.5916   10.0429  -23.6481 N   0  0  0  0  0  0  0  0  0  0  0  0
  -11.6351    9.2303  -23.3918 C   0  0  0  0  0  0  0  0  0  0  0  0
  -12.7715    9.9887  -23.2713 N   0  0  0  0  0  0  0  0  0  0  0  0
  2  1  1  6  0  0  0
  2  3  1  0  0  0  0
  2  5  1  0  0  0  0
  3  4  1  0  0  0  0
  3 16  1  0  0  0  0
  5  6  1  0  0  0  0
  6  7  1  0  0  0  0
  7  8  1  0  0  0  0
  9  8  1  6  0  0  0
  9 10  1  0  0  0  0
  9 11  1  0  0  0  0
 10 15  1  0  0  0  0
 11 12  1  6  0  0  0
 11 13  1  0  0  0  0
 13 14  1  6  0  0  0
 13 15  1  0  0  0  0
 15 26  1  1  0  0  0
 17 18  2  0  0  0  0
 17 22  1  0  0  0  0
 18 19  1  0  0  0  0
 19 20  2  0  0  0  0
 20 21  1  0  0  0  0
 20 26  1  0  0  0  0
 21 22  2  0  0  0  0
 21 24  1  0  0  0  0
 22 23  1  0  0  0  0
 24 25  2  0  0  0  0
 25 26  1  0  0  0  0
M  END
>  <CHROM.1>
128.61901918,-174.60094633,-179.28080169,59.33181508,48.93410558,169.15119836
-56.48504964,-13.39445112,8.62000870,-21.16182781,-1.96588136,-0.51170650
-0.86274415

>  <Name>
ligand

>  <RI>
0

>  <Rbt.Current_Directory>
/home/itssahil/PROJECTS/Mol_Feturizer/New_Systems/rnas/3E5E

>  <Rbt.Executable>
rbdock ($Id: //depot/dev/client3/rdock/2013.1/src/exe/rbdock.cxx#4 $)

>  <Rbt.Library>
libRbt.so (2013.1, Build901 2013/11/27)

>  <Rbt.Parameter_File>
/export/apps/rDock/src/rDock_2013.1_src/data/scripts/dock_solv.prm

>  <Rbt.Receptor>
prm/pocket_docking_8.prm

>  <SCORE>
-16.3983

>  <SCORE.INTER>
-11.9866

>  <SCORE.INTER.CONST>
1

>  <SCORE.INTER.POLAR>
0

>  <SCORE.INTER.ROT>
7

>  <SCORE.INTER.SOLV>
5.8057

>  <SCORE.INTER.VDW>
-18.1929

>  <SCORE.INTER.norm>
-0.461022

>  <SCORE.INTRA>
-4.41169

>  <SCORE.INTRA.DIHEDRAL>
-6.71423

>  <SCORE.INTRA.DIHEDRAL.0>
10.1225

>  <SCORE.INTRA.POLAR>
0

>  <SCORE.INTRA.POLAR.0>
0

>  <SCORE.INTRA.REPUL>
0

>  <SCORE.INTRA.REPUL.0>
0

>  <SCORE.INTRA.SOLV>
-0.584147

>  <SCORE.INTRA.SOLV.lig_0>
-49.9393

>  <SCORE.INTRA.VDW>
-0.762499

>  <SCORE.INTRA.VDW.0>
-1.75437

>  <SCORE.INTRA.norm>
-0.16968

>  <SCORE.RESTR>
0

>  <SCORE.RESTR.CAVITY>
0

>  <SCORE.RESTR.norm>
0

>  <SCORE.SYSTEM>
0

>  <SCORE.SYSTEM.CONST>
0

>  <SCORE.SYSTEM.DIHEDRAL>
0

>  <SCORE.SYSTEM.SOLV>
0

>  <SCORE.SYSTEM.norm>
0

>  <SCORE.heavy>
26

>  <SCORE.norm>
-0.630702

>  <RMSD>
5.386

$$$$
ligand
 OpenBabel11021811473D
libRbt.so/2013.1/901 2013/11/27
 26 28  0  0  0  0  0  0  0  0999 V2000
   -9.7073    7.7466  -26.4387 N   0  0  0  0  0  0  0  0  0  0  0  0
  -10.2204    7.6896  -25.0643 C   0  0  2  0  0  0  0  0  0  0  0  0
  -10.4540    6.2533  -24.6761 C   0  0  0  0  0  0  0  0  0  0  0  0
  -11.0241    5.9907  -23.6432 O   0  0  0  0  0  0  0  0  0  0  0  0
  -11.5377    8.4624  -24.9803 C   0  0  0  0  0  0  0  0  0  0  0  0
  -11.7154    9.0160  -23.5677 C   0  0  0  0  0  0  0  0  0  0  0  0
  -10.8883   10.4162  -23.0784 S   0  0  0  0  0  0  0  0  0  0  0  0
  -10.3739   11.2011  -21.5291 C   0  0  0  0  0  0  0  0  0  0  0  0
  -11.4615   11.2644  -20.4498 C   0  0  1  0  0  0  0  0  0  0  0  0
  -11.0180   11.9145  -19.2728 O   0  0  0  0  0  0  0  0  0  0  0  0
  -12.6407   12.1046  -20.8801 C   0  0  1  0  0  0  0  0  0  0  0  0
  -13.7207   11.6418  -20.0993 O   0  0  0  0  0  0  0  0  0  0  0  0
  -12.3079   13.5102  -20.4366 C   0  0  1  0  0  0  0  0  0  0  0  0
  -13.4637   14.1312  -19.9178 O   0  0  0  0  0  0  0  0  0  0  0  0
  -11.3051   13.2994  -19.3229 C   0  0  2  0  0  0  0  0  0  0  0  0
  -10.0267    5.2625  -25.4759 O   0  0  0  0  0  0  0  0  0  0  0  0
   -8.2975   15.9444  -22.6653 N   0  0  0  0  0  0  0  0  0  0  0  0
   -9.5152   15.3532  -22.9054 C   0  0  0  0  0  0  0  0  0  0  0  0
  -10.1548   14.6835  -21.8903 N   0  0  0  0  0  0  0  0  0  0  0  0
   -9.6021   14.6024  -20.6643 C   0  0  0  0  0  0  0  0  0  0  0  0
   -8.3792   15.1902  -20.4011 C   0  0  0  0  0  0  0  0  0  0  0  0
   -7.7223   15.8672  -21.4219 C   0  0  0  0  0  0  0  0  0  0  0  0
   -6.5445   16.4427  -21.2139 N   0  0  0  0  0  0  0  0  0  0  0  0
   -8.0664   14.9555  -19.1071 N   0  0  0  0  0  0  0  0  0  0  0  0
   -9.0667   14.2412  -18.5555 C   0  0  0  0  0  0  0  0  0  0  0  0
  -10.0229   14.0031  -19.5094 N   0  0  0  0  0  0  0  0  0  0  0  0
  2  1  1  6  0  0  0
  2  3  1  0  0  0  0
  2  5  1  0  0  0  0
  3  4  1  0  0  0  0
  3 16  1  0  0  0  0
  5  6  1  0  0  0  0
  6  7  1  0  0  0  0
  7  8  1  0  0  0  0
  9  8  1  6  0  0  0
  9 10  1  0  0  0  0
  9 11  1  0  0  0  0
 10 15  1  0  0  0  0
 11 12  1  1  0  0  0
 11 13  1  0  0  0  0
 13 14  1  1  0  0  0
 13 15  1  0  0  0  0
 15 26  1  6  0  0  0
 17 18  2  0  0  0  0
 17 22  1  0  0  0  0
 18 19  1  0  0  0  0
 19 20  2  0  0  0  0
 20 21  1  0  0  0  0
 20 26  1  0  0  0  0
 21 22  2  0  0  0  0
 21 24  1  0  0  0  0
 22 23  1  0  0  0  0
 24 25  2  0  0  0  0
 25 26  1  0  0  0  0
M  END
>  <CHROM.1>
-171.20771468,-151.49535721,78.84304758,-158.64744187,-46.49439266,-178.59295950
106.78380911,-10.44383441,11.78946499,-21.89136271,-1.74963550,0.60313560
0.60657446

>  <Name>
ligand

>  <RI>
0

>  <Rbt.Current_Directory>
/home/itssahil/PROJECTS/Mol_Feturizer/New_Systems/rnas/3E5E

>  <Rbt.Executable>
rbdock ($Id: //depot/dev/client3/rdock/2013.1/src/exe/rbdock.cxx#4 $)

>  <Rbt.Library>
libRbt.so (2013.1, Build901 2013/11/27)

>  <Rbt.Parameter_File>
/export/apps/rDock/src/rDock_2013.1_src/data/scripts/dock_solv.prm

>  <Rbt.Receptor>
prm/blind_docking_60.prm

>  <SCORE>
-20.4065

>  <SCORE.INTER>
-18.4609

>  <SCORE.INTER.CONST>
1

>  <SCORE.INTER.POLAR>
0

>  <SCORE.INTER.ROT>
7

>  <SCORE.INTER.SOLV>
11.6577

>  <SCORE.INTER.VDW>
-24.4598

>  <SCORE.INTER.norm>
-0.710036

>  <SCORE.INTRA>
-1.9456

>  <SCORE.INTRA.DIHEDRAL>
-2.4352

>  <SCORE.INTRA.DIHEDRAL.0>
10.1225

>  <SCORE.INTRA.POLAR>
0

>  <SCORE.INTRA.POLAR.0>
0

>  <SCORE.INTRA.REPUL>
0

>  <SCORE.INTRA.REPUL.0>
0

>  <SCORE.INTRA.SOLV>
-0.319007

>  <SCORE.INTRA.SOLV.lig_0>
-49.9393

>  <SCORE.INTRA.VDW>
-0.568498

>  <SCORE.INTRA.VDW.0>
-1.75437

>  <SCORE.INTRA.norm>
-0.0748309

>  <SCORE.RESTR>
0

>  <SCORE.RESTR.CAVITY>
0

>  <SCORE.RESTR.norm>
0

>  <SCORE.SYSTEM>
0

>  <SCORE.SYSTEM.CONST>
0

>  <SCORE.SYSTEM.DIHEDRAL>
0

>  <SCORE.SYSTEM.SOLV>
0

>  <SCORE.SYSTEM.norm>
0

>  <SCORE.heavy>
26

>  <SCORE.norm>
-0.784867

>  <RMSD>
5.421

$$$$
ligand
 OpenBabel11021811473D
libRbt.so/2013.1/901 2013/11/27
 26 28  0  0  0  0  0  0  0  0999 V2000
  -13.5872    7.8395  -19.4667 N   0  0  0  0  0  0  0  0  0  0  0  0
  -13.2291    7.5255  -18.0779 C   0  0  2  0  0  0  0  0  0  0  0  0
  -13.2669    6.0336  -17.8759 C   0  0  0  0  0  0  0  0  0  0  0  0
  -12.6832    5.5342  -16.9426 O   0  0  0  0  0  0  0  0  0  0  0  0
  -14.2269    8.1948  -17.1312 C   0  0  0  0  0  0  0  0  0  0  0  0
  -13.8453    9.6617  -16.9414 C   0  0  0  0  0  0  0  0  0  0  0  0
  -13.5707   10.6635  -18.2850 S   0  0  0  0  0  0  0  0  0  0  0  0
  -12.3615   10.8131  -19.6253 C   0  0  0  0  0  0  0  0  0  0  0  0
  -11.8612   12.2398  -19.8819 C   0  0  1  0  0  0  0  0  0  0  0  0
  -10.8849   12.2942  -20.9060 O   0  0  0  0  0  0  0  0  0  0  0  0
  -12.9553   13.1400  -20.4054 C   0  0  1  0  0  0  0  0  0  0  0  0
  -12.5395   14.4470  -20.0751 O   0  0  0  0  0  0  0  0  0  0  0  0
  -12.9020   12.9950  -21.9084 C   0  0  1  0  0  0  0  0  0  0  0  0
  -13.0942   14.2545  -22.5147 O   0  0  0  0  0  0  0  0  0  0  0  0
  -11.4878   12.5214  -22.1661 C   0  0  2  0  0  0  0  0  0  0  0  0
  -13.9469    5.2558  -18.7342 O   0  0  0  0  0  0  0  0  0  0  0  0
  -10.0843   10.3282  -26.6864 N   0  0  0  0  0  0  0  0  0  0  0  0
  -10.0664   11.6608  -26.3488 C   0  0  0  0  0  0  0  0  0  0  0  0
  -10.4909   12.0490  -25.1010 N   0  0  0  0  0  0  0  0  0  0  0  0
  -10.9216   11.1382  -24.2065 C   0  0  0  0  0  0  0  0  0  0  0  0
  -10.9469    9.7934  -24.5249 C   0  0  0  0  0  0  0  0  0  0  0  0
  -10.5228    9.3905  -25.7857 C   0  0  0  0  0  0  0  0  0  0  0  0
  -10.5344    8.1099  -26.1346 N   0  0  0  0  0  0  0  0  0  0  0  0
  -11.4188    9.1140  -23.4557 N   0  0  0  0  0  0  0  0  0  0  0  0
  -11.6824   10.0012  -22.4766 C   0  0  0  0  0  0  0  0  0  0  0  0
  -11.3907   11.2629  -22.9281 N   0  0  0  0  0  0  0  0  0  0  0  0
  2  1  1  6  0  0  0
  2  3  1  0  0  0  0
  2  5  1  0  0  0  0
  3  4  1  0  0  0  0
  3 16  1  0  0  0  0
  5  6  1  0  0  0  0
  6  7  1  0  0  0  0
  7  8  1  0  0  0  0
  9  8  1  6  0  0  0
  9 10  1  0  0  0  0
  9 11  1  0  0  0  0
 10 15  1  0  0  0  0
 11 12  1  6  0  0  0
 11 13  1  0  0  0  0
 13 14  1  6  0  0  0
 13 15  1  0  0  0  0
 15 26  1  6  0  0  0
 17 18  2  0  0  0  0
 17 22  1  0  0  0  0
 18 19  1  0  0  0  0
 19 20  2  0  0  0  0
 20 21  1  0  0  0  0
 20 26  1  0  0  0  0
 21 22  2  0  0  0  0
 21 24  1  0  0  0  0
 22 23  1  0  0  0  0
 24 25  2  0  0  0  0
 25 26  1  0  0  0  0
M  END
>  <CHROM.1>
160.59547807,-81.06559194,51.34587505,-67.24000105,-134.06962164,177.92017790
-130.06073080,-12.20388691,10.26336778,-21.23347222,-2.65886528,1.20007046
-0.04814544

>  <Name>
ligand

>  <RI>
0

>  <Rbt.Current_Directory>
/home/itssahil/PROJECTS/Mol_Feturizer/New_Systems/rnas/3E5E

>  <Rbt.Executable>
rbdock ($Id: //depot/dev/client3/rdock/2013.1/src/exe/rbdock.cxx#4 $)

>  <Rbt.Library>
libRbt.so (2013.1, Build901 2013/11/27)

>  <Rbt.Parameter_File>
/export/apps/rDock/src/rDock_2013.1_src/data/scripts/dock_solv.prm

>  <Rbt.Receptor>
prm/pocket_docking_7.prm

>  <SCORE>
-17.3194

>  <SCORE.INTER>
-16.2915

>  <SCORE.INTER.CONST>
1

>  <SCORE.INTER.POLAR>
0

>  <SCORE.INTER.ROT>
7

>  <SCORE.INTER.SOLV>
12.3017

>  <SCORE.INTER.VDW>
-23.2283

>  <SCORE.INTER.norm>
-0.626597

>  <SCORE.INTRA>
-1.02792

>  <SCORE.INTRA.DIHEDRAL>
-3.28451

>  <SCORE.INTRA.DIHEDRAL.0>
10.1225

>  <SCORE.INTRA.POLAR>
0

>  <SCORE.INTRA.POLAR.0>
0

>  <SCORE.INTRA.REPUL>
0

>  <SCORE.INTRA.REPUL.0>
0

>  <SCORE.INTRA.SOLV>
2.20244

>  <SCORE.INTRA.SOLV.lig_0>
-49.9393

>  <SCORE.INTRA.VDW>
-0.486882

>  <SCORE.INTRA.VDW.0>
-1.75437

>  <SCORE.INTRA.norm>
-0.0395352

>  <SCORE.RESTR>
0

>  <SCORE.RESTR.CAVITY>
0

>  <SCORE.RESTR.norm>
0

>  <SCORE.SYSTEM>
0

>  <SCORE.SYSTEM.CONST>
0

>  <SCORE.SYSTEM.DIHEDRAL>
0

>  <SCORE.SYSTEM.SOLV>
0

>  <SCORE.SYSTEM.norm>
0

>  <SCORE.heavy>
26

>  <SCORE.norm>
-0.666133

>  <RMSD>
5.435

$$$$
ligand
 OpenBabel11021811473D
libRbt.so/2013.1/901 2013/11/27
 26 28  0  0  0  0  0  0  0  0999 V2000
  -11.1598    7.5981  -26.4120 N   0  0  0  0  0  0  0  0  0  0  0  0
  -10.6280    7.2325  -25.0933 C   0  0  2  0  0  0  0  0  0  0  0  0
  -10.9696    5.7961  -24.7961 C   0  0  0  0  0  0  0  0  0  0  0  0
  -10.0890    4.9966  -24.5808 O   0  0  0  0  0  0  0  0  0  0  0  0
  -11.2475    8.1364  -24.0261 C   0  0  0  0  0  0  0  0  0  0  0  0
  -10.8049    9.5797  -24.2602 C   0  0  0  0  0  0  0  0  0  0  0  0
  -11.1389   10.7830  -23.1094 S   0  0  0  0  0  0  0  0  0  0  0  0
  -10.3917   11.4395  -21.5955 C   0  0  0  0  0  0  0  0  0  0  0  0
  -11.3416   11.5214  -20.3944 C   0  0  1  0  0  0  0  0  0  0  0  0
  -10.7932   12.2648  -19.3213 O   0  0  0  0  0  0  0  0  0  0  0  0
  -12.6074   12.2777  -20.7217 C   0  0  1  0  0  0  0  0  0  0  0  0
  -13.5581   11.8165  -19.7869 O   0  0  0  0  0  0  0  0  0  0  0  0
  -12.2984   13.7224  -20.4048 C   0  0  1  0  0  0  0  0  0  0  0  0
  -13.4139   14.3216  -19.7823 O   0  0  0  0  0  0  0  0  0  0  0  0
  -11.1577   13.6291  -19.4146 C   0  0  2  0  0  0  0  0  0  0  0  0
  -12.2532    5.4012  -24.7725 O   0  0  0  0  0  0  0  0  0  0  0  0
   -8.4509   15.6871  -23.3709 N   0  0  0  0  0  0  0  0  0  0  0  0
   -9.6138   14.9561  -23.4286 C   0  0  0  0  0  0  0  0  0  0  0  0
  -10.1752   14.4837  -22.2668 N   0  0  0  0  0  0  0  0  0  0  0  0
   -9.5993   14.7311  -21.0742 C   0  0  0  0  0  0  0  0  0  0  0  0
   -8.4306   15.4646  -20.9934 C   0  0  0  0  0  0  0  0  0  0  0  0
   -7.8527   15.9441  -22.1630 C   0  0  0  0  0  0  0  0  0  0  0  0
   -6.7286   16.6492  -22.1316 N   0  0  0  0  0  0  0  0  0  0  0  0
   -8.0786   15.5581  -19.6916 N   0  0  0  0  0  0  0  0  0  0  0  0
   -9.0022   14.9065  -18.9583 C   0  0  0  0  0  0  0  0  0  0  0  0
   -9.9471   14.3774  -19.7999 N   0  0  0  0  0  0  0  0  0  0  0  0
  2  1  1  6  0  0  0
  2  3  1  0  0  0  0
  2  5  1  0  0  0  0
  3  4  1  0  0  0  0
  3 16  1  0  0  0  0
  5  6  1  0  0  0  0
  6  7  1  0  0  0  0
  7  8  1  0  0  0  0
  9  8  1  6  0  0  0
  9 10  1  0  0  0  0
  9 11  1  0  0  0  0
 10 15  1  0  0  0  0
 11 12  1  1  0  0  0
 11 13  1  0  0  0  0
 13 14  1  1  0  0  0
 13 15  1  0  0  0  0
 15 26  1  6  0  0  0
 17 18  2  0  0  0  0
 17 22  1  0  0  0  0
 18 19  1  0  0  0  0
 19 20  2  0  0  0  0
 20 21  1  0  0  0  0
 20 26  1  0  0  0  0
 21 22  2  0  0  0  0
 21 24  1  0  0  0  0
 22 23  1  0  0  0  0
 24 25  2  0  0  0  0
 25 26  1  0  0  0  0
M  END
>  <CHROM.1>
121.13250270,-64.75258247,-170.87838145,85.67532700,-128.61597887,-168.87944527
95.40160585,-10.54934055,11.88134957,-22.07087450,-1.81486433,0.70649498
0.60511017

>  <Name>
ligand

>  <RI>
0

>  <Rbt.Current_Directory>
/home/itssahil/PROJECTS/Mol_Feturizer/New_Systems/rnas/3E5E

>  <Rbt.Executable>
rbdock ($Id: //depot/dev/client3/rdock/2013.1/src/exe/rbdock.cxx#4 $)

>  <Rbt.Library>
libRbt.so (2013.1, Build901 2013/11/27)

>  <Rbt.Parameter_File>
/export/apps/rDock/src/rDock_2013.1_src/data/scripts/dock_solv.prm

>  <Rbt.Receptor>
prm/blind_docking_60.prm

>  <SCORE>
-19.9866

>  <SCORE.INTER>
-17.6338

>  <SCORE.INTER.CONST>
1

>  <SCORE.INTER.POLAR>
0

>  <SCORE.INTER.ROT>
7

>  <SCORE.INTER.SOLV>
9.13951

>  <SCORE.INTER.VDW>
-23.069

>  <SCORE.INTER.norm>
-0.678222

>  <SCORE.INTRA>
-2.35282

>  <SCORE.INTRA.DIHEDRAL>
-3.26948

>  <SCORE.INTRA.DIHEDRAL.0>
10.1225

>  <SCORE.INTRA.POLAR>
0

>  <SCORE.INTRA.POLAR.0>
0

>  <SCORE.INTRA.REPUL>
0

>  <SCORE.INTRA.REPUL.0>
0

>  <SCORE.INTRA.SOLV>
0.159199

>  <SCORE.INTRA.SOLV.lig_0>
-49.9393

>  <SCORE.INTRA.VDW>
-0.797681

>  <SCORE.INTRA.VDW.0>
-1.75437

>  <SCORE.INTRA.norm>
-0.0904931

>  <SCORE.RESTR>
0

>  <SCORE.RESTR.CAVITY>
0

>  <SCORE.RESTR.norm>
0

>  <SCORE.SYSTEM>
0

>  <SCORE.SYSTEM.CONST>
0

>  <SCORE.SYSTEM.DIHEDRAL>
0

>  <SCORE.SYSTEM.SOLV>
0

>  <SCORE.SYSTEM.norm>
0

>  <SCORE.heavy>
26

>  <SCORE.norm>
-0.768715

>  <RMSD>
5.447

$$$$
ligand
 OpenBabel11021811473D
libRbt.so/2013.1/901 2013/11/27
 26 28  0  0  0  0  0  0  0  0999 V2000
  -12.5556   12.4464  -21.3819 N   0  0  0  0  0  0  0  0  0  0  0  0
  -11.2364   12.4655  -20.7377 C   0  0  2  0  0  0  0  0  0  0  0  0
  -10.5541   11.1405  -20.9543 C   0  0  0  0  0  0  0  0  0  0  0  0
   -9.7074   11.0284  -21.8097 O   0  0  0  0  0  0  0  0  0  0  0  0
  -11.4060   12.7138  -19.2379 C   0  0  0  0  0  0  0  0  0  0  0  0
  -10.0548   13.0772  -18.6249 C   0  0  0  0  0  0  0  0  0  0  0  0
   -9.2022   14.4442  -19.1621 S   0  0  0  0  0  0  0  0  0  0  0  0
   -8.4516   15.0422  -20.6983 C   0  0  0  0  0  0  0  0  0  0  0  0
   -9.0800   14.4818  -21.9800 C   0  0  1  0  0  0  0  0  0  0  0  0
   -9.6884   15.4883  -22.7686 O   0  0  0  0  0  0  0  0  0  0  0  0
   -8.0448   13.8975  -22.9119 C   0  0  1  0  0  0  0  0  0  0  0  0
   -8.7547   12.9786  -23.7132 O   0  0  0  0  0  0  0  0  0  0  0  0
   -7.6079   15.0474  -23.7892 C   0  0  1  0  0  0  0  0  0  0  0  0
   -7.4521   14.5992  -25.1179 O   0  0  0  0  0  0  0  0  0  0  0  0
   -8.7739   16.0094  -23.7146 C   0  0  2  0  0  0  0  0  0  0  0  0
  -10.8874   10.0810  -20.1990 O   0  0  0  0  0  0  0  0  0  0  0  0
   -5.1093   19.0002  -21.5146 N   0  0  0  0  0  0  0  0  0  0  0  0
   -5.0796   17.6426  -21.7294 C   0  0  0  0  0  0  0  0  0  0  0  0
   -6.1576   17.0262  -22.3175 N   0  0  0  0  0  0  0  0  0  0  0  0
   -7.2404   17.7380  -22.6864 C   0  0  0  0  0  0  0  0  0  0  0  0
   -7.2908   19.1039  -22.4805 C   0  0  0  0  0  0  0  0  0  0  0  0
   -6.2068   19.7367  -21.8834 C   0  0  0  0  0  0  0  0  0  0  0  0
   -6.2148   21.0456  -21.6633 N   0  0  0  0  0  0  0  0  0  0  0  0
   -8.4786   19.5576  -22.9393 N   0  0  0  0  0  0  0  0  0  0  0  0
   -9.1674   18.5096  -23.4316 C   0  0  0  0  0  0  0  0  0  0  0  0
   -8.4197   17.3708  -23.2731 N   0  0  0  0  0  0  0  0  0  0  0  0
  2  1  1  6  0  0  0
  2  3  1  0  0  0  0
  2  5  1  0  0  0  0
  3  4  1  0  0  0  0
  3 16  1  0  0  0  0
  5  6  1  0  0  0  0
  6  7  1  0  0  0  0
  7  8  1  0  0  0  0
  9  8  1  1  0  0  0
  9 10  1  0  0  0  0
  9 11  1  0  0  0  0
 10 15  1  0  0  0  0
 11 12  1  6  0  0  0
 11 13  1  0  0  0  0
 13 14  1  6  0  0  0
 13 15  1  0  0  0  0
 15 26  1  1  0  0  0
 17 18  2  0  0  0  0
 17 22  1  0  0  0  0
 18 19  1  0  0  0  0
 19 20  2  0  0  0  0
 20 21  1  0  0  0  0
 20 26  1  0  0  0  0
 21 22  2  0  0  0  0
 21 24  1  0  0  0  0
 22 23  1  0  0  0  0
 24 25  2  0  0  0  0
 25 26  1  0  0  0  0
M  END
>  <CHROM.1>
100.66657594,-166.08531988,60.06311098,-61.80317662,26.27092272,116.09271163
104.71966061,-8.64634203,15.28555403,-21.82006251,-2.99097941,1.06757285
1.13697860

>  <Name>
ligand

>  <RI>
0

>  <Rbt.Current_Directory>
/home/itssahil/PROJECTS/Mol_Feturizer/New_Systems/rnas/3E5E

>  <Rbt.Executable>
rbdock ($Id: //depot/dev/client3/rdock/2013.1/src/exe/rbdock.cxx#4 $)

>  <Rbt.Library>
libRbt.so (2013.1, Build901 2013/11/27)

>  <Rbt.Parameter_File>
/export/apps/rDock/src/rDock_2013.1_src/data/scripts/dock_solv.prm

>  <Rbt.Receptor>
prm/blind_docking_40.prm

>  <SCORE>
-15.988

>  <SCORE.INTER>
-14.2859

>  <SCORE.INTER.CONST>
1

>  <SCORE.INTER.POLAR>
0

>  <SCORE.INTER.ROT>
7

>  <SCORE.INTER.SOLV>
11.6991

>  <SCORE.INTER.VDW>
-21.6903

>  <SCORE.INTER.norm>
-0.549457

>  <SCORE.INTRA>
-1.70216

>  <SCORE.INTRA.DIHEDRAL>
-0.0295413

>  <SCORE.INTRA.DIHEDRAL.0>
10.1225

>  <SCORE.INTRA.POLAR>
0

>  <SCORE.INTRA.POLAR.0>
0

>  <SCORE.INTRA.REPUL>
0

>  <SCORE.INTRA.REPUL.0>
0

>  <SCORE.INTRA.SOLV>
0.274808

>  <SCORE.INTRA.SOLV.lig_0>
-49.9393

>  <SCORE.INTRA.VDW>
-1.8248

>  <SCORE.INTRA.VDW.0>
-1.75437

>  <SCORE.INTRA.norm>
-0.0654678

>  <SCORE.RESTR>
0

>  <SCORE.RESTR.CAVITY>
0

>  <SCORE.RESTR.norm>
0

>  <SCORE.SYSTEM>
0

>  <SCORE.SYSTEM.CONST>
0

>  <SCORE.SYSTEM.DIHEDRAL>
0

>  <SCORE.SYSTEM.SOLV>
0

>  <SCORE.SYSTEM.norm>
0

>  <SCORE.heavy>
26

>  <SCORE.norm>
-0.614925

>  <RMSD>
5.452

$$$$
ligand
 OpenBabel11021811473D
libRbt.so/2013.1/901 2013/11/27
 26 28  0  0  0  0  0  0  0  0999 V2000
  -12.6739    8.6273  -23.0751 N   0  0  0  0  0  0  0  0  0  0  0  0
  -12.1508    9.9919  -22.9343 C   0  0  2  0  0  0  0  0  0  0  0  0
  -11.5420   10.1563  -21.5667 C   0  0  0  0  0  0  0  0  0  0  0  0
  -12.1751    9.8548  -20.5822 O   0  0  0  0  0  0  0  0  0  0  0  0
  -13.2921   10.9951  -23.1096 C   0  0  0  0  0  0  0  0  0  0  0  0
  -12.7146   12.3809  -23.3918 C   0  0  0  0  0  0  0  0  0  0  0  0
  -11.9183   13.2501  -22.1694 S   0  0  0  0  0  0  0  0  0  0  0  0
  -10.4222   14.2557  -21.9918 C   0  0  0  0  0  0  0  0  0  0  0  0
   -9.4014   13.7148  -20.9833 C   0  0  1  0  0  0  0  0  0  0  0  0
   -8.0874   14.1720  -21.2461 O   0  0  0  0  0  0  0  0  0  0  0  0
   -9.6642   14.2179  -19.5836 C   0  0  1  0  0  0  0  0  0  0  0  0
   -9.0580   13.2669  -18.7359 O   0  0  0  0  0  0  0  0  0  0  0  0
   -8.8866   15.5088  -19.4745 C   0  0  1  0  0  0  0  0  0  0  0  0
   -8.2795   15.5922  -18.2035 O   0  0  0  0  0  0  0  0  0  0  0  0
   -7.8174   15.3661  -20.5360 C   0  0  2  0  0  0  0  0  0  0  0  0
  -10.2957   10.6406  -21.4392 O   0  0  0  0  0  0  0  0  0  0  0  0
   -4.8424   18.9660  -22.8607 N   0  0  0  0  0  0  0  0  0  0  0  0
   -4.4874   18.0863  -21.8657 C   0  0  0  0  0  0  0  0  0  0  0  0
   -5.4242   17.2131  -21.3676 N   0  0  0  0  0  0  0  0  0  0  0  0
   -6.6840   17.2096  -21.8451 C   0  0  0  0  0  0  0  0  0  0  0  0
   -7.0619   18.0849  -22.8459 C   0  0  0  0  0  0  0  0  0  0  0  0
   -6.1227   18.9745  -23.3544 C   0  0  0  0  0  0  0  0  0  0  0  0
   -6.4438   19.8348  -24.3128 N   0  0  0  0  0  0  0  0  0  0  0  0
   -8.3655   17.8668  -23.1291 N   0  0  0  0  0  0  0  0  0  0  0  0
   -8.8081   16.8731  -22.3342 C   0  0  0  0  0  0  0  0  0  0  0  0
   -7.7818   16.4607  -21.5231 N   0  0  0  0  0  0  0  0  0  0  0  0
  2  1  1  1  0  0  0
  2  3  1  0  0  0  0
  2  5  1  0  0  0  0
  3  4  1  0  0  0  0
  3 16  1  0  0  0  0
  5  6  1  0  0  0  0
  6  7  1  0  0  0  0
  7  8  1  0  0  0  0
  9  8  1  6  0  0  0
  9 10  1  0  0  0  0
  9 11  1  0  0  0  0
 10 15  1  0  0  0  0
 11 12  1  1  0  0  0
 11 13  1  0  0  0  0
 13 14  1  1  0  0  0
 13 15  1  0  0  0  0
 15 26  1  6  0  0  0
 17 18  2  0  0  0  0
 17 22  1  0  0  0  0
 18 19  1  0  0  0  0
 19 20  2  0  0  0  0
 20 21  1  0  0  0  0
 20 26  1  0  0  0  0
 21 22  2  0  0  0  0
 21 24  1  0  0  0  0
 22 23  1  0  0  0  0
 24 25  2  0  0  0  0
 25 26  1  0  0  0  0
M  END
>  <CHROM.1>
-51.62015071,-162.77530034,-70.82285613,136.74192919,-118.92599409,156.16163303
-114.75462406,-9.21293584,14.50602064,-21.68241133,2.70581133,0.82333888
2.09812178

>  <Name>
ligand

>  <RI>
0

>  <Rbt.Current_Directory>
/home/itssahil/PROJECTS/Mol_Feturizer/New_Systems/rnas/3E5E

>  <Rbt.Executable>
rbdock ($Id: //depot/dev/client3/rdock/2013.1/src/exe/rbdock.cxx#4 $)

>  <Rbt.Library>
libRbt.so (2013.1, Build901 2013/11/27)

>  <Rbt.Parameter_File>
/export/apps/rDock/src/rDock_2013.1_src/data/scripts/dock_solv.prm

>  <Rbt.Receptor>
prm/blind_docking_80.prm

>  <SCORE>
-16.8489

>  <SCORE.INTER>
-15.367

>  <SCORE.INTER.CONST>
1

>  <SCORE.INTER.POLAR>
0

>  <SCORE.INTER.ROT>
7

>  <SCORE.INTER.SOLV>
12.7836

>  <SCORE.INTER.VDW>
-22.7725

>  <SCORE.INTER.norm>
-0.591037

>  <SCORE.INTRA>
-1.48194

>  <SCORE.INTRA.DIHEDRAL>
0.201581

>  <SCORE.INTRA.DIHEDRAL.0>
10.1225

>  <SCORE.INTRA.POLAR>
0

>  <SCORE.INTRA.POLAR.0>
0

>  <SCORE.INTRA.REPUL>
0

>  <SCORE.INTRA.REPUL.0>
0

>  <SCORE.INTRA.SOLV>
-0.505004

>  <SCORE.INTRA.SOLV.lig_0>
-49.9393

>  <SCORE.INTRA.VDW>
-1.33023

>  <SCORE.INTRA.VDW.0>
-1.75437

>  <SCORE.INTRA.norm>
-0.0569976

>  <SCORE.RESTR>
0

>  <SCORE.RESTR.CAVITY>
0

>  <SCORE.RESTR.norm>
0

>  <SCORE.SYSTEM>
0

>  <SCORE.SYSTEM.CONST>
0

>  <SCORE.SYSTEM.DIHEDRAL>
0

>  <SCORE.SYSTEM.SOLV>
0

>  <SCORE.SYSTEM.norm>
0

>  <SCORE.heavy>
26

>  <SCORE.norm>
-0.648035

>  <RMSD>
5.453

$$$$
ligand
 OpenBabel11021811473D
libRbt.so/2013.1/901 2013/11/27
 26 28  0  0  0  0  0  0  0  0999 V2000
  -12.7079   11.8420  -19.1799 N   0  0  0  0  0  0  0  0  0  0  0  0
  -12.3624   12.1984  -20.5616 C   0  0  2  0  0  0  0  0  0  0  0  0
  -10.8880   11.9834  -20.7806 C   0  0  0  0  0  0  0  0  0  0  0  0
  -10.5081   11.1242  -21.5412 O   0  0  0  0  0  0  0  0  0  0  0  0
  -12.7069   13.6680  -20.8093 C   0  0  0  0  0  0  0  0  0  0  0  0
  -12.8415   13.9145  -22.3109 C   0  0  0  0  0  0  0  0  0  0  0  0
  -11.5714   13.5221  -23.3678 S   0  0  0  0  0  0  0  0  0  0  0  0
   -9.9022   14.1172  -23.7427 C   0  0  0  0  0  0  0  0  0  0  0  0
   -9.0306   13.1303  -24.5289 C   0  0  1  0  0  0  0  0  0  0  0  0
   -7.8611   13.7367  -25.0479 O   0  0  0  0  0  0  0  0  0  0  0  0
   -8.4834   12.0305  -23.6499 C   0  0  1  0  0  0  0  0  0  0  0  0
   -8.2040   10.9656  -24.5321 O   0  0  0  0  0  0  0  0  0  0  0  0
   -7.1707   12.5615  -23.1226 C   0  0  1  0  0  0  0  0  0  0  0  0
   -6.2070   11.5310  -23.1219 O   0  0  0  0  0  0  0  0  0  0  0  0
   -6.7834   13.6139  -24.1389 C   0  0  2  0  0  0  0  0  0  0  0  0
   -9.9933   12.7443  -20.1290 O   0  0  0  0  0  0  0  0  0  0  0  0
   -3.1609   16.9818  -22.4811 N   0  0  0  0  0  0  0  0  0  0  0  0
   -2.9801   15.6955  -22.9313 C   0  0  0  0  0  0  0  0  0  0  0  0
   -4.0703   14.9533  -23.3166 N   0  0  0  0  0  0  0  0  0  0  0  0
   -5.3118   15.4734  -23.2593 C   0  0  0  0  0  0  0  0  0  0  0  0
   -5.5160   16.7648  -22.8107 C   0  0  0  0  0  0  0  0  0  0  0  0
   -4.4201   17.5230  -22.4154 C   0  0  0  0  0  0  0  0  0  0  0  0
   -4.5712   18.7657  -21.9745 N   0  0  0  0  0  0  0  0  0  0  0  0
   -6.8419   17.0242  -22.8565 N   0  0  0  0  0  0  0  0  0  0  0  0
   -7.4687   15.9289  -23.3283 C   0  0  0  0  0  0  0  0  0  0  0  0
   -6.5367   14.9529  -23.5730 N   0  0  0  0  0  0  0  0  0  0  0  0
  2  1  1  1  0  0  0
  2  3  1  0  0  0  0
  2  5  1  0  0  0  0
  3  4  1  0  0  0  0
  3 16  1  0  0  0  0
  5  6  1  0  0  0  0
  6  7  1  0  0  0  0
  7  8  1  0  0  0  0
  9  8  1  1  0  0  0
  9 10  1  0  0  0  0
  9 11  1  0  0  0  0
 10 15  1  0  0  0  0
 11 12  1  6  0  0  0
 11 13  1  0  0  0  0
 13 14  1  6  0  0  0
 13 15  1  0  0  0  0
 15 26  1  1  0  0  0
 17 18  2  0  0  0  0
 17 22  1  0  0  0  0
 18 19  1  0  0  0  0
 19 20  2  0  0  0  0
 20 21  1  0  0  0  0
 20 26  1  0  0  0  0
 21 22  2  0  0  0  0
 21 24  1  0  0  0  0
 22 23  1  0  0  0  0
 24 25  2  0  0  0  0
 25 26  1  0  0  0  0
M  END
>  <CHROM.1>
113.61823439,-159.46318803,-55.51332112,-69.49592427,163.02454407,167.00991494
-143.57506006,-8.24145594,13.99415892,-22.70801280,2.79754621,-0.40533682
-2.65853479

>  <Name>
ligand

>  <RI>
0

>  <Rbt.Current_Directory>
/home/itssahil/PROJECTS/Mol_Feturizer/New_Systems/rnas/3E5E

>  <Rbt.Executable>
rbdock ($Id: //depot/dev/client3/rdock/2013.1/src/exe/rbdock.cxx#4 $)

>  <Rbt.Library>
libRbt.so (2013.1, Build901 2013/11/27)

>  <Rbt.Parameter_File>
/export/apps/rDock/src/rDock_2013.1_src/data/scripts/dock_solv.prm

>  <Rbt.Receptor>
prm/blind_docking_80.prm

>  <SCORE>
-18.587

>  <SCORE.INTER>
-14.6251

>  <SCORE.INTER.CONST>
1

>  <SCORE.INTER.POLAR>
0

>  <SCORE.INTER.ROT>
7

>  <SCORE.INTER.SOLV>
16.1582

>  <SCORE.INTER.VDW>
-23.4028

>  <SCORE.INTER.norm>
-0.562504

>  <SCORE.INTRA>
-3.96194

>  <SCORE.INTRA.DIHEDRAL>
-4.5582

>  <SCORE.INTRA.DIHEDRAL.0>
10.1225

>  <SCORE.INTRA.POLAR>
0

>  <SCORE.INTRA.POLAR.0>
0

>  <SCORE.INTRA.REPUL>
0

>  <SCORE.INTRA.REPUL.0>
0

>  <SCORE.INTRA.SOLV>
-0.391843

>  <SCORE.INTRA.SOLV.lig_0>
-49.9393

>  <SCORE.INTRA.VDW>
-1.48692

>  <SCORE.INTRA.VDW.0>
-1.75437

>  <SCORE.INTRA.norm>
-0.152382

>  <SCORE.RESTR>
0

>  <SCORE.RESTR.CAVITY>
0

>  <SCORE.RESTR.norm>
0

>  <SCORE.SYSTEM>
0

>  <SCORE.SYSTEM.CONST>
0

>  <SCORE.SYSTEM.DIHEDRAL>
0

>  <SCORE.SYSTEM.SOLV>
0

>  <SCORE.SYSTEM.norm>
0

>  <SCORE.heavy>
26

>  <SCORE.norm>
-0.714886

>  <RMSD>
5.475

$$$$
ligand
 OpenBabel11021811473D
libRbt.so/2013.1/901 2013/11/27
 26 28  0  0  0  0  0  0  0  0999 V2000
   -9.4033    7.6063  -25.9211 N   0  0  0  0  0  0  0  0  0  0  0  0
  -10.2051    7.1844  -24.7658 C   0  0  2  0  0  0  0  0  0  0  0  0
  -10.5146    5.7150  -24.8807 C   0  0  0  0  0  0  0  0  0  0  0  0
  -10.3973    5.1531  -25.9445 O   0  0  0  0  0  0  0  0  0  0  0  0
  -11.5108    7.9807  -24.7345 C   0  0  0  0  0  0  0  0  0  0  0  0
  -11.2264    9.4091  -24.2739 C   0  0  0  0  0  0  0  0  0  0  0  0
  -11.1904    9.7922  -22.6198 S   0  0  0  0  0  0  0  0  0  0  0  0
  -10.5617   11.1208  -21.5612 C   0  0  0  0  0  0  0  0  0  0  0  0
  -11.3583   11.3437  -20.2698 C   0  0  1  0  0  0  0  0  0  0  0  0
  -10.7303   12.2678  -19.4000 O   0  0  0  0  0  0  0  0  0  0  0  0
  -12.7014   11.9822  -20.5339 C   0  0  1  0  0  0  0  0  0  0  0  0
  -13.4966   11.6279  -19.4237 O   0  0  0  0  0  0  0  0  0  0  0  0
  -12.4501   13.4710  -20.4766 C   0  0  1  0  0  0  0  0  0  0  0  0
  -13.5161   14.1077  -19.8065 O   0  0  0  0  0  0  0  0  0  0  0  0
  -11.1915   13.5834  -19.6437 C   0  0  2  0  0  0  0  0  0  0  0  0
  -10.9238    5.0276  -23.8018 O   0  0  0  0  0  0  0  0  0  0  0  0
   -6.6942   16.1217  -18.9052 N   0  0  0  0  0  0  0  0  0  0  0  0
   -7.5236   15.5723  -17.9563 C   0  0  0  0  0  0  0  0  0  0  0  0
   -8.6830   14.9485  -18.3496 N   0  0  0  0  0  0  0  0  0  0  0  0
   -9.0132   14.8686  -19.6534 C   0  0  0  0  0  0  0  0  0  0  0  0
   -8.1933   15.4134  -20.6237 C   0  0  0  0  0  0  0  0  0  0  0  0
   -7.0198   16.0496  -20.2362 C   0  0  0  0  0  0  0  0  0  0  0  0
   -6.2057   16.5899  -21.1345 N   0  0  0  0  0  0  0  0  0  0  0  0
   -8.7607   15.1919  -21.8305 N   0  0  0  0  0  0  0  0  0  0  0  0
   -9.9107   14.5172  -21.6371 C   0  0  0  0  0  0  0  0  0  0  0  0
  -10.0894   14.3176  -20.2920 N   0  0  0  0  0  0  0  0  0  0  0  0
  2  1  1  6  0  0  0
  2  3  1  0  0  0  0
  2  5  1  0  0  0  0
  3  4  1  0  0  0  0
  3 16  1  0  0  0  0
  5  6  1  0  0  0  0
  6  7  1  0  0  0  0
  7  8  1  0  0  0  0
  9  8  1  6  0  0  0
  9 10  1  0  0  0  0
  9 11  1  0  0  0  0
 10 15  1  0  0  0  0
 11 12  1  1  0  0  0
 11 13  1  0  0  0  0
 13 14  1  1  0  0  0
 13 15  1  0  0  0  0
 15 26  1  6  0  0  0
 17 18  2  0  0  0  0
 17 22  1  0  0  0  0
 18 19  1  0  0  0  0
 19 20  2  0  0  0  0
 20 21  1  0  0  0  0
 20 26  1  0  0  0  0
 21 22  2  0  0  0  0
 21 24  1  0  0  0  0
 22 23  1  0  0  0  0
 24 25  2  0  0  0  0
 25 26  1  0  0  0  0
M  END
>  <CHROM.1>
-17.52940975,-74.05115649,-86.42524908,162.12263777,150.79445349,172.30392062
-80.01435876,-10.25591034,11.74450532,-21.57284950,-1.79401897,0.39822074
0.61718696

>  <Name>
ligand

>  <RI>
0

>  <Rbt.Current_Directory>
/home/itssahil/PROJECTS/Mol_Feturizer/New_Systems/rnas/3E5E

>  <Rbt.Executable>
rbdock ($Id: //depot/dev/client3/rdock/2013.1/src/exe/rbdock.cxx#4 $)

>  <Rbt.Library>
libRbt.so (2013.1, Build901 2013/11/27)

>  <Rbt.Parameter_File>
/export/apps/rDock/src/rDock_2013.1_src/data/scripts/dock_solv.prm

>  <Rbt.Receptor>
prm/blind_docking_40.prm

>  <SCORE>
-22.115

>  <SCORE.INTER>
-20.3335

>  <SCORE.INTER.CONST>
1

>  <SCORE.INTER.POLAR>
0

>  <SCORE.INTER.ROT>
7

>  <SCORE.INTER.SOLV>
15.0476

>  <SCORE.INTER.VDW>
-26.8382

>  <SCORE.INTER.norm>
-0.782059

>  <SCORE.INTRA>
-1.78916

>  <SCORE.INTRA.DIHEDRAL>
-2.70012

>  <SCORE.INTRA.DIHEDRAL.0>
10.1225

>  <SCORE.INTRA.POLAR>
0

>  <SCORE.INTRA.POLAR.0>
0

>  <SCORE.INTRA.REPUL>
0

>  <SCORE.INTRA.REPUL.0>
0

>  <SCORE.INTRA.SOLV>
0.197159

>  <SCORE.INTRA.SOLV.lig_0>
-49.9393

>  <SCORE.INTRA.VDW>
-0.537678

>  <SCORE.INTRA.VDW.0>
-1.75437

>  <SCORE.INTRA.norm>
-0.0688138

>  <SCORE.RESTR>
0.00766288

>  <SCORE.RESTR.CAVITY>
0.00766288

>  <SCORE.RESTR.norm>
0.000294726

>  <SCORE.SYSTEM>
0

>  <SCORE.SYSTEM.CONST>
0

>  <SCORE.SYSTEM.DIHEDRAL>
0

>  <SCORE.SYSTEM.SOLV>
0

>  <SCORE.SYSTEM.norm>
0

>  <SCORE.heavy>
26

>  <SCORE.norm>
-0.850578

>  <RMSD>
5.485

$$$$
ligand
 OpenBabel11021811473D
libRbt.so/2013.1/901 2013/11/27
 26 28  0  0  0  0  0  0  0  0999 V2000
  -12.1199    8.1349  -23.9261 N   0  0  0  0  0  0  0  0  0  0  0  0
  -12.9963    9.0666  -23.2055 C   0  0  2  0  0  0  0  0  0  0  0  0
  -14.3494    9.0940  -23.8661 C   0  0  0  0  0  0  0  0  0  0  0  0
  -14.7814    8.1004  -24.4021 O   0  0  0  0  0  0  0  0  0  0  0  0
  -12.3842   10.4681  -23.2362 C   0  0  0  0  0  0  0  0  0  0  0  0
  -11.1471   10.5044  -22.3409 C   0  0  0  0  0  0  0  0  0  0  0  0
  -11.2958   10.7893  -20.6733 S   0  0  0  0  0  0  0  0  0  0  0  0
  -10.8665   12.0904  -19.4884 C   0  0  0  0  0  0  0  0  0  0  0  0
  -11.5148   13.4518  -19.7676 C   0  0  1  0  0  0  0  0  0  0  0  0
  -10.7013   14.2824  -20.5758 O   0  0  0  0  0  0  0  0  0  0  0  0
  -12.7822   13.3218  -20.5790 C   0  0  1  0  0  0  0  0  0  0  0  0
  -13.5189   14.4902  -20.2918 O   0  0  0  0  0  0  0  0  0  0  0  0
  -12.3372   13.3890  -22.0215 C   0  0  1  0  0  0  0  0  0  0  0  0
  -13.2514   14.1646  -22.7653 O   0  0  0  0  0  0  0  0  0  0  0  0
  -11.0083   14.1092  -21.9464 C   0  0  2  0  0  0  0  0  0  0  0  0
  -15.0767   10.2232  -23.8629 O   0  0  0  0  0  0  0  0  0  0  0  0
   -9.1623   11.9050  -26.2993 N   0  0  0  0  0  0  0  0  0  0  0  0
  -10.3898   12.4913  -26.1005 C   0  0  0  0  0  0  0  0  0  0  0  0
  -10.7005   13.0107  -24.8669 N   0  0  0  0  0  0  0  0  0  0  0  0
   -9.8150   12.9526  -23.8531 C   0  0  0  0  0  0  0  0  0  0  0  0
   -8.5751   12.3685  -24.0316 C   0  0  0  0  0  0  0  0  0  0  0  0
   -8.2521   11.8372  -25.2747 C   0  0  0  0  0  0  0  0  0  0  0  0
   -7.0744   11.2637  -25.4886 N   0  0  0  0  0  0  0  0  0  0  0  0
   -7.8982   12.4469  -22.8641 N   0  0  0  0  0  0  0  0  0  0  0  0
   -8.6829   13.0708  -21.9640 C   0  0  0  0  0  0  0  0  0  0  0  0
   -9.8801   13.3819  -22.5564 N   0  0  0  0  0  0  0  0  0  0  0  0
  2  1  1  6  0  0  0
  2  3  1  0  0  0  0
  2  5  1  0  0  0  0
  3  4  1  0  0  0  0
  3 16  1  0  0  0  0
  5  6  1  0  0  0  0
  6  7  1  0  0  0  0
  7  8  1  0  0  0  0
  9  8  1  6  0  0  0
  9 10  1  0  0  0  0
  9 11  1  0  0  0  0
 10 15  1  0  0  0  0
 11 12  1  1  0  0  0
 11 13  1  0  0  0  0
 13 14  1  6  0  0  0
 13 15  1  0  0  0  0
 15 26  1  1  0  0  0
 17 18  2  0  0  0  0
 17 22  1  0  0  0  0
 18 19  1  0  0  0  0
 19 20  2  0  0  0  0
 20 21  1  0  0  0  0
 20 26  1  0  0  0  0
 21 22  2  0  0  0  0
 21 24  1  0  0  0  0
 22 23  1  0  0  0  0
 24 25  2  0  0  0  0
 25 26  1  0  0  0  0
M  END
>  <CHROM.1>
31.98269073,-70.83056963,-84.98355841,-111.86997881,60.12509488,-91.66854394
176.29074673,-11.26673305,11.88113478,-22.78801178,-2.72589562,0.48723644
0.85195539

>  <Name>
ligand

>  <RI>
0

>  <Rbt.Current_Directory>
/home/itssahil/PROJECTS/Mol_Feturizer/New_Systems/rnas/3E5E

>  <Rbt.Executable>
rbdock ($Id: //depot/dev/client3/rdock/2013.1/src/exe/rbdock.cxx#4 $)

>  <Rbt.Library>
libRbt.so (2013.1, Build901 2013/11/27)

>  <Rbt.Parameter_File>
/export/apps/rDock/src/rDock_2013.1_src/data/scripts/dock_solv.prm

>  <Rbt.Receptor>
prm/pocket_docking_6.prm

>  <SCORE>
-16.6683

>  <SCORE.INTER>
-16.0834

>  <SCORE.INTER.CONST>
1

>  <SCORE.INTER.POLAR>
0

>  <SCORE.INTER.ROT>
7

>  <SCORE.INTER.SOLV>
12.395

>  <SCORE.INTER.VDW>
-23.1206

>  <SCORE.INTER.norm>
-0.618594

>  <SCORE.INTRA>
-0.584882

>  <SCORE.INTRA.DIHEDRAL>
0.124742

>  <SCORE.INTRA.DIHEDRAL.0>
10.1225

>  <SCORE.INTRA.POLAR>
0

>  <SCORE.INTRA.POLAR.0>
0

>  <SCORE.INTRA.REPUL>
0

>  <SCORE.INTRA.REPUL.0>
0

>  <SCORE.INTRA.SOLV>
0.962522

>  <SCORE.INTRA.SOLV.lig_0>
-49.9393

>  <SCORE.INTRA.VDW>
-1.12851

>  <SCORE.INTRA.VDW.0>
-1.75437

>  <SCORE.INTRA.norm>
-0.0224955

>  <SCORE.RESTR>
0

>  <SCORE.RESTR.CAVITY>
0

>  <SCORE.RESTR.norm>
0

>  <SCORE.SYSTEM>
0

>  <SCORE.SYSTEM.CONST>
0

>  <SCORE.SYSTEM.DIHEDRAL>
0

>  <SCORE.SYSTEM.SOLV>
0

>  <SCORE.SYSTEM.norm>
0

>  <SCORE.heavy>
26

>  <SCORE.norm>
-0.641089

>  <RMSD>
5.491

$$$$
ligand
 OpenBabel11021811473D
libRbt.so/2013.1/901 2013/11/27
 26 28  0  0  0  0  0  0  0  0999 V2000
  -11.9014    7.7878  -26.9682 N   0  0  0  0  0  0  0  0  0  0  0  0
  -11.4325    6.9018  -25.8956 C   0  0  2  0  0  0  0  0  0  0  0  0
  -12.5366    5.9521  -25.5118 C   0  0  0  0  0  0  0  0  0  0  0  0
  -12.2771    4.9282  -24.9241 O   0  0  0  0  0  0  0  0  0  0  0  0
  -11.0344    7.7407  -24.6800 C   0  0  0  0  0  0  0  0  0  0  0  0
  -12.2186    8.6018  -24.2443 C   0  0  0  0  0  0  0  0  0  0  0  0
  -12.1370    9.5269  -22.8225 S   0  0  0  0  0  0  0  0  0  0  0  0
  -11.1259   10.8706  -22.1493 C   0  0  0  0  0  0  0  0  0  0  0  0
  -11.4345   11.2381  -20.6928 C   0  0  1  0  0  0  0  0  0  0  0  0
  -10.5882   12.2621  -20.2028 O   0  0  0  0  0  0  0  0  0  0  0  0
  -12.8144   11.8322  -20.5370 C   0  0  1  0  0  0  0  0  0  0  0  0
  -13.1573   11.6053  -19.1874 O   0  0  0  0  0  0  0  0  0  0  0  0
  -12.6296   13.3191  -20.7319 C   0  0  1  0  0  0  0  0  0  0  0  0
  -13.4257   14.0228  -19.8037 O   0  0  0  0  0  0  0  0  0  0  0  0
  -11.1670   13.5369  -20.4097 C   0  0  2  0  0  0  0  0  0  0  0  0
  -13.8106    6.2405  -25.8244 O   0  0  0  0  0  0  0  0  0  0  0  0
   -7.1872   16.7308  -21.4930 N   0  0  0  0  0  0  0  0  0  0  0  0
   -7.6684   16.3642  -20.2585 C   0  0  0  0  0  0  0  0  0  0  0  0
   -8.7446   15.5138  -20.1763 N   0  0  0  0  0  0  0  0  0  0  0  0
   -9.3303   15.0356  -21.2914 C   0  0  0  0  0  0  0  0  0  0  0  0
   -8.8619   15.3906  -22.5425 C   0  0  0  0  0  0  0  0  0  0  0  0
   -7.7759   16.2529  -22.6366 C   0  0  0  0  0  0  0  0  0  0  0  0
   -7.2964   16.6230  -23.8177 N   0  0  0  0  0  0  0  0  0  0  0  0
   -9.6263   14.7741  -23.4714 N   0  0  0  0  0  0  0  0  0  0  0  0
  -10.5556   14.0386  -22.8305 C   0  0  0  0  0  0  0  0  0  0  0  0
  -10.3945   14.1974  -21.4778 N   0  0  0  0  0  0  0  0  0  0  0  0
  2  1  1  6  0  0  0
  2  3  1  0  0  0  0
  2  5  1  0  0  0  0
  3  4  1  0  0  0  0
  3 16  1  0  0  0  0
  5  6  1  0  0  0  0
  6  7  1  0  0  0  0
  7  8  1  0  0  0  0
  9  8  1  6  0  0  0
  9 10  1  0  0  0  0
  9 11  1  0  0  0  0
 10 15  1  0  0  0  0
 11 12  1  1  0  0  0
 11 13  1  0  0  0  0
 13 14  1  1  0  0  0
 13 15  1  0  0  0  0
 15 26  1  6  0  0  0
 17 18  2  0  0  0  0
 17 22  1  0  0  0  0
 18 19  1  0  0  0  0
 19 20  2  0  0  0  0
 20 21  1  0  0  0  0
 20 26  1  0  0  0  0
 21 22  2  0  0  0  0
 21 24  1  0  0  0  0
 22 23  1  0  0  0  0
 24 25  2  0  0  0  0
 25 26  1  0  0  0  0
M  END
>  <CHROM.1>
160.27524448,56.50079071,173.71989097,60.30320440,-174.06581617,178.06403232
-93.08097778,-10.95446434,11.74559015,-22.49724773,-2.06202341,0.77323805
0.76139170

>  <Name>
ligand

>  <RI>
0

>  <Rbt.Current_Directory>
/home/itssahil/PROJECTS/Mol_Feturizer/New_Systems/rnas/3E5E

>  <Rbt.Executable>
rbdock ($Id: //depot/dev/client3/rdock/2013.1/src/exe/rbdock.cxx#4 $)

>  <Rbt.Library>
libRbt.so (2013.1, Build901 2013/11/27)

>  <Rbt.Parameter_File>
/export/apps/rDock/src/rDock_2013.1_src/data/scripts/dock_solv.prm

>  <Rbt.Receptor>
prm/blind_docking_100.prm

>  <SCORE>
-17.6899

>  <SCORE.INTER>
-14.3162

>  <SCORE.INTER.CONST>
1

>  <SCORE.INTER.POLAR>
0

>  <SCORE.INTER.ROT>
7

>  <SCORE.INTER.SOLV>
7.63583

>  <SCORE.INTER.VDW>
-20.3561

>  <SCORE.INTER.norm>
-0.550624

>  <SCORE.INTRA>
-3.37368

>  <SCORE.INTRA.DIHEDRAL>
-7.27507

>  <SCORE.INTRA.DIHEDRAL.0>
10.1225

>  <SCORE.INTRA.POLAR>
0

>  <SCORE.INTRA.POLAR.0>
0

>  <SCORE.INTRA.REPUL>
0

>  <SCORE.INTRA.REPUL.0>
0

>  <SCORE.INTRA.SOLV>
0.219036

>  <SCORE.INTRA.SOLV.lig_0>
-49.9393

>  <SCORE.INTRA.VDW>
0.154334

>  <SCORE.INTRA.VDW.0>
-1.75437

>  <SCORE.INTRA.norm>
-0.129757

>  <SCORE.RESTR>
0

>  <SCORE.RESTR.CAVITY>
0

>  <SCORE.RESTR.norm>
0

>  <SCORE.SYSTEM>
0

>  <SCORE.SYSTEM.CONST>
0

>  <SCORE.SYSTEM.DIHEDRAL>
0

>  <SCORE.SYSTEM.SOLV>
0

>  <SCORE.SYSTEM.norm>
0

>  <SCORE.heavy>
26

>  <SCORE.norm>
-0.680381

>  <RMSD>
5.493

$$$$
ligand
 OpenBabel11021811473D
libRbt.so/2013.1/901 2013/11/27
 26 28  0  0  0  0  0  0  0  0999 V2000
  -12.8912   12.0574  -22.3901 N   0  0  0  0  0  0  0  0  0  0  0  0
  -11.7427   11.5100  -23.1228 C   0  0  2  0  0  0  0  0  0  0  0  0
  -11.6164   10.0383  -22.8291 C   0  0  0  0  0  0  0  0  0  0  0  0
  -12.0238    9.5931  -21.7818 O   0  0  0  0  0  0  0  0  0  0  0  0
  -10.4674   12.2304  -22.6818 C   0  0  0  0  0  0  0  0  0  0  0  0
   -9.2663   11.6370  -23.4157 C   0  0  0  0  0  0  0  0  0  0  0  0
   -7.8026   12.4930  -23.5102 S   0  0  0  0  0  0  0  0  0  0  0  0
   -7.2253   14.1081  -24.0928 C   0  0  0  0  0  0  0  0  0  0  0  0
   -8.3078   14.9819  -24.7381 C   0  0  1  0  0  0  0  0  0  0  0  0
   -9.2039   15.5241  -23.7853 O   0  0  0  0  0  0  0  0  0  0  0  0
   -7.7275   16.2102  -25.3984 C   0  0  1  0  0  0  0  0  0  0  0  0
   -8.6824   16.5880  -26.3658 O   0  0  0  0  0  0  0  0  0  0  0  0
   -7.7072   17.2675  -24.3192 C   0  0  1  0  0  0  0  0  0  0  0  0
   -8.0943   18.5102  -24.8639 O   0  0  0  0  0  0  0  0  0  0  0  0
   -8.7622   16.7938  -23.3430 C   0  0  2  0  0  0  0  0  0  0  0  0
  -11.0486    9.2192  -23.7294 O   0  0  0  0  0  0  0  0  0  0  0  0
   -9.3488   14.1614  -18.8776 N   0  0  0  0  0  0  0  0  0  0  0  0
  -10.0833   14.0441  -20.0338 C   0  0  0  0  0  0  0  0  0  0  0  0
   -9.7822   14.8420  -21.1112 N   0  0  0  0  0  0  0  0  0  0  0  0
   -8.7753   15.7348  -21.0461 C   0  0  0  0  0  0  0  0  0  0  0  0
   -8.0237   15.8683  -19.8938 C   0  0  0  0  0  0  0  0  0  0  0  0
   -8.3222   15.0683  -18.7971 C   0  0  0  0  0  0  0  0  0  0  0  0
   -7.6288   15.1664  -17.6696 N   0  0  0  0  0  0  0  0  0  0  0  0
   -7.0926   16.8254  -20.1042 N   0  0  0  0  0  0  0  0  0  0  0  0
   -7.2410   17.2876  -21.3610 C   0  0  0  0  0  0  0  0  0  0  0  0
   -8.2872   16.6306  -21.9567 N   0  0  0  0  0  0  0  0  0  0  0  0
  2  1  1  1  0  0  0
  2  3  1  0  0  0  0
  2  5  1  0  0  0  0
  3  4  1  0  0  0  0
  3 16  1  0  0  0  0
  5  6  1  0  0  0  0
  6  7  1  0  0  0  0
  7  8  1  0  0  0  0
  9  8  1  1  0  0  0
  9 10  1  0  0  0  0
  9 11  1  0  0  0  0
 10 15  1  0  0  0  0
 11 12  1  6  0  0  0
 11 13  1  0  0  0  0
 13 14  1  6  0  0  0
 13 15  1  0  0  0  0
 15 26  1  1  0  0  0
 17 18  2  0  0  0  0
 17 22  1  0  0  0  0
 18 19  1  0  0  0  0
 19 20  2  0  0  0  0
 20 21  1  0  0  0  0
 20 26  1  0  0  0  0
 21 22  2  0  0  0  0
 21 24  1  0  0  0  0
 22 23  1  0  0  0  0
 24 25  2  0  0  0  0
 25 26  1  0  0  0  0
M  END
>  <CHROM.1>
-27.32655632,178.50248990,161.58437248,-56.48836143,-2.68707646,73.64477540
-31.25946996,-9.08331136,14.27278160,-22.48676046,-3.11146526,-1.08045170
-1.55734430

>  <Name>
ligand

>  <RI>
0

>  <Rbt.Current_Directory>
/home/itssahil/PROJECTS/Mol_Feturizer/New_Systems/rnas/3E5E

>  <Rbt.Executable>
rbdock ($Id: //depot/dev/client3/rdock/2013.1/src/exe/rbdock.cxx#4 $)

>  <Rbt.Library>
libRbt.so (2013.1, Build901 2013/11/27)

>  <Rbt.Parameter_File>
/export/apps/rDock/src/rDock_2013.1_src/data/scripts/dock_solv.prm

>  <Rbt.Receptor>
prm/blind_docking_40.prm

>  <SCORE>
-12.722

>  <SCORE.INTER>
-9.727

>  <SCORE.INTER.CONST>
1

>  <SCORE.INTER.POLAR>
0

>  <SCORE.INTER.ROT>
7

>  <SCORE.INTER.SOLV>
18.5667

>  <SCORE.INTER.VDW>
-20.9402

>  <SCORE.INTER.norm>
-0.374116

>  <SCORE.INTRA>
-2.99499

>  <SCORE.INTRA.DIHEDRAL>
-3.07041

>  <SCORE.INTRA.DIHEDRAL.0>
10.1225

>  <SCORE.INTRA.POLAR>
0

>  <SCORE.INTRA.POLAR.0>
0

>  <SCORE.INTRA.REPUL>
0

>  <SCORE.INTRA.REPUL.0>
0

>  <SCORE.INTRA.SOLV>
-0.495097

>  <SCORE.INTRA.SOLV.lig_0>
-49.9393

>  <SCORE.INTRA.VDW>
-1.21224

>  <SCORE.INTRA.VDW.0>
-1.75437

>  <SCORE.INTRA.norm>
-0.115192

>  <SCORE.RESTR>
0

>  <SCORE.RESTR.CAVITY>
0

>  <SCORE.RESTR.norm>
0

>  <SCORE.SYSTEM>
0

>  <SCORE.SYSTEM.CONST>
0

>  <SCORE.SYSTEM.DIHEDRAL>
0

>  <SCORE.SYSTEM.SOLV>
0

>  <SCORE.SYSTEM.norm>
0

>  <SCORE.heavy>
26

>  <SCORE.norm>
-0.489308

>  <RMSD>
5.501

$$$$
ligand
 OpenBabel11021811473D
libRbt.so/2013.1/901 2013/11/27
 26 28  0  0  0  0  0  0  0  0999 V2000
  -14.2365   10.2046  -22.6179 N   0  0  0  0  0  0  0  0  0  0  0  0
  -12.8859   10.7120  -22.3459 C   0  0  2  0  0  0  0  0  0  0  0  0
  -11.8695    9.6899  -22.7824 C   0  0  0  0  0  0  0  0  0  0  0  0
  -10.7149    9.8013  -22.4427 O   0  0  0  0  0  0  0  0  0  0  0  0
  -12.7338   10.9761  -20.8470 C   0  0  0  0  0  0  0  0  0  0  0  0
  -13.1980   12.3964  -20.5293 C   0  0  0  0  0  0  0  0  0  0  0  0
  -12.3368   13.7378  -21.1149 S   0  0  0  0  0  0  0  0  0  0  0  0
  -10.6110   14.2035  -21.4081 C   0  0  0  0  0  0  0  0  0  0  0  0
   -9.6132   13.6450  -20.3863 C   0  0  1  0  0  0  0  0  0  0  0  0
   -8.2689   13.9123  -20.7417 O   0  0  0  0  0  0  0  0  0  0  0  0
   -9.7485   14.3110  -19.0374 C   0  0  1  0  0  0  0  0  0  0  0  0
   -9.2174   13.3816  -18.1185 O   0  0  0  0  0  0  0  0  0  0  0  0
   -8.8215   15.5031  -19.0899 C   0  0  1  0  0  0  0  0  0  0  0  0
   -8.1489   15.6369  -17.8568 O   0  0  0  0  0  0  0  0  0  0  0  0
   -7.8281   15.1289  -20.1686 C   0  0  2  0  0  0  0  0  0  0  0  0
  -12.2445    8.6549  -23.5519 O   0  0  0  0  0  0  0  0  0  0  0  0
   -8.4998   15.9742  -25.2723 N   0  0  0  0  0  0  0  0  0  0  0  0
   -8.6904   14.8053  -24.5740 C   0  0  0  0  0  0  0  0  0  0  0  0
   -8.4462   14.7765  -23.2222 N   0  0  0  0  0  0  0  0  0  0  0  0
   -8.0245   15.8807  -22.5755 C   0  0  0  0  0  0  0  0  0  0  0  0
   -7.8273   17.0664  -23.2580 C   0  0  0  0  0  0  0  0  0  0  0  0
   -8.0683   17.1053  -24.6264 C   0  0  0  0  0  0  0  0  0  0  0  0
   -7.8880   18.2216  -25.3214 N   0  0  0  0  0  0  0  0  0  0  0  0
   -7.4077   17.9990  -22.3741 N   0  0  0  0  0  0  0  0  0  0  0  0
   -7.3442   17.4259  -21.1564 C   0  0  0  0  0  0  0  0  0  0  0  0
   -7.7125   16.1091  -21.2639 N   0  0  0  0  0  0  0  0  0  0  0  0
  2  1  1  1  0  0  0
  2  3  1  0  0  0  0
  2  5  1  0  0  0  0
  3  4  1  0  0  0  0
  3 16  1  0  0  0  0
  5  6  1  0  0  0  0
  6  7  1  0  0  0  0
  7  8  1  0  0  0  0
  9  8  1  6  0  0  0
  9 10  1  0  0  0  0
  9 11  1  0  0  0  0
 10 15  1  0  0  0  0
 11 12  1  1  0  0  0
 11 13  1  0  0  0  0
 13 14  1  1  0  0  0
 13 15  1  0  0  0  0
 15 26  1  6  0  0  0
 17 18  2  0  0  0  0
 17 22  1  0  0  0  0
 18 19  1  0  0  0  0
 19 20  2  0  0  0  0
 20 21  1  0  0  0  0
 20 26  1  0  0  0  0
 21 22  2  0  0  0  0
 21 24  1  0  0  0  0
 22 23  1  0  0  0  0
 24 25  2  0  0  0  0
 25 26  1  0  0  0  0
M  END
>  <CHROM.1>
-167.22854889,-88.00936977,-66.70057891,-36.90398905,-35.12473667,173.43478152
2.15866742,-9.86752422,14.02249766,-21.70669511,3.04211835,0.91741066,1.62576385

>  <Name>
ligand

>  <RI>
0

>  <Rbt.Current_Directory>
/home/itssahil/PROJECTS/Mol_Feturizer/New_Systems/rnas/3E5E

>  <Rbt.Executable>
rbdock ($Id: //depot/dev/client3/rdock/2013.1/src/exe/rbdock.cxx#4 $)

>  <Rbt.Library>
libRbt.so (2013.1, Build901 2013/11/27)

>  <Rbt.Parameter_File>
/export/apps/rDock/src/rDock_2013.1_src/data/scripts/dock_solv.prm

>  <Rbt.Receptor>
prm/blind_docking_80.prm

>  <SCORE>
-15.455

>  <SCORE.INTER>
-13.7087

>  <SCORE.INTER.CONST>
1

>  <SCORE.INTER.POLAR>
0

>  <SCORE.INTER.ROT>
7

>  <SCORE.INTER.SOLV>
13.3443

>  <SCORE.INTER.VDW>
-21.8539

>  <SCORE.INTER.norm>
-0.527259

>  <SCORE.INTRA>
-1.7463

>  <SCORE.INTRA.DIHEDRAL>
-2.83767

>  <SCORE.INTRA.DIHEDRAL.0>
10.1225

>  <SCORE.INTRA.POLAR>
0

>  <SCORE.INTRA.POLAR.0>
0

>  <SCORE.INTRA.REPUL>
0

>  <SCORE.INTRA.REPUL.0>
0

>  <SCORE.INTRA.SOLV>
0.285171

>  <SCORE.INTRA.SOLV.lig_0>
-49.9393

>  <SCORE.INTRA.VDW>
-0.470052

>  <SCORE.INTRA.VDW.0>
-1.75437

>  <SCORE.INTRA.norm>
-0.0671655

>  <SCORE.RESTR>
0

>  <SCORE.RESTR.CAVITY>
0

>  <SCORE.RESTR.norm>
0

>  <SCORE.SYSTEM>
0

>  <SCORE.SYSTEM.CONST>
0

>  <SCORE.SYSTEM.DIHEDRAL>
0

>  <SCORE.SYSTEM.SOLV>
0

>  <SCORE.SYSTEM.norm>
0

>  <SCORE.heavy>
26

>  <SCORE.norm>
-0.594425

>  <RMSD>
5.519

$$$$
ligand
 OpenBabel11021811473D
libRbt.so/2013.1/901 2013/11/27
 26 28  0  0  0  0  0  0  0  0999 V2000
  -13.2293    9.3295  -23.0354 N   0  0  0  0  0  0  0  0  0  0  0  0
  -13.3033   10.7131  -22.5499 C   0  0  2  0  0  0  0  0  0  0  0  0
  -12.4066   11.5864  -23.3873 C   0  0  0  0  0  0  0  0  0  0  0  0
  -11.2543   11.2708  -23.5710 O   0  0  0  0  0  0  0  0  0  0  0  0
  -12.8491   10.7653  -21.0902 C   0  0  0  0  0  0  0  0  0  0  0  0
  -13.2178   12.1204  -20.4891 C   0  0  0  0  0  0  0  0  0  0  0  0
  -12.4715   13.5422  -21.0419 S   0  0  0  0  0  0  0  0  0  0  0  0
  -10.8028   14.1092  -21.4603 C   0  0  0  0  0  0  0  0  0  0  0  0
   -9.6952   13.5756  -20.5437 C   0  0  1  0  0  0  0  0  0  0  0  0
   -8.4027   13.9536  -20.9812 O   0  0  0  0  0  0  0  0  0  0  0  0
   -9.7722   14.1669  -19.1559 C   0  0  1  0  0  0  0  0  0  0  0  0
   -9.1118   13.2356  -18.3271 O   0  0  0  0  0  0  0  0  0  0  0  0
   -8.9340   15.4227  -19.2137 C   0  0  1  0  0  0  0  0  0  0  0  0
   -8.1803   15.5462  -18.0273 O   0  0  0  0  0  0  0  0  0  0  0  0
   -8.0023   15.1704  -20.3794 C   0  0  2  0  0  0  0  0  0  0  0  0
  -12.8854   12.7185  -23.9288 O   0  0  0  0  0  0  0  0  0  0  0  0
   -5.2827   18.8617  -22.8675 N   0  0  0  0  0  0  0  0  0  0  0  0
   -4.8770   18.0720  -21.8178 C   0  0  0  0  0  0  0  0  0  0  0  0
   -5.7499   17.1555  -21.2830 N   0  0  0  0  0  0  0  0  0  0  0  0
   -6.9961   17.0223  -21.7775 C   0  0  0  0  0  0  0  0  0  0  0  0
   -7.4240   17.8055  -22.8330 C   0  0  0  0  0  0  0  0  0  0  0  0
   -6.5499   18.7380  -23.3791 C   0  0  0  0  0  0  0  0  0  0  0  0
   -6.9209   19.5133  -24.3905 N   0  0  0  0  0  0  0  0  0  0  0  0
   -8.7004   17.4663  -23.1216 N   0  0  0  0  0  0  0  0  0  0  0  0
   -9.0766   16.4869  -22.2764 C   0  0  0  0  0  0  0  0  0  0  0  0
   -8.0361   16.2062  -21.4281 N   0  0  0  0  0  0  0  0  0  0  0  0
  2  1  1  6  0  0  0
  2  3  1  0  0  0  0
  2  5  1  0  0  0  0
  3  4  1  0  0  0  0
  3 16  1  0  0  0  0
  5  6  1  0  0  0  0
  6  7  1  0  0  0  0
  7  8  1  0  0  0  0
  9  8  1  6  0  0  0
  9 10  1  0  0  0  0
  9 11  1  0  0  0  0
 10 15  1  0  0  0  0
 11 12  1  1  0  0  0
 11 13  1  0  0  0  0
 13 14  1  1  0  0  0
 13 15  1  0  0  0  0
 15 26  1  6  0  0  0
 17 18  2  0  0  0  0
 17 22  1  0  0  0  0
 18 19  1  0  0  0  0
 19 20  2  0  0  0  0
 20 21  1  0  0  0  0
 20 26  1  0  0  0  0
 21 22  2  0  0  0  0
 21 24  1  0  0  0  0
 22 23  1  0  0  0  0
 24 25  2  0  0  0  0
 25 26  1  0  0  0  0
M  END
>  <CHROM.1>
-51.25399301,-167.30785674,-66.66086394,-44.31629018,-38.12813511,174.89359240
-125.21367461,-9.59436876,14.64631238,-21.56948972,2.88610266,0.77940639
1.89765176

>  <Name>
ligand

>  <RI>
0

>  <Rbt.Current_Directory>
/home/itssahil/PROJECTS/Mol_Feturizer/New_Systems/rnas/3E5E

>  <Rbt.Executable>
rbdock ($Id: //depot/dev/client3/rdock/2013.1/src/exe/rbdock.cxx#4 $)

>  <Rbt.Library>
libRbt.so (2013.1, Build901 2013/11/27)

>  <Rbt.Parameter_File>
/export/apps/rDock/src/rDock_2013.1_src/data/scripts/dock_solv.prm

>  <Rbt.Receptor>
prm/blind_docking_80.prm

>  <SCORE>
-22.0825

>  <SCORE.INTER>
-18.0759

>  <SCORE.INTER.CONST>
1

>  <SCORE.INTER.POLAR>
0

>  <SCORE.INTER.ROT>
7

>  <SCORE.INTER.SOLV>
11.2213

>  <SCORE.INTER.VDW>
-24.0577

>  <SCORE.INTER.norm>
-0.695227

>  <SCORE.INTRA>
-4.00659

>  <SCORE.INTRA.DIHEDRAL>
-5.4313

>  <SCORE.INTRA.DIHEDRAL.0>
10.1225

>  <SCORE.INTRA.POLAR>
0

>  <SCORE.INTRA.POLAR.0>
0

>  <SCORE.INTRA.REPUL>
0

>  <SCORE.INTRA.REPUL.0>
0

>  <SCORE.INTRA.SOLV>
-0.431572

>  <SCORE.INTRA.SOLV.lig_0>
-49.9393

>  <SCORE.INTRA.VDW>
-1.07515

>  <SCORE.INTRA.VDW.0>
-1.75437

>  <SCORE.INTRA.norm>
-0.1541

>  <SCORE.RESTR>
0

>  <SCORE.RESTR.CAVITY>
0

>  <SCORE.RESTR.norm>
0

>  <SCORE.SYSTEM>
0

>  <SCORE.SYSTEM.CONST>
0

>  <SCORE.SYSTEM.DIHEDRAL>
0

>  <SCORE.SYSTEM.SOLV>
0

>  <SCORE.SYSTEM.norm>
0

>  <SCORE.heavy>
26

>  <SCORE.norm>
-0.849327

>  <RMSD>
5.526

$$$$
ligand
 OpenBabel11021811473D
libRbt.so/2013.1/901 2013/11/27
 26 28  0  0  0  0  0  0  0  0999 V2000
  -13.2828   11.6655  -19.2241 N   0  0  0  0  0  0  0  0  0  0  0  0
  -12.7237   12.1441  -20.4945 C   0  0  2  0  0  0  0  0  0  0  0  0
  -11.2557   11.8129  -20.5521 C   0  0  0  0  0  0  0  0  0  0  0  0
  -10.8393   11.0533  -21.3952 O   0  0  0  0  0  0  0  0  0  0  0  0
  -12.9100   13.6591  -20.5940 C   0  0  0  0  0  0  0  0  0  0  0  0
  -12.9302   14.0754  -22.0636 C   0  0  0  0  0  0  0  0  0  0  0  0
  -11.6168   13.7203  -23.0800 S   0  0  0  0  0  0  0  0  0  0  0  0
   -9.8236   13.5093  -22.9349 C   0  0  0  0  0  0  0  0  0  0  0  0
   -9.2085   12.5337  -23.9456 C   0  0  1  0  0  0  0  0  0  0  0  0
   -9.1036   13.0931  -25.2421 O   0  0  0  0  0  0  0  0  0  0  0  0
   -7.7774   12.1905  -23.6053 C   0  0  1  0  0  0  0  0  0  0  0  0
   -7.5436   10.9473  -24.2300 O   0  0  0  0  0  0  0  0  0  0  0  0
   -6.9420   13.2348  -24.3085 C   0  0  1  0  0  0  0  0  0  0  0  0
   -5.7940   12.6307  -24.8633 O   0  0  0  0  0  0  0  0  0  0  0  0
   -7.8464   13.7175  -25.4218 C   0  0  2  0  0  0  0  0  0  0  0  0
  -10.4078   12.3589  -19.6650 O   0  0  0  0  0  0  0  0  0  0  0  0
   -8.0661   18.0646  -22.5464 N   0  0  0  0  0  0  0  0  0  0  0  0
   -7.8471   16.7760  -22.1201 C   0  0  0  0  0  0  0  0  0  0  0  0
   -7.8375   15.7519  -23.0362 N   0  0  0  0  0  0  0  0  0  0  0  0
   -8.0384   15.9982  -24.3454 C   0  0  0  0  0  0  0  0  0  0  0  0
   -8.2595   17.2862  -24.7956 C   0  0  0  0  0  0  0  0  0  0  0  0
   -8.2744   18.3289  -23.8766 C   0  0  0  0  0  0  0  0  0  0  0  0
   -8.4870   19.5801  -24.2650 N   0  0  0  0  0  0  0  0  0  0  0  0
   -8.4286   17.2430  -26.1361 N   0  0  0  0  0  0  0  0  0  0  0  0
   -8.3123   15.9609  -26.5336 C   0  0  0  0  0  0  0  0  0  0  0  0
   -8.0813   15.1730  -25.4350 N   0  0  0  0  0  0  0  0  0  0  0  0
  2  1  1  1  0  0  0
  2  3  1  0  0  0  0
  2  5  1  0  0  0  0
  3  4  1  0  0  0  0
  3 16  1  0  0  0  0
  5  6  1  0  0  0  0
  6  7  1  0  0  0  0
  7  8  1  0  0  0  0
  9  8  1  1  0  0  0
  9 10  1  0  0  0  0
  9 11  1  0  0  0  0
 10 15  1  0  0  0  0
 11 12  1  6  0  0  0
 11 13  1  0  0  0  0
 13 14  1  6  0  0  0
 13 15  1  0  0  0  0
 15 26  1  1  0  0  0
 17 18  2  0  0  0  0
 17 22  1  0  0  0  0
 18 19  1  0  0  0  0
 19 20  2  0  0  0  0
 20 21  1  0  0  0  0
 20 26  1  0  0  0  0
 21 22  2  0  0  0  0
 21 24  1  0  0  0  0
 22 23  1  0  0  0  0
 24 25  2  0  0  0  0
 25 26  1  0  0  0  0
M  END
>  <CHROM.1>
116.43271010,-154.93327284,-57.81494115,-30.12526048,149.97916017,75.81012054
91.52756909,-9.41639417,14.20298092,-23.22639345,2.43182683,-0.71491708,3.05172684

>  <Name>
ligand

>  <RI>
0

>  <Rbt.Current_Directory>
/home/itssahil/PROJECTS/Mol_Feturizer/New_Systems/rnas/3E5E

>  <Rbt.Executable>
rbdock ($Id: //depot/dev/client3/rdock/2013.1/src/exe/rbdock.cxx#4 $)

>  <Rbt.Library>
libRbt.so (2013.1, Build901 2013/11/27)

>  <Rbt.Parameter_File>
/export/apps/rDock/src/rDock_2013.1_src/data/scripts/dock_solv.prm

>  <Rbt.Receptor>
prm/blind_docking_40.prm

>  <SCORE>
-15.2643

>  <SCORE.INTER>
-12.1416

>  <SCORE.INTER.CONST>
1

>  <SCORE.INTER.POLAR>
0

>  <SCORE.INTER.ROT>
7

>  <SCORE.INTER.SOLV>
11.3707

>  <SCORE.INTER.VDW>
-20.1513

>  <SCORE.INTER.norm>
-0.466986

>  <SCORE.INTRA>
-3.12263

>  <SCORE.INTRA.DIHEDRAL>
-1.86108

>  <SCORE.INTRA.DIHEDRAL.0>
10.1225

>  <SCORE.INTRA.POLAR>
0

>  <SCORE.INTRA.POLAR.0>
0

>  <SCORE.INTRA.REPUL>
0

>  <SCORE.INTRA.REPUL.0>
0

>  <SCORE.INTRA.SOLV>
-0.37518

>  <SCORE.INTRA.SOLV.lig_0>
-49.9393

>  <SCORE.INTRA.VDW>
-2.0045

>  <SCORE.INTRA.VDW.0>
-1.75437

>  <SCORE.INTRA.norm>
-0.120101

>  <SCORE.RESTR>
0

>  <SCORE.RESTR.CAVITY>
0

>  <SCORE.RESTR.norm>
0

>  <SCORE.SYSTEM>
0

>  <SCORE.SYSTEM.CONST>
0

>  <SCORE.SYSTEM.DIHEDRAL>
0

>  <SCORE.SYSTEM.SOLV>
0

>  <SCORE.SYSTEM.norm>
0

>  <SCORE.heavy>
26

>  <SCORE.norm>
-0.587087

>  <RMSD>
5.536

$$$$
ligand
 OpenBabel11021811473D
libRbt.so/2013.1/901 2013/11/27
 26 28  0  0  0  0  0  0  0  0999 V2000
  -15.5658    5.0342  -19.2555 N   0  0  0  0  0  0  0  0  0  0  0  0
  -14.2313    5.4594  -19.6959 C   0  0  2  0  0  0  0  0  0  0  0  0
  -13.6367    4.4003  -20.5863 C   0  0  0  0  0  0  0  0  0  0  0  0
  -13.7535    3.2321  -20.2985 O   0  0  0  0  0  0  0  0  0  0  0  0
  -13.3333    5.6634  -18.4745 C   0  0  0  0  0  0  0  0  0  0  0  0
  -13.6954    6.9796  -17.7889 C   0  0  0  0  0  0  0  0  0  0  0  0
  -13.2116    8.4636  -18.4580 S   0  0  0  0  0  0  0  0  0  0  0  0
  -13.1391    9.2413  -20.0923 C   0  0  0  0  0  0  0  0  0  0  0  0
  -14.4693    9.2565  -20.8552 C   0  0  1  0  0  0  0  0  0  0  0  0
  -14.4716   10.1907  -21.9192 O   0  0  0  0  0  0  0  0  0  0  0  0
  -14.7392    7.9442  -21.5528 C   0  0  1  0  0  0  0  0  0  0  0  0
  -16.1397    7.9018  -21.7177 O   0  0  0  0  0  0  0  0  0  0  0  0
  -14.1087    8.0850  -22.9187 C   0  0  1  0  0  0  0  0  0  0  0  0
  -14.9519    7.5104  -23.8930 O   0  0  0  0  0  0  0  0  0  0  0  0
  -14.0471    9.5831  -23.1248 C   0  0  2  0  0  0  0  0  0  0  0  0
  -12.9736    4.7526  -21.6999 O   0  0  0  0  0  0  0  0  0  0  0  0
  -11.1521   13.8707  -23.7952 N   0  0  0  0  0  0  0  0  0  0  0  0
  -12.5030   13.7889  -23.5534 C   0  0  0  0  0  0  0  0  0  0  0  0
  -13.0931   12.5555  -23.4169 N   0  0  0  0  0  0  0  0  0  0  0  0
  -12.3619   11.4282  -23.5158 C   0  0  0  0  0  0  0  0  0  0  0  0
  -11.0023   11.4878  -23.7576 C   0  0  0  0  0  0  0  0  0  0  0  0
  -10.3962   12.7304  -23.9006 C   0  0  0  0  0  0  0  0  0  0  0  0
   -9.0943   12.8334  -24.1376 N   0  0  0  0  0  0  0  0  0  0  0  0
  -10.5257   10.2238  -23.8085 N   0  0  0  0  0  0  0  0  0  0  0  0
  -11.5531    9.3780  -23.5983 C   0  0  0  0  0  0  0  0  0  0  0  0
  -12.7021   10.1069  -23.4259 N   0  0  0  0  0  0  0  0  0  0  0  0
  2  1  1  1  0  0  0
  2  3  1  0  0  0  0
  2  5  1  0  0  0  0
  3  4  1  0  0  0  0
  3 16  1  0  0  0  0
  5  6  1  0  0  0  0
  6  7  1  0  0  0  0
  7  8  1  0  0  0  0
  9  8  1  6  0  0  0
  9 10  1  0  0  0  0
  9 11  1  0  0  0  0
 10 15  1  0  0  0  0
 11 12  1  6  0  0  0
 11 13  1  0  0  0  0
 13 14  1  6  0  0  0
 13 15  1  0  0  0  0
 15 26  1  1  0  0  0
 17 18  2  0  0  0  0
 17 22  1  0  0  0  0
 18 19  1  0  0  0  0
 19 20  2  0  0  0  0
 20 21  1  0  0  0  0
 20 26  1  0  0  0  0
 21 22  2  0  0  0  0
 21 24  1  0  0  0  0
 22 23  1  0  0  0  0
 24 25  2  0  0  0  0
 25 26  1  0  0  0  0
M  END
>  <CHROM.1>
-42.10847852,-76.21893178,-75.68294909,43.03810791,54.56902917,162.69805424
-53.95600346,-13.17282868,8.80579952,-21.69179212,-2.57666085,-1.17088672
-1.50180720

>  <Name>
ligand

>  <RI>
0

>  <Rbt.Current_Directory>
/home/itssahil/PROJECTS/Mol_Feturizer/New_Systems/rnas/3E5E

>  <Rbt.Executable>
rbdock ($Id: //depot/dev/client3/rdock/2013.1/src/exe/rbdock.cxx#4 $)

>  <Rbt.Library>
libRbt.so (2013.1, Build901 2013/11/27)

>  <Rbt.Parameter_File>
/export/apps/rDock/src/rDock_2013.1_src/data/scripts/dock_solv.prm

>  <Rbt.Receptor>
prm/pocket_docking_6.prm

>  <SCORE>
-17.1276

>  <SCORE.INTER>
-13.8613

>  <SCORE.INTER.CONST>
1

>  <SCORE.INTER.POLAR>
0

>  <SCORE.INTER.ROT>
7

>  <SCORE.INTER.SOLV>
6.42333

>  <SCORE.INTER.VDW>
-19.6486

>  <SCORE.INTER.norm>
-0.533126

>  <SCORE.INTRA>
-3.2663

>  <SCORE.INTRA.DIHEDRAL>
-4.07401

>  <SCORE.INTRA.DIHEDRAL.0>
10.1225

>  <SCORE.INTRA.POLAR>
0

>  <SCORE.INTRA.POLAR.0>
0

>  <SCORE.INTRA.REPUL>
0

>  <SCORE.INTRA.REPUL.0>
0

>  <SCORE.INTRA.SOLV>
1.50769

>  <SCORE.INTRA.SOLV.lig_0>
-49.9393

>  <SCORE.INTRA.VDW>
-1.98314

>  <SCORE.INTRA.VDW.0>
-1.75437

>  <SCORE.INTRA.norm>
-0.125627

>  <SCORE.RESTR>
0

>  <SCORE.RESTR.CAVITY>
0

>  <SCORE.RESTR.norm>
0

>  <SCORE.SYSTEM>
0

>  <SCORE.SYSTEM.CONST>
0

>  <SCORE.SYSTEM.DIHEDRAL>
0

>  <SCORE.SYSTEM.SOLV>
0

>  <SCORE.SYSTEM.norm>
0

>  <SCORE.heavy>
26

>  <SCORE.norm>
-0.658753

>  <RMSD>
5.546

$$$$
ligand
 OpenBabel11021811473D
libRbt.so/2013.1/901 2013/11/27
 26 28  0  0  0  0  0  0  0  0999 V2000
  -12.2235   11.0050  -22.5968 N   0  0  0  0  0  0  0  0  0  0  0  0
  -12.1707   11.9818  -21.5019 C   0  0  2  0  0  0  0  0  0  0  0  0
  -13.0372   11.5072  -20.3652 C   0  0  0  0  0  0  0  0  0  0  0  0
  -12.7838   11.8402  -19.2312 O   0  0  0  0  0  0  0  0  0  0  0  0
  -12.6796   13.3348  -22.0020 C   0  0  0  0  0  0  0  0  0  0  0  0
  -11.7410   13.8647  -23.0844 C   0  0  0  0  0  0  0  0  0  0  0  0
  -10.1439   14.3002  -22.7052 S   0  0  0  0  0  0  0  0  0  0  0  0
   -8.5558   13.4748  -22.4264 C   0  0  0  0  0  0  0  0  0  0  0  0
   -7.9083   12.8869  -23.6861 C   0  0  1  0  0  0  0  0  0  0  0  0
   -7.4969   13.8874  -24.5997 O   0  0  0  0  0  0  0  0  0  0  0  0
   -6.6221   12.1580  -23.3764 C   0  0  1  0  0  0  0  0  0  0  0  0
   -6.4519   11.2518  -24.4443 O   0  0  0  0  0  0  0  0  0  0  0  0
   -5.5393   13.2074  -23.4728 C   0  0  1  0  0  0  0  0  0  0  0  0
   -4.4038   12.6619  -24.1081 O   0  0  0  0  0  0  0  0  0  0  0  0
   -6.1545   14.2669  -24.3613 C   0  0  2  0  0  0  0  0  0  0  0  0
  -14.0910   10.7112  -20.6099 O   0  0  0  0  0  0  0  0  0  0  0  0
   -3.3641   17.9897  -22.0017 N   0  0  0  0  0  0  0  0  0  0  0  0
   -2.9528   16.7343  -22.3821 C   0  0  0  0  0  0  0  0  0  0  0  0
   -3.8465   15.8826  -22.9854 N   0  0  0  0  0  0  0  0  0  0  0  0
   -5.1186   16.2659  -23.2090 C   0  0  0  0  0  0  0  0  0  0  0  0
   -5.5528   17.5239  -22.8354 C   0  0  0  0  0  0  0  0  0  0  0  0
   -4.6575   18.3919  -22.2213 C   0  0  0  0  0  0  0  0  0  0  0  0
   -5.0333   19.6073  -21.8428 N   0  0  0  0  0  0  0  0  0  0  0  0
   -6.8563   17.6398  -23.1742 N   0  0  0  0  0  0  0  0  0  0  0  0
   -7.2439   16.4877  -23.7552 C   0  0  0  0  0  0  0  0  0  0  0  0
   -6.1823   15.6196  -23.7753 N   0  0  0  0  0  0  0  0  0  0  0  0
  2  1  1  6  0  0  0
  2  3  1  0  0  0  0
  2  5  1  0  0  0  0
  3  4  1  0  0  0  0
  3 16  1  0  0  0  0
  5  6  1  0  0  0  0
  6  7  1  0  0  0  0
  7  8  1  0  0  0  0
  9  8  1  1  0  0  0
  9 10  1  0  0  0  0
  9 11  1  0  0  0  0
 10 15  1  0  0  0  0
 11 12  1  6  0  0  0
 11 13  1  0  0  0  0
 13 14  1  6  0  0  0
 13 15  1  0  0  0  0
 15 26  1  1  0  0  0
 17 18  2  0  0  0  0
 17 22  1  0  0  0  0
 18 19  1  0  0  0  0
 19 20  2  0  0  0  0
 20 21  1  0  0  0  0
 20 26  1  0  0  0  0
 21 22  2  0  0  0  0
 21 24  1  0  0  0  0
 22 23  1  0  0  0  0
 24 25  2  0  0  0  0
 25 26  1  0  0  0  0
M  END
>  <CHROM.1>
152.47037079,-64.20896917,-66.08804155,79.43641888,71.30767403,67.12423489
169.18763030,-7.99213650,14.30014901,-22.71819175,-2.69179076,0.37001233
0.32775749

>  <Name>
ligand

>  <RI>
0

>  <Rbt.Current_Directory>
/home/itssahil/PROJECTS/Mol_Feturizer/New_Systems/rnas/3E5E

>  <Rbt.Executable>
rbdock ($Id: //depot/dev/client3/rdock/2013.1/src/exe/rbdock.cxx#4 $)

>  <Rbt.Library>
libRbt.so (2013.1, Build901 2013/11/27)

>  <Rbt.Parameter_File>
/export/apps/rDock/src/rDock_2013.1_src/data/scripts/dock_solv.prm

>  <Rbt.Receptor>
prm/pocket_docking_8.prm

>  <SCORE>
-17.804

>  <SCORE.INTER>
-14.143

>  <SCORE.INTER.CONST>
1

>  <SCORE.INTER.POLAR>
0

>  <SCORE.INTER.ROT>
7

>  <SCORE.INTER.SOLV>
12.6351

>  <SCORE.INTER.VDW>
-21.907

>  <SCORE.INTER.norm>
-0.543962

>  <SCORE.INTRA>
-3.66097

>  <SCORE.INTRA.DIHEDRAL>
-6.32702

>  <SCORE.INTRA.DIHEDRAL.0>
10.1225

>  <SCORE.INTRA.POLAR>
0

>  <SCORE.INTRA.POLAR.0>
0

>  <SCORE.INTRA.REPUL>
0

>  <SCORE.INTRA.REPUL.0>
0

>  <SCORE.INTRA.SOLV>
0.981515

>  <SCORE.INTRA.SOLV.lig_0>
-49.9393

>  <SCORE.INTRA.VDW>
-0.98822

>  <SCORE.INTRA.VDW.0>
-1.75437

>  <SCORE.INTRA.norm>
-0.140807

>  <SCORE.RESTR>
0

>  <SCORE.RESTR.CAVITY>
0

>  <SCORE.RESTR.norm>
0

>  <SCORE.SYSTEM>
0

>  <SCORE.SYSTEM.CONST>
0

>  <SCORE.SYSTEM.DIHEDRAL>
0

>  <SCORE.SYSTEM.SOLV>
0

>  <SCORE.SYSTEM.norm>
0

>  <SCORE.heavy>
26

>  <SCORE.norm>
-0.684768

>  <RMSD>
5.547

$$$$
ligand
 OpenBabel11021811473D
libRbt.so/2013.1/901 2013/11/27
 26 28  0  0  0  0  0  0  0  0999 V2000
  -11.5773    5.5078  -24.8870 N   0  0  0  0  0  0  0  0  0  0  0  0
  -11.3667    6.9187  -24.5396 C   0  0  2  0  0  0  0  0  0  0  0  0
  -12.6994    7.5845  -24.3190 C   0  0  0  0  0  0  0  0  0  0  0  0
  -13.0903    7.7987  -23.1955 O   0  0  0  0  0  0  0  0  0  0  0  0
  -10.6283    7.6192  -25.6815 C   0  0  0  0  0  0  0  0  0  0  0  0
   -9.8348    8.8010  -25.1270 C   0  0  0  0  0  0  0  0  0  0  0  0
  -10.6346   10.1832  -24.5491 S   0  0  0  0  0  0  0  0  0  0  0  0
  -11.8750   10.5923  -23.2941 C   0  0  0  0  0  0  0  0  0  0  0  0
  -11.5995   10.0052  -21.9044 C   0  0  1  0  0  0  0  0  0  0  0  0
  -10.3842   10.4751  -21.3503 O   0  0  0  0  0  0  0  0  0  0  0  0
  -12.6289   10.4420  -20.8890 C   0  0  1  0  0  0  0  0  0  0  0  0
  -12.5903    9.4526  -19.8840 O   0  0  0  0  0  0  0  0  0  0  0  0
  -12.0888   11.7268  -20.3053 C   0  0  1  0  0  0  0  0  0  0  0  0
  -12.3197   11.7508  -18.9136 O   0  0  0  0  0  0  0  0  0  0  0  0
  -10.6012   11.6346  -20.5685 C   0  0  2  0  0  0  0  0  0  0  0  0
  -13.4564    7.9387  -25.3704 O   0  0  0  0  0  0  0  0  0  0  0  0
   -7.2524   13.1066  -24.2877 N   0  0  0  0  0  0  0  0  0  0  0  0
   -7.4754   11.8407  -23.8001 C   0  0  0  0  0  0  0  0  0  0  0  0
   -8.3989   11.6530  -22.8002 N   0  0  0  0  0  0  0  0  0  0  0  0
   -9.0877   12.6951  -22.2953 C   0  0  0  0  0  0  0  0  0  0  0  0
   -8.8797   13.9759  -22.7717 C   0  0  0  0  0  0  0  0  0  0  0  0
   -7.9453   14.1770  -23.7808 C   0  0  0  0  0  0  0  0  0  0  0  0
   -7.7113   15.3906  -24.2645 N   0  0  0  0  0  0  0  0  0  0  0  0
   -9.6936   14.8166  -22.0948 N   0  0  0  0  0  0  0  0  0  0  0  0
  -10.4083   14.0910  -21.2128 C   0  0  0  0  0  0  0  0  0  0  0  0
  -10.0378   12.7744  -21.3151 N   0  0  0  0  0  0  0  0  0  0  0  0
  2  1  1  6  0  0  0
  2  3  1  0  0  0  0
  2  5  1  0  0  0  0
  3  4  1  0  0  0  0
  3 16  1  0  0  0  0
  5  6  1  0  0  0  0
  6  7  1  0  0  0  0
  7  8  1  0  0  0  0
  9  8  1  6  0  0  0
  9 10  1  0  0  0  0
  9 11  1  0  0  0  0
 10 15  1  0  0  0  0
 11 12  1  1  0  0  0
 11 13  1  0  0  0  0
 13 14  1  1  0  0  0
 13 15  1  0  0  0  0
 15 26  1  6  0  0  0
 17 18  2  0  0  0  0
 17 22  1  0  0  0  0
 18 19  1  0  0  0  0
 19 20  2  0  0  0  0
 20 21  1  0  0  0  0
 20 26  1  0  0  0  0
 21 22  2  0  0  0  0
 21 24  1  0  0  0  0
 22 23  1  0  0  0  0
 24 25  2  0  0  0  0
 25 26  1  0  0  0  0
M  END
>  <CHROM.1>
102.54497562,-153.09702105,-69.93276374,57.88554087,49.13914896,61.43191706
-21.40675864,-10.62270565,10.77315747,-22.88671610,-2.26060558,0.79751918
0.80917219

>  <Name>
ligand

>  <RI>
0

>  <Rbt.Current_Directory>
/home/itssahil/PROJECTS/Mol_Feturizer/New_Systems/rnas/3E5E

>  <Rbt.Executable>
rbdock ($Id: //depot/dev/client3/rdock/2013.1/src/exe/rbdock.cxx#4 $)

>  <Rbt.Library>
libRbt.so (2013.1, Build901 2013/11/27)

>  <Rbt.Parameter_File>
/export/apps/rDock/src/rDock_2013.1_src/data/scripts/dock_solv.prm

>  <Rbt.Receptor>
prm/blind_docking_40.prm

>  <SCORE>
-14.4251

>  <SCORE.INTER>
-9.44182

>  <SCORE.INTER.CONST>
1

>  <SCORE.INTER.POLAR>
0

>  <SCORE.INTER.ROT>
7

>  <SCORE.INTER.SOLV>
5.47408

>  <SCORE.INTER.VDW>
-16.3859

>  <SCORE.INTER.norm>
-0.363147

>  <SCORE.INTRA>
-4.9833

>  <SCORE.INTRA.DIHEDRAL>
-4.29463

>  <SCORE.INTRA.DIHEDRAL.0>
10.1225

>  <SCORE.INTRA.POLAR>
0

>  <SCORE.INTRA.POLAR.0>
0

>  <SCORE.INTRA.REPUL>
0

>  <SCORE.INTRA.REPUL.0>
0

>  <SCORE.INTRA.SOLV>
-0.141513

>  <SCORE.INTRA.SOLV.lig_0>
-49.9393

>  <SCORE.INTRA.VDW>
-2.76523

>  <SCORE.INTRA.VDW.0>
-1.75437

>  <SCORE.INTRA.norm>
-0.191665

>  <SCORE.RESTR>
0

>  <SCORE.RESTR.CAVITY>
0

>  <SCORE.RESTR.norm>
0

>  <SCORE.SYSTEM>
0

>  <SCORE.SYSTEM.CONST>
0

>  <SCORE.SYSTEM.DIHEDRAL>
0

>  <SCORE.SYSTEM.SOLV>
0

>  <SCORE.SYSTEM.norm>
0

>  <SCORE.heavy>
26

>  <SCORE.norm>
-0.554812

>  <RMSD>
5.603

$$$$
ligand
 OpenBabel11021811473D
libRbt.so/2013.1/901 2013/11/27
 26 28  0  0  0  0  0  0  0  0999 V2000
  -11.8731    9.8030  -23.5335 N   0  0  0  0  0  0  0  0  0  0  0  0
  -12.4052   10.8118  -22.6089 C   0  0  2  0  0  0  0  0  0  0  0  0
  -13.7092   10.3253  -22.0333 C   0  0  0  0  0  0  0  0  0  0  0  0
  -13.9137   10.4063  -20.8447 O   0  0  0  0  0  0  0  0  0  0  0  0
  -12.6368   12.1220  -23.3634 C   0  0  0  0  0  0  0  0  0  0  0  0
  -12.8883   13.2492  -22.3635 C   0  0  0  0  0  0  0  0  0  0  0  0
  -11.6640   13.7466  -21.2968 S   0  0  0  0  0  0  0  0  0  0  0  0
  -10.0038   14.4640  -21.3969 C   0  0  0  0  0  0  0  0  0  0  0  0
   -9.0475   14.0267  -20.2807 C   0  0  1  0  0  0  0  0  0  0  0  0
   -7.7006   14.3622  -20.5605 O   0  0  0  0  0  0  0  0  0  0  0  0
   -9.3178   14.7529  -18.9842 C   0  0  1  0  0  0  0  0  0  0  0  0
   -8.7960   13.9101  -17.9802 O   0  0  0  0  0  0  0  0  0  0  0  0
   -8.4646   15.9986  -19.0429 C   0  0  1  0  0  0  0  0  0  0  0  0
   -7.8896   16.2411  -17.7775 O   0  0  0  0  0  0  0  0  0  0  0  0
   -7.3769   15.6337  -20.0299 C   0  0  2  0  0  0  0  0  0  0  0  0
  -14.6452    9.7985  -22.8396 O   0  0  0  0  0  0  0  0  0  0  0  0
   -4.0712   18.4259  -22.9436 N   0  0  0  0  0  0  0  0  0  0  0  0
   -3.7874   17.6586  -21.8387 C   0  0  0  0  0  0  0  0  0  0  0  0
   -4.8054   17.0010  -21.1912 N   0  0  0  0  0  0  0  0  0  0  0  0
   -6.0759   17.0994  -21.6287 C   0  0  0  0  0  0  0  0  0  0  0  0
   -6.3831   17.8646  -22.7380 C   0  0  0  0  0  0  0  0  0  0  0  0
   -5.3611   18.5365  -23.3983 C   0  0  0  0  0  0  0  0  0  0  0  0
   -5.6120   19.2855  -24.4649 N   0  0  0  0  0  0  0  0  0  0  0  0
   -7.7158   17.7865  -22.9504 N   0  0  0  0  0  0  0  0  0  0  0  0
   -8.2462   16.9865  -22.0048 C   0  0  0  0  0  0  0  0  0  0  0  0
   -7.2455   16.5600  -21.1694 N   0  0  0  0  0  0  0  0  0  0  0  0
  2  1  1  6  0  0  0
  2  3  1  0  0  0  0
  2  5  1  0  0  0  0
  3  4  1  0  0  0  0
  3 16  1  0  0  0  0
  5  6  1  0  0  0  0
  6  7  1  0  0  0  0
  7  8  1  0  0  0  0
  9  8  1  6  0  0  0
  9 10  1  0  0  0  0
  9 11  1  0  0  0  0
 10 15  1  0  0  0  0
 11 12  1  1  0  0  0
 11 13  1  0  0  0  0
 13 14  1  1  0  0  0
 13 15  1  0  0  0  0
 15 26  1  6  0  0  0
 17 18  2  0  0  0  0
 17 22  1  0  0  0  0
 18 19  1  0  0  0  0
 19 20  2  0  0  0  0
 20 21  1  0  0  0  0
 20 26  1  0  0  0  0
 21 22  2  0  0  0  0
 21 24  1  0  0  0  0
 22 23  1  0  0  0  0
 24 25  2  0  0  0  0
 25 26  1  0  0  0  0
M  END
>  <CHROM.1>
133.32097481,-167.47259871,65.38498216,61.85944052,-147.36672980,166.68082055
-108.93928211,-9.13381266,14.73243342,-21.45299786,3.06405320,0.72594620
1.70440260

>  <Name>
ligand

>  <RI>
0

>  <Rbt.Current_Directory>
/home/itssahil/PROJECTS/Mol_Feturizer/New_Systems/rnas/3E5E

>  <Rbt.Executable>
rbdock ($Id: //depot/dev/client3/rdock/2013.1/src/exe/rbdock.cxx#4 $)

>  <Rbt.Library>
libRbt.so (2013.1, Build901 2013/11/27)

>  <Rbt.Parameter_File>
/export/apps/rDock/src/rDock_2013.1_src/data/scripts/dock_solv.prm

>  <Rbt.Receptor>
prm/blind_docking_100.prm

>  <SCORE>
-17.6508

>  <SCORE.INTER>
-14.2744

>  <SCORE.INTER.CONST>
1

>  <SCORE.INTER.POLAR>
0

>  <SCORE.INTER.ROT>
7

>  <SCORE.INTER.SOLV>
18.7849

>  <SCORE.INTER.VDW>
-24.0445

>  <SCORE.INTER.norm>
-0.549015

>  <SCORE.INTRA>
-3.3764

>  <SCORE.INTRA.DIHEDRAL>
-4.80658

>  <SCORE.INTRA.DIHEDRAL.0>
10.1225

>  <SCORE.INTRA.POLAR>
0

>  <SCORE.INTRA.POLAR.0>
0

>  <SCORE.INTRA.REPUL>
0

>  <SCORE.INTRA.REPUL.0>
0

>  <SCORE.INTRA.SOLV>
-0.513507

>  <SCORE.INTRA.SOLV.lig_0>
-49.9393

>  <SCORE.INTRA.VDW>
-0.716356

>  <SCORE.INTRA.VDW.0>
-1.75437

>  <SCORE.INTRA.norm>
-0.129861

>  <SCORE.RESTR>
0

>  <SCORE.RESTR.CAVITY>
0

>  <SCORE.RESTR.norm>
0

>  <SCORE.SYSTEM>
0

>  <SCORE.SYSTEM.CONST>
0

>  <SCORE.SYSTEM.DIHEDRAL>
0

>  <SCORE.SYSTEM.SOLV>
0

>  <SCORE.SYSTEM.norm>
0

>  <SCORE.heavy>
26

>  <SCORE.norm>
-0.678876

>  <RMSD>
5.604

$$$$
ligand
 OpenBabel11021811473D
libRbt.so/2013.1/901 2013/11/27
 26 28  0  0  0  0  0  0  0  0999 V2000
  -11.9821   11.7445  -19.7123 N   0  0  0  0  0  0  0  0  0  0  0  0
  -11.2737   12.9597  -20.1330 C   0  0  2  0  0  0  0  0  0  0  0  0
  -10.4973   13.5154  -18.9683 C   0  0  0  0  0  0  0  0  0  0  0  0
  -10.7670   13.1709  -17.8416 O   0  0  0  0  0  0  0  0  0  0  0  0
  -12.2876   13.9992  -20.6139 C   0  0  0  0  0  0  0  0  0  0  0  0
  -12.6913   13.6900  -22.0544 C   0  0  0  0  0  0  0  0  0  0  0  0
  -11.5095   13.4157  -23.2427 S   0  0  0  0  0  0  0  0  0  0  0  0
   -9.9209   14.1248  -23.7474 C   0  0  0  0  0  0  0  0  0  0  0  0
   -9.0210   13.1769  -24.5495 C   0  0  1  0  0  0  0  0  0  0  0  0
   -7.8723   13.8268  -25.0623 O   0  0  0  0  0  0  0  0  0  0  0  0
   -8.4376   12.0822  -23.6877 C   0  0  1  0  0  0  0  0  0  0  0  0
   -8.1274   11.0393  -24.5857 O   0  0  0  0  0  0  0  0  0  0  0  0
   -7.1408   12.6462  -23.1555 C   0  0  1  0  0  0  0  0  0  0  0  0
   -6.1454   11.6464  -23.1716 O   0  0  0  0  0  0  0  0  0  0  0  0
   -6.7890   13.7247  -24.1574 C   0  0  2  0  0  0  0  0  0  0  0  0
   -9.5059   14.3965  -19.1801 O   0  0  0  0  0  0  0  0  0  0  0  0
   -3.2796   17.1279  -22.3364 N   0  0  0  0  0  0  0  0  0  0  0  0
   -3.0640   15.8476  -22.7884 C   0  0  0  0  0  0  0  0  0  0  0  0
   -4.1283   15.0938  -23.2210 N   0  0  0  0  0  0  0  0  0  0  0  0
   -5.3781   15.5969  -23.2081 C   0  0  0  0  0  0  0  0  0  0  0  0
   -5.6171   16.8819  -22.7585 C   0  0  0  0  0  0  0  0  0  0  0  0
   -4.5478   17.6516  -22.3156 C   0  0  0  0  0  0  0  0  0  0  0  0
   -4.7327   18.8888  -21.8720 N   0  0  0  0  0  0  0  0  0  0  0  0
   -6.9436   17.1239  -22.8538 N   0  0  0  0  0  0  0  0  0  0  0  0
   -7.5367   16.0240  -23.3574 C   0  0  0  0  0  0  0  0  0  0  0  0
   -6.5827   15.0624  -23.5728 N   0  0  0  0  0  0  0  0  0  0  0  0
  2  1  1  1  0  0  0
  2  3  1  0  0  0  0
  2  5  1  0  0  0  0
  3  4  1  0  0  0  0
  3 16  1  0  0  0  0
  5  6  1  0  0  0  0
  6  7  1  0  0  0  0
  7  8  1  0  0  0  0
  9  8  1  1  0  0  0
  9 10  1  0  0  0  0
  9 11  1  0  0  0  0
 10 15  1  0  0  0  0
 11 12  1  6  0  0  0
 11 13  1  0  0  0  0
 13 14  1  6  0  0  0
 13 15  1  0  0  0  0
 15 26  1  1  0  0  0
 17 18  2  0  0  0  0
 17 22  1  0  0  0  0
 18 19  1  0  0  0  0
 19 20  2  0  0  0  0
 20 21  1  0  0  0  0
 20 26  1  0  0  0  0
 21 22  2  0  0  0  0
 21 24  1  0  0  0  0
 22 23  1  0  0  0  0
 24 25  2  0  0  0  0
 25 26  1  0  0  0  0
M  END
>  <CHROM.1>
-17.81530290,-81.19667261,-50.06628446,-42.47177142,157.80093346,172.52708220
-146.16469845,-8.15274849,14.28372517,-22.41524200,3.09730989,-0.52742357
-2.19846675

>  <Name>
ligand

>  <RI>
0

>  <Rbt.Current_Directory>
/home/itssahil/PROJECTS/Mol_Feturizer/New_Systems/rnas/3E5E

>  <Rbt.Executable>
rbdock ($Id: //depot/dev/client3/rdock/2013.1/src/exe/rbdock.cxx#4 $)

>  <Rbt.Library>
libRbt.so (2013.1, Build901 2013/11/27)

>  <Rbt.Parameter_File>
/export/apps/rDock/src/rDock_2013.1_src/data/scripts/dock_solv.prm

>  <Rbt.Receptor>
prm/blind_docking_80.prm

>  <SCORE>
-18.4042

>  <SCORE.INTER>
-16.1108

>  <SCORE.INTER.CONST>
1

>  <SCORE.INTER.POLAR>
0

>  <SCORE.INTER.ROT>
7

>  <SCORE.INTER.SOLV>
14.2669

>  <SCORE.INTER.VDW>
-23.7628

>  <SCORE.INTER.norm>
-0.619646

>  <SCORE.INTRA>
-2.2934

>  <SCORE.INTRA.DIHEDRAL>
-3.94807

>  <SCORE.INTRA.DIHEDRAL.0>
10.1225

>  <SCORE.INTRA.POLAR>
0

>  <SCORE.INTRA.POLAR.0>
0

>  <SCORE.INTRA.REPUL>
0

>  <SCORE.INTRA.REPUL.0>
0

>  <SCORE.INTRA.SOLV>
0.4839

>  <SCORE.INTRA.SOLV.lig_0>
-49.9393

>  <SCORE.INTRA.VDW>
-0.561312

>  <SCORE.INTRA.VDW.0>
-1.75437

>  <SCORE.INTRA.norm>
-0.0882075

>  <SCORE.RESTR>
0

>  <SCORE.RESTR.CAVITY>
0

>  <SCORE.RESTR.norm>
0

>  <SCORE.SYSTEM>
0

>  <SCORE.SYSTEM.CONST>
0

>  <SCORE.SYSTEM.DIHEDRAL>
0

>  <SCORE.SYSTEM.SOLV>
0

>  <SCORE.SYSTEM.norm>
0

>  <SCORE.heavy>
26

>  <SCORE.norm>
-0.707854

>  <RMSD>
5.611

$$$$
ligand
 OpenBabel11021811473D
libRbt.so/2013.1/901 2013/11/27
 26 28  0  0  0  0  0  0  0  0999 V2000
  -10.1537    7.6992  -24.8923 N   0  0  0  0  0  0  0  0  0  0  0  0
  -11.1119    8.7081  -25.3608 C   0  0  2  0  0  0  0  0  0  0  0  0
  -12.3840    8.0279  -25.7935 C   0  0  0  0  0  0  0  0  0  0  0  0
  -13.3714    8.0928  -25.0993 O   0  0  0  0  0  0  0  0  0  0  0  0
  -10.5116    9.4696  -26.5438 C   0  0  0  0  0  0  0  0  0  0  0  0
   -9.4695   10.4638  -26.0349 C   0  0  0  0  0  0  0  0  0  0  0  0
   -9.9429   11.9817  -25.4383 S   0  0  0  0  0  0  0  0  0  0  0  0
  -11.3033   12.6794  -24.4669 C   0  0  0  0  0  0  0  0  0  0  0  0
  -11.6033   11.9384  -23.1582 C   0  0  1  0  0  0  0  0  0  0  0  0
  -10.6043   12.1483  -22.1769 O   0  0  0  0  0  0  0  0  0  0  0  0
  -12.8544   12.4540  -22.4872 C   0  0  1  0  0  0  0  0  0  0  0  0
  -13.2936   11.3904  -21.6710 O   0  0  0  0  0  0  0  0  0  0  0  0
  -12.3879   13.5754  -21.5883 C   0  0  1  0  0  0  0  0  0  0  0  0
  -13.0803   13.5194  -20.3601 O   0  0  0  0  0  0  0  0  0  0  0  0
  -10.9263   13.2570  -21.3586 C   0  0  2  0  0  0  0  0  0  0  0  0
  -12.4221    7.3461  -26.9501 O   0  0  0  0  0  0  0  0  0  0  0  0
   -7.4074   16.6668  -19.5684 N   0  0  0  0  0  0  0  0  0  0  0  0
   -8.1614   15.7700  -18.8492 C   0  0  0  0  0  0  0  0  0  0  0  0
   -9.0531   14.9557  -19.5048 N   0  0  0  0  0  0  0  0  0  0  0  0
   -9.1940   15.0263  -20.8429 C   0  0  0  0  0  0  0  0  0  0  0  0
   -8.4453   15.9201  -21.5852 C   0  0  0  0  0  0  0  0  0  0  0  0
   -7.5428   16.7507  -20.9313 C   0  0  0  0  0  0  0  0  0  0  0  0
   -6.8068   17.6262  -21.6048 N   0  0  0  0  0  0  0  0  0  0  0  0
   -8.7856   15.7795  -22.8859 N   0  0  0  0  0  0  0  0  0  0  0  0
   -9.7233   14.8161  -22.9736 C   0  0  0  0  0  0  0  0  0  0  0  0
   -9.9973   14.3452  -21.7149 N   0  0  0  0  0  0  0  0  0  0  0  0
  2  1  1  6  0  0  0
  2  3  1  0  0  0  0
  2  5  1  0  0  0  0
  3  4  1  0  0  0  0
  3 16  1  0  0  0  0
  5  6  1  0  0  0  0
  6  7  1  0  0  0  0
  7  8  1  0  0  0  0
  9  8  1  6  0  0  0
  9 10  1  0  0  0  0
  9 11  1  0  0  0  0
 10 15  1  0  0  0  0
 11 12  1  1  0  0  0
 11 13  1  0  0  0  0
 13 14  1  1  0  0  0
 13 15  1  0  0  0  0
 15 26  1  6  0  0  0
 17 18  2  0  0  0  0
 17 22  1  0  0  0  0
 18 19  1  0  0  0  0
 19 20  2  0  0  0  0
 20 21  1  0  0  0  0
 20 26  1  0  0  0  0
 21 22  2  0  0  0  0
 21 24  1  0  0  0  0
 22 23  1  0  0  0  0
 24 25  2  0  0  0  0
 25 26  1  0  0  0  0
M  END
>  <CHROM.1>
105.64998828,-75.97303920,-82.48863911,37.09555869,50.40158914,71.89851279
-125.73742293,-10.45917496,12.57012619,-23.00929683,-1.98832506,0.56835823
0.84146292

>  <Name>
ligand

>  <RI>
0

>  <Rbt.Current_Directory>
/home/itssahil/PROJECTS/Mol_Feturizer/New_Systems/rnas/3E5E

>  <Rbt.Executable>
rbdock ($Id: //depot/dev/client3/rdock/2013.1/src/exe/rbdock.cxx#4 $)

>  <Rbt.Library>
libRbt.so (2013.1, Build901 2013/11/27)

>  <Rbt.Parameter_File>
/export/apps/rDock/src/rDock_2013.1_src/data/scripts/dock_solv.prm

>  <Rbt.Receptor>
prm/blind_docking_60.prm

>  <SCORE>
-17.679

>  <SCORE.INTER>
-15.1066

>  <SCORE.INTER.CONST>
1

>  <SCORE.INTER.POLAR>
0

>  <SCORE.INTER.ROT>
7

>  <SCORE.INTER.SOLV>
13.6548

>  <SCORE.INTER.VDW>
-22.8893

>  <SCORE.INTER.norm>
-0.581023

>  <SCORE.INTRA>
-2.5752

>  <SCORE.INTRA.DIHEDRAL>
-3.30609

>  <SCORE.INTRA.DIHEDRAL.0>
10.1225

>  <SCORE.INTRA.POLAR>
0

>  <SCORE.INTRA.POLAR.0>
0

>  <SCORE.INTRA.REPUL>
0

>  <SCORE.INTRA.REPUL.0>
0

>  <SCORE.INTRA.SOLV>
0.288926

>  <SCORE.INTRA.SOLV.lig_0>
-49.9393

>  <SCORE.INTRA.VDW>
-1.06662

>  <SCORE.INTRA.VDW.0>
-1.75437

>  <SCORE.INTRA.norm>
-0.0990463

>  <SCORE.RESTR>
0.00275311

>  <SCORE.RESTR.CAVITY>
0.00275311

>  <SCORE.RESTR.norm>
0.000105889

>  <SCORE.SYSTEM>
0

>  <SCORE.SYSTEM.CONST>
0

>  <SCORE.SYSTEM.DIHEDRAL>
0

>  <SCORE.SYSTEM.SOLV>
0

>  <SCORE.SYSTEM.norm>
0

>  <SCORE.heavy>
26

>  <SCORE.norm>
-0.679963

>  <RMSD>
5.616

$$$$
ligand
 OpenBabel11021811473D
libRbt.so/2013.1/901 2013/11/27
 26 28  0  0  0  0  0  0  0  0999 V2000
  -10.1043    7.4602  -26.7037 N   0  0  0  0  0  0  0  0  0  0  0  0
   -9.9172    8.4553  -25.6405 C   0  0  2  0  0  0  0  0  0  0  0  0
  -11.1228    8.4566  -24.7379 C   0  0  0  0  0  0  0  0  0  0  0  0
  -12.2302    8.3364  -25.2072 O   0  0  0  0  0  0  0  0  0  0  0  0
   -9.7448    9.8410  -26.2650 C   0  0  0  0  0  0  0  0  0  0  0  0
   -9.0126   10.7552  -25.2843 C   0  0  0  0  0  0  0  0  0  0  0  0
   -9.7536   11.2360  -23.8339 S   0  0  0  0  0  0  0  0  0  0  0  0
  -11.2482   12.1188  -23.3163 C   0  0  0  0  0  0  0  0  0  0  0  0
  -11.7240   11.7964  -21.8945 C   0  0  1  0  0  0  0  0  0  0  0  0
  -10.7999   12.2160  -20.9072 O   0  0  0  0  0  0  0  0  0  0  0  0
  -12.9795   12.5530  -21.5303 C   0  0  1  0  0  0  0  0  0  0  0  0
  -13.5784   11.7909  -20.5052 O   0  0  0  0  0  0  0  0  0  0  0  0
  -12.4980   13.8532  -20.9298 C   0  0  1  0  0  0  0  0  0  0  0  0
  -13.2968   14.1871  -19.8158 O   0  0  0  0  0  0  0  0  0  0  0  0
  -11.0949   13.5277  -20.4652 C   0  0  2  0  0  0  0  0  0  0  0  0
  -10.9690    8.5941  -23.4108 O   0  0  0  0  0  0  0  0  0  0  0  0
   -6.7331   16.1810  -19.3934 N   0  0  0  0  0  0  0  0  0  0  0  0
   -7.5126   15.4468  -18.5312 C   0  0  0  0  0  0  0  0  0  0  0  0
   -8.6425   14.8237  -19.0034 N   0  0  0  0  0  0  0  0  0  0  0  0
   -8.9922   14.9236  -20.3007 C   0  0  0  0  0  0  0  0  0  0  0  0
   -8.2223   15.6559  -21.1848 C   0  0  0  0  0  0  0  0  0  0  0  0
   -7.0791   16.2929  -20.7166 C   0  0  0  0  0  0  0  0  0  0  0  0
   -6.3134   17.0095  -21.5301 N   0  0  0  0  0  0  0  0  0  0  0  0
   -8.7991   15.5876  -22.4054 N   0  0  0  0  0  0  0  0  0  0  0  0
   -9.9059   14.8259  -22.3056 C   0  0  0  0  0  0  0  0  0  0  0  0
  -10.0479   14.4144  -21.0050 N   0  0  0  0  0  0  0  0  0  0  0  0
  2  1  1  6  0  0  0
  2  3  1  0  0  0  0
  2  5  1  0  0  0  0
  3  4  1  0  0  0  0
  3 16  1  0  0  0  0
  5  6  1  0  0  0  0
  6  7  1  0  0  0  0
  7  8  1  0  0  0  0
  9  8  1  6  0  0  0
  9 10  1  0  0  0  0
  9 11  1  0  0  0  0
 10 15  1  0  0  0  0
 11 12  1  1  0  0  0
 11 13  1  0  0  0  0
 13 14  1  1  0  0  0
 13 15  1  0  0  0  0
 15 26  1  6  0  0  0
 17 18  2  0  0  0  0
 17 22  1  0  0  0  0
 18 19  1  0  0  0  0
 19 20  2  0  0  0  0
 20 21  1  0  0  0  0
 20 26  1  0  0  0  0
 21 22  2  0  0  0  0
 21 24  1  0  0  0  0
 22 23  1  0  0  0  0
 24 25  2  0  0  0  0
 25 26  1  0  0  0  0
M  END
>  <CHROM.1>
-39.29112102,-157.37060589,-67.44734116,-58.93655259,156.22992052,65.01342795
-102.87111761,-10.14903327,12.54874197,-22.28911369,-1.87112646,0.42172829
0.75927335

>  <Name>
ligand

>  <RI>
0

>  <Rbt.Current_Directory>
/home/itssahil/PROJECTS/Mol_Feturizer/New_Systems/rnas/3E5E

>  <Rbt.Executable>
rbdock ($Id: //depot/dev/client3/rdock/2013.1/src/exe/rbdock.cxx#4 $)

>  <Rbt.Library>
libRbt.so (2013.1, Build901 2013/11/27)

>  <Rbt.Parameter_File>
/export/apps/rDock/src/rDock_2013.1_src/data/scripts/dock_solv.prm

>  <Rbt.Receptor>
prm/blind_docking_80.prm

>  <SCORE>
-19.8563

>  <SCORE.INTER>
-15.8753

>  <SCORE.INTER.CONST>
1

>  <SCORE.INTER.POLAR>
0

>  <SCORE.INTER.ROT>
7

>  <SCORE.INTER.SOLV>
9.51299

>  <SCORE.INTER.VDW>
-22.0212

>  <SCORE.INTER.norm>
-0.610589

>  <SCORE.INTRA>
-3.98102

>  <SCORE.INTRA.DIHEDRAL>
-4.56624

>  <SCORE.INTRA.DIHEDRAL.0>
10.1225

>  <SCORE.INTRA.POLAR>
0

>  <SCORE.INTRA.POLAR.0>
0

>  <SCORE.INTRA.REPUL>
0

>  <SCORE.INTRA.REPUL.0>
0

>  <SCORE.INTRA.SOLV>
-0.422559

>  <SCORE.INTRA.SOLV.lig_0>
-49.9393

>  <SCORE.INTRA.VDW>
-1.48661

>  <SCORE.INTRA.VDW.0>
-1.75437

>  <SCORE.INTRA.norm>
-0.153116

>  <SCORE.RESTR>
0

>  <SCORE.RESTR.CAVITY>
0

>  <SCORE.RESTR.norm>
0

>  <SCORE.SYSTEM>
0

>  <SCORE.SYSTEM.CONST>
0

>  <SCORE.SYSTEM.DIHEDRAL>
0

>  <SCORE.SYSTEM.SOLV>
0

>  <SCORE.SYSTEM.norm>
0

>  <SCORE.heavy>
26

>  <SCORE.norm>
-0.763705

>  <RMSD>
5.620

$$$$
ligand
 OpenBabel11021811473D
libRbt.so/2013.1/901 2013/11/27
 26 28  0  0  0  0  0  0  0  0999 V2000
  -13.1212    4.2173  -14.6157 N   0  0  0  0  0  0  0  0  0  0  0  0
  -14.1883    4.9971  -15.2549 C   0  0  2  0  0  0  0  0  0  0  0  0
  -15.1847    5.4312  -14.2123 C   0  0  0  0  0  0  0  0  0  0  0  0
  -15.4758    4.6861  -13.3061 O   0  0  0  0  0  0  0  0  0  0  0  0
  -14.8904    4.1340  -16.3047 C   0  0  0  0  0  0  0  0  0  0  0  0
  -13.9827    3.9727  -17.5227 C   0  0  0  0  0  0  0  0  0  0  0  0
  -13.6373    5.2999  -18.5244 S   0  0  0  0  0  0  0  0  0  0  0  0
  -13.2260    7.0540  -18.3372 C   0  0  0  0  0  0  0  0  0  0  0  0
  -14.3208    7.9031  -17.6799 C   0  0  1  0  0  0  0  0  0  0  0  0
  -13.9411    9.2600  -17.5393 O   0  0  0  0  0  0  0  0  0  0  0  0
  -15.5655    7.9836  -18.5317 C   0  0  1  0  0  0  0  0  0  0  0  0
  -16.6059    8.2834  -17.6271 O   0  0  0  0  0  0  0  0  0  0  0  0
  -15.3574    9.1849  -19.4242 C   0  0  1  0  0  0  0  0  0  0  0  0
  -16.5651    9.9048  -19.5417 O   0  0  0  0  0  0  0  0  0  0  0  0
  -14.3461   10.0163  -18.6648 C   0  0  2  0  0  0  0  0  0  0  0  0
  -15.7530    6.6457  -14.2897 O   0  0  0  0  0  0  0  0  0  0  0  0
  -11.6501   13.8092  -21.0225 N   0  0  0  0  0  0  0  0  0  0  0  0
  -12.8789   13.8957  -20.4122 C   0  0  0  0  0  0  0  0  0  0  0  0
  -13.4378   12.7721  -19.8525 N   0  0  0  0  0  0  0  0  0  0  0  0
  -12.7937   11.5895  -19.8943 C   0  0  0  0  0  0  0  0  0  0  0  0
  -11.5570   11.4805  -20.5020 C   0  0  0  0  0  0  0  0  0  0  0  0
  -10.9844   12.6104  -21.0742 C   0  0  0  0  0  0  0  0  0  0  0  0
   -9.8006   12.5497  -21.6714 N   0  0  0  0  0  0  0  0  0  0  0  0
  -11.1469   10.1964  -20.3999 N   0  0  0  0  0  0  0  0  0  0  0  0
  -12.0943    9.5037  -19.7383 C   0  0  0  0  0  0  0  0  0  0  0  0
  -13.1284   10.3490  -19.4265 N   0  0  0  0  0  0  0  0  0  0  0  0
  2  1  1  1  0  0  0
  2  3  1  0  0  0  0
  2  5  1  0  0  0  0
  3  4  1  0  0  0  0
  3 16  1  0  0  0  0
  5  6  1  0  0  0  0
  6  7  1  0  0  0  0
  7  8  1  0  0  0  0
  9  8  1  6  0  0  0
  9 10  1  0  0  0  0
  9 11  1  0  0  0  0
 10 15  1  0  0  0  0
 11 12  1  1  0  0  0
 11 13  1  0  0  0  0
 13 14  1  1  0  0  0
 13 15  1  0  0  0  0
 15 26  1  6  0  0  0
 17 18  2  0  0  0  0
 17 22  1  0  0  0  0
 18 19  1  0  0  0  0
 19 20  2  0  0  0  0
 20 21  1  0  0  0  0
 20 26  1  0  0  0  0
 21 22  2  0  0  0  0
 21 24  1  0  0  0  0
 22 23  1  0  0  0  0
 24 25  2  0  0  0  0
 25 26  1  0  0  0  0
M  END
>  <CHROM.1>
-37.77838714,-73.52796518,-68.34698616,42.26231808,-63.07013613,179.10330123
-131.55099803,-13.74990964,8.51143856,-18.21881679,-1.90584545,0.47081487
-0.45456190

>  <Name>
ligand

>  <RI>
0

>  <Rbt.Current_Directory>
/home/itssahil/PROJECTS/Mol_Feturizer/New_Systems/rnas/3E5E

>  <Rbt.Executable>
rbdock ($Id: //depot/dev/client3/rdock/2013.1/src/exe/rbdock.cxx#4 $)

>  <Rbt.Library>
libRbt.so (2013.1, Build901 2013/11/27)

>  <Rbt.Parameter_File>
/export/apps/rDock/src/rDock_2013.1_src/data/scripts/dock_solv.prm

>  <Rbt.Receptor>
prm/pocket_docking_7.prm

>  <SCORE>
-10.6561

>  <SCORE.INTER>
-6.67609

>  <SCORE.INTER.CONST>
1

>  <SCORE.INTER.POLAR>
0

>  <SCORE.INTER.ROT>
7

>  <SCORE.INTER.SOLV>
9.21511

>  <SCORE.INTER.VDW>
-15.7891

>  <SCORE.INTER.norm>
-0.256773

>  <SCORE.INTRA>
-3.98003

>  <SCORE.INTRA.DIHEDRAL>
-5.90036

>  <SCORE.INTRA.DIHEDRAL.0>
10.1225

>  <SCORE.INTRA.POLAR>
0

>  <SCORE.INTRA.POLAR.0>
0

>  <SCORE.INTRA.REPUL>
0

>  <SCORE.INTRA.REPUL.0>
0

>  <SCORE.INTRA.SOLV>
0.539619

>  <SCORE.INTRA.SOLV.lig_0>
-49.9393

>  <SCORE.INTRA.VDW>
-1.29966

>  <SCORE.INTRA.VDW.0>
-1.75437

>  <SCORE.INTRA.norm>
-0.153078

>  <SCORE.RESTR>
0

>  <SCORE.RESTR.CAVITY>
0

>  <SCORE.RESTR.norm>
0

>  <SCORE.SYSTEM>
0

>  <SCORE.SYSTEM.CONST>
0

>  <SCORE.SYSTEM.DIHEDRAL>
0

>  <SCORE.SYSTEM.SOLV>
0

>  <SCORE.SYSTEM.norm>
0

>  <SCORE.heavy>
26

>  <SCORE.norm>
-0.409851

>  <RMSD>
5.686

$$$$
ligand
 OpenBabel11021811473D
libRbt.so/2013.1/901 2013/11/27
 26 28  0  0  0  0  0  0  0  0999 V2000
  -13.8275   10.2546  -23.1430 N   0  0  0  0  0  0  0  0  0  0  0  0
  -12.5798   11.0145  -22.9968 C   0  0  2  0  0  0  0  0  0  0  0  0
  -12.2016   11.0810  -21.5405 C   0  0  0  0  0  0  0  0  0  0  0  0
  -12.9631   11.5701  -20.7393 O   0  0  0  0  0  0  0  0  0  0  0  0
  -12.7803   12.4310  -23.5380 C   0  0  0  0  0  0  0  0  0  0  0  0
  -11.4198   13.0867  -23.7680 C   0  0  0  0  0  0  0  0  0  0  0  0
  -10.3707   13.3793  -22.4649 S   0  0  0  0  0  0  0  0  0  0  0  0
  -10.4324   14.1873  -20.8449 C   0  0  0  0  0  0  0  0  0  0  0  0
   -9.2431   13.8775  -19.9277 C   0  0  1  0  0  0  0  0  0  0  0  0
   -8.0027   14.2270  -20.5141 O   0  0  0  0  0  0  0  0  0  0  0  0
   -9.2689   14.7055  -18.6647 C   0  0  1  0  0  0  0  0  0  0  0  0
   -8.5084   13.9692  -17.7320 O   0  0  0  0  0  0  0  0  0  0  0  0
   -8.5072   15.9661  -19.0023 C   0  0  1  0  0  0  0  0  0  0  0  0
   -7.6912   16.3348  -17.9120 O   0  0  0  0  0  0  0  0  0  0  0  0
   -7.6353   15.5489  -20.1668 C   0  0  2  0  0  0  0  0  0  0  0  0
  -11.0166   10.5994  -21.1309 O   0  0  0  0  0  0  0  0  0  0  0  0
   -5.2511   18.7592  -23.5169 N   0  0  0  0  0  0  0  0  0  0  0  0
   -4.7327   18.1790  -22.3835 C   0  0  0  0  0  0  0  0  0  0  0  0
   -5.5287   17.3643  -21.6149 N   0  0  0  0  0  0  0  0  0  0  0  0
   -6.8089   17.1277  -21.9617 C   0  0  0  0  0  0  0  0  0  0  0  0
   -7.3499   17.7002  -23.0975 C   0  0  0  0  0  0  0  0  0  0  0  0
   -6.5541   18.5286  -23.8801 C   0  0  0  0  0  0  0  0  0  0  0  0
   -7.0342   19.1019  -24.9766 N   0  0  0  0  0  0  0  0  0  0  0  0
   -8.6362   17.2981  -23.2027 N   0  0  0  0  0  0  0  0  0  0  0  0
   -8.9088   16.4844  -22.1641 C   0  0  0  0  0  0  0  0  0  0  0  0
   -7.7905   16.3759  -21.3775 N   0  0  0  0  0  0  0  0  0  0  0  0
  2  1  1  1  0  0  0
  2  3  1  0  0  0  0
  2  5  1  0  0  0  0
  3  4  1  0  0  0  0
  3 16  1  0  0  0  0
  5  6  1  0  0  0  0
  6  7  1  0  0  0  0
  7  8  1  0  0  0  0
  9  8  1  6  0  0  0
  9 10  1  0  0  0  0
  9 11  1  0  0  0  0
 10 15  1  0  0  0  0
 11 12  1  1  0  0  0
 11 13  1  0  0  0  0
 13 14  1  1  0  0  0
 13 15  1  0  0  0  0
 15 26  1  6  0  0  0
 17 18  2  0  0  0  0
 17 22  1  0  0  0  0
 18 19  1  0  0  0  0
 19 20  2  0  0  0  0
 20 21  1  0  0  0  0
 20 26  1  0  0  0  0
 21 22  2  0  0  0  0
 21 24  1  0  0  0  0
 22 23  1  0  0  0  0
 24 25  2  0  0  0  0
 25 26  1  0  0  0  0
M  END
>  <CHROM.1>
-58.50793583,-163.63599091,-63.44913755,-52.56215270,166.77159017,57.59776634
-123.01919453,-9.15588899,14.80790769,-21.60371130,2.86827962,0.79605019
1.88946448

>  <Name>
ligand

>  <RI>
0

>  <Rbt.Current_Directory>
/home/itssahil/PROJECTS/Mol_Feturizer/New_Systems/rnas/3E5E

>  <Rbt.Executable>
rbdock ($Id: //depot/dev/client3/rdock/2013.1/src/exe/rbdock.cxx#4 $)

>  <Rbt.Library>
libRbt.so (2013.1, Build901 2013/11/27)

>  <Rbt.Parameter_File>
/export/apps/rDock/src/rDock_2013.1_src/data/scripts/dock_solv.prm

>  <Rbt.Receptor>
prm/pocket_docking_5.prm

>  <SCORE>
-19.2691

>  <SCORE.INTER>
-14.7078

>  <SCORE.INTER.CONST>
1

>  <SCORE.INTER.POLAR>
0

>  <SCORE.INTER.ROT>
7

>  <SCORE.INTER.SOLV>
14.215

>  <SCORE.INTER.VDW>
-22.8102

>  <SCORE.INTER.norm>
-0.565685

>  <SCORE.INTRA>
-4.56323

>  <SCORE.INTRA.DIHEDRAL>
-5.96243

>  <SCORE.INTRA.DIHEDRAL.0>
10.1225

>  <SCORE.INTRA.POLAR>
0

>  <SCORE.INTRA.POLAR.0>
0

>  <SCORE.INTRA.REPUL>
0

>  <SCORE.INTRA.REPUL.0>
0

>  <SCORE.INTRA.SOLV>
-0.381693

>  <SCORE.INTRA.SOLV.lig_0>
-49.9393

>  <SCORE.INTRA.VDW>
-1.39117

>  <SCORE.INTRA.VDW.0>
-1.75437

>  <SCORE.INTRA.norm>
-0.175509

>  <SCORE.RESTR>
0.00193215

>  <SCORE.RESTR.CAVITY>
0.00193215

>  <SCORE.RESTR.norm>
7.43135e-05

>  <SCORE.SYSTEM>
0

>  <SCORE.SYSTEM.CONST>
0

>  <SCORE.SYSTEM.DIHEDRAL>
0

>  <SCORE.SYSTEM.SOLV>
0

>  <SCORE.SYSTEM.norm>
0

>  <SCORE.heavy>
26

>  <SCORE.norm>
-0.741119

>  <RMSD>
5.741

$$$$
ligand
 OpenBabel11021811473D
libRbt.so/2013.1/901 2013/11/27
 26 28  0  0  0  0  0  0  0  0999 V2000
  -13.3742   10.0001  -14.0808 N   0  0  0  0  0  0  0  0  0  0  0  0
  -14.6547   10.1627  -14.7803 C   0  0  2  0  0  0  0  0  0  0  0  0
  -15.7293    9.4118  -14.0388 C   0  0  0  0  0  0  0  0  0  0  0  0
  -15.5167    8.2926  -13.6349 O   0  0  0  0  0  0  0  0  0  0  0  0
  -14.5325    9.6095  -16.2011 C   0  0  0  0  0  0  0  0  0  0  0  0
  -13.5737   10.4831  -17.0081 C   0  0  0  0  0  0  0  0  0  0  0  0
  -13.2990   10.1709  -18.6547 S   0  0  0  0  0  0  0  0  0  0  0  0
  -12.0623   10.5823  -19.9126 C   0  0  0  0  0  0  0  0  0  0  0  0
  -11.7299   12.0754  -20.0216 C   0  0  1  0  0  0  0  0  0  0  0  0
  -10.7427   12.3392  -21.0017 O   0  0  0  0  0  0  0  0  0  0  0  0
  -12.9108   12.8869  -20.4996 C   0  0  1  0  0  0  0  0  0  0  0  0
  -12.6621   14.1967  -20.0382 O   0  0  0  0  0  0  0  0  0  0  0  0
  -12.8042   12.8908  -22.0068 C   0  0  1  0  0  0  0  0  0  0  0  0
  -13.1308   14.1705  -22.5031 O   0  0  0  0  0  0  0  0  0  0  0  0
  -11.3378   12.6118  -22.2564 C   0  0  2  0  0  0  0  0  0  0  0  0
  -16.9260    9.9840  -13.8277 O   0  0  0  0  0  0  0  0  0  0  0  0
  -13.1860    8.0789  -24.0594 N   0  0  0  0  0  0  0  0  0  0  0  0
  -13.7627    8.9251  -23.1422 C   0  0  0  0  0  0  0  0  0  0  0  0
  -13.1096   10.0787  -22.7806 N   0  0  0  0  0  0  0  0  0  0  0  0
  -11.9129   10.3886  -23.3165 C   0  0  0  0  0  0  0  0  0  0  0  0
  -11.3157    9.5524  -24.2410 C   0  0  0  0  0  0  0  0  0  0  0  0
  -11.9665    8.3814  -24.6111 C   0  0  0  0  0  0  0  0  0  0  0  0
  -11.4273    7.5480  -25.4922 N   0  0  0  0  0  0  0  0  0  0  0  0
  -10.1357   10.1007  -24.6075 N   0  0  0  0  0  0  0  0  0  0  0  0
   -9.9853   11.2608  -23.9392 C   0  0  0  0  0  0  0  0  0  0  0  0
  -11.0728   11.4504  -23.1252 N   0  0  0  0  0  0  0  0  0  0  0  0
  2  1  1  1  0  0  0
  2  3  1  0  0  0  0
  2  5  1  0  0  0  0
  3  4  1  0  0  0  0
  3 16  1  0  0  0  0
  5  6  1  0  0  0  0
  6  7  1  0  0  0  0
  7  8  1  0  0  0  0
  9  8  1  6  0  0  0
  9 10  1  0  0  0  0
  9 11  1  0  0  0  0
 10 15  1  0  0  0  0
 11 12  1  1  0  0  0
 11 13  1  0  0  0  0
 13 14  1  1  0  0  0
 13 15  1  0  0  0  0
 15 26  1  6  0  0  0
 17 18  2  0  0  0  0
 17 22  1  0  0  0  0
 18 19  1  0  0  0  0
 19 20  2  0  0  0  0
 20 21  1  0  0  0  0
 20 26  1  0  0  0  0
 21 22  2  0  0  0  0
 21 24  1  0  0  0  0
 22 23  1  0  0  0  0
 24 25  2  0  0  0  0
 25 26  1  0  0  0  0
M  END
>  <CHROM.1>
-44.56589885,-67.25936923,-176.59892520,-161.64888222,-50.71728470,178.96829862
94.48500804,-12.86559592,10.62243872,-20.18266437,-2.66730710,-1.16068101
-2.56009540

>  <Name>
ligand

>  <RI>
0

>  <Rbt.Current_Directory>
/home/itssahil/PROJECTS/Mol_Feturizer/New_Systems/rnas/3E5E

>  <Rbt.Executable>
rbdock ($Id: //depot/dev/client3/rdock/2013.1/src/exe/rbdock.cxx#4 $)

>  <Rbt.Library>
libRbt.so (2013.1, Build901 2013/11/27)

>  <Rbt.Parameter_File>
/export/apps/rDock/src/rDock_2013.1_src/data/scripts/dock_solv.prm

>  <Rbt.Receptor>
prm/pocket_docking_8.prm

>  <SCORE>
-19.0765

>  <SCORE.INTER>
-15.0486

>  <SCORE.INTER.CONST>
1

>  <SCORE.INTER.POLAR>
0

>  <SCORE.INTER.ROT>
7

>  <SCORE.INTER.SOLV>
15.7134

>  <SCORE.INTER.VDW>
-23.5368

>  <SCORE.INTER.norm>
-0.578791

>  <SCORE.INTRA>
-4.03346

>  <SCORE.INTRA.DIHEDRAL>
-6.41743

>  <SCORE.INTRA.DIHEDRAL.0>
10.1225

>  <SCORE.INTRA.POLAR>
0

>  <SCORE.INTRA.POLAR.0>
0

>  <SCORE.INTRA.REPUL>
0

>  <SCORE.INTRA.REPUL.0>
0

>  <SCORE.INTRA.SOLV>
0.0838595

>  <SCORE.INTRA.SOLV.lig_0>
-49.9393

>  <SCORE.INTRA.VDW>
-0.866668

>  <SCORE.INTRA.VDW.0>
-1.75437

>  <SCORE.INTRA.norm>
-0.155133

>  <SCORE.RESTR>
0.00554889

>  <SCORE.RESTR.CAVITY>
0.00554889

>  <SCORE.RESTR.norm>
0.000213419

>  <SCORE.SYSTEM>
0

>  <SCORE.SYSTEM.CONST>
0

>  <SCORE.SYSTEM.DIHEDRAL>
0

>  <SCORE.SYSTEM.SOLV>
0

>  <SCORE.SYSTEM.norm>
0

>  <SCORE.heavy>
26

>  <SCORE.norm>
-0.73371

>  <RMSD>
5.828

$$$$
ligand
 OpenBabel11021811473D
libRbt.so/2013.1/901 2013/11/27
 26 28  0  0  0  0  0  0  0  0999 V2000
   -9.9329    7.5681  -27.4061 N   0  0  0  0  0  0  0  0  0  0  0  0
   -9.5749    8.2150  -26.1376 C   0  0  2  0  0  0  0  0  0  0  0  0
  -10.1212    7.4058  -24.9910 C   0  0  0  0  0  0  0  0  0  0  0  0
  -10.7266    7.9523  -24.0989 O   0  0  0  0  0  0  0  0  0  0  0  0
  -10.1706    9.6234  -26.0987 C   0  0  0  0  0  0  0  0  0  0  0  0
   -9.4638   10.4468  -25.0235 C   0  0  0  0  0  0  0  0  0  0  0  0
   -9.9923   12.0174  -24.6518 S   0  0  0  0  0  0  0  0  0  0  0  0
  -11.3961   12.8010  -23.8174 C   0  0  0  0  0  0  0  0  0  0  0  0
  -11.7698   12.1770  -22.4673 C   0  0  1  0  0  0  0  0  0  0  0  0
  -10.7541   12.3439  -21.4950 O   0  0  0  0  0  0  0  0  0  0  0  0
  -12.9612   12.8585  -21.8367 C   0  0  1  0  0  0  0  0  0  0  0  0
  -13.5067   11.8980  -20.9591 O   0  0  0  0  0  0  0  0  0  0  0  0
  -12.3818   13.9797  -21.0059 C   0  0  1  0  0  0  0  0  0  0  0  0
  -13.0756   14.0710  -19.7807 O   0  0  0  0  0  0  0  0  0  0  0  0
  -10.9604   13.5283  -20.7484 C   0  0  2  0  0  0  0  0  0  0  0  0
   -9.9341    6.0762  -24.9570 O   0  0  0  0  0  0  0  0  0  0  0  0
   -6.6619   16.1126  -19.3137 N   0  0  0  0  0  0  0  0  0  0  0  0
   -7.4362   15.2673  -18.5547 C   0  0  0  0  0  0  0  0  0  0  0  0
   -8.5489   14.6848  -19.1119 N   0  0  0  0  0  0  0  0  0  0  0  0
   -8.8867   14.9320  -20.3925 C   0  0  0  0  0  0  0  0  0  0  0  0
   -8.1218   15.7778  -21.1736 C   0  0  0  0  0  0  0  0  0  0  0  0
   -6.9960   16.3748  -20.6185 C   0  0  0  0  0  0  0  0  0  0  0  0
   -6.2356   17.1966  -21.3314 N   0  0  0  0  0  0  0  0  0  0  0  0
   -8.6842   15.8448  -22.4010 N   0  0  0  0  0  0  0  0  0  0  0  0
   -9.7771   15.0571  -22.4064 C   0  0  0  0  0  0  0  0  0  0  0  0
   -9.9249   14.4915  -21.1657 N   0  0  0  0  0  0  0  0  0  0  0  0
  2  1  1  6  0  0  0
  2  3  1  0  0  0  0
  2  5  1  0  0  0  0
  3  4  1  0  0  0  0
  3 16  1  0  0  0  0
  5  6  1  0  0  0  0
  6  7  1  0  0  0  0
  7  8  1  0  0  0  0
  9  8  1  6  0  0  0
  9 10  1  0  0  0  0
  9 11  1  0  0  0  0
 10 15  1  0  0  0  0
 11 12  1  1  0  0  0
 11 13  1  0  0  0  0
 13 14  1  1  0  0  0
 13 15  1  0  0  0  0
 15 26  1  6  0  0  0
 17 18  2  0  0  0  0
 17 22  1  0  0  0  0
 18 19  1  0  0  0  0
 19 20  2  0  0  0  0
 20 21  1  0  0  0  0
 20 26  1  0  0  0  0
 21 22  2  0  0  0  0
 21 24  1  0  0  0  0
 22 23  1  0  0  0  0
 24 25  2  0  0  0  0
 25 26  1  0  0  0  0
M  END
>  <CHROM.1>
-132.18617552,-162.40089394,-174.89898394,71.98254455,46.60456384,65.48435939
-111.55702277,-9.99327398,12.51313662,-22.52075206,-1.77477282,0.35125703
0.68479021

>  <Name>
ligand

>  <RI>
0

>  <Rbt.Current_Directory>
/home/itssahil/PROJECTS/Mol_Feturizer/New_Systems/rnas/3E5E

>  <Rbt.Executable>
rbdock ($Id: //depot/dev/client3/rdock/2013.1/src/exe/rbdock.cxx#4 $)

>  <Rbt.Library>
libRbt.so (2013.1, Build901 2013/11/27)

>  <Rbt.Parameter_File>
/export/apps/rDock/src/rDock_2013.1_src/data/scripts/dock_solv.prm

>  <Rbt.Receptor>
prm/blind_docking_60.prm

>  <SCORE>
-20.2033

>  <SCORE.INTER>
-17.6181

>  <SCORE.INTER.CONST>
1

>  <SCORE.INTER.POLAR>
0

>  <SCORE.INTER.ROT>
7

>  <SCORE.INTER.SOLV>
11.2868

>  <SCORE.INTER.VDW>
-23.7743

>  <SCORE.INTER.norm>
-0.67762

>  <SCORE.INTRA>
-2.58522

>  <SCORE.INTRA.DIHEDRAL>
-5.58944

>  <SCORE.INTRA.DIHEDRAL.0>
10.1225

>  <SCORE.INTRA.POLAR>
0

>  <SCORE.INTRA.POLAR.0>
0

>  <SCORE.INTRA.REPUL>
0

>  <SCORE.INTRA.REPUL.0>
0

>  <SCORE.INTRA.SOLV>
-0.556259

>  <SCORE.INTRA.SOLV.lig_0>
-49.9393

>  <SCORE.INTRA.VDW>
0.48763

>  <SCORE.INTRA.VDW.0>
-1.75437

>  <SCORE.INTRA.norm>
-0.0994316

>  <SCORE.RESTR>
0

>  <SCORE.RESTR.CAVITY>
0

>  <SCORE.RESTR.norm>
0

>  <SCORE.SYSTEM>
0

>  <SCORE.SYSTEM.CONST>
0

>  <SCORE.SYSTEM.DIHEDRAL>
0

>  <SCORE.SYSTEM.SOLV>
0

>  <SCORE.SYSTEM.norm>
0

>  <SCORE.heavy>
26

>  <SCORE.norm>
-0.777051

>  <RMSD>
5.845

$$$$
ligand
 OpenBabel11021811473D
libRbt.so/2013.1/901 2013/11/27
 26 28  0  0  0  0  0  0  0  0999 V2000
  -13.6889    7.4843  -18.5268 N   0  0  0  0  0  0  0  0  0  0  0  0
  -14.0253    8.5952  -19.4258 C   0  0  2  0  0  0  0  0  0  0  0  0
  -13.9163    9.8968  -18.6761 C   0  0  0  0  0  0  0  0  0  0  0  0
  -14.2613    9.9597  -17.5193 O   0  0  0  0  0  0  0  0  0  0  0  0
  -15.4555    8.4194  -19.9391 C   0  0  0  0  0  0  0  0  0  0  0  0
  -15.7336    9.4453  -21.0363 C   0  0  0  0  0  0  0  0  0  0  0  0
  -14.7878    9.4797  -22.4464 S   0  0  0  0  0  0  0  0  0  0  0  0
  -13.0427    9.6774  -22.8899 C   0  0  0  0  0  0  0  0  0  0  0  0
  -12.2962   10.7543  -22.0933 C   0  0  1  0  0  0  0  0  0  0  0  0
  -10.9478   10.8921  -22.5026 O   0  0  0  0  0  0  0  0  0  0  0  0
  -12.8668   12.1329  -22.3287 C   0  0  1  0  0  0  0  0  0  0  0  0
  -12.4947   12.8793  -21.1908 O   0  0  0  0  0  0  0  0  0  0  0  0
  -12.1089   12.6774  -23.5171 C   0  0  1  0  0  0  0  0  0  0  0  0
  -11.8126   14.0409  -23.3078 O   0  0  0  0  0  0  0  0  0  0  0  0
  -10.8253   11.8756  -23.5129 C   0  0  2  0  0  0  0  0  0  0  0  0
  -13.4380   10.9900  -19.2927 O   0  0  0  0  0  0  0  0  0  0  0  0
   -9.5246   12.4044  -28.5370 N   0  0  0  0  0  0  0  0  0  0  0  0
   -9.7699   13.3949  -27.6158 C   0  0  0  0  0  0  0  0  0  0  0  0
  -10.1151   13.0539  -26.3303 N   0  0  0  0  0  0  0  0  0  0  0  0
  -10.2135   11.7610  -25.9643 C   0  0  0  0  0  0  0  0  0  0  0  0
   -9.9703   10.7494  -26.8743 C   0  0  0  0  0  0  0  0  0  0  0  0
   -9.6236   11.0836  -28.1781 C   0  0  0  0  0  0  0  0  0  0  0  0
   -9.3855   10.1442  -29.0850 N   0  0  0  0  0  0  0  0  0  0  0  0
  -10.1397    9.5647  -26.2456 N   0  0  0  0  0  0  0  0  0  0  0  0
  -10.4765    9.8126  -24.9649 C   0  0  0  0  0  0  0  0  0  0  0  0
  -10.5381   11.1695  -24.7749 N   0  0  0  0  0  0  0  0  0  0  0  0
  2  1  1  1  0  0  0
  2  3  1  0  0  0  0
  2  5  1  0  0  0  0
  3  4  1  0  0  0  0
  3 16  1  0  0  0  0
  5  6  1  0  0  0  0
  6  7  1  0  0  0  0
  7  8  1  0  0  0  0
  9  8  1  6  0  0  0
  9 10  1  0  0  0  0
  9 11  1  0  0  0  0
 10 15  1  0  0  0  0
 11 12  1  1  0  0  0
 11 13  1  0  0  0  0
 13 14  1  1  0  0  0
 13 15  1  0  0  0  0
 15 26  1  6  0  0  0
 17 18  2  0  0  0  0
 17 22  1  0  0  0  0
 18 19  1  0  0  0  0
 19 20  2  0  0  0  0
 20 21  1  0  0  0  0
 20 26  1  0  0  0  0
 21 22  2  0  0  0  0
 21 24  1  0  0  0  0
 22 23  1  0  0  0  0
 24 25  2  0  0  0  0
 25 26  1  0  0  0  0
M  END
>  <CHROM.1>
-37.49103099,-171.25262286,59.30214018,-58.25387805,-41.43758580,-178.44367491
-172.84580019,-12.16712175,10.80348221,-23.17613806,2.85890593,1.03813906
0.60313242

>  <Name>
ligand

>  <RI>
0

>  <Rbt.Current_Directory>
/home/itssahil/PROJECTS/Mol_Feturizer/New_Systems/rnas/3E5E

>  <Rbt.Executable>
rbdock ($Id: //depot/dev/client3/rdock/2013.1/src/exe/rbdock.cxx#4 $)

>  <Rbt.Library>
libRbt.so (2013.1, Build901 2013/11/27)

>  <Rbt.Parameter_File>
/export/apps/rDock/src/rDock_2013.1_src/data/scripts/dock_solv.prm

>  <Rbt.Receptor>
prm/pocket_docking_7.prm

>  <SCORE>
-16.3083

>  <SCORE.INTER>
-11.3306

>  <SCORE.INTER.CONST>
1

>  <SCORE.INTER.POLAR>
0

>  <SCORE.INTER.ROT>
7

>  <SCORE.INTER.SOLV>
9.39978

>  <SCORE.INTER.VDW>
-18.9536

>  <SCORE.INTER.norm>
-0.435792

>  <SCORE.INTRA>
-4.97768

>  <SCORE.INTRA.DIHEDRAL>
-6.56274

>  <SCORE.INTRA.DIHEDRAL.0>
10.1225

>  <SCORE.INTRA.POLAR>
0

>  <SCORE.INTRA.POLAR.0>
0

>  <SCORE.INTRA.REPUL>
0

>  <SCORE.INTRA.REPUL.0>
0

>  <SCORE.INTRA.SOLV>
-0.19382

>  <SCORE.INTRA.SOLV.lig_0>
-49.9393

>  <SCORE.INTRA.VDW>
-1.5994

>  <SCORE.INTRA.VDW.0>
-1.75437

>  <SCORE.INTRA.norm>
-0.191449

>  <SCORE.RESTR>
0

>  <SCORE.RESTR.CAVITY>
0

>  <SCORE.RESTR.norm>
0

>  <SCORE.SYSTEM>
0

>  <SCORE.SYSTEM.CONST>
0

>  <SCORE.SYSTEM.DIHEDRAL>
0

>  <SCORE.SYSTEM.SOLV>
0

>  <SCORE.SYSTEM.norm>
0

>  <SCORE.heavy>
26

>  <SCORE.norm>
-0.627241

>  <RMSD>
5.848

$$$$
ligand
 OpenBabel11021811473D
libRbt.so/2013.1/901 2013/11/27
 26 28  0  0  0  0  0  0  0  0999 V2000
  -10.9770    7.8125  -27.5081 N   0  0  0  0  0  0  0  0  0  0  0  0
  -10.5038    8.1359  -26.1565 C   0  0  2  0  0  0  0  0  0  0  0  0
   -9.4367    7.1535  -25.7510 C   0  0  0  0  0  0  0  0  0  0  0  0
   -9.7392    6.0249  -25.4416 O   0  0  0  0  0  0  0  0  0  0  0  0
  -11.6736    8.0540  -25.1745 C   0  0  0  0  0  0  0  0  0  0  0  0
  -11.2448    8.6190  -23.8215 C   0  0  0  0  0  0  0  0  0  0  0  0
  -10.9426   10.2797  -23.6356 S   0  0  0  0  0  0  0  0  0  0  0  0
  -10.3585   11.4029  -22.3401 C   0  0  0  0  0  0  0  0  0  0  0  0
  -11.2527   11.4677  -21.0960 C   0  0  1  0  0  0  0  0  0  0  0  0
  -10.6865   12.2544  -20.0637 O   0  0  0  0  0  0  0  0  0  0  0  0
  -12.5642   12.1631  -21.3746 C   0  0  1  0  0  0  0  0  0  0  0  0
  -13.4484   11.6802  -20.3869 O   0  0  0  0  0  0  0  0  0  0  0  0
  -12.3034   13.6255  -21.0981 C   0  0  1  0  0  0  0  0  0  0  0  0
  -13.4128   14.1888  -20.4328 O   0  0  0  0  0  0  0  0  0  0  0  0
  -11.1138   13.5999  -20.1630 C   0  0  2  0  0  0  0  0  0  0  0  0
   -8.1479    7.5311  -25.7301 O   0  0  0  0  0  0  0  0  0  0  0  0
   -6.7535   16.0712  -18.7157 N   0  0  0  0  0  0  0  0  0  0  0  0
   -7.6745   15.4376  -17.9155 C   0  0  0  0  0  0  0  0  0  0  0  0
   -8.7769   14.8490  -18.4868 N   0  0  0  0  0  0  0  0  0  0  0  0
   -8.9625   14.8853  -19.8208 C   0  0  0  0  0  0  0  0  0  0  0  0
   -8.0486   15.5162  -20.6437 C   0  0  0  0  0  0  0  0  0  0  0  0
   -6.9317   16.1176  -20.0755 C   0  0  0  0  0  0  0  0  0  0  0  0
   -6.0312   16.7376  -20.8280 N   0  0  0  0  0  0  0  0  0  0  0  0
   -8.4789   15.4022  -21.9201 N   0  0  0  0  0  0  0  0  0  0  0  0
   -9.6351   14.7107  -21.9139 C   0  0  0  0  0  0  0  0  0  0  0  0
   -9.9565   14.3914  -20.6194 N   0  0  0  0  0  0  0  0  0  0  0  0
  2  1  1  6  0  0  0
  2  3  1  0  0  0  0
  2  5  1  0  0  0  0
  3  4  1  0  0  0  0
  3 16  1  0  0  0  0
  5  6  1  0  0  0  0
  6  7  1  0  0  0  0
  7  8  1  0  0  0  0
  9  8  1  6  0  0  0
  9 10  1  0  0  0  0
  9 11  1  0  0  0  0
 10 15  1  0  0  0  0
 11 12  1  1  0  0  0
 11 13  1  0  0  0  0
 13 14  1  1  0  0  0
 13 15  1  0  0  0  0
 15 26  1  6  0  0  0
 17 18  2  0  0  0  0
 17 22  1  0  0  0  0
 18 19  1  0  0  0  0
 19 20  2  0  0  0  0
 20 21  1  0  0  0  0
 20 26  1  0  0  0  0
 21 22  2  0  0  0  0
 21 24  1  0  0  0  0
 22 23  1  0  0  0  0
 24 25  2  0  0  0  0
 25 26  1  0  0  0  0
M  END
>  <CHROM.1>
-74.57074933,-170.31739498,69.20619670,-176.19303588,-62.18758851,174.15359352
-83.39798633,-10.06825882,12.04053297,-22.08834898,-1.77034889,0.26405762
0.69913339

>  <Name>
ligand

>  <RI>
0

>  <Rbt.Current_Directory>
/home/itssahil/PROJECTS/Mol_Feturizer/New_Systems/rnas/3E5E

>  <Rbt.Executable>
rbdock ($Id: //depot/dev/client3/rdock/2013.1/src/exe/rbdock.cxx#4 $)

>  <Rbt.Library>
libRbt.so (2013.1, Build901 2013/11/27)

>  <Rbt.Parameter_File>
/export/apps/rDock/src/rDock_2013.1_src/data/scripts/dock_solv.prm

>  <Rbt.Receptor>
prm/pocket_docking_8.prm

>  <SCORE>
-23.6191

>  <SCORE.INTER>
-19.6905

>  <SCORE.INTER.CONST>
1

>  <SCORE.INTER.POLAR>
0

>  <SCORE.INTER.ROT>
7

>  <SCORE.INTER.SOLV>
12.437

>  <SCORE.INTER.VDW>
-25.5393

>  <SCORE.INTER.norm>
-0.757325

>  <SCORE.INTRA>
-3.92861

>  <SCORE.INTRA.DIHEDRAL>
-6.71289

>  <SCORE.INTRA.DIHEDRAL.0>
10.1225

>  <SCORE.INTRA.POLAR>
0

>  <SCORE.INTRA.POLAR.0>
0

>  <SCORE.INTRA.REPUL>
0

>  <SCORE.INTRA.REPUL.0>
0

>  <SCORE.INTRA.SOLV>
-0.560364

>  <SCORE.INTRA.SOLV.lig_0>
-49.9393

>  <SCORE.INTRA.VDW>
-0.291981

>  <SCORE.INTRA.VDW.0>
-1.75437

>  <SCORE.INTRA.norm>
-0.1511

>  <SCORE.RESTR>
0

>  <SCORE.RESTR.CAVITY>
0

>  <SCORE.RESTR.norm>
0

>  <SCORE.SYSTEM>
0

>  <SCORE.SYSTEM.CONST>
0

>  <SCORE.SYSTEM.DIHEDRAL>
0

>  <SCORE.SYSTEM.SOLV>
0

>  <SCORE.SYSTEM.norm>
0

>  <SCORE.heavy>
26

>  <SCORE.norm>
-0.908426

>  <RMSD>
5.861

$$$$
ligand
 OpenBabel11021811473D
libRbt.so/2013.1/901 2013/11/27
 26 28  0  0  0  0  0  0  0  0999 V2000
  -11.9579    7.1684  -25.6813 N   0  0  0  0  0  0  0  0  0  0  0  0
  -10.7039    7.5616  -26.3358 C   0  0  2  0  0  0  0  0  0  0  0  0
   -9.5510    6.8504  -25.6776 C   0  0  0  0  0  0  0  0  0  0  0  0
   -8.4145    7.1491  -25.9608 O   0  0  0  0  0  0  0  0  0  0  0  0
  -10.5136    9.0736  -26.2046 C   0  0  0  0  0  0  0  0  0  0  0  0
  -10.4326    9.4514  -24.7267 C   0  0  0  0  0  0  0  0  0  0  0  0
  -10.3086   11.0786  -24.2567 S   0  0  0  0  0  0  0  0  0  0  0  0
  -11.3237   12.3122  -23.4030 C   0  0  0  0  0  0  0  0  0  0  0  0
  -11.7851   11.9031  -21.9989 C   0  0  1  0  0  0  0  0  0  0  0  0
  -10.8270   12.2130  -21.0034 O   0  0  0  0  0  0  0  0  0  0  0  0
  -13.0031   12.6771  -21.5531 C   0  0  1  0  0  0  0  0  0  0  0  0
  -13.6121   11.8639  -20.5742 O   0  0  0  0  0  0  0  0  0  0  0  0
  -12.4599   13.9100  -20.8689 C   0  0  1  0  0  0  0  0  0  0  0  0
  -13.2243   14.1898  -19.7165 O   0  0  0  0  0  0  0  0  0  0  0  0
  -11.0622   13.4983  -20.4598 C   0  0  2  0  0  0  0  0  0  0  0  0
   -9.7843    5.8815  -24.7771 O   0  0  0  0  0  0  0  0  0  0  0  0
   -6.7498   16.1513  -19.2035 N   0  0  0  0  0  0  0  0  0  0  0  0
   -7.5673   15.4201  -18.3746 C   0  0  0  0  0  0  0  0  0  0  0  0
   -8.6758   14.7966  -18.8945 N   0  0  0  0  0  0  0  0  0  0  0  0
   -8.9677   14.8931  -20.2063 C   0  0  0  0  0  0  0  0  0  0  0  0
   -8.1588   15.6224  -21.0575 C   0  0  0  0  0  0  0  0  0  0  0  0
   -7.0369   16.2598  -20.5409 C   0  0  0  0  0  0  0  0  0  0  0  0
   -6.2353   16.9736  -21.3217 N   0  0  0  0  0  0  0  0  0  0  0  0
   -8.6811   15.5510  -22.3023 N   0  0  0  0  0  0  0  0  0  0  0  0
   -9.7919   14.7904  -22.2494 C   0  0  0  0  0  0  0  0  0  0  0  0
   -9.9916   14.3827  -20.9552 N   0  0  0  0  0  0  0  0  0  0  0  0
  2  1  1  1  0  0  0
  2  3  1  0  0  0  0
  2  5  1  0  0  0  0
  3  4  1  0  0  0  0
  3 16  1  0  0  0  0
  5  6  1  0  0  0  0
  6  7  1  0  0  0  0
  7  8  1  0  0  0  0
  9  8  1  6  0  0  0
  9 10  1  0  0  0  0
  9 11  1  0  0  0  0
 10 15  1  0  0  0  0
 11 12  1  1  0  0  0
 11 13  1  0  0  0  0
 13 14  1  1  0  0  0
 13 15  1  0  0  0  0
 15 26  1  6  0  0  0
 17 18  2  0  0  0  0
 17 22  1  0  0  0  0
 18 19  1  0  0  0  0
 19 20  2  0  0  0  0
 20 21  1  0  0  0  0
 20 26  1  0  0  0  0
 21 22  2  0  0  0  0
 21 24  1  0  0  0  0
 22 23  1  0  0  0  0
 24 25  2  0  0  0  0
 25 26  1  0  0  0  0
M  END
>  <CHROM.1>
-171.40897049,61.00187457,-176.56131478,112.11191793,56.65147335,86.00135370
-109.00669045,-10.10043359,12.20655173,-22.37254982,1.74945432,-0.27213837
-2.48872049

>  <Name>
ligand

>  <RI>
0

>  <Rbt.Current_Directory>
/home/itssahil/PROJECTS/Mol_Feturizer/New_Systems/rnas/3E5E

>  <Rbt.Executable>
rbdock ($Id: //depot/dev/client3/rdock/2013.1/src/exe/rbdock.cxx#4 $)

>  <Rbt.Library>
libRbt.so (2013.1, Build901 2013/11/27)

>  <Rbt.Parameter_File>
/export/apps/rDock/src/rDock_2013.1_src/data/scripts/dock_solv.prm

>  <Rbt.Receptor>
prm/blind_docking_60.prm

>  <SCORE>
-18.4004

>  <SCORE.INTER>
-17.509

>  <SCORE.INTER.CONST>
1

>  <SCORE.INTER.POLAR>
0

>  <SCORE.INTER.ROT>
7

>  <SCORE.INTER.SOLV>
11.7524

>  <SCORE.INTER.VDW>
-23.8568

>  <SCORE.INTER.norm>
-0.673422

>  <SCORE.INTRA>
-0.897944

>  <SCORE.INTRA.DIHEDRAL>
-3.04282

>  <SCORE.INTRA.DIHEDRAL.0>
10.1225

>  <SCORE.INTRA.POLAR>
0

>  <SCORE.INTRA.POLAR.0>
0

>  <SCORE.INTRA.REPUL>
0

>  <SCORE.INTRA.REPUL.0>
0

>  <SCORE.INTRA.SOLV>
0.156506

>  <SCORE.INTRA.SOLV.lig_0>
-49.9393

>  <SCORE.INTRA.VDW>
0.545212

>  <SCORE.INTRA.VDW.0>
-1.75437

>  <SCORE.INTRA.norm>
-0.0345363

>  <SCORE.RESTR>
0.00648106

>  <SCORE.RESTR.CAVITY>
0.00648106

>  <SCORE.RESTR.norm>
0.000249272

>  <SCORE.SYSTEM>
0

>  <SCORE.SYSTEM.CONST>
0

>  <SCORE.SYSTEM.DIHEDRAL>
0

>  <SCORE.SYSTEM.SOLV>
0

>  <SCORE.SYSTEM.norm>
0

>  <SCORE.heavy>
26

>  <SCORE.norm>
-0.707709

>  <RMSD>
5.876

$$$$
ligand
 OpenBabel11021811473D
libRbt.so/2013.1/901 2013/11/27
 26 28  0  0  0  0  0  0  0  0999 V2000
  -11.8689    6.5830  -26.8708 N   0  0  0  0  0  0  0  0  0  0  0  0
  -12.1393    7.2545  -25.5934 C   0  0  2  0  0  0  0  0  0  0  0  0
  -11.0168    6.9699  -24.6305 C   0  0  0  0  0  0  0  0  0  0  0  0
  -10.4727    5.8906  -24.6372 O   0  0  0  0  0  0  0  0  0  0  0  0
  -13.4550    6.7331  -25.0129 C   0  0  0  0  0  0  0  0  0  0  0  0
  -13.7160    7.3980  -23.6626 C   0  0  0  0  0  0  0  0  0  0  0  0
  -13.5222    9.0745  -23.4735 S   0  0  0  0  0  0  0  0  0  0  0  0
  -13.6427   10.3001  -22.1452 C   0  0  0  0  0  0  0  0  0  0  0  0
  -12.9784    9.8850  -20.8268 C   0  0  1  0  0  0  0  0  0  0  0  0
  -11.5695    9.7958  -20.9361 O   0  0  0  0  0  0  0  0  0  0  0  0
  -13.1718   10.9190  -19.7429 C   0  0  1  0  0  0  0  0  0  0  0  0
  -13.0243   10.2087  -18.5329 O   0  0  0  0  0  0  0  0  0  0  0  0
  -11.9989   11.8615  -19.8812 C   0  0  1  0  0  0  0  0  0  0  0  0
  -11.5211   12.2167  -18.6020 O   0  0  0  0  0  0  0  0  0  0  0  0
  -10.9583   11.0256  -20.5945 C   0  0  2  0  0  0  0  0  0  0  0  0
  -10.6208    7.9143  -23.7615 O   0  0  0  0  0  0  0  0  0  0  0  0
   -8.6592   15.1792  -22.7567 N   0  0  0  0  0  0  0  0  0  0  0  0
   -9.0542   15.0128  -21.4505 C   0  0  0  0  0  0  0  0  0  0  0  0
   -9.6609   13.8400  -21.0705 N   0  0  0  0  0  0  0  0  0  0  0  0
   -9.8703   12.8530  -21.9634 C   0  0  0  0  0  0  0  0  0  0  0  0
   -9.4802   12.9991  -23.2813 C   0  0  0  0  0  0  0  0  0  0  0  0
   -8.8686   14.1830  -23.6768 C   0  0  0  0  0  0  0  0  0  0  0  0
   -8.4820   14.3669  -24.9331 N   0  0  0  0  0  0  0  0  0  0  0  0
   -9.8086   11.8697  -23.9477 N   0  0  0  0  0  0  0  0  0  0  0  0
  -10.3880   11.0208  -23.0766 C   0  0  0  0  0  0  0  0  0  0  0  0
  -10.4450   11.6181  -21.8433 N   0  0  0  0  0  0  0  0  0  0  0  0
  2  1  1  6  0  0  0
  2  3  1  0  0  0  0
  2  5  1  0  0  0  0
  3  4  1  0  0  0  0
  3 16  1  0  0  0  0
  5  6  1  0  0  0  0
  6  7  1  0  0  0  0
  7  8  1  0  0  0  0
  9  8  1  6  0  0  0
  9 10  1  0  0  0  0
  9 11  1  0  0  0  0
 10 15  1  0  0  0  0
 11 12  1  1  0  0  0
 11 13  1  0  0  0  0
 13 14  1  1  0  0  0
 13 15  1  0  0  0  0
 15 26  1  6  0  0  0
 17 18  2  0  0  0  0
 17 22  1  0  0  0  0
 18 19  1  0  0  0  0
 19 20  2  0  0  0  0
 20 21  1  0  0  0  0
 20 26  1  0  0  0  0
 21 22  2  0  0  0  0
 21 24  1  0  0  0  0
 22 23  1  0  0  0  0
 24 25  2  0  0  0  0
 25 26  1  0  0  0  0
M  END
>  <CHROM.1>
-35.74628662,178.21798369,46.14517498,-177.60312419,44.72638956,67.21182734
175.01473883,-11.31990591,10.49564899,-22.58507823,-2.12262760,0.87136307
0.86919861

>  <Name>
ligand

>  <RI>
0

>  <Rbt.Current_Directory>
/home/itssahil/PROJECTS/Mol_Feturizer/New_Systems/rnas/3E5E

>  <Rbt.Executable>
rbdock ($Id: //depot/dev/client3/rdock/2013.1/src/exe/rbdock.cxx#4 $)

>  <Rbt.Library>
libRbt.so (2013.1, Build901 2013/11/27)

>  <Rbt.Parameter_File>
/export/apps/rDock/src/rDock_2013.1_src/data/scripts/dock_solv.prm

>  <Rbt.Receptor>
prm/blind_docking_40.prm

>  <SCORE>
-14.7255

>  <SCORE.INTER>
-10.54

>  <SCORE.INTER.CONST>
1

>  <SCORE.INTER.POLAR>
0

>  <SCORE.INTER.ROT>
7

>  <SCORE.INTER.SOLV>
6.58659

>  <SCORE.INTER.VDW>
-17.4888

>  <SCORE.INTER.norm>
-0.405383

>  <SCORE.INTRA>
-4.18553

>  <SCORE.INTRA.DIHEDRAL>
-6.20506

>  <SCORE.INTRA.DIHEDRAL.0>
10.1225

>  <SCORE.INTRA.POLAR>
0

>  <SCORE.INTRA.POLAR.0>
0

>  <SCORE.INTRA.REPUL>
0

>  <SCORE.INTRA.REPUL.0>
0

>  <SCORE.INTRA.SOLV>
-0.291306

>  <SCORE.INTRA.SOLV.lig_0>
-49.9393

>  <SCORE.INTRA.VDW>
-0.937343

>  <SCORE.INTRA.VDW.0>
-1.75437

>  <SCORE.INTRA.norm>
-0.160982

>  <SCORE.RESTR>
0

>  <SCORE.RESTR.CAVITY>
0

>  <SCORE.RESTR.norm>
0

>  <SCORE.SYSTEM>
0

>  <SCORE.SYSTEM.CONST>
0

>  <SCORE.SYSTEM.DIHEDRAL>
0

>  <SCORE.SYSTEM.SOLV>
0

>  <SCORE.SYSTEM.norm>
0

>  <SCORE.heavy>
26

>  <SCORE.norm>
-0.566365

>  <RMSD>
5.877

$$$$
ligand
 OpenBabel11021811473D
libRbt.so/2013.1/901 2013/11/27
 26 28  0  0  0  0  0  0  0  0999 V2000
  -15.6601    9.6215  -19.8731 N   0  0  0  0  0  0  0  0  0  0  0  0
  -15.6026    8.3545  -19.1337 C   0  0  2  0  0  0  0  0  0  0  0  0
  -16.9120    8.1286  -18.4245 C   0  0  0  0  0  0  0  0  0  0  0  0
  -17.1715    7.0412  -17.9647 O   0  0  0  0  0  0  0  0  0  0  0  0
  -14.4697    8.4149  -18.1078 C   0  0  0  0  0  0  0  0  0  0  0  0
  -13.1254    8.4415  -18.8330 C   0  0  0  0  0  0  0  0  0  0  0  0
  -12.5562    9.8745  -19.5447 S   0  0  0  0  0  0  0  0  0  0  0  0
  -13.1669   11.1449  -20.6823 C   0  0  0  0  0  0  0  0  0  0  0  0
  -12.1083   12.1526  -21.1468 C   0  0  1  0  0  0  0  0  0  0  0  0
  -11.0450   11.5348  -21.8486 O   0  0  0  0  0  0  0  0  0  0  0  0
  -12.6601   13.1315  -22.1562 C   0  0  1  0  0  0  0  0  0  0  0  0
  -11.8162   14.2587  -22.0679 O   0  0  0  0  0  0  0  0  0  0  0  0
  -12.4369   12.4809  -23.5015 C   0  0  1  0  0  0  0  0  0  0  0  0
  -12.0172   13.4518  -24.4353 O   0  0  0  0  0  0  0  0  0  0  0  0
  -11.3055   11.5105  -23.2394 C   0  0  2  0  0  0  0  0  0  0  0  0
  -17.7940    9.1344  -18.3045 O   0  0  0  0  0  0  0  0  0  0  0  0
   -9.5759    7.2552  -25.7122 N   0  0  0  0  0  0  0  0  0  0  0  0
   -8.9794    8.4913  -25.6332 C   0  0  0  0  0  0  0  0  0  0  0  0
   -9.6020    9.5006  -24.9392 N   0  0  0  0  0  0  0  0  0  0  0  0
  -10.7878    9.2905  -24.3351 C   0  0  0  0  0  0  0  0  0  0  0  0
  -11.4044    8.0552  -24.4012 C   0  0  0  0  0  0  0  0  0  0  0  0
  -10.7846    7.0283  -25.1036 C   0  0  0  0  0  0  0  0  0  0  0  0
  -11.3434    5.8280  -25.1958 N   0  0  0  0  0  0  0  0  0  0  0  0
  -12.5676    8.1255  -23.7161 N   0  0  0  0  0  0  0  0  0  0  0  0
  -12.6885    9.3721  -23.2195 C   0  0  0  0  0  0  0  0  0  0  0  0
  -11.5992   10.1120  -23.6027 N   0  0  0  0  0  0  0  0  0  0  0  0
  2  1  1  1  0  0  0
  2  3  1  0  0  0  0
  2  5  1  0  0  0  0
  3  4  1  0  0  0  0
  3 16  1  0  0  0  0
  5  6  1  0  0  0  0
  6  7  1  0  0  0  0
  7  8  1  0  0  0  0
  9  8  1  6  0  0  0
  9 10  1  0  0  0  0
  9 11  1  0  0  0  0
 10 15  1  0  0  0  0
 11 12  1  6  0  0  0
 11 13  1  0  0  0  0
 13 14  1  6  0  0  0
 13 15  1  0  0  0  0
 15 26  1  1  0  0  0
 17 18  2  0  0  0  0
 17 22  1  0  0  0  0
 18 19  1  0  0  0  0
 19 20  2  0  0  0  0
 20 21  1  0  0  0  0
 20 26  1  0  0  0  0
 21 22  2  0  0  0  0
 21 24  1  0  0  0  0
 22 23  1  0  0  0  0
 24 25  2  0  0  0  0
 25 26  1  0  0  0  0
M  END
>  <CHROM.1>
166.26169805,-68.14718983,77.95177693,-50.94323286,-171.58337451,60.94716905
-109.20876729,-12.71194300,9.74537611,-21.92311292,-3.09584513,-0.86198585
-2.95054309

>  <Name>
ligand

>  <RI>
0

>  <Rbt.Current_Directory>
/home/itssahil/PROJECTS/Mol_Feturizer/New_Systems/rnas/3E5E

>  <Rbt.Executable>
rbdock ($Id: //depot/dev/client3/rdock/2013.1/src/exe/rbdock.cxx#4 $)

>  <Rbt.Library>
libRbt.so (2013.1, Build901 2013/11/27)

>  <Rbt.Parameter_File>
/export/apps/rDock/src/rDock_2013.1_src/data/scripts/dock_solv.prm

>  <Rbt.Receptor>
prm/pocket_docking_7.prm

>  <SCORE>
-15.6421

>  <SCORE.INTER>
-12.9983

>  <SCORE.INTER.CONST>
1

>  <SCORE.INTER.POLAR>
0

>  <SCORE.INTER.ROT>
7

>  <SCORE.INTER.SOLV>
9.97908

>  <SCORE.INTER.VDW>
-20.2586

>  <SCORE.INTER.norm>
-0.499936

>  <SCORE.INTRA>
-2.64378

>  <SCORE.INTRA.DIHEDRAL>
-5.83545

>  <SCORE.INTRA.DIHEDRAL.0>
10.1225

>  <SCORE.INTRA.POLAR>
0

>  <SCORE.INTRA.POLAR.0>
0

>  <SCORE.INTRA.REPUL>
0

>  <SCORE.INTRA.REPUL.0>
0

>  <SCORE.INTRA.SOLV>
2.42432

>  <SCORE.INTRA.SOLV.lig_0>
-49.9393

>  <SCORE.INTRA.VDW>
-0.938217

>  <SCORE.INTRA.VDW.0>
-1.75437

>  <SCORE.INTRA.norm>
-0.101684

>  <SCORE.RESTR>
0

>  <SCORE.RESTR.CAVITY>
0

>  <SCORE.RESTR.norm>
0

>  <SCORE.SYSTEM>
0

>  <SCORE.SYSTEM.CONST>
0

>  <SCORE.SYSTEM.DIHEDRAL>
0

>  <SCORE.SYSTEM.SOLV>
0

>  <SCORE.SYSTEM.norm>
0

>  <SCORE.heavy>
26

>  <SCORE.norm>
-0.60162

>  <RMSD>
5.921

$$$$
ligand
 OpenBabel11021811473D
libRbt.so/2013.1/901 2013/11/27
 26 28  0  0  0  0  0  0  0  0999 V2000
  -10.8927    7.0519  -26.2515 N   0  0  0  0  0  0  0  0  0  0  0  0
  -10.6573    6.8864  -24.8118 C   0  0  2  0  0  0  0  0  0  0  0  0
  -11.1744    5.5423  -24.3710 C   0  0  0  0  0  0  0  0  0  0  0  0
  -11.8191    4.8619  -25.1342 O   0  0  0  0  0  0  0  0  0  0  0  0
  -11.3876    7.9911  -24.0464 C   0  0  0  0  0  0  0  0  0  0  0  0
  -12.8955    7.8257  -24.2266 C   0  0  0  0  0  0  0  0  0  0  0  0
  -13.9717    8.9837  -23.6062 S   0  0  0  0  0  0  0  0  0  0  0  0
  -14.1930    9.9304  -22.0778 C   0  0  0  0  0  0  0  0  0  0  0  0
  -13.8544    9.1639  -20.7935 C   0  0  1  0  0  0  0  0  0  0  0  0
  -12.4647    9.1507  -20.5223 O   0  0  0  0  0  0  0  0  0  0  0  0
  -14.4352    9.8264  -19.5666 C   0  0  1  0  0  0  0  0  0  0  0  0
  -14.5320    8.7954  -18.6085 O   0  0  0  0  0  0  0  0  0  0  0  0
  -13.3767   10.8005  -19.1043 C   0  0  1  0  0  0  0  0  0  0  0  0
  -13.2906   10.7761  -17.6962 O   0  0  0  0  0  0  0  0  0  0  0  0
  -12.1014   10.2418  -19.6976 C   0  0  2  0  0  0  0  0  0  0  0  0
  -10.9222    5.0993  -23.1284 O   0  0  0  0  0  0  0  0  0  0  0  0
   -8.9312   14.3846  -19.7243 N   0  0  0  0  0  0  0  0  0  0  0  0
   -9.5103   13.7670  -18.6411 C   0  0  0  0  0  0  0  0  0  0  0  0
  -10.3345   12.6855  -18.8389 N   0  0  0  0  0  0  0  0  0  0  0  0
  -10.5785   12.2244  -20.0811 C   0  0  0  0  0  0  0  0  0  0  0  0
  -10.0059   12.8300  -21.1838 C   0  0  0  0  0  0  0  0  0  0  0  0
   -9.1732   13.9268  -20.9950 C   0  0  0  0  0  0  0  0  0  0  0  0
   -8.6060   14.5407  -22.0259 N   0  0  0  0  0  0  0  0  0  0  0  0
  -10.4174   12.1709  -22.2900 N   0  0  0  0  0  0  0  0  0  0  0  0
  -11.2273   11.1659  -21.9039 C   0  0  0  0  0  0  0  0  0  0  0  0
  -11.3479   11.1904  -20.5380 N   0  0  0  0  0  0  0  0  0  0  0  0
  2  1  1  6  0  0  0
  2  3  1  0  0  0  0
  2  5  1  0  0  0  0
  3  4  1  0  0  0  0
  3 16  1  0  0  0  0
  5  6  1  0  0  0  0
  6  7  1  0  0  0  0
  7  8  1  0  0  0  0
  9  8  1  6  0  0  0
  9 10  1  0  0  0  0
  9 11  1  0  0  0  0
 10 15  1  0  0  0  0
 11 12  1  1  0  0  0
 11 13  1  0  0  0  0
 13 14  1  1  0  0  0
 13 15  1  0  0  0  0
 15 26  1  6  0  0  0
 17 18  2  0  0  0  0
 17 22  1  0  0  0  0
 18 19  1  0  0  0  0
 19 20  2  0  0  0  0
 20 21  1  0  0  0  0
 20 26  1  0  0  0  0
 21 22  2  0  0  0  0
 21 24  1  0  0  0  0
 22 23  1  0  0  0  0
 24 25  2  0  0  0  0
 25 26  1  0  0  0  0
M  END
>  <CHROM.1>
-8.33723873,65.19420398,-174.60647703,-44.32142301,-37.15283865,81.58135126
-165.15084007,-11.78491031,9.91631038,-21.64007307,-1.82165521,0.68149534
0.78179495

>  <Name>
ligand

>  <RI>
0

>  <Rbt.Current_Directory>
/home/itssahil/PROJECTS/Mol_Feturizer/New_Systems/rnas/3E5E

>  <Rbt.Executable>
rbdock ($Id: //depot/dev/client3/rdock/2013.1/src/exe/rbdock.cxx#4 $)

>  <Rbt.Library>
libRbt.so (2013.1, Build901 2013/11/27)

>  <Rbt.Parameter_File>
/export/apps/rDock/src/rDock_2013.1_src/data/scripts/dock_solv.prm

>  <Rbt.Receptor>
prm/blind_docking_100.prm

>  <SCORE>
-16.964

>  <SCORE.INTER>
-14.6588

>  <SCORE.INTER.CONST>
1

>  <SCORE.INTER.POLAR>
0

>  <SCORE.INTER.ROT>
7

>  <SCORE.INTER.SOLV>
7.86212

>  <SCORE.INTER.VDW>
-20.6599

>  <SCORE.INTER.norm>
-0.5638

>  <SCORE.INTRA>
-2.30524

>  <SCORE.INTRA.DIHEDRAL>
-4.49264

>  <SCORE.INTRA.DIHEDRAL.0>
10.1225

>  <SCORE.INTRA.POLAR>
0

>  <SCORE.INTRA.POLAR.0>
0

>  <SCORE.INTRA.REPUL>
0

>  <SCORE.INTRA.REPUL.0>
0

>  <SCORE.INTRA.SOLV>
0.205224

>  <SCORE.INTRA.SOLV.lig_0>
-49.9393

>  <SCORE.INTRA.VDW>
-0.161535

>  <SCORE.INTRA.VDW.0>
-1.75437

>  <SCORE.INTRA.norm>
-0.0886631

>  <SCORE.RESTR>
0

>  <SCORE.RESTR.CAVITY>
0

>  <SCORE.RESTR.norm>
0

>  <SCORE.SYSTEM>
0

>  <SCORE.SYSTEM.CONST>
0

>  <SCORE.SYSTEM.DIHEDRAL>
0

>  <SCORE.SYSTEM.SOLV>
0

>  <SCORE.SYSTEM.norm>
0

>  <SCORE.heavy>
26

>  <SCORE.norm>
-0.652463

>  <RMSD>
5.931

$$$$
ligand
 OpenBabel11021811473D
libRbt.so/2013.1/901 2013/11/27
 26 28  0  0  0  0  0  0  0  0999 V2000
  -13.9137    7.6286  -18.8332 N   0  0  0  0  0  0  0  0  0  0  0  0
  -13.3143    8.9042  -18.4219 C   0  0  2  0  0  0  0  0  0  0  0  0
  -13.8566    9.3008  -17.0741 C   0  0  0  0  0  0  0  0  0  0  0  0
  -13.4851   10.3246  -16.5497 O   0  0  0  0  0  0  0  0  0  0  0  0
  -13.6596    9.9834  -19.4494 C   0  0  0  0  0  0  0  0  0  0  0  0
  -12.7581   11.1981  -19.2361 C   0  0  0  0  0  0  0  0  0  0  0  0
  -13.0162   12.6298  -20.1124 S   0  0  0  0  0  0  0  0  0  0  0  0
  -12.5959   13.3034  -21.7405 C   0  0  0  0  0  0  0  0  0  0  0  0
  -11.0951   13.5029  -21.9844 C   0  0  1  0  0  0  0  0  0  0  0  0
  -10.3893   12.2768  -22.0424 O   0  0  0  0  0  0  0  0  0  0  0  0
  -10.8161   14.1214  -23.3339 C   0  0  1  0  0  0  0  0  0  0  0  0
   -9.5506   14.7303  -23.1998 O   0  0  0  0  0  0  0  0  0  0  0  0
  -10.6784   12.9541  -24.2834 C   0  0  1  0  0  0  0  0  0  0  0  0
   -9.6202   13.1967  -25.1846 O   0  0  0  0  0  0  0  0  0  0  0  0
  -10.3120   11.8018  -23.3733 C   0  0  2  0  0  0  0  0  0  0  0  0
  -14.7515    8.5161  -16.4518 O   0  0  0  0  0  0  0  0  0  0  0  0
  -10.9539    7.0334  -25.3892 N   0  0  0  0  0  0  0  0  0  0  0  0
   -9.9095    7.9048  -25.5887 C   0  0  0  0  0  0  0  0  0  0  0  0
   -9.9261    9.1339  -24.9745 N   0  0  0  0  0  0  0  0  0  0  0  0
  -10.9530    9.4916  -24.1790 C   0  0  0  0  0  0  0  0  0  0  0  0
  -12.0126    8.6304  -23.9641 C   0  0  0  0  0  0  0  0  0  0  0  0
  -12.0070    7.3861  -24.5834 C   0  0  0  0  0  0  0  0  0  0  0  0
  -13.0060    6.5300  -24.4078 N   0  0  0  0  0  0  0  0  0  0  0  0
  -12.8909    9.2384  -23.1357 N   0  0  0  0  0  0  0  0  0  0  0  0
  -12.4023   10.4547  -22.8240 C   0  0  0  0  0  0  0  0  0  0  0  0
  -11.2063   10.6336  -23.4709 N   0  0  0  0  0  0  0  0  0  0  0  0
  2  1  1  6  0  0  0
  2  3  1  0  0  0  0
  2  5  1  0  0  0  0
  3  4  1  0  0  0  0
  3 16  1  0  0  0  0
  5  6  1  0  0  0  0
  6  7  1  0  0  0  0
  7  8  1  0  0  0  0
  9  8  1  6  0  0  0
  9 10  1  0  0  0  0
  9 11  1  0  0  0  0
 10 15  1  0  0  0  0
 11 12  1  1  0  0  0
 11 13  1  0  0  0  0
 13 14  1  6  0  0  0
 13 15  1  0  0  0  0
 15 26  1  1  0  0  0
 17 18  2  0  0  0  0
 17 22  1  0  0  0  0
 18 19  1  0  0  0  0
 19 20  2  0  0  0  0
 20 21  1  0  0  0  0
 20 26  1  0  0  0  0
 21 22  2  0  0  0  0
 21 24  1  0  0  0  0
 22 23  1  0  0  0  0
 24 25  2  0  0  0  0
 25 26  1  0  0  0  0
M  END
>  <CHROM.1>
179.73805153,-165.29335738,-173.18645376,-83.00902563,-63.93862292,66.90368983
-141.26157042,-11.94291059,10.58477775,-21.90402442,2.83790231,1.09165644
0.53186718

>  <Name>
ligand

>  <RI>
0

>  <Rbt.Current_Directory>
/home/itssahil/PROJECTS/Mol_Feturizer/New_Systems/rnas/3E5E

>  <Rbt.Executable>
rbdock ($Id: //depot/dev/client3/rdock/2013.1/src/exe/rbdock.cxx#4 $)

>  <Rbt.Library>
libRbt.so (2013.1, Build901 2013/11/27)

>  <Rbt.Parameter_File>
/export/apps/rDock/src/rDock_2013.1_src/data/scripts/dock_solv.prm

>  <Rbt.Receptor>
prm/pocket_docking_6.prm

>  <SCORE>
-18.1307

>  <SCORE.INTER>
-14.5093

>  <SCORE.INTER.CONST>
1

>  <SCORE.INTER.POLAR>
0

>  <SCORE.INTER.ROT>
7

>  <SCORE.INTER.SOLV>
8.33502

>  <SCORE.INTER.VDW>
-20.7179

>  <SCORE.INTER.norm>
-0.558052

>  <SCORE.INTRA>
-3.62138

>  <SCORE.INTRA.DIHEDRAL>
-5.35052

>  <SCORE.INTRA.DIHEDRAL.0>
10.1225

>  <SCORE.INTRA.POLAR>
0

>  <SCORE.INTRA.POLAR.0>
0

>  <SCORE.INTRA.REPUL>
0

>  <SCORE.INTRA.REPUL.0>
0

>  <SCORE.INTRA.SOLV>
-0.511781

>  <SCORE.INTRA.SOLV.lig_0>
-49.9393

>  <SCORE.INTRA.VDW>
-0.690227

>  <SCORE.INTRA.VDW.0>
-1.75437

>  <SCORE.INTRA.norm>
-0.139284

>  <SCORE.RESTR>
0

>  <SCORE.RESTR.CAVITY>
0

>  <SCORE.RESTR.norm>
0

>  <SCORE.SYSTEM>
0

>  <SCORE.SYSTEM.CONST>
0

>  <SCORE.SYSTEM.DIHEDRAL>
0

>  <SCORE.SYSTEM.SOLV>
0

>  <SCORE.SYSTEM.norm>
0

>  <SCORE.heavy>
26

>  <SCORE.norm>
-0.697335

>  <RMSD>
5.944

$$$$
ligand
 OpenBabel11021811473D
libRbt.so/2013.1/901 2013/11/27
 26 28  0  0  0  0  0  0  0  0999 V2000
  -16.3934    7.8489  -19.0389 N   0  0  0  0  0  0  0  0  0  0  0  0
  -15.4350    7.9535  -20.1462 C   0  0  2  0  0  0  0  0  0  0  0  0
  -16.0293    7.3332  -21.3832 C   0  0  0  0  0  0  0  0  0  0  0  0
  -17.1259    6.8267  -21.3392 O   0  0  0  0  0  0  0  0  0  0  0  0
  -14.1459    7.2186  -19.7748 C   0  0  0  0  0  0  0  0  0  0  0  0
  -13.2943    8.1073  -18.8702 C   0  0  0  0  0  0  0  0  0  0  0  0
  -12.7339    9.6136  -19.4191 S   0  0  0  0  0  0  0  0  0  0  0  0
  -13.3631   11.0114  -20.3842 C   0  0  0  0  0  0  0  0  0  0  0  0
  -12.3311   12.1086  -20.6721 C   0  0  1  0  0  0  0  0  0  0  0  0
  -11.2177   11.6255  -21.4013 O   0  0  0  0  0  0  0  0  0  0  0  0
  -12.8856   13.1881  -21.5713 C   0  0  1  0  0  0  0  0  0  0  0  0
  -12.0934   14.3248  -21.3053 O   0  0  0  0  0  0  0  0  0  0  0  0
  -12.5857   12.7244  -22.9778 C   0  0  1  0  0  0  0  0  0  0  0  0
  -12.1727   13.8219  -23.7624 O   0  0  0  0  0  0  0  0  0  0  0  0
  -11.4252   11.7705  -22.7937 C   0  0  2  0  0  0  0  0  0  0  0  0
  -15.3404    7.3398  -22.5362 O   0  0  0  0  0  0  0  0  0  0  0  0
   -9.5891    8.0698  -25.9791 N   0  0  0  0  0  0  0  0  0  0  0  0
   -9.0760    9.3251  -25.7530 C   0  0  0  0  0  0  0  0  0  0  0  0
   -9.7149   10.1703  -24.8781 N   0  0  0  0  0  0  0  0  0  0  0  0
  -10.8358    9.7810  -24.2399 C   0  0  0  0  0  0  0  0  0  0  0  0
  -11.3680    8.5231  -24.4519 C   0  0  0  0  0  0  0  0  0  0  0  0
  -10.7313    7.6616  -25.3375 C   0  0  0  0  0  0  0  0  0  0  0  0
  -11.2103    6.4465  -25.5737 N   0  0  0  0  0  0  0  0  0  0  0  0
  -12.4800    8.4005  -23.6931 N   0  0  0  0  0  0  0  0  0  0  0  0
  -12.6507    9.5484  -23.0086 C   0  0  0  0  0  0  0  0  0  0  0  0
  -11.6466   10.4205  -23.3436 N   0  0  0  0  0  0  0  0  0  0  0  0
  2  1  1  1  0  0  0
  2  3  1  0  0  0  0
  2  5  1  0  0  0  0
  3  4  1  0  0  0  0
  3 16  1  0  0  0  0
  5  6  1  0  0  0  0
  6  7  1  0  0  0  0
  7  8  1  0  0  0  0
  9  8  1  6  0  0  0
  9 10  1  0  0  0  0
  9 11  1  0  0  0  0
 10 15  1  0  0  0  0
 11 12  1  1  0  0  0
 11 13  1  0  0  0  0
 13 14  1  6  0  0  0
 13 15  1  0  0  0  0
 15 26  1  1  0  0  0
 17 18  2  0  0  0  0
 17 22  1  0  0  0  0
 18 19  1  0  0  0  0
 19 20  2  0  0  0  0
 20 21  1  0  0  0  0
 20 26  1  0  0  0  0
 21 22  2  0  0  0  0
 21 24  1  0  0  0  0
 22 23  1  0  0  0  0
 24 25  2  0  0  0  0
 25 26  1  0  0  0  0
M  END
>  <CHROM.1>
-1.63115761,-80.12759977,-60.75384557,40.69572876,-175.31332663,59.84202015
-115.80726003,-12.66488661,9.69361515,-22.25160091,-3.11698657,0.82579932
0.47934305

>  <Name>
ligand

>  <RI>
0

>  <Rbt.Current_Directory>
/home/itssahil/PROJECTS/Mol_Feturizer/New_Systems/rnas/3E5E

>  <Rbt.Executable>
rbdock ($Id: //depot/dev/client3/rdock/2013.1/src/exe/rbdock.cxx#4 $)

>  <Rbt.Library>
libRbt.so (2013.1, Build901 2013/11/27)

>  <Rbt.Parameter_File>
/export/apps/rDock/src/rDock_2013.1_src/data/scripts/dock_solv.prm

>  <Rbt.Receptor>
prm/pocket_docking_6.prm

>  <SCORE>
-16.3849

>  <SCORE.INTER>
-12.5661

>  <SCORE.INTER.CONST>
1

>  <SCORE.INTER.POLAR>
0

>  <SCORE.INTER.ROT>
7

>  <SCORE.INTER.SOLV>
6.7184

>  <SCORE.INTER.VDW>
-18.8835

>  <SCORE.INTER.norm>
-0.483311

>  <SCORE.INTRA>
-3.81887

>  <SCORE.INTRA.DIHEDRAL>
-5.36147

>  <SCORE.INTRA.DIHEDRAL.0>
10.1225

>  <SCORE.INTRA.POLAR>
0

>  <SCORE.INTRA.POLAR.0>
0

>  <SCORE.INTRA.REPUL>
0

>  <SCORE.INTRA.REPUL.0>
0

>  <SCORE.INTRA.SOLV>
0.517365

>  <SCORE.INTRA.SOLV.lig_0>
-49.9393

>  <SCORE.INTRA.VDW>
-1.39682

>  <SCORE.INTRA.VDW.0>
-1.75437

>  <SCORE.INTRA.norm>
-0.146879

>  <SCORE.RESTR>
0

>  <SCORE.RESTR.CAVITY>
0

>  <SCORE.RESTR.norm>
0

>  <SCORE.SYSTEM>
0

>  <SCORE.SYSTEM.CONST>
0

>  <SCORE.SYSTEM.DIHEDRAL>
0

>  <SCORE.SYSTEM.SOLV>
0

>  <SCORE.SYSTEM.norm>
0

>  <SCORE.heavy>
26

>  <SCORE.norm>
-0.63019

>  <RMSD>
5.959

$$$$
ligand
 OpenBabel11021811473D
libRbt.so/2013.1/901 2013/11/27
 26 28  0  0  0  0  0  0  0  0999 V2000
  -14.5266    8.4939  -19.2512 N   0  0  0  0  0  0  0  0  0  0  0  0
  -13.4527    8.9970  -18.3858 C   0  0  2  0  0  0  0  0  0  0  0  0
  -13.6728    8.5079  -16.9785 C   0  0  0  0  0  0  0  0  0  0  0  0
  -13.6100    7.3263  -16.7317 O   0  0  0  0  0  0  0  0  0  0  0  0
  -13.4602   10.5265  -18.4023 C   0  0  0  0  0  0  0  0  0  0  0  0
  -13.0709   11.0239  -19.7932 C   0  0  0  0  0  0  0  0  0  0  0  0
  -12.9783   12.6876  -20.1210 S   0  0  0  0  0  0  0  0  0  0  0  0
  -12.4792   13.7618  -21.4914 C   0  0  0  0  0  0  0  0  0  0  0  0
  -11.0068   13.6364  -21.9015 C   0  0  1  0  0  0  0  0  0  0  0  0
  -10.5998   12.2883  -22.0491 O   0  0  0  0  0  0  0  0  0  0  0  0
  -10.7459   14.2232  -23.2687 C   0  0  1  0  0  0  0  0  0  0  0  0
   -9.3702   14.5360  -23.2732 O   0  0  0  0  0  0  0  0  0  0  0  0
  -10.9731   13.0860  -24.2374 C   0  0  1  0  0  0  0  0  0  0  0  0
   -9.9914   13.1211  -25.2502 O   0  0  0  0  0  0  0  0  0  0  0  0
  -10.7739   11.8521  -23.3841 C   0  0  2  0  0  0  0  0  0  0  0  0
  -13.9419    9.3838  -15.9965 O   0  0  0  0  0  0  0  0  0  0  0  0
  -12.2528    6.9000  -24.0935 N   0  0  0  0  0  0  0  0  0  0  0  0
  -10.9965    7.4390  -24.2393 C   0  0  0  0  0  0  0  0  0  0  0  0
  -10.8057    8.7816  -24.0180 N   0  0  0  0  0  0  0  0  0  0  0  0
  -11.8353    9.5728  -23.6585 C   0  0  0  0  0  0  0  0  0  0  0  0
  -13.1062    9.0513  -23.5054 C   0  0  0  0  0  0  0  0  0  0  0  0
  -13.3106    7.6949  -23.7301 C   0  0  0  0  0  0  0  0  0  0  0  0
  -14.5152    7.1535  -23.5984 N   0  0  0  0  0  0  0  0  0  0  0  0
  -13.9356   10.0562  -23.1452 N   0  0  0  0  0  0  0  0  0  0  0  0
  -13.2122   11.1899  -23.0639 C   0  0  0  0  0  0  0  0  0  0  0  0
  -11.9093   10.9115  -23.3899 N   0  0  0  0  0  0  0  0  0  0  0  0
  2  1  1  6  0  0  0
  2  3  1  0  0  0  0
  2  5  1  0  0  0  0
  3  4  1  0  0  0  0
  3 16  1  0  0  0  0
  5  6  1  0  0  0  0
  6  7  1  0  0  0  0
  7  8  1  0  0  0  0
  9  8  1  6  0  0  0
  9 10  1  0  0  0  0
  9 11  1  0  0  0  0
 10 15  1  0  0  0  0
 11 12  1  1  0  0  0
 11 13  1  0  0  0  0
 13 14  1  6  0  0  0
 13 15  1  0  0  0  0
 15 26  1  1  0  0  0
 17 18  2  0  0  0  0
 17 22  1  0  0  0  0
 18 19  1  0  0  0  0
 19 20  2  0  0  0  0
 20 21  1  0  0  0  0
 20 26  1  0  0  0  0
 21 22  2  0  0  0  0
 21 24  1  0  0  0  0
 22 23  1  0  0  0  0
 24 25  2  0  0  0  0
 25 26  1  0  0  0  0
M  END
>  <CHROM.1>
65.14476425,-66.81625103,-179.50368152,174.75045386,-61.91406864,47.57690579
-113.40277874,-12.33849286,10.62401480,-21.66557310,2.91048719,1.14490871
0.84595947

>  <Name>
ligand

>  <RI>
0

>  <Rbt.Current_Directory>
/home/itssahil/PROJECTS/Mol_Feturizer/New_Systems/rnas/3E5E

>  <Rbt.Executable>
rbdock ($Id: //depot/dev/client3/rdock/2013.1/src/exe/rbdock.cxx#4 $)

>  <Rbt.Library>
libRbt.so (2013.1, Build901 2013/11/27)

>  <Rbt.Parameter_File>
/export/apps/rDock/src/rDock_2013.1_src/data/scripts/dock_solv.prm

>  <Rbt.Receptor>
prm/blind_docking_80.prm

>  <SCORE>
-20.6429

>  <SCORE.INTER>
-16.7197

>  <SCORE.INTER.CONST>
1

>  <SCORE.INTER.POLAR>
0

>  <SCORE.INTER.ROT>
7

>  <SCORE.INTER.SOLV>
7.98296

>  <SCORE.INTER.VDW>
-22.0741

>  <SCORE.INTER.norm>
-0.643064

>  <SCORE.INTRA>
-3.92328

>  <SCORE.INTRA.DIHEDRAL>
-6.71409

>  <SCORE.INTRA.DIHEDRAL.0>
10.1225

>  <SCORE.INTRA.POLAR>
0

>  <SCORE.INTRA.POLAR.0>
0

>  <SCORE.INTRA.REPUL>
0

>  <SCORE.INTRA.REPUL.0>
0

>  <SCORE.INTRA.SOLV>
0.230422

>  <SCORE.INTRA.SOLV.lig_0>
-49.9393

>  <SCORE.INTRA.VDW>
-0.68145

>  <SCORE.INTRA.VDW.0>
-1.75437

>  <SCORE.INTRA.norm>
-0.150896

>  <SCORE.RESTR>
3.49355e-05

>  <SCORE.RESTR.CAVITY>
3.49355e-05

>  <SCORE.RESTR.norm>
1.34367e-06

>  <SCORE.SYSTEM>
0

>  <SCORE.SYSTEM.CONST>
0

>  <SCORE.SYSTEM.DIHEDRAL>
0

>  <SCORE.SYSTEM.SOLV>
0

>  <SCORE.SYSTEM.norm>
0

>  <SCORE.heavy>
26

>  <SCORE.norm>
-0.793958

>  <RMSD>
5.979

$$$$
ligand
 OpenBabel11021811473D
libRbt.so/2013.1/901 2013/11/27
 26 28  0  0  0  0  0  0  0  0999 V2000
  -16.3770    7.2965  -17.9302 N   0  0  0  0  0  0  0  0  0  0  0  0
  -15.0127    7.7990  -18.1346 C   0  0  2  0  0  0  0  0  0  0  0  0
  -14.0250    6.8060  -17.5810 C   0  0  0  0  0  0  0  0  0  0  0  0
  -14.0960    6.4624  -16.4244 O   0  0  0  0  0  0  0  0  0  0  0  0
  -14.8501    9.1380  -17.4132 C   0  0  0  0  0  0  0  0  0  0  0  0
  -13.4553    9.6983  -17.6854 C   0  0  0  0  0  0  0  0  0  0  0  0
  -12.9617   10.0540  -19.2709 S   0  0  0  0  0  0  0  0  0  0  0  0
  -13.4255   11.1952  -20.5990 C   0  0  0  0  0  0  0  0  0  0  0  0
  -12.3201   12.1701  -21.0225 C   0  0  1  0  0  0  0  0  0  0  0  0
  -11.2334   11.5151  -21.6510 O   0  0  0  0  0  0  0  0  0  0  0  0
  -12.7922   13.1395  -22.0803 C   0  0  1  0  0  0  0  0  0  0  0  0
  -11.9293   14.2498  -21.9665 O   0  0  0  0  0  0  0  0  0  0  0  0
  -12.5088   12.4565  -23.3979 C   0  0  1  0  0  0  0  0  0  0  0  0
  -12.0156   13.3985  -24.3253 O   0  0  0  0  0  0  0  0  0  0  0  0
  -11.4160   11.4676  -23.0536 C   0  0  2  0  0  0  0  0  0  0  0  0
  -13.0624    6.3031  -18.3713 O   0  0  0  0  0  0  0  0  0  0  0  0
   -9.8100    7.2398  -25.6537 N   0  0  0  0  0  0  0  0  0  0  0  0
   -9.2199    8.4806  -25.6053 C   0  0  0  0  0  0  0  0  0  0  0  0
   -9.8060    9.4811  -24.8680 N   0  0  0  0  0  0  0  0  0  0  0  0
  -10.9499    9.2577  -24.1920 C   0  0  0  0  0  0  0  0  0  0  0  0
  -11.5593    8.0175  -24.2262 C   0  0  0  0  0  0  0  0  0  0  0  0
  -10.9763    6.9996  -24.9718 C   0  0  0  0  0  0  0  0  0  0  0  0
  -11.5299    5.7950  -25.0355 N   0  0  0  0  0  0  0  0  0  0  0  0
  -12.6778    8.0744  -23.4692 N   0  0  0  0  0  0  0  0  0  0  0  0
  -12.7775    9.3174  -22.9590 C   0  0  0  0  0  0  0  0  0  0  0  0
  -11.7205   10.0686  -23.4056 N   0  0  0  0  0  0  0  0  0  0  0  0
  2  1  1  1  0  0  0
  2  3  1  0  0  0  0
  2  5  1  0  0  0  0
  3  4  1  0  0  0  0
  3 16  1  0  0  0  0
  5  6  1  0  0  0  0
  6  7  1  0  0  0  0
  7  8  1  0  0  0  0
  9  8  1  6  0  0  0
  9 10  1  0  0  0  0
  9 11  1  0  0  0  0
 10 15  1  0  0  0  0
 11 12  1  6  0  0  0
 11 13  1  0  0  0  0
 13 14  1  6  0  0  0
 13 15  1  0  0  0  0
 15 26  1  1  0  0  0
 17 18  2  0  0  0  0
 17 22  1  0  0  0  0
 18 19  1  0  0  0  0
 19 20  2  0  0  0  0
 20 21  1  0  0  0  0
 20 26  1  0  0  0  0
 21 22  2  0  0  0  0
 21 24  1  0  0  0  0
 22 23  1  0  0  0  0
 24 25  2  0  0  0  0
 25 26  1  0  0  0  0
M  END
>  <CHROM.1>
-56.41214597,-177.03735839,60.79459949,64.38870851,118.44879968,67.42702522
-116.39630207,-12.45369566,9.52659489,-21.54536590,-2.87207059,1.10556578
-0.01788178

>  <Name>
ligand

>  <RI>
0

>  <Rbt.Current_Directory>
/home/itssahil/PROJECTS/Mol_Feturizer/New_Systems/rnas/3E5E

>  <Rbt.Executable>
rbdock ($Id: //depot/dev/client3/rdock/2013.1/src/exe/rbdock.cxx#4 $)

>  <Rbt.Library>
libRbt.so (2013.1, Build901 2013/11/27)

>  <Rbt.Parameter_File>
/export/apps/rDock/src/rDock_2013.1_src/data/scripts/dock_solv.prm

>  <Rbt.Receptor>
prm/pocket_docking_7.prm

>  <SCORE>
-17.4986

>  <SCORE.INTER>
-14.2774

>  <SCORE.INTER.CONST>
1

>  <SCORE.INTER.POLAR>
0

>  <SCORE.INTER.ROT>
7

>  <SCORE.INTER.SOLV>
7.02285

>  <SCORE.INTER.VDW>
-20.1259

>  <SCORE.INTER.norm>
-0.549132

>  <SCORE.INTRA>
-3.22118

>  <SCORE.INTRA.DIHEDRAL>
-4.7763

>  <SCORE.INTRA.DIHEDRAL.0>
10.1225

>  <SCORE.INTRA.POLAR>
0

>  <SCORE.INTRA.POLAR.0>
0

>  <SCORE.INTRA.REPUL>
0

>  <SCORE.INTRA.REPUL.0>
0

>  <SCORE.INTRA.SOLV>
-0.521758

>  <SCORE.INTRA.SOLV.lig_0>
-49.9393

>  <SCORE.INTRA.VDW>
-0.572147

>  <SCORE.INTRA.VDW.0>
-1.75437

>  <SCORE.INTRA.norm>
-0.123891

>  <SCORE.RESTR>
0

>  <SCORE.RESTR.CAVITY>
0

>  <SCORE.RESTR.norm>
0

>  <SCORE.SYSTEM>
0

>  <SCORE.SYSTEM.CONST>
0

>  <SCORE.SYSTEM.DIHEDRAL>
0

>  <SCORE.SYSTEM.SOLV>
0

>  <SCORE.SYSTEM.norm>
0

>  <SCORE.heavy>
26

>  <SCORE.norm>
-0.673023

>  <RMSD>
5.982

$$$$
ligand
 OpenBabel11021811473D
libRbt.so/2013.1/901 2013/11/27
 26 28  0  0  0  0  0  0  0  0999 V2000
  -12.3382   10.5592  -21.4712 N   0  0  0  0  0  0  0  0  0  0  0  0
  -11.5811   11.8089  -21.6150 C   0  0  2  0  0  0  0  0  0  0  0  0
  -11.4472   12.4710  -20.2690 C   0  0  0  0  0  0  0  0  0  0  0  0
  -10.3606   12.5704  -19.7488 O   0  0  0  0  0  0  0  0  0  0  0  0
  -12.3202   12.7443  -22.5734 C   0  0  0  0  0  0  0  0  0  0  0  0
  -11.4254   13.9337  -22.9170 C   0  0  0  0  0  0  0  0  0  0  0  0
   -9.9612   13.7021  -23.7455 S   0  0  0  0  0  0  0  0  0  0  0  0
   -8.2768   13.1516  -23.3699 C   0  0  0  0  0  0  0  0  0  0  0  0
   -7.4465   12.7459  -24.5936 C   0  0  1  0  0  0  0  0  0  0  0  0
   -7.0157   13.8632  -25.3492 O   0  0  0  0  0  0  0  0  0  0  0  0
   -6.1496   12.0770  -24.2038 C   0  0  1  0  0  0  0  0  0  0  0  0
   -5.7883   11.3028  -25.3266 O   0  0  0  0  0  0  0  0  0  0  0  0
   -5.1499   13.2016  -24.0664 C   0  0  1  0  0  0  0  0  0  0  0  0
   -3.9101   12.8048  -24.6105 O   0  0  0  0  0  0  0  0  0  0  0  0
   -5.7433   14.3053  -24.9151 C   0  0  2  0  0  0  0  0  0  0  0  0
  -12.5353   12.9496  -19.6437 O   0  0  0  0  0  0  0  0  0  0  0  0
   -3.5216   17.9737  -21.9451 N   0  0  0  0  0  0  0  0  0  0  0  0
   -2.9670   16.8014  -22.4015 C   0  0  0  0  0  0  0  0  0  0  0  0
   -3.7228   15.9485  -23.1691 N   0  0  0  0  0  0  0  0  0  0  0  0
   -4.9987   16.2501  -23.4796 C   0  0  0  0  0  0  0  0  0  0  0  0
   -5.5755   17.4237  -23.0319 C   0  0  0  0  0  0  0  0  0  0  0  0
   -4.8207   18.2918  -22.2520 C   0  0  0  0  0  0  0  0  0  0  0  0
   -5.3362   19.4274  -21.7977 N   0  0  0  0  0  0  0  0  0  0  0  0
   -6.8482   17.4696  -23.4853 N   0  0  0  0  0  0  0  0  0  0  0  0
   -7.0772   16.3569  -24.2095 C   0  0  0  0  0  0  0  0  0  0  0  0
   -5.9447   15.5832  -24.2077 N   0  0  0  0  0  0  0  0  0  0  0  0
  2  1  1  1  0  0  0
  2  3  1  0  0  0  0
  2  5  1  0  0  0  0
  3  4  1  0  0  0  0
  3 16  1  0  0  0  0
  5  6  1  0  0  0  0
  6  7  1  0  0  0  0
  7  8  1  0  0  0  0
  9  8  1  1  0  0  0
  9 10  1  0  0  0  0
  9 11  1  0  0  0  0
 10 15  1  0  0  0  0
 11 12  1  6  0  0  0
 11 13  1  0  0  0  0
 13 14  1  6  0  0  0
 13 15  1  0  0  0  0
 15 26  1  1  0  0  0
 17 18  2  0  0  0  0
 17 22  1  0  0  0  0
 18 19  1  0  0  0  0
 19 20  2  0  0  0  0
 20 21  1  0  0  0  0
 20 26  1  0  0  0  0
 21 22  2  0  0  0  0
 21 24  1  0  0  0  0
 22 23  1  0  0  0  0
 24 25  2  0  0  0  0
 25 26  1  0  0  0  0
M  END
>  <CHROM.1>
113.44599082,-170.12999812,63.32778064,-78.40536533,162.83927285,74.29182122
170.60745630,-7.57482467,14.33140590,-23.04995925,-2.80009805,0.47146261
0.52054601

>  <Name>
ligand

>  <RI>
0

>  <Rbt.Current_Directory>
/home/itssahil/PROJECTS/Mol_Feturizer/New_Systems/rnas/3E5E

>  <Rbt.Executable>
rbdock ($Id: //depot/dev/client3/rdock/2013.1/src/exe/rbdock.cxx#4 $)

>  <Rbt.Library>
libRbt.so (2013.1, Build901 2013/11/27)

>  <Rbt.Parameter_File>
/export/apps/rDock/src/rDock_2013.1_src/data/scripts/dock_solv.prm

>  <Rbt.Receptor>
prm/blind_docking_80.prm

>  <SCORE>
-15.7892

>  <SCORE.INTER>
-11.9393

>  <SCORE.INTER.CONST>
1

>  <SCORE.INTER.POLAR>
0

>  <SCORE.INTER.ROT>
7

>  <SCORE.INTER.SOLV>
10.184

>  <SCORE.INTER.VDW>
-19.6208

>  <SCORE.INTER.norm>
-0.459202

>  <SCORE.INTRA>
-3.84996

>  <SCORE.INTRA.DIHEDRAL>
-5.39369

>  <SCORE.INTRA.DIHEDRAL.0>
10.1225

>  <SCORE.INTRA.POLAR>
0

>  <SCORE.INTRA.POLAR.0>
0

>  <SCORE.INTRA.REPUL>
0

>  <SCORE.INTRA.REPUL.0>
0

>  <SCORE.INTRA.SOLV>
-0.428435

>  <SCORE.INTRA.SOLV.lig_0>
-49.9393

>  <SCORE.INTRA.VDW>
-0.938899

>  <SCORE.INTRA.VDW.0>
-1.75437

>  <SCORE.INTRA.norm>
-0.148075

>  <SCORE.RESTR>
0

>  <SCORE.RESTR.CAVITY>
0

>  <SCORE.RESTR.norm>
0

>  <SCORE.SYSTEM>
0

>  <SCORE.SYSTEM.CONST>
0

>  <SCORE.SYSTEM.DIHEDRAL>
0

>  <SCORE.SYSTEM.SOLV>
0

>  <SCORE.SYSTEM.norm>
0

>  <SCORE.heavy>
26

>  <SCORE.norm>
-0.607278

>  <RMSD>
5.989

$$$$
ligand
 OpenBabel11021811473D
libRbt.so/2013.1/901 2013/11/27
 26 28  0  0  0  0  0  0  0  0999 V2000
   -9.1792   11.9513  -26.8267 N   0  0  0  0  0  0  0  0  0  0  0  0
  -10.1757   11.4747  -25.8596 C   0  0  2  0  0  0  0  0  0  0  0  0
  -10.3784   12.5189  -24.7935 C   0  0  0  0  0  0  0  0  0  0  0  0
  -11.4867   12.9446  -24.5662 O   0  0  0  0  0  0  0  0  0  0  0  0
   -9.6815   10.1775  -25.2170 C   0  0  0  0  0  0  0  0  0  0  0  0
  -10.7984    9.5696  -24.3706 C   0  0  0  0  0  0  0  0  0  0  0  0
  -11.2408   10.2737  -22.8898 S   0  0  0  0  0  0  0  0  0  0  0  0
  -10.4473   11.2048  -21.5540 C   0  0  0  0  0  0  0  0  0  0  0  0
  -11.3481   11.4867  -20.3453 C   0  0  1  0  0  0  0  0  0  0  0  0
  -10.7841   12.4379  -19.4610 O   0  0  0  0  0  0  0  0  0  0  0  0
  -12.6549   12.1281  -20.7480 C   0  0  1  0  0  0  0  0  0  0  0  0
  -13.5468   11.8262  -19.6974 O   0  0  0  0  0  0  0  0  0  0  0  0
  -12.3891   13.6154  -20.7267 C   0  0  1  0  0  0  0  0  0  0  0  0
  -13.4996   14.2889  -20.1756 O   0  0  0  0  0  0  0  0  0  0  0  0
  -11.2047   13.7475  -19.7938 C   0  0  2  0  0  0  0  0  0  0  0  0
   -9.3276   12.9805  -24.0958 O   0  0  0  0  0  0  0  0  0  0  0  0
   -6.6655   16.1109  -18.7820 N   0  0  0  0  0  0  0  0  0  0  0  0
   -7.5669   15.5868  -17.8860 C   0  0  0  0  0  0  0  0  0  0  0  0
   -8.7245   15.0093  -18.3491 N   0  0  0  0  0  0  0  0  0  0  0  0
   -8.9833   14.9504  -19.6700 C   0  0  0  0  0  0  0  0  0  0  0  0
   -8.0903   15.4703  -20.5881 C   0  0  0  0  0  0  0  0  0  0  0  0
   -6.9178   16.0596  -20.1298 C   0  0  0  0  0  0  0  0  0  0  0  0
   -6.0349   16.5749  -20.9763 N   0  0  0  0  0  0  0  0  0  0  0  0
   -8.5965   15.2780  -21.8267 N   0  0  0  0  0  0  0  0  0  0  0  0
   -9.7798   14.6456  -21.7040 C   0  0  0  0  0  0  0  0  0  0  0  0
  -10.0414   14.4442  -20.3728 N   0  0  0  0  0  0  0  0  0  0  0  0
  2  1  1  6  0  0  0
  2  3  1  0  0  0  0
  2  5  1  0  0  0  0
  3  4  1  0  0  0  0
  3 16  1  0  0  0  0
  5  6  1  0  0  0  0
  6  7  1  0  0  0  0
  7  8  1  0  0  0  0
  9  8  1  6  0  0  0
  9 10  1  0  0  0  0
  9 11  1  0  0  0  0
 10 15  1  0  0  0  0
 11 12  1  1  0  0  0
 11 13  1  0  0  0  0
 13 14  1  1  0  0  0
 13 15  1  0  0  0  0
 15 26  1  6  0  0  0
 17 18  2  0  0  0  0
 17 22  1  0  0  0  0
 18 19  1  0  0  0  0
 19 20  2  0  0  0  0
 20 21  1  0  0  0  0
 20 26  1  0  0  0  0
 21 22  2  0  0  0  0
 21 24  1  0  0  0  0
 22 23  1  0  0  0  0
 24 25  2  0  0  0  0
 25 26  1  0  0  0  0
M  END
>  <CHROM.1>
124.75561943,-171.60226820,-72.84639414,-31.21760499,-174.39293852,-167.85130655
-76.54637613,-10.11219050,13.13941464,-21.68217596,-2.03756392,0.57972246
1.09252224

>  <Name>
ligand

>  <RI>
0

>  <Rbt.Current_Directory>
/home/itssahil/PROJECTS/Mol_Feturizer/New_Systems/rnas/3E5E

>  <Rbt.Executable>
rbdock ($Id: //depot/dev/client3/rdock/2013.1/src/exe/rbdock.cxx#4 $)

>  <Rbt.Library>
libRbt.so (2013.1, Build901 2013/11/27)

>  <Rbt.Parameter_File>
/export/apps/rDock/src/rDock_2013.1_src/data/scripts/dock_solv.prm

>  <Rbt.Receptor>
prm/pocket_docking_8.prm

>  <SCORE>
-23.8413

>  <SCORE.INTER>
-19.4081

>  <SCORE.INTER.CONST>
1

>  <SCORE.INTER.POLAR>
0

>  <SCORE.INTER.ROT>
7

>  <SCORE.INTER.SOLV>
13.746

>  <SCORE.INTER.VDW>
-25.7874

>  <SCORE.INTER.norm>
-0.746467

>  <SCORE.INTRA>
-4.43321

>  <SCORE.INTRA.DIHEDRAL>
-4.9472

>  <SCORE.INTRA.DIHEDRAL.0>
10.1225

>  <SCORE.INTRA.POLAR>
0

>  <SCORE.INTRA.POLAR.0>
0

>  <SCORE.INTRA.REPUL>
0

>  <SCORE.INTRA.REPUL.0>
0

>  <SCORE.INTRA.SOLV>
-0.359465

>  <SCORE.INTRA.SOLV.lig_0>
-49.9393

>  <SCORE.INTRA.VDW>
-1.77988

>  <SCORE.INTRA.VDW.0>
-1.75437

>  <SCORE.INTRA.norm>
-0.170508

>  <SCORE.RESTR>
0

>  <SCORE.RESTR.CAVITY>
0

>  <SCORE.RESTR.norm>
0

>  <SCORE.SYSTEM>
0

>  <SCORE.SYSTEM.CONST>
0

>  <SCORE.SYSTEM.DIHEDRAL>
0

>  <SCORE.SYSTEM.SOLV>
0

>  <SCORE.SYSTEM.norm>
0

>  <SCORE.heavy>
26

>  <SCORE.norm>
-0.916975

>  <RMSD>
5.991

$$$$
ligand
 OpenBabel11021811473D
libRbt.so/2013.1/901 2013/11/27
 26 28  0  0  0  0  0  0  0  0999 V2000
  -10.7551    9.5232  -24.9335 N   0  0  0  0  0  0  0  0  0  0  0  0
  -10.4824   10.4438  -23.8227 C   0  0  2  0  0  0  0  0  0  0  0  0
  -11.5449   10.2838  -22.7674 C   0  0  0  0  0  0  0  0  0  0  0  0
  -11.2327   10.1941  -21.6031 O   0  0  0  0  0  0  0  0  0  0  0  0
  -10.4896   11.8829  -24.3410 C   0  0  0  0  0  0  0  0  0  0  0  0
   -9.2444   12.1250  -25.1922 C   0  0  0  0  0  0  0  0  0  0  0  0
   -7.6960   12.0474  -24.4990 S   0  0  0  0  0  0  0  0  0  0  0  0
   -6.7252   12.9604  -23.2723 C   0  0  0  0  0  0  0  0  0  0  0  0
   -6.5830   14.4611  -23.5542 C   0  0  1  0  0  0  0  0  0  0  0  0
   -7.8352   15.1171  -23.6341 O   0  0  0  0  0  0  0  0  0  0  0  0
   -5.8885   15.1877  -22.4268 C   0  0  1  0  0  0  0  0  0  0  0  0
   -5.3525   16.3503  -23.0195 O   0  0  0  0  0  0  0  0  0  0  0  0
   -6.9938   15.6062  -21.4854 C   0  0  1  0  0  0  0  0  0  0  0  0
   -6.7424   16.9094  -21.0065 O   0  0  0  0  0  0  0  0  0  0  0  0
   -8.2218   15.6217  -22.3697 C   0  0  2  0  0  0  0  0  0  0  0  0
  -12.8404   10.2379  -23.1189 O   0  0  0  0  0  0  0  0  0  0  0  0
  -10.2431   13.0858  -18.2835 N   0  0  0  0  0  0  0  0  0  0  0  0
   -9.0536   13.7717  -18.3520 C   0  0  0  0  0  0  0  0  0  0  0  0
   -8.6836   14.3694  -19.5326 N   0  0  0  0  0  0  0  0  0  0  0  0
   -9.4742   14.2915  -20.6207 C   0  0  0  0  0  0  0  0  0  0  0  0
  -10.6745   13.6077  -20.5735 C   0  0  0  0  0  0  0  0  0  0  0  0
  -11.0566   12.9966  -19.3850 C   0  0  0  0  0  0  0  0  0  0  0  0
  -12.1989   12.3265  -19.2966 N   0  0  0  0  0  0  0  0  0  0  0  0
  -11.2560   13.6884  -21.7911 N   0  0  0  0  0  0  0  0  0  0  0  0
  -10.4510   14.4108  -22.5945 C   0  0  0  0  0  0  0  0  0  0  0  0
   -9.3357   14.7838  -21.8889 N   0  0  0  0  0  0  0  0  0  0  0  0
  2  1  1  6  0  0  0
  2  3  1  0  0  0  0
  2  5  1  0  0  0  0
  3  4  1  0  0  0  0
  3 16  1  0  0  0  0
  5  6  1  0  0  0  0
  6  7  1  0  0  0  0
  7  8  1  0  0  0  0
  9  8  1  1  0  0  0
  9 10  1  0  0  0  0
  9 11  1  0  0  0  0
 10 15  1  0  0  0  0
 11 12  1  6  0  0  0
 11 13  1  0  0  0  0
 13 14  1  6  0  0  0
 13 15  1  0  0  0  0
 15 26  1  1  0  0  0
 17 18  2  0  0  0  0
 17 22  1  0  0  0  0
 18 19  1  0  0  0  0
 19 20  2  0  0  0  0
 20 21  1  0  0  0  0
 20 26  1  0  0  0  0
 21 22  2  0  0  0  0
 21 24  1  0  0  0  0
 22 23  1  0  0  0  0
 24 25  2  0  0  0  0
 25 26  1  0  0  0  0
M  END
>  <CHROM.1>
133.66250783,-71.50576303,-64.02270563,-65.64939503,-55.40172012,58.51504534
135.73999575,-9.16931175,13.25955728,-22.21549312,-2.67094791,0.68225210
1.01469619

>  <Name>
ligand

>  <RI>
0

>  <Rbt.Current_Directory>
/home/itssahil/PROJECTS/Mol_Feturizer/New_Systems/rnas/3E5E

>  <Rbt.Executable>
rbdock ($Id: //depot/dev/client3/rdock/2013.1/src/exe/rbdock.cxx#4 $)

>  <Rbt.Library>
libRbt.so (2013.1, Build901 2013/11/27)

>  <Rbt.Parameter_File>
/export/apps/rDock/src/rDock_2013.1_src/data/scripts/dock_solv.prm

>  <Rbt.Receptor>
prm/blind_docking_40.prm

>  <SCORE>
-16.1856

>  <SCORE.INTER>
-10.924

>  <SCORE.INTER.CONST>
1

>  <SCORE.INTER.POLAR>
0

>  <SCORE.INTER.ROT>
7

>  <SCORE.INTER.SOLV>
10.4129

>  <SCORE.INTER.VDW>
-19.0203

>  <SCORE.INTER.norm>
-0.420155

>  <SCORE.INTRA>
-5.26155

>  <SCORE.INTRA.DIHEDRAL>
-6.83607

>  <SCORE.INTRA.DIHEDRAL.0>
10.1225

>  <SCORE.INTRA.POLAR>
0

>  <SCORE.INTRA.POLAR.0>
0

>  <SCORE.INTRA.REPUL>
0

>  <SCORE.INTRA.REPUL.0>
0

>  <SCORE.INTRA.SOLV>
1.37494

>  <SCORE.INTRA.SOLV.lig_0>
-49.9393

>  <SCORE.INTRA.VDW>
-2.53099

>  <SCORE.INTRA.VDW.0>
-1.75437

>  <SCORE.INTRA.norm>
-0.202367

>  <SCORE.RESTR>
0

>  <SCORE.RESTR.CAVITY>
0

>  <SCORE.RESTR.norm>
0

>  <SCORE.SYSTEM>
0

>  <SCORE.SYSTEM.CONST>
0

>  <SCORE.SYSTEM.DIHEDRAL>
0

>  <SCORE.SYSTEM.SOLV>
0

>  <SCORE.SYSTEM.norm>
0

>  <SCORE.heavy>
26

>  <SCORE.norm>
-0.622522

>  <RMSD>
5.999

$$$$
ligand
 OpenBabel11021811473D
libRbt.so/2013.1/901 2013/11/27
 26 28  0  0  0  0  0  0  0  0999 V2000
  -12.3847   13.1149  -21.3826 N   0  0  0  0  0  0  0  0  0  0  0  0
  -11.0334   13.0792  -20.8096 C   0  0  2  0  0  0  0  0  0  0  0  0
  -10.4093   11.7359  -21.0817 C   0  0  0  0  0  0  0  0  0  0  0  0
   -9.5995   11.6138  -21.9708 O   0  0  0  0  0  0  0  0  0  0  0  0
  -11.1148   13.3084  -19.2994 C   0  0  0  0  0  0  0  0  0  0  0  0
   -9.7148   13.5685  -18.7465 C   0  0  0  0  0  0  0  0  0  0  0  0
   -8.8535   14.9613  -19.1964 S   0  0  0  0  0  0  0  0  0  0  0  0
   -8.2628   15.7427  -20.7201 C   0  0  0  0  0  0  0  0  0  0  0  0
   -8.8671   15.1731  -22.0093 C   0  0  1  0  0  0  0  0  0  0  0  0
   -9.5263   16.1613  -22.7799 O   0  0  0  0  0  0  0  0  0  0  0  0
   -7.8076   14.6551  -22.9529 C   0  0  1  0  0  0  0  0  0  0  0  0
   -8.4744   13.7158  -23.7675 O   0  0  0  0  0  0  0  0  0  0  0  0
   -7.4300   15.8390  -23.8124 C   0  0  1  0  0  0  0  0  0  0  0  0
   -7.2566   15.4204  -25.1486 O   0  0  0  0  0  0  0  0  0  0  0  0
   -8.6412   16.7416  -23.7195 C   0  0  2  0  0  0  0  0  0  0  0  0
  -10.7536   10.6714  -20.3386 O   0  0  0  0  0  0  0  0  0  0  0  0
   -5.0362   19.9315  -21.7090 N   0  0  0  0  0  0  0  0  0  0  0  0
   -4.9249   18.5876  -21.9766 C   0  0  0  0  0  0  0  0  0  0  0  0
   -5.9998   17.9098  -22.4992 N   0  0  0  0  0  0  0  0  0  0  0  0
   -7.1586   18.5486  -22.7530 C   0  0  0  0  0  0  0  0  0  0  0  0
   -7.2918   19.8994  -22.4923 C   0  0  0  0  0  0  0  0  0  0  0  0
   -6.2114   20.5937  -21.9605 C   0  0  0  0  0  0  0  0  0  0  0  0
   -6.2971   21.8905  -21.6912 N   0  0  0  0  0  0  0  0  0  0  0  0
   -8.5436   20.2757  -22.8368 N   0  0  0  0  0  0  0  0  0  0  0  0
   -9.1921   19.1944  -23.3116 C   0  0  0  0  0  0  0  0  0  0  0  0
   -8.3524   18.1114  -23.2567 N   0  0  0  0  0  0  0  0  0  0  0  0
  2  1  1  1  0  0  0
  2  3  1  0  0  0  0
  2  5  1  0  0  0  0
  3  4  1  0  0  0  0
  3 16  1  0  0  0  0
  5  6  1  0  0  0  0
  6  7  1  0  0  0  0
  7  8  1  0  0  0  0
  9  8  1  1  0  0  0
  9 10  1  0  0  0  0
  9 11  1  0  0  0  0
 10 15  1  0  0  0  0
 11 12  1  6  0  0  0
 11 13  1  0  0  0  0
 13 14  1  6  0  0  0
 13 15  1  0  0  0  0
 15 26  1  1  0  0  0
 17 18  2  0  0  0  0
 17 22  1  0  0  0  0
 18 19  1  0  0  0  0
 19 20  2  0  0  0  0
 20 21  1  0  0  0  0
 20 26  1  0  0  0  0
 21 22  2  0  0  0  0
 21 24  1  0  0  0  0
 22 23  1  0  0  0  0
 24 25  2  0  0  0  0
 25 26  1  0  0  0  0
M  END
>  <CHROM.1>
101.69208553,-168.02710528,65.57084654,-57.57070552,13.42413691,122.20052907
109.60058947,-8.49173691,15.99479178,-21.87727409,-2.94337718,1.09338020
1.09764301

>  <Name>
ligand

>  <RI>
0

>  <Rbt.Current_Directory>
/home/itssahil/PROJECTS/Mol_Feturizer/New_Systems/rnas/3E5E

>  <Rbt.Executable>
rbdock ($Id: //depot/dev/client3/rdock/2013.1/src/exe/rbdock.cxx#4 $)

>  <Rbt.Library>
libRbt.so (2013.1, Build901 2013/11/27)

>  <Rbt.Parameter_File>
/export/apps/rDock/src/rDock_2013.1_src/data/scripts/dock_solv.prm

>  <Rbt.Receptor>
prm/pocket_docking_7.prm

>  <SCORE>
-16.314

>  <SCORE.INTER>
-15.0809

>  <SCORE.INTER.CONST>
1

>  <SCORE.INTER.POLAR>
0

>  <SCORE.INTER.ROT>
7

>  <SCORE.INTER.SOLV>
10.1332

>  <SCORE.INTER.VDW>
-21.6984

>  <SCORE.INTER.norm>
-0.580036

>  <SCORE.INTRA>
-1.23306

>  <SCORE.INTRA.DIHEDRAL>
0.59403

>  <SCORE.INTRA.DIHEDRAL.0>
10.1225

>  <SCORE.INTRA.POLAR>
0

>  <SCORE.INTRA.POLAR.0>
0

>  <SCORE.INTRA.REPUL>
0

>  <SCORE.INTRA.REPUL.0>
0

>  <SCORE.INTRA.SOLV>
0.15381

>  <SCORE.INTRA.SOLV.lig_0>
-49.9393

>  <SCORE.INTRA.VDW>
-1.60698

>  <SCORE.INTRA.VDW.0>
-1.75437

>  <SCORE.INTRA.norm>
-0.0474254

>  <SCORE.RESTR>
0

>  <SCORE.RESTR.CAVITY>
0

>  <SCORE.RESTR.norm>
0

>  <SCORE.SYSTEM>
0

>  <SCORE.SYSTEM.CONST>
0

>  <SCORE.SYSTEM.DIHEDRAL>
0

>  <SCORE.SYSTEM.SOLV>
0

>  <SCORE.SYSTEM.norm>
0

>  <SCORE.heavy>
26

>  <SCORE.norm>
-0.627461

>  <RMSD>
6.006

$$$$
ligand
 OpenBabel11021811473D
libRbt.so/2013.1/901 2013/11/27
 26 28  0  0  0  0  0  0  0  0999 V2000
  -14.2991    7.2881  -19.1662 N   0  0  0  0  0  0  0  0  0  0  0  0
  -13.4747    7.7372  -18.0375 C   0  0  2  0  0  0  0  0  0  0  0  0
  -13.4922    6.6891  -16.9562 C   0  0  0  0  0  0  0  0  0  0  0  0
  -12.5085    6.0184  -16.7474 O   0  0  0  0  0  0  0  0  0  0  0  0
  -14.0367    9.0490  -17.4868 C   0  0  0  0  0  0  0  0  0  0  0  0
  -14.0194   10.1120  -18.5838 C   0  0  0  0  0  0  0  0  0  0  0  0
  -12.5532   10.7949  -19.1016 S   0  0  0  0  0  0  0  0  0  0  0  0
  -11.5262   10.8011  -20.5937 C   0  0  0  0  0  0  0  0  0  0  0  0
  -11.2339   12.1937  -21.1656 C   0  0  1  0  0  0  0  0  0  0  0  0
  -10.3388   12.1508  -22.2619 O   0  0  0  0  0  0  0  0  0  0  0  0
  -12.4669   12.8354  -21.7567 C   0  0  1  0  0  0  0  0  0  0  0  0
  -12.2059   14.2215  -21.7246 O   0  0  0  0  0  0  0  0  0  0  0  0
  -12.4888   12.3941  -23.2016 C   0  0  1  0  0  0  0  0  0  0  0  0
  -12.8815   13.4726  -24.0221 O   0  0  0  0  0  0  0  0  0  0  0  0
  -11.0436   12.0449  -23.4846 C   0  0  2  0  0  0  0  0  0  0  0  0
  -14.6018    6.4965  -16.2243 O   0  0  0  0  0  0  0  0  0  0  0  0
  -12.9124    7.1772  -23.6475 N   0  0  0  0  0  0  0  0  0  0  0  0
  -13.4197    8.2579  -22.9658 C   0  0  0  0  0  0  0  0  0  0  0  0
  -12.7724    9.4679  -23.0365 N   0  0  0  0  0  0  0  0  0  0  0  0
  -11.6490    9.6055  -23.7674 C   0  0  0  0  0  0  0  0  0  0  0  0
  -11.1224    8.5323  -24.4612 C   0  0  0  0  0  0  0  0  0  0  0  0
  -11.7677    7.3030  -24.3936 C   0  0  0  0  0  0  0  0  0  0  0  0
  -11.2943    6.2453  -25.0408 N   0  0  0  0  0  0  0  0  0  0  0  0
  -10.0062    8.9479  -25.1004 N   0  0  0  0  0  0  0  0  0  0  0  0
   -9.8272   10.2550  -24.8272 C   0  0  0  0  0  0  0  0  0  0  0  0
  -10.8303   10.6774  -23.9927 N   0  0  0  0  0  0  0  0  0  0  0  0
  2  1  1  6  0  0  0
  2  3  1  0  0  0  0
  2  5  1  0  0  0  0
  3  4  1  0  0  0  0
  3 16  1  0  0  0  0
  5  6  1  0  0  0  0
  6  7  1  0  0  0  0
  7  8  1  0  0  0  0
  9  8  1  6  0  0  0
  9 10  1  0  0  0  0
  9 11  1  0  0  0  0
 10 15  1  0  0  0  0
 11 12  1  6  0  0  0
 11 13  1  0  0  0  0
 13 14  1  6  0  0  0
 13 15  1  0  0  0  0
 15 26  1  1  0  0  0
 17 18  2  0  0  0  0
 17 22  1  0  0  0  0
 18 19  1  0  0  0  0
 19 20  2  0  0  0  0
 20 21  1  0  0  0  0
 20 26  1  0  0  0  0
 21 22  2  0  0  0  0
 21 24  1  0  0  0  0
 22 23  1  0  0  0  0
 24 25  2  0  0  0  0
 25 26  1  0  0  0  0
M  END
>  <CHROM.1>
108.09329676,-60.03187381,-71.90550031,112.72079496,123.15317524,175.06425650
93.11494585,-12.29499494,9.73706039,-21.40724827,-2.86336358,1.24740003,0.19726204

>  <Name>
ligand

>  <RI>
0

>  <Rbt.Current_Directory>
/home/itssahil/PROJECTS/Mol_Feturizer/New_Systems/rnas/3E5E

>  <Rbt.Executable>
rbdock ($Id: //depot/dev/client3/rdock/2013.1/src/exe/rbdock.cxx#4 $)

>  <Rbt.Library>
libRbt.so (2013.1, Build901 2013/11/27)

>  <Rbt.Parameter_File>
/export/apps/rDock/src/rDock_2013.1_src/data/scripts/dock_solv.prm

>  <Rbt.Receptor>
prm/pocket_docking_8.prm

>  <SCORE>
-16.5233

>  <SCORE.INTER>
-14.9342

>  <SCORE.INTER.CONST>
1

>  <SCORE.INTER.POLAR>
0

>  <SCORE.INTER.ROT>
7

>  <SCORE.INTER.SOLV>
9.118

>  <SCORE.INTER.VDW>
-21.2621

>  <SCORE.INTER.norm>
-0.574393

>  <SCORE.INTRA>
-1.58905

>  <SCORE.INTRA.DIHEDRAL>
-2.02736

>  <SCORE.INTRA.DIHEDRAL.0>
10.1225

>  <SCORE.INTRA.POLAR>
0

>  <SCORE.INTRA.POLAR.0>
0

>  <SCORE.INTRA.REPUL>
0

>  <SCORE.INTRA.REPUL.0>
0

>  <SCORE.INTRA.SOLV>
0.704883

>  <SCORE.INTRA.SOLV.lig_0>
-49.9393

>  <SCORE.INTRA.VDW>
-0.927814

>  <SCORE.INTRA.VDW.0>
-1.75437

>  <SCORE.INTRA.norm>
-0.0611173

>  <SCORE.RESTR>
0

>  <SCORE.RESTR.CAVITY>
0

>  <SCORE.RESTR.norm>
0

>  <SCORE.SYSTEM>
0

>  <SCORE.SYSTEM.CONST>
0

>  <SCORE.SYSTEM.DIHEDRAL>
0

>  <SCORE.SYSTEM.SOLV>
0

>  <SCORE.SYSTEM.norm>
0

>  <SCORE.heavy>
26

>  <SCORE.norm>
-0.63551

>  <RMSD>
6.024

$$$$
ligand
 OpenBabel11021811473D
libRbt.so/2013.1/901 2013/11/27
 26 28  0  0  0  0  0  0  0  0999 V2000
   -8.2583    9.4133  -26.5834 N   0  0  0  0  0  0  0  0  0  0  0  0
   -9.0377    8.7542  -25.5281 C   0  0  2  0  0  0  0  0  0  0  0  0
   -9.4171    7.3678  -25.9774 C   0  0  0  0  0  0  0  0  0  0  0  0
   -9.4290    6.4563  -25.1836 O   0  0  0  0  0  0  0  0  0  0  0  0
  -10.3041    9.5653  -25.2488 C   0  0  0  0  0  0  0  0  0  0  0  0
  -11.0273    8.9811  -24.0367 C   0  0  0  0  0  0  0  0  0  0  0  0
  -11.4587    9.9730  -22.7274 S   0  0  0  0  0  0  0  0  0  0  0  0
  -10.6383   11.0833  -21.5547 C   0  0  0  0  0  0  0  0  0  0  0  0
  -11.4242   11.3485  -20.2649 C   0  0  1  0  0  0  0  0  0  0  0  0
  -10.7640   12.2619  -19.4077 O   0  0  0  0  0  0  0  0  0  0  0  0
  -12.7460   12.0279  -20.5345 C   0  0  1  0  0  0  0  0  0  0  0  0
  -13.5500   11.7140  -19.4185 O   0  0  0  0  0  0  0  0  0  0  0  0
  -12.4452   13.5081  -20.4962 C   0  0  1  0  0  0  0  0  0  0  0  0
  -13.4880   14.1881  -19.8322 O   0  0  0  0  0  0  0  0  0  0  0  0
  -11.1817   13.5889  -19.6670 C   0  0  2  0  0  0  0  0  0  0  0  0
   -9.7401    7.1418  -27.2614 O   0  0  0  0  0  0  0  0  0  0  0  0
   -6.6045   15.9918  -18.9674 N   0  0  0  0  0  0  0  0  0  0  0  0
   -7.4502   15.4829  -18.0103 C   0  0  0  0  0  0  0  0  0  0  0  0
   -8.6294   14.8911  -18.3940 N   0  0  0  0  0  0  0  0  0  0  0  0
   -8.9633   14.8033  -19.6963 C   0  0  0  0  0  0  0  0  0  0  0  0
   -8.1273   15.3075  -20.6748 C   0  0  0  0  0  0  0  0  0  0  0  0
   -6.9336   15.9111  -20.2971 C   0  0  0  0  0  0  0  0  0  0  0  0
   -6.1035   16.4121  -21.2034 N   0  0  0  0  0  0  0  0  0  0  0  0
   -8.7027   15.0871  -21.8780 N   0  0  0  0  0  0  0  0  0  0  0  0
   -9.8737   14.4526  -21.6743 C   0  0  0  0  0  0  0  0  0  0  0  0
  -10.0573   14.2781  -20.3264 N   0  0  0  0  0  0  0  0  0  0  0  0
  2  1  1  6  0  0  0
  2  3  1  0  0  0  0
  2  5  1  0  0  0  0
  3  4  1  0  0  0  0
  3 16  1  0  0  0  0
  5  6  1  0  0  0  0
  6  7  1  0  0  0  0
  7  8  1  0  0  0  0
  9  8  1  6  0  0  0
  9 10  1  0  0  0  0
  9 11  1  0  0  0  0
 10 15  1  0  0  0  0
 11 12  1  1  0  0  0
 11 13  1  0  0  0  0
 13 14  1  1  0  0  0
 13 15  1  0  0  0  0
 15 26  1  6  0  0  0
 17 18  2  0  0  0  0
 17 22  1  0  0  0  0
 18 19  1  0  0  0  0
 19 20  2  0  0  0  0
 20 21  1  0  0  0  0
 20 26  1  0  0  0  0
 21 22  2  0  0  0  0
 21 24  1  0  0  0  0
 22 23  1  0  0  0  0
 24 25  2  0  0  0  0
 25 26  1  0  0  0  0
M  END
>  <CHROM.1>
142.68865449,-172.98909966,127.22322137,-57.21242373,-159.19237986,-177.67464628
-80.15616558,-10.00237708,12.09845104,-21.81346164,-1.69275374,0.43870569
0.75200873

>  <Name>
ligand

>  <RI>
0

>  <Rbt.Current_Directory>
/home/itssahil/PROJECTS/Mol_Feturizer/New_Systems/rnas/3E5E

>  <Rbt.Executable>
rbdock ($Id: //depot/dev/client3/rdock/2013.1/src/exe/rbdock.cxx#4 $)

>  <Rbt.Library>
libRbt.so (2013.1, Build901 2013/11/27)

>  <Rbt.Parameter_File>
/export/apps/rDock/src/rDock_2013.1_src/data/scripts/dock_solv.prm

>  <Rbt.Receptor>
prm/blind_docking_60.prm

>  <SCORE>
-21.2727

>  <SCORE.INTER>
-19.8989

>  <SCORE.INTER.CONST>
1

>  <SCORE.INTER.POLAR>
0

>  <SCORE.INTER.ROT>
7

>  <SCORE.INTER.SOLV>
12.6667

>  <SCORE.INTER.VDW>
-25.7548

>  <SCORE.INTER.norm>
-0.765343

>  <SCORE.INTRA>
-1.37379

>  <SCORE.INTRA.DIHEDRAL>
-1.33287

>  <SCORE.INTRA.DIHEDRAL.0>
10.1225

>  <SCORE.INTRA.POLAR>
0

>  <SCORE.INTRA.POLAR.0>
0

>  <SCORE.INTRA.REPUL>
0

>  <SCORE.INTRA.REPUL.0>
0

>  <SCORE.INTRA.SOLV>
-0.567115

>  <SCORE.INTRA.SOLV.lig_0>
-49.9393

>  <SCORE.INTRA.VDW>
-0.423805

>  <SCORE.INTRA.VDW.0>
-1.75437

>  <SCORE.INTRA.norm>
-0.0528382

>  <SCORE.RESTR>
0

>  <SCORE.RESTR.CAVITY>
0

>  <SCORE.RESTR.norm>
0

>  <SCORE.SYSTEM>
0

>  <SCORE.SYSTEM.CONST>
0

>  <SCORE.SYSTEM.DIHEDRAL>
0

>  <SCORE.SYSTEM.SOLV>
0

>  <SCORE.SYSTEM.norm>
0

>  <SCORE.heavy>
26

>  <SCORE.norm>
-0.818181

>  <RMSD>
6.030

$$$$
ligand
 OpenBabel11021811473D
libRbt.so/2013.1/901 2013/11/27
 26 28  0  0  0  0  0  0  0  0999 V2000
   -8.0073    8.9494  -26.1846 N   0  0  0  0  0  0  0  0  0  0  0  0
   -9.1535    8.4010  -25.4490 C   0  0  2  0  0  0  0  0  0  0  0  0
   -9.4239    6.9957  -25.9184 C   0  0  0  0  0  0  0  0  0  0  0  0
   -9.7871    6.1539  -25.1307 O   0  0  0  0  0  0  0  0  0  0  0  0
  -10.3855    9.2710  -25.7042 C   0  0  0  0  0  0  0  0  0  0  0  0
  -10.2785   10.5588  -24.8896 C   0  0  0  0  0  0  0  0  0  0  0  0
  -10.6746   10.5716  -23.2382 S   0  0  0  0  0  0  0  0  0  0  0  0
  -10.2031   11.4902  -21.7500 C   0  0  0  0  0  0  0  0  0  0  0  0
  -11.2297   11.4385  -20.6119 C   0  0  1  0  0  0  0  0  0  0  0  0
  -10.7483   12.0368  -19.4222 O   0  0  0  0  0  0  0  0  0  0  0  0
  -12.4660   12.2479  -20.9247 C   0  0  1  0  0  0  0  0  0  0  0  0
  -13.4794   11.6899  -20.1173 O   0  0  0  0  0  0  0  0  0  0  0  0
  -12.1689   13.6382  -20.4131 C   0  0  1  0  0  0  0  0  0  0  0  0
  -13.3189   14.1731  -19.7950 O   0  0  0  0  0  0  0  0  0  0  0  0
  -11.0967   13.4075  -19.3702 C   0  0  2  0  0  0  0  0  0  0  0  0
   -9.2593    6.6756  -27.2124 O   0  0  0  0  0  0  0  0  0  0  0  0
   -8.2306   16.0835  -22.8109 N   0  0  0  0  0  0  0  0  0  0  0  0
   -9.4084   15.4092  -23.0307 C   0  0  0  0  0  0  0  0  0  0  0  0
  -10.0136   14.7464  -21.9903 N   0  0  0  0  0  0  0  0  0  0  0  0
   -9.4661   14.7524  -20.7593 C   0  0  0  0  0  0  0  0  0  0  0  0
   -8.2831   15.4247  -20.5163 C   0  0  0  0  0  0  0  0  0  0  0  0
   -7.6611   16.0956  -21.5626 C   0  0  0  0  0  0  0  0  0  0  0  0
   -6.5220   16.7505  -21.3744 N   0  0  0  0  0  0  0  0  0  0  0  0
   -7.9662   15.2659  -19.2118 N   0  0  0  0  0  0  0  0  0  0  0  0
   -8.9254   14.5165  -18.6342 C   0  0  0  0  0  0  0  0  0  0  0  0
   -9.8583   14.1794  -19.5813 N   0  0  0  0  0  0  0  0  0  0  0  0
  2  1  1  6  0  0  0
  2  3  1  0  0  0  0
  2  5  1  0  0  0  0
  3  4  1  0  0  0  0
  3 16  1  0  0  0  0
  5  6  1  0  0  0  0
  6  7  1  0  0  0  0
  7  8  1  0  0  0  0
  9  8  1  6  0  0  0
  9 10  1  0  0  0  0
  9 11  1  0  0  0  0
 10 15  1  0  0  0  0
 11 12  1  1  0  0  0
 11 13  1  0  0  0  0
 13 14  1  1  0  0  0
 13 15  1  0  0  0  0
 15 26  1  6  0  0  0
 17 18  2  0  0  0  0
 17 22  1  0  0  0  0
 18 19  1  0  0  0  0
 19 20  2  0  0  0  0
 20 21  1  0  0  0  0
 20 26  1  0  0  0  0
 21 22  2  0  0  0  0
 21 24  1  0  0  0  0
 22 23  1  0  0  0  0
 24 25  2  0  0  0  0
 25 26  1  0  0  0  0
M  END
>  <CHROM.1>
143.31921784,-76.09748813,-80.06954809,151.35211268,158.64689173,173.07447722
99.75730943,-10.01368712,12.15757243,-22.22016319,-1.57668112,0.63166532
0.65679349

>  <Name>
ligand

>  <RI>
0

>  <Rbt.Current_Directory>
/home/itssahil/PROJECTS/Mol_Feturizer/New_Systems/rnas/3E5E

>  <Rbt.Executable>
rbdock ($Id: //depot/dev/client3/rdock/2013.1/src/exe/rbdock.cxx#4 $)

>  <Rbt.Library>
libRbt.so (2013.1, Build901 2013/11/27)

>  <Rbt.Parameter_File>
/export/apps/rDock/src/rDock_2013.1_src/data/scripts/dock_solv.prm

>  <Rbt.Receptor>
prm/blind_docking_60.prm

>  <SCORE>
-19.097

>  <SCORE.INTER>
-16.632

>  <SCORE.INTER.CONST>
1

>  <SCORE.INTER.POLAR>
0

>  <SCORE.INTER.ROT>
7

>  <SCORE.INTER.SOLV>
12.8358

>  <SCORE.INTER.VDW>
-23.6333

>  <SCORE.INTER.norm>
-0.639693

>  <SCORE.INTRA>
-2.46501

>  <SCORE.INTRA.DIHEDRAL>
-3.00368

>  <SCORE.INTRA.DIHEDRAL.0>
10.1225

>  <SCORE.INTRA.POLAR>
0

>  <SCORE.INTRA.POLAR.0>
0

>  <SCORE.INTRA.REPUL>
0

>  <SCORE.INTRA.REPUL.0>
0

>  <SCORE.INTRA.SOLV>
0.270569

>  <SCORE.INTRA.SOLV.lig_0>
-49.9393

>  <SCORE.INTRA.VDW>
-1.09845

>  <SCORE.INTRA.VDW.0>
-1.75437

>  <SCORE.INTRA.norm>
-0.094808

>  <SCORE.RESTR>
0

>  <SCORE.RESTR.CAVITY>
0

>  <SCORE.RESTR.norm>
0

>  <SCORE.SYSTEM>
0

>  <SCORE.SYSTEM.CONST>
0

>  <SCORE.SYSTEM.DIHEDRAL>
0

>  <SCORE.SYSTEM.SOLV>
0

>  <SCORE.SYSTEM.norm>
0

>  <SCORE.heavy>
26

>  <SCORE.norm>
-0.734501

>  <RMSD>
6.068

$$$$
ligand
 OpenBabel11021811473D
libRbt.so/2013.1/901 2013/11/27
 26 28  0  0  0  0  0  0  0  0999 V2000
  -17.2337    8.6630  -19.3754 N   0  0  0  0  0  0  0  0  0  0  0  0
  -16.7403    8.4259  -20.7377 C   0  0  2  0  0  0  0  0  0  0  0  0
  -16.1421    7.0463  -20.8207 C   0  0  0  0  0  0  0  0  0  0  0  0
  -16.4185    6.3215  -21.7477 O   0  0  0  0  0  0  0  0  0  0  0  0
  -15.6736    9.4670  -21.0811 C   0  0  0  0  0  0  0  0  0  0  0  0
  -15.1534    9.2173  -22.4955 C   0  0  0  0  0  0  0  0  0  0  0  0
  -13.9048   10.1726  -23.1378 S   0  0  0  0  0  0  0  0  0  0  0  0
  -12.3318   10.8790  -22.5831 C   0  0  0  0  0  0  0  0  0  0  0  0
  -12.4542   12.2179  -21.8454 C   0  0  1  0  0  0  0  0  0  0  0  0
  -13.2597   12.1238  -20.6846 O   0  0  0  0  0  0  0  0  0  0  0  0
  -11.1266   12.6907  -21.3021 C   0  0  1  0  0  0  0  0  0  0  0  0
  -11.2665   14.0879  -21.1662 O   0  0  0  0  0  0  0  0  0  0  0  0
  -11.0288   12.0909  -19.9187 C   0  0  1  0  0  0  0  0  0  0  0  0
  -10.4788   13.0370  -19.0281 O   0  0  0  0  0  0  0  0  0  0  0  0
  -12.4720   11.8273  -19.5469 C   0  0  2  0  0  0  0  0  0  0  0  0
  -15.3027    6.6186  -19.8634 O   0  0  0  0  0  0  0  0  0  0  0  0
  -14.1651    8.6653  -15.7588 N   0  0  0  0  0  0  0  0  0  0  0  0
  -13.9705   10.0252  -15.7046 C   0  0  0  0  0  0  0  0  0  0  0  0
  -13.5018   10.6871  -16.8137 N   0  0  0  0  0  0  0  0  0  0  0  0
  -13.2334   10.0180  -17.9519 C   0  0  0  0  0  0  0  0  0  0  0  0
  -13.4228    8.6510  -18.0284 C   0  0  0  0  0  0  0  0  0  0  0  0
  -13.8934    7.9714  -16.9110 C   0  0  0  0  0  0  0  0  0  0  0  0
  -14.0857    6.6584  -16.9394 N   0  0  0  0  0  0  0  0  0  0  0  0
  -13.0782    8.2447  -19.2709 N   0  0  0  0  0  0  0  0  0  0  0  0
  -12.6847    9.3254  -19.9727 C   0  0  0  0  0  0  0  0  0  0  0  0
  -12.7636   10.4327  -19.1673 N   0  0  0  0  0  0  0  0  0  0  0  0
  2  1  1  1  0  0  0
  2  3  1  0  0  0  0
  2  5  1  0  0  0  0
  3  4  1  0  0  0  0
  3 16  1  0  0  0  0
  5  6  1  0  0  0  0
  6  7  1  0  0  0  0
  7  8  1  0  0  0  0
  9  8  1  1  0  0  0
  9 10  1  0  0  0  0
  9 11  1  0  0  0  0
 10 15  1  0  0  0  0
 11 12  1  1  0  0  0
 11 13  1  0  0  0  0
 13 14  1  1  0  0  0
 13 15  1  0  0  0  0
 15 26  1  6  0  0  0
 17 18  2  0  0  0  0
 17 22  1  0  0  0  0
 18 19  1  0  0  0  0
 19 20  2  0  0  0  0
 20 21  1  0  0  0  0
 20 26  1  0  0  0  0
 21 22  2  0  0  0  0
 21 24  1  0  0  0  0
 22 23  1  0  0  0  0
 24 25  2  0  0  0  0
 25 26  1  0  0  0  0
M  END
>  <CHROM.1>
133.80381571,179.69410868,-177.22284225,41.99681439,-84.34470131,59.29908565
-122.30363890,-13.69133477,9.87237006,-19.90804447,2.67721890,0.85683502
1.84804650

>  <Name>
ligand

>  <RI>
0

>  <Rbt.Current_Directory>
/home/itssahil/PROJECTS/Mol_Feturizer/New_Systems/rnas/3E5E

>  <Rbt.Executable>
rbdock ($Id: //depot/dev/client3/rdock/2013.1/src/exe/rbdock.cxx#4 $)

>  <Rbt.Library>
libRbt.so (2013.1, Build901 2013/11/27)

>  <Rbt.Parameter_File>
/export/apps/rDock/src/rDock_2013.1_src/data/scripts/dock_solv.prm

>  <Rbt.Receptor>
prm/pocket_docking_7.prm

>  <SCORE>
-21.3675

>  <SCORE.INTER>
-15.846

>  <SCORE.INTER.CONST>
1

>  <SCORE.INTER.POLAR>
0

>  <SCORE.INTER.ROT>
7

>  <SCORE.INTER.SOLV>
11.222

>  <SCORE.INTER.VDW>
-22.5714

>  <SCORE.INTER.norm>
-0.609463

>  <SCORE.INTRA>
-5.52151

>  <SCORE.INTRA.DIHEDRAL>
-6.03136

>  <SCORE.INTRA.DIHEDRAL.0>
10.1225

>  <SCORE.INTRA.POLAR>
0

>  <SCORE.INTRA.POLAR.0>
0

>  <SCORE.INTRA.REPUL>
0

>  <SCORE.INTRA.REPUL.0>
0

>  <SCORE.INTRA.SOLV>
0.294865

>  <SCORE.INTRA.SOLV.lig_0>
-49.9393

>  <SCORE.INTRA.VDW>
-2.65326

>  <SCORE.INTRA.VDW.0>
-1.75437

>  <SCORE.INTRA.norm>
-0.212366

>  <SCORE.RESTR>
0

>  <SCORE.RESTR.CAVITY>
0

>  <SCORE.RESTR.norm>
0

>  <SCORE.SYSTEM>
0

>  <SCORE.SYSTEM.CONST>
0

>  <SCORE.SYSTEM.DIHEDRAL>
0

>  <SCORE.SYSTEM.SOLV>
0

>  <SCORE.SYSTEM.norm>
0

>  <SCORE.heavy>
26

>  <SCORE.norm>
-0.821828

>  <RMSD>
6.077

$$$$
ligand
 OpenBabel11021811473D
libRbt.so/2013.1/901 2013/11/27
 26 28  0  0  0  0  0  0  0  0999 V2000
   -7.3545    8.9761  -26.1723 N   0  0  0  0  0  0  0  0  0  0  0  0
   -8.5871    9.2694  -25.4305 C   0  0  2  0  0  0  0  0  0  0  0  0
   -9.6948    8.3783  -25.9274 C   0  0  0  0  0  0  0  0  0  0  0  0
  -10.0863    8.4775  -27.0667 O   0  0  0  0  0  0  0  0  0  0  0  0
   -8.9740   10.7337  -25.6450 C   0  0  0  0  0  0  0  0  0  0  0  0
  -10.3518   10.9917  -25.0379 C   0  0  0  0  0  0  0  0  0  0  0  0
  -10.6259   10.7422  -23.3806 S   0  0  0  0  0  0  0  0  0  0  0  0
  -10.1119   11.4786  -21.8075 C   0  0  0  0  0  0  0  0  0  0  0  0
  -11.1500   11.3793  -20.6831 C   0  0  1  0  0  0  0  0  0  0  0  0
  -10.6905   11.9498  -19.4713 O   0  0  0  0  0  0  0  0  0  0  0  0
  -12.3946   12.1795  -20.9866 C   0  0  1  0  0  0  0  0  0  0  0  0
  -13.4085   11.5839  -20.2071 O   0  0  0  0  0  0  0  0  0  0  0  0
  -12.1235   13.5586  -20.4319 C   0  0  1  0  0  0  0  0  0  0  0  0
  -13.2880   14.0589  -19.8118 O   0  0  0  0  0  0  0  0  0  0  0  0
  -11.0595   13.3133  -19.3840 C   0  0  2  0  0  0  0  0  0  0  0  0
  -10.2508    7.4741  -25.1045 O   0  0  0  0  0  0  0  0  0  0  0  0
   -8.2113   16.1545  -22.7051 N   0  0  0  0  0  0  0  0  0  0  0  0
   -9.3789   15.4737  -22.9568 C   0  0  0  0  0  0  0  0  0  0  0  0
   -9.9807   14.7642  -21.9456 N   0  0  0  0  0  0  0  0  0  0  0  0
   -9.4397   14.7309  -20.7121 C   0  0  0  0  0  0  0  0  0  0  0  0
   -8.2670   15.4089  -20.4372 C   0  0  0  0  0  0  0  0  0  0  0  0
   -7.6484   16.1269  -21.4540 C   0  0  0  0  0  0  0  0  0  0  0  0
   -6.5191   16.7889  -21.2348 N   0  0  0  0  0  0  0  0  0  0  0  0
   -7.9548   15.2051  -19.1378 N   0  0  0  0  0  0  0  0  0  0  0  0
   -8.9070   14.4220  -18.5944 C   0  0  0  0  0  0  0  0  0  0  0  0
   -9.8304   14.1087  -19.5589 N   0  0  0  0  0  0  0  0  0  0  0  0
  2  1  1  6  0  0  0
  2  3  1  0  0  0  0
  2  5  1  0  0  0  0
  3  4  1  0  0  0  0
  3 16  1  0  0  0  0
  5  6  1  0  0  0  0
  6  7  1  0  0  0  0
  7  8  1  0  0  0  0
  9  8  1  6  0  0  0
  9 10  1  0  0  0  0
  9 11  1  0  0  0  0
 10 15  1  0  0  0  0
 11 12  1  1  0  0  0
 11 13  1  0  0  0  0
 13 14  1  1  0  0  0
 13 15  1  0  0  0  0
 15 26  1  6  0  0  0
 17 18  2  0  0  0  0
 17 22  1  0  0  0  0
 18 19  1  0  0  0  0
 19 20  2  0  0  0  0
 20 21  1  0  0  0  0
 20 26  1  0  0  0  0
 21 22  2  0  0  0  0
 21 24  1  0  0  0  0
 22 23  1  0  0  0  0
 24 25  2  0  0  0  0
 25 26  1  0  0  0  0
M  END
>  <CHROM.1>
-64.27128046,172.19221213,59.93388535,67.64647974,149.35352763,179.04179783
100.37081064,-9.95404116,12.42614053,-22.21648200,-1.58620460,0.63501179
0.75213350

>  <Name>
ligand

>  <RI>
0

>  <Rbt.Current_Directory>
/home/itssahil/PROJECTS/Mol_Feturizer/New_Systems/rnas/3E5E

>  <Rbt.Executable>
rbdock ($Id: //depot/dev/client3/rdock/2013.1/src/exe/rbdock.cxx#4 $)

>  <Rbt.Library>
libRbt.so (2013.1, Build901 2013/11/27)

>  <Rbt.Parameter_File>
/export/apps/rDock/src/rDock_2013.1_src/data/scripts/dock_solv.prm

>  <Rbt.Receptor>
prm/blind_docking_40.prm

>  <SCORE>
-17.6557

>  <SCORE.INTER>
-14.2925

>  <SCORE.INTER.CONST>
1

>  <SCORE.INTER.POLAR>
0

>  <SCORE.INTER.ROT>
7

>  <SCORE.INTER.SOLV>
13.3408

>  <SCORE.INTER.VDW>
-22.2419

>  <SCORE.INTER.norm>
-0.549711

>  <SCORE.INTRA>
-3.36326

>  <SCORE.INTRA.DIHEDRAL>
-5.75055

>  <SCORE.INTRA.DIHEDRAL.0>
10.1225

>  <SCORE.INTRA.POLAR>
0

>  <SCORE.INTRA.POLAR.0>
0

>  <SCORE.INTRA.REPUL>
0

>  <SCORE.INTRA.REPUL.0>
0

>  <SCORE.INTRA.SOLV>
-0.490583

>  <SCORE.INTRA.SOLV.lig_0>
-49.9393

>  <SCORE.INTRA.VDW>
-0.242693

>  <SCORE.INTRA.VDW.0>
-1.75437

>  <SCORE.INTRA.norm>
-0.129356

>  <SCORE.RESTR>
0

>  <SCORE.RESTR.CAVITY>
0

>  <SCORE.RESTR.norm>
0

>  <SCORE.SYSTEM>
0

>  <SCORE.SYSTEM.CONST>
0

>  <SCORE.SYSTEM.DIHEDRAL>
0

>  <SCORE.SYSTEM.SOLV>
0

>  <SCORE.SYSTEM.norm>
0

>  <SCORE.heavy>
26

>  <SCORE.norm>
-0.679067

>  <RMSD>
6.084

$$$$
ligand
 OpenBabel11021811473D
libRbt.so/2013.1/901 2013/11/27
 26 28  0  0  0  0  0  0  0  0999 V2000
   -8.4008    8.7123  -26.9641 N   0  0  0  0  0  0  0  0  0  0  0  0
   -9.0908    8.5144  -25.6834 C   0  0  2  0  0  0  0  0  0  0  0  0
   -9.8303    7.2027  -25.7103 C   0  0  0  0  0  0  0  0  0  0  0  0
  -10.1541    6.6692  -24.6752 O   0  0  0  0  0  0  0  0  0  0  0  0
  -10.0836    9.6562  -25.4584 C   0  0  0  0  0  0  0  0  0  0  0  0
   -9.3194   10.9533  -25.1996 C   0  0  0  0  0  0  0  0  0  0  0  0
  -10.1527   12.4136  -24.9601 S   0  0  0  0  0  0  0  0  0  0  0  0
  -11.5908   13.0036  -24.0300 C   0  0  0  0  0  0  0  0  0  0  0  0
  -11.8377   12.2781  -22.7018 C   0  0  1  0  0  0  0  0  0  0  0  0
  -10.7483   12.4044  -21.8062 O   0  0  0  0  0  0  0  0  0  0  0  0
  -12.9864   12.8824  -21.9293 C   0  0  1  0  0  0  0  0  0  0  0  0
  -13.4368   11.8493  -21.0806 O   0  0  0  0  0  0  0  0  0  0  0  0
  -12.3634   13.9585  -21.0709 C   0  0  1  0  0  0  0  0  0  0  0  0
  -12.9546   13.9464  -19.7898 O   0  0  0  0  0  0  0  0  0  0  0  0
  -10.9164   13.5285  -20.9630 C   0  0  2  0  0  0  0  0  0  0  0  0
  -10.1284    6.6228  -26.8845 O   0  0  0  0  0  0  0  0  0  0  0  0
   -6.7725   16.3745  -19.5691 N   0  0  0  0  0  0  0  0  0  0  0  0
   -7.4947   15.4942  -18.7986 C   0  0  0  0  0  0  0  0  0  0  0  0
   -8.5729   14.8417  -19.3461 N   0  0  0  0  0  0  0  0  0  0  0  0
   -8.9272   15.0544  -20.6285 C   0  0  0  0  0  0  0  0  0  0  0  0
   -8.2144   15.9344  -21.4210 C   0  0  0  0  0  0  0  0  0  0  0  0
   -7.1241   16.6021  -20.8758 C   0  0  0  0  0  0  0  0  0  0  0  0
   -6.4144   17.4587  -21.5998 N   0  0  0  0  0  0  0  0  0  0  0  0
   -8.7824   15.9548  -22.6475 N   0  0  0  0  0  0  0  0  0  0  0  0
   -9.8277   15.1048  -22.6411 C   0  0  0  0  0  0  0  0  0  0  0  0
   -9.9397   14.5455  -21.3938 N   0  0  0  0  0  0  0  0  0  0  0  0
  2  1  1  6  0  0  0
  2  3  1  0  0  0  0
  2  5  1  0  0  0  0
  3  4  1  0  0  0  0
  3 16  1  0  0  0  0
  5  6  1  0  0  0  0
  6  7  1  0  0  0  0
  7  8  1  0  0  0  0
  9  8  1  6  0  0  0
  9 10  1  0  0  0  0
  9 11  1  0  0  0  0
 10 15  1  0  0  0  0
 11 12  1  1  0  0  0
 11 13  1  0  0  0  0
 13 14  1  1  0  0  0
 13 15  1  0  0  0  0
 15 26  1  6  0  0  0
 17 18  2  0  0  0  0
 17 22  1  0  0  0  0
 18 19  1  0  0  0  0
 19 20  2  0  0  0  0
 20 21  1  0  0  0  0
 20 26  1  0  0  0  0
 21 22  2  0  0  0  0
 21 24  1  0  0  0  0
 22 23  1  0  0  0  0
 24 25  2  0  0  0  0
 25 26  1  0  0  0  0
M  END
>  <CHROM.1>
159.75657382,-69.38855427,178.11695958,44.60748507,32.02922471,60.23853762
-118.39087024,-9.92664066,12.64521282,-22.76005416,-1.72245588,0.38345916
0.67307209

>  <Name>
ligand

>  <RI>
0

>  <Rbt.Current_Directory>
/home/itssahil/PROJECTS/Mol_Feturizer/New_Systems/rnas/3E5E

>  <Rbt.Executable>
rbdock ($Id: //depot/dev/client3/rdock/2013.1/src/exe/rbdock.cxx#4 $)

>  <Rbt.Library>
libRbt.so (2013.1, Build901 2013/11/27)

>  <Rbt.Parameter_File>
/export/apps/rDock/src/rDock_2013.1_src/data/scripts/dock_solv.prm

>  <Rbt.Receptor>
prm/blind_docking_80.prm

>  <SCORE>
-21.5206

>  <SCORE.INTER>
-17.9047

>  <SCORE.INTER.CONST>
1

>  <SCORE.INTER.POLAR>
0

>  <SCORE.INTER.ROT>
7

>  <SCORE.INTER.SOLV>
10.8759

>  <SCORE.INTER.VDW>
-23.8285

>  <SCORE.INTER.norm>
-0.688644

>  <SCORE.INTRA>
-3.61582

>  <SCORE.INTRA.DIHEDRAL>
-5.62473

>  <SCORE.INTRA.DIHEDRAL.0>
10.1225

>  <SCORE.INTRA.POLAR>
0

>  <SCORE.INTRA.POLAR.0>
0

>  <SCORE.INTRA.REPUL>
0

>  <SCORE.INTRA.REPUL.0>
0

>  <SCORE.INTRA.SOLV>
0.16831

>  <SCORE.INTRA.SOLV.lig_0>
-49.9393

>  <SCORE.INTRA.VDW>
-0.887615

>  <SCORE.INTRA.VDW.0>
-1.75437

>  <SCORE.INTRA.norm>
-0.13907

>  <SCORE.RESTR>
0

>  <SCORE.RESTR.CAVITY>
0

>  <SCORE.RESTR.norm>
0

>  <SCORE.SYSTEM>
0

>  <SCORE.SYSTEM.CONST>
0

>  <SCORE.SYSTEM.DIHEDRAL>
0

>  <SCORE.SYSTEM.SOLV>
0

>  <SCORE.SYSTEM.norm>
0

>  <SCORE.heavy>
26

>  <SCORE.norm>
-0.827714

>  <RMSD>
6.095

$$$$
ligand
 OpenBabel11021811473D
libRbt.so/2013.1/901 2013/11/27
 26 28  0  0  0  0  0  0  0  0999 V2000
  -16.3313    7.4808  -18.2945 N   0  0  0  0  0  0  0  0  0  0  0  0
  -15.0012    8.0971  -18.2143 C   0  0  2  0  0  0  0  0  0  0  0  0
  -14.0020    7.0726  -17.7450 C   0  0  0  0  0  0  0  0  0  0  0  0
  -13.0432    6.8041  -18.4304 O   0  0  0  0  0  0  0  0  0  0  0  0
  -15.0395    9.2637  -17.2258 C   0  0  0  0  0  0  0  0  0  0  0  0
  -13.7067   10.0091  -17.2641 C   0  0  0  0  0  0  0  0  0  0  0  0
  -13.1886   10.7797  -18.6859 S   0  0  0  0  0  0  0  0  0  0  0  0
  -12.1972   10.3781  -20.1477 C   0  0  0  0  0  0  0  0  0  0  0  0
  -11.4721   11.5727  -20.7793 C   0  0  1  0  0  0  0  0  0  0  0  0
  -10.6881   11.1994  -21.8978 O   0  0  0  0  0  0  0  0  0  0  0  0
  -12.4362   12.5804  -21.3594 C   0  0  1  0  0  0  0  0  0  0  0  0
  -11.7192   13.7952  -21.3865 O   0  0  0  0  0  0  0  0  0  0  0  0
  -12.6628   12.1359  -22.7857 C   0  0  1  0  0  0  0  0  0  0  0  0
  -12.6978   13.2622  -23.6348 O   0  0  0  0  0  0  0  0  0  0  0  0
  -11.4341   11.3084  -23.0955 C   0  0  2  0  0  0  0  0  0  0  0  0
  -14.1765    6.4541  -16.5656 O   0  0  0  0  0  0  0  0  0  0  0  0
   -9.6382    7.2235  -25.7977 N   0  0  0  0  0  0  0  0  0  0  0  0
   -9.0447    8.4510  -25.6218 C   0  0  0  0  0  0  0  0  0  0  0  0
   -9.6857    9.4130  -24.8792 N   0  0  0  0  0  0  0  0  0  0  0  0
  -10.8868    9.1649  -24.3215 C   0  0  0  0  0  0  0  0  0  0  0  0
  -11.5008    7.9374  -24.4850 C   0  0  0  0  0  0  0  0  0  0  0  0
  -10.8624    6.9584  -25.2372 C   0  0  0  0  0  0  0  0  0  0  0  0
  -11.4179    5.7674  -25.4230 N   0  0  0  0  0  0  0  0  0  0  0  0
  -12.6816    7.9638  -23.8274 N   0  0  0  0  0  0  0  0  0  0  0  0
  -12.8161    9.1750  -23.2529 C   0  0  0  0  0  0  0  0  0  0  0  0
  -11.7175    9.9374  -23.5579 N   0  0  0  0  0  0  0  0  0  0  0  0
  2  1  1  1  0  0  0
  2  3  1  0  0  0  0
  2  5  1  0  0  0  0
  3  4  1  0  0  0  0
  3 16  1  0  0  0  0
  5  6  1  0  0  0  0
  6  7  1  0  0  0  0
  7  8  1  0  0  0  0
  9  8  1  6  0  0  0
  9 10  1  0  0  0  0
  9 11  1  0  0  0  0
 10 15  1  0  0  0  0
 11 12  1  6  0  0  0
 11 13  1  0  0  0  0
 13 14  1  6  0  0  0
 13 15  1  0  0  0  0
 15 26  1  1  0  0  0
 17 18  2  0  0  0  0
 17 22  1  0  0  0  0
 18 19  1  0  0  0  0
 19 20  2  0  0  0  0
 20 21  1  0  0  0  0
 20 26  1  0  0  0  0
 21 22  2  0  0  0  0
 21 24  1  0  0  0  0
 22 23  1  0  0  0  0
 24 25  2  0  0  0  0
 25 26  1  0  0  0  0
M  END
>  <CHROM.1>
121.61124362,-173.30616163,62.67260840,-91.20948708,-150.91757063,178.62137160
-85.31942728,-12.37755764,9.50014910,-21.45923147,3.03484394,1.10160007,0.17636784

>  <Name>
ligand

>  <RI>
0

>  <Rbt.Current_Directory>
/home/itssahil/PROJECTS/Mol_Feturizer/New_Systems/rnas/3E5E

>  <Rbt.Executable>
rbdock ($Id: //depot/dev/client3/rdock/2013.1/src/exe/rbdock.cxx#4 $)

>  <Rbt.Library>
libRbt.so (2013.1, Build901 2013/11/27)

>  <Rbt.Parameter_File>
/export/apps/rDock/src/rDock_2013.1_src/data/scripts/dock_solv.prm

>  <Rbt.Receptor>
prm/pocket_docking_7.prm

>  <SCORE>
-17.6658

>  <SCORE.INTER>
-14.2324

>  <SCORE.INTER.CONST>
1

>  <SCORE.INTER.POLAR>
0

>  <SCORE.INTER.ROT>
7

>  <SCORE.INTER.SOLV>
6.11298

>  <SCORE.INTER.VDW>
-19.7926

>  <SCORE.INTER.norm>
-0.547401

>  <SCORE.INTRA>
-3.43333

>  <SCORE.INTRA.DIHEDRAL>
-4.91754

>  <SCORE.INTRA.DIHEDRAL.0>
10.1225

>  <SCORE.INTRA.POLAR>
0

>  <SCORE.INTRA.POLAR.0>
0

>  <SCORE.INTRA.REPUL>
0

>  <SCORE.INTRA.REPUL.0>
0

>  <SCORE.INTRA.SOLV>
-0.482477

>  <SCORE.INTRA.SOLV.lig_0>
-49.9393

>  <SCORE.INTRA.VDW>
-0.733315

>  <SCORE.INTRA.VDW.0>
-1.75437

>  <SCORE.INTRA.norm>
-0.132051

>  <SCORE.RESTR>
0

>  <SCORE.RESTR.CAVITY>
0

>  <SCORE.RESTR.norm>
0

>  <SCORE.SYSTEM>
0

>  <SCORE.SYSTEM.CONST>
0

>  <SCORE.SYSTEM.DIHEDRAL>
0

>  <SCORE.SYSTEM.SOLV>
0

>  <SCORE.SYSTEM.norm>
0

>  <SCORE.heavy>
26

>  <SCORE.norm>
-0.679452

>  <RMSD>
6.101

$$$$
ligand
 OpenBabel11021811473D
libRbt.so/2013.1/901 2013/11/27
 26 28  0  0  0  0  0  0  0  0999 V2000
  -12.4188   13.7412  -20.2431 N   0  0  0  0  0  0  0  0  0  0  0  0
  -11.3361   12.7929  -20.5333 C   0  0  2  0  0  0  0  0  0  0  0  0
  -11.9057   11.5745  -21.2109 C   0  0  0  0  0  0  0  0  0  0  0  0
  -11.2786   10.5413  -21.2253 O   0  0  0  0  0  0  0  0  0  0  0  0
  -10.6571   12.3803  -19.2263 C   0  0  0  0  0  0  0  0  0  0  0  0
   -9.9833   13.5972  -18.5949 C   0  0  0  0  0  0  0  0  0  0  0  0
   -8.8346   14.4964  -19.4643 S   0  0  0  0  0  0  0  0  0  0  0  0
   -8.7900   15.5632  -20.9275 C   0  0  0  0  0  0  0  0  0  0  0  0
   -7.4015   16.1099  -21.2810 C   0  0  1  0  0  0  0  0  0  0  0  0
   -6.4871   15.0837  -21.6213 O   0  0  0  0  0  0  0  0  0  0  0  0
   -7.4284   16.9687  -22.5232 C   0  0  1  0  0  0  0  0  0  0  0  0
   -6.2972   17.8044  -22.4117 O   0  0  0  0  0  0  0  0  0  0  0  0
   -7.1961   16.0130  -23.6702 C   0  0  1  0  0  0  0  0  0  0  0  0
   -6.3336   16.6063  -24.6161 O   0  0  0  0  0  0  0  0  0  0  0  0
   -6.4974   14.8410  -23.0155 C   0  0  2  0  0  0  0  0  0  0  0  0
  -13.1101   11.6352  -21.8024 O   0  0  0  0  0  0  0  0  0  0  0  0
  -11.0131   12.4062  -23.9611 N   0  0  0  0  0  0  0  0  0  0  0  0
  -10.7990   13.7501  -23.7656 C   0  0  0  0  0  0  0  0  0  0  0  0
   -9.5266   14.2037  -23.5141 N   0  0  0  0  0  0  0  0  0  0  0  0
   -8.4888   13.3462  -23.4593 C   0  0  0  0  0  0  0  0  0  0  0  0
   -8.6816   11.9914  -23.6538 C   0  0  0  0  0  0  0  0  0  0  0  0
   -9.9654   11.5218  -23.9055 C   0  0  0  0  0  0  0  0  0  0  0  0
  -10.1961   10.2285  -24.0942 N   0  0  0  0  0  0  0  0  0  0  0  0
   -7.4843   11.3734  -23.5446 N   0  0  0  0  0  0  0  0  0  0  0  0
   -6.5490   12.3099  -23.2930 C   0  0  0  0  0  0  0  0  0  0  0  0
   -7.1553   13.5383  -23.2255 N   0  0  0  0  0  0  0  0  0  0  0  0
  2  1  1  1  0  0  0
  2  3  1  0  0  0  0
  2  5  1  0  0  0  0
  3  4  1  0  0  0  0
  3 16  1  0  0  0  0
  5  6  1  0  0  0  0
  6  7  1  0  0  0  0
  7  8  1  0  0  0  0
  9  8  1  6  0  0  0
  9 10  1  0  0  0  0
  9 11  1  0  0  0  0
 10 15  1  0  0  0  0
 11 12  1  1  0  0  0
 11 13  1  0  0  0  0
 13 14  1  6  0  0  0
 13 15  1  0  0  0  0
 15 26  1  1  0  0  0
 17 18  2  0  0  0  0
 17 22  1  0  0  0  0
 18 19  1  0  0  0  0
 19 20  2  0  0  0  0
 20 21  1  0  0  0  0
 20 26  1  0  0  0  0
 21 22  2  0  0  0  0
 21 24  1  0  0  0  0
 22 23  1  0  0  0  0
 24 25  2  0  0  0  0
 25 26  1  0  0  0  0
M  END
>  <CHROM.1>
-160.71107905,-64.54052510,-56.33043056,66.37906543,-178.79062969,63.35061281
92.02633027,-9.05278999,13.70802955,-22.09825297,2.90863907,-0.73392777,-2.20202130

>  <Name>
ligand

>  <RI>
0

>  <Rbt.Current_Directory>
/home/itssahil/PROJECTS/Mol_Feturizer/New_Systems/rnas/3E5E

>  <Rbt.Executable>
rbdock ($Id: //depot/dev/client3/rdock/2013.1/src/exe/rbdock.cxx#4 $)

>  <Rbt.Library>
libRbt.so (2013.1, Build901 2013/11/27)

>  <Rbt.Parameter_File>
/export/apps/rDock/src/rDock_2013.1_src/data/scripts/dock_solv.prm

>  <Rbt.Receptor>
prm/blind_docking_80.prm

>  <SCORE>
-16.5503

>  <SCORE.INTER>
-11.5498

>  <SCORE.INTER.CONST>
1

>  <SCORE.INTER.POLAR>
0

>  <SCORE.INTER.ROT>
7

>  <SCORE.INTER.SOLV>
11.9119

>  <SCORE.INTER.VDW>
-19.9372

>  <SCORE.INTER.norm>
-0.444223

>  <SCORE.INTRA>
-5.0005

>  <SCORE.INTRA.DIHEDRAL>
-7.07744

>  <SCORE.INTRA.DIHEDRAL.0>
10.1225

>  <SCORE.INTRA.POLAR>
0

>  <SCORE.INTRA.POLAR.0>
0

>  <SCORE.INTRA.REPUL>
0

>  <SCORE.INTRA.REPUL.0>
0

>  <SCORE.INTRA.SOLV>
2.65794

>  <SCORE.INTRA.SOLV.lig_0>
-49.9393

>  <SCORE.INTRA.VDW>
-2.79075

>  <SCORE.INTRA.VDW.0>
-1.75437

>  <SCORE.INTRA.norm>
-0.192327

>  <SCORE.RESTR>
0

>  <SCORE.RESTR.CAVITY>
0

>  <SCORE.RESTR.norm>
0

>  <SCORE.SYSTEM>
0

>  <SCORE.SYSTEM.CONST>
0

>  <SCORE.SYSTEM.DIHEDRAL>
0

>  <SCORE.SYSTEM.SOLV>
0

>  <SCORE.SYSTEM.norm>
0

>  <SCORE.heavy>
26

>  <SCORE.norm>
-0.63655

>  <RMSD>
6.163

$$$$
ligand
 OpenBabel11021811473D
libRbt.so/2013.1/901 2013/11/27
 26 28  0  0  0  0  0  0  0  0999 V2000
  -13.7772    8.9164  -20.7501 N   0  0  0  0  0  0  0  0  0  0  0  0
  -13.8217   10.1547  -21.5375 C   0  0  2  0  0  0  0  0  0  0  0  0
  -13.8002    9.8163  -23.0048 C   0  0  0  0  0  0  0  0  0  0  0  0
  -14.7726   10.0312  -23.6898 O   0  0  0  0  0  0  0  0  0  0  0  0
  -12.6077   11.0198  -21.1946 C   0  0  0  0  0  0  0  0  0  0  0  0
  -12.7777   12.4060  -21.8134 C   0  0  0  0  0  0  0  0  0  0  0  0
  -11.6265   13.6232  -21.5351 S   0  0  0  0  0  0  0  0  0  0  0  0
  -10.3883   14.5443  -22.4835 C   0  0  0  0  0  0  0  0  0  0  0  0
   -9.0312   14.6996  -21.7863 C   0  0  1  0  0  0  0  0  0  0  0  0
   -8.3491   13.4662  -21.6503 O   0  0  0  0  0  0  0  0  0  0  0  0
   -8.0683   15.5345  -22.5970 C   0  0  1  0  0  0  0  0  0  0  0  0
   -7.1433   16.0369  -21.6576 O   0  0  0  0  0  0  0  0  0  0  0  0
   -7.3462   14.5516  -23.4889 C   0  0  1  0  0  0  0  0  0  0  0  0
   -5.9791   14.8927  -23.5632 O   0  0  0  0  0  0  0  0  0  0  0  0
   -7.4989   13.2353  -22.7579 C   0  0  2  0  0  0  0  0  0  0  0  0
  -12.7013    9.2729  -23.5535 O   0  0  0  0  0  0  0  0  0  0  0  0
   -6.7626    9.7934  -26.6082 N   0  0  0  0  0  0  0  0  0  0  0  0
   -5.8891   10.7496  -26.1470 C   0  0  0  0  0  0  0  0  0  0  0  0
   -6.2733   11.5799  -25.1218 N   0  0  0  0  0  0  0  0  0  0  0  0
   -7.4944   11.4650  -24.5642 C   0  0  0  0  0  0  0  0  0  0  0  0
   -8.3877   10.5099  -25.0120 C   0  0  0  0  0  0  0  0  0  0  0  0
   -8.0101    9.6672  -26.0508 C   0  0  0  0  0  0  0  0  0  0  0  0
   -8.8380    8.7391  -26.5143 N   0  0  0  0  0  0  0  0  0  0  0  0
   -9.5221   10.6173  -24.2847 N   0  0  0  0  0  0  0  0  0  0  0  0
   -9.3559   11.6114  -23.3905 C   0  0  0  0  0  0  0  0  0  0  0  0
   -8.1083   12.1562  -23.5567 N   0  0  0  0  0  0  0  0  0  0  0  0
  2  1  1  1  0  0  0
  2  3  1  0  0  0  0
  2  5  1  0  0  0  0
  3  4  1  0  0  0  0
  3 16  1  0  0  0  0
  5  6  1  0  0  0  0
  6  7  1  0  0  0  0
  7  8  1  0  0  0  0
  9  8  1  6  0  0  0
  9 10  1  0  0  0  0
  9 11  1  0  0  0  0
 10 15  1  0  0  0  0
 11 12  1  1  0  0  0
 11 13  1  0  0  0  0
 13 14  1  1  0  0  0
 13 15  1  0  0  0  0
 15 26  1  6  0  0  0
 17 18  2  0  0  0  0
 17 22  1  0  0  0  0
 18 19  1  0  0  0  0
 19 20  2  0  0  0  0
 20 21  1  0  0  0  0
 20 26  1  0  0  0  0
 21 22  2  0  0  0  0
 21 24  1  0  0  0  0
 22 23  1  0  0  0  0
 24 25  2  0  0  0  0
 25 26  1  0  0  0  0
M  END
>  <CHROM.1>
112.45120934,-169.84141545,176.62657846,112.41321116,-135.78808461,67.32358700
-167.20600765,-9.68617505,12.01124116,-23.26292314,-2.95085812,0.43496633
0.60151026

>  <Name>
ligand

>  <RI>
0

>  <Rbt.Current_Directory>
/home/itssahil/PROJECTS/Mol_Feturizer/New_Systems/rnas/3E5E

>  <Rbt.Executable>
rbdock ($Id: //depot/dev/client3/rdock/2013.1/src/exe/rbdock.cxx#4 $)

>  <Rbt.Library>
libRbt.so (2013.1, Build901 2013/11/27)

>  <Rbt.Parameter_File>
/export/apps/rDock/src/rDock_2013.1_src/data/scripts/dock_solv.prm

>  <Rbt.Receptor>
prm/blind_docking_80.prm

>  <SCORE>
-11.8863

>  <SCORE.INTER>
-9.30266

>  <SCORE.INTER.CONST>
1

>  <SCORE.INTER.POLAR>
0

>  <SCORE.INTER.ROT>
7

>  <SCORE.INTER.SOLV>
6.16886

>  <SCORE.INTER.VDW>
-16.5247

>  <SCORE.INTER.norm>
-0.357795

>  <SCORE.INTRA>
-2.58361

>  <SCORE.INTRA.DIHEDRAL>
-2.40663

>  <SCORE.INTRA.DIHEDRAL.0>
10.1225

>  <SCORE.INTRA.POLAR>
0

>  <SCORE.INTRA.POLAR.0>
0

>  <SCORE.INTRA.REPUL>
0

>  <SCORE.INTRA.REPUL.0>
0

>  <SCORE.INTRA.SOLV>
-0.573532

>  <SCORE.INTRA.SOLV.lig_0>
-49.9393

>  <SCORE.INTRA.VDW>
-1.09353

>  <SCORE.INTRA.VDW.0>
-1.75437

>  <SCORE.INTRA.norm>
-0.0993698

>  <SCORE.RESTR>
0

>  <SCORE.RESTR.CAVITY>
0

>  <SCORE.RESTR.norm>
0

>  <SCORE.SYSTEM>
0

>  <SCORE.SYSTEM.CONST>
0

>  <SCORE.SYSTEM.DIHEDRAL>
0

>  <SCORE.SYSTEM.SOLV>
0

>  <SCORE.SYSTEM.norm>
0

>  <SCORE.heavy>
26

>  <SCORE.norm>
-0.457164

>  <RMSD>
6.205

$$$$
ligand
 OpenBabel11021811473D
libRbt.so/2013.1/901 2013/11/27
 26 28  0  0  0  0  0  0  0  0999 V2000
   -9.0079   10.6420  -24.4672 N   0  0  0  0  0  0  0  0  0  0  0  0
  -10.1365   10.7782  -25.3963 C   0  0  2  0  0  0  0  0  0  0  0  0
   -9.9972    9.7684  -26.5050 C   0  0  0  0  0  0  0  0  0  0  0  0
  -10.8868    9.6281  -27.3111 O   0  0  0  0  0  0  0  0  0  0  0  0
  -10.1415   12.1888  -25.9877 C   0  0  0  0  0  0  0  0  0  0  0  0
  -10.3853   13.2075  -24.8757 C   0  0  0  0  0  0  0  0  0  0  0  0
  -11.8975   13.3037  -24.1088 S   0  0  0  0  0  0  0  0  0  0  0  0
  -12.5423   13.5643  -22.4363 C   0  0  0  0  0  0  0  0  0  0  0  0
  -12.3599   12.3748  -21.4857 C   0  0  1  0  0  0  0  0  0  0  0  0
  -11.0113   11.9513  -21.4024 O   0  0  0  0  0  0  0  0  0  0  0  0
  -12.6939   12.7330  -20.0569 C   0  0  1  0  0  0  0  0  0  0  0  0
  -13.0146   11.5053  -19.4401 O   0  0  0  0  0  0  0  0  0  0  0  0
  -11.3989   13.2346  -19.4615 C   0  0  1  0  0  0  0  0  0  0  0  0
  -11.2612   12.7476  -18.1444 O   0  0  0  0  0  0  0  0  0  0  0  0
  -10.3405   12.6091  -20.3441 C   0  0  2  0  0  0  0  0  0  0  0  0
   -8.8853    9.0206  -26.5977 O   0  0  0  0  0  0  0  0  0  0  0  0
   -7.2600   16.7348  -19.5059 N   0  0  0  0  0  0  0  0  0  0  0  0
   -8.0882   16.0992  -18.6114 C   0  0  0  0  0  0  0  0  0  0  0  0
   -8.8387   15.0262  -19.0277 N   0  0  0  0  0  0  0  0  0  0  0  0
   -8.7694   14.5907  -20.3008 C   0  0  0  0  0  0  0  0  0  0  0  0
   -7.9426   15.2145  -21.2161 C   0  0  0  0  0  0  0  0  0  0  0  0
   -7.1818   16.3030  -20.8060 C   0  0  0  0  0  0  0  0  0  0  0  0
   -6.3778   16.9339  -21.6530 N   0  0  0  0  0  0  0  0  0  0  0  0
   -8.0692   14.5793  -22.4027 N   0  0  0  0  0  0  0  0  0  0  0  0
   -8.9496   13.5712  -22.2482 C   0  0  0  0  0  0  0  0  0  0  0  0
   -9.4029   13.5699  -20.9538 N   0  0  0  0  0  0  0  0  0  0  0  0
  2  1  1  1  0  0  0
  2  3  1  0  0  0  0
  2  5  1  0  0  0  0
  3  4  1  0  0  0  0
  3 16  1  0  0  0  0
  5  6  1  0  0  0  0
  6  7  1  0  0  0  0
  7  8  1  0  0  0  0
  9  8  1  6  0  0  0
  9 10  1  0  0  0  0
  9 11  1  0  0  0  0
 10 15  1  0  0  0  0
 11 12  1  1  0  0  0
 11 13  1  0  0  0  0
 13 14  1  1  0  0  0
 13 15  1  0  0  0  0
 15 26  1  6  0  0  0
 17 18  2  0  0  0  0
 17 22  1  0  0  0  0
 18 19  1  0  0  0  0
 19 20  2  0  0  0  0
 20 21  1  0  0  0  0
 20 26  1  0  0  0  0
 21 22  2  0  0  0  0
 21 24  1  0  0  0  0
 22 23  1  0  0  0  0
 24 25  2  0  0  0  0
 25 26  1  0  0  0  0
M  END
>  <CHROM.1>
173.17190815,-64.16826475,-69.11700209,140.83411270,-72.75955855,54.50152331
165.60658220,-10.03039388,13.07398870,-22.24054773,-1.82029465,0.60295429
1.08056967

>  <Name>
ligand

>  <RI>
0

>  <Rbt.Current_Directory>
/home/itssahil/PROJECTS/Mol_Feturizer/New_Systems/rnas/3E5E

>  <Rbt.Executable>
rbdock ($Id: //depot/dev/client3/rdock/2013.1/src/exe/rbdock.cxx#4 $)

>  <Rbt.Library>
libRbt.so (2013.1, Build901 2013/11/27)

>  <Rbt.Parameter_File>
/export/apps/rDock/src/rDock_2013.1_src/data/scripts/dock_solv.prm

>  <Rbt.Receptor>
prm/pocket_docking_5.prm

>  <SCORE>
-20.1997

>  <SCORE.INTER>
-17.0702

>  <SCORE.INTER.CONST>
1

>  <SCORE.INTER.POLAR>
0

>  <SCORE.INTER.ROT>
7

>  <SCORE.INTER.SOLV>
13.1092

>  <SCORE.INTER.VDW>
-24.0165

>  <SCORE.INTER.norm>
-0.656545

>  <SCORE.INTRA>
-3.12955

>  <SCORE.INTRA.DIHEDRAL>
-5.02897

>  <SCORE.INTRA.DIHEDRAL.0>
10.1225

>  <SCORE.INTRA.POLAR>
0

>  <SCORE.INTRA.POLAR.0>
0

>  <SCORE.INTRA.REPUL>
0

>  <SCORE.INTRA.REPUL.0>
0

>  <SCORE.INTRA.SOLV>
1.35303

>  <SCORE.INTRA.SOLV.lig_0>
-49.9393

>  <SCORE.INTRA.VDW>
-1.29158

>  <SCORE.INTRA.VDW.0>
-1.75437

>  <SCORE.INTRA.norm>
-0.120367

>  <SCORE.RESTR>
0

>  <SCORE.RESTR.CAVITY>
0

>  <SCORE.RESTR.norm>
0

>  <SCORE.SYSTEM>
0

>  <SCORE.SYSTEM.CONST>
0

>  <SCORE.SYSTEM.DIHEDRAL>
0

>  <SCORE.SYSTEM.SOLV>
0

>  <SCORE.SYSTEM.norm>
0

>  <SCORE.heavy>
26

>  <SCORE.norm>
-0.776913

>  <RMSD>
6.245

$$$$
ligand
 OpenBabel11021811473D
libRbt.so/2013.1/901 2013/11/27
 26 28  0  0  0  0  0  0  0  0999 V2000
   -9.4022    7.8883  -26.0738 N   0  0  0  0  0  0  0  0  0  0  0  0
  -10.4802    8.8614  -26.2898 C   0  0  2  0  0  0  0  0  0  0  0  0
  -10.2133    9.6316  -27.5562 C   0  0  0  0  0  0  0  0  0  0  0  0
  -11.0579    9.6891  -28.4190 O   0  0  0  0  0  0  0  0  0  0  0  0
  -10.5378    9.8284  -25.1061 C   0  0  0  0  0  0  0  0  0  0  0  0
  -11.0819    9.1003  -23.8783 C   0  0  0  0  0  0  0  0  0  0  0  0
  -11.4534    9.9574  -22.4601 S   0  0  0  0  0  0  0  0  0  0  0  0
  -10.6249   11.0985  -21.3231 C   0  0  0  0  0  0  0  0  0  0  0  0
  -11.4184   11.4275  -20.0528 C   0  0  1  0  0  0  0  0  0  0  0  0
  -10.7647   12.3850  -19.2399 O   0  0  0  0  0  0  0  0  0  0  0  0
  -12.7400   12.0894  -20.3639 C   0  0  1  0  0  0  0  0  0  0  0  0
  -13.5496   11.8311  -19.2377 O   0  0  0  0  0  0  0  0  0  0  0  0
  -12.4423   13.5703  -20.3998 C   0  0  1  0  0  0  0  0  0  0  0  0
  -13.4901   14.2810  -19.7770 O   0  0  0  0  0  0  0  0  0  0  0  0
  -11.1836   13.6962  -19.5689 C   0  0  2  0  0  0  0  0  0  0  0  0
   -9.0354   10.2532  -27.7296 O   0  0  0  0  0  0  0  0  0  0  0  0
   -6.5898   16.0950  -18.9717 N   0  0  0  0  0  0  0  0  0  0  0  0
   -7.4358   15.6274  -17.9940 C   0  0  0  0  0  0  0  0  0  0  0  0
   -8.6197   15.0290  -18.3522 N   0  0  0  0  0  0  0  0  0  0  0  0
   -8.9578   14.8948  -19.6495 C   0  0  0  0  0  0  0  0  0  0  0  0
   -8.1216   15.3569  -20.6483 C   0  0  0  0  0  0  0  0  0  0  0  0
   -6.9232   15.9667  -20.2966 C   0  0  0  0  0  0  0  0  0  0  0  0
   -6.0926   16.4284  -21.2232 N   0  0  0  0  0  0  0  0  0  0  0  0
   -8.7019   15.0953  -21.8409 N   0  0  0  0  0  0  0  0  0  0  0  0
   -9.8761   14.4761  -21.6105 C   0  0  0  0  0  0  0  0  0  0  0  0
  -10.0569   14.3532  -20.2565 N   0  0  0  0  0  0  0  0  0  0  0  0
  2  1  1  1  0  0  0
  2  3  1  0  0  0  0
  2  5  1  0  0  0  0
  3  4  1  0  0  0  0
  3 16  1  0  0  0  0
  5  6  1  0  0  0  0
  6  7  1  0  0  0  0
  7  8  1  0  0  0  0
  9  8  1  6  0  0  0
  9 10  1  0  0  0  0
  9 11  1  0  0  0  0
 10 15  1  0  0  0  0
 11 12  1  1  0  0  0
 11 13  1  0  0  0  0
 13 14  1  1  0  0  0
 13 15  1  0  0  0  0
 15 26  1  6  0  0  0
 17 18  2  0  0  0  0
 17 22  1  0  0  0  0
 18 19  1  0  0  0  0
 19 20  2  0  0  0  0
 20 21  1  0  0  0  0
 20 26  1  0  0  0  0
 21 22  2  0  0  0  0
 21 24  1  0  0  0  0
 22 23  1  0  0  0  0
 24 25  2  0  0  0  0
 25 26  1  0  0  0  0
M  END
>  <CHROM.1>
126.28858896,-71.38157606,-172.02045407,-54.38826278,-171.91176970,-176.33657007
-79.12197989,-10.16701460,12.45098680,-21.93971595,-1.77991162,0.57378435
0.98165988

>  <Name>
ligand

>  <RI>
0

>  <Rbt.Current_Directory>
/home/itssahil/PROJECTS/Mol_Feturizer/New_Systems/rnas/3E5E

>  <Rbt.Executable>
rbdock ($Id: //depot/dev/client3/rdock/2013.1/src/exe/rbdock.cxx#4 $)

>  <Rbt.Library>
libRbt.so (2013.1, Build901 2013/11/27)

>  <Rbt.Parameter_File>
/export/apps/rDock/src/rDock_2013.1_src/data/scripts/dock_solv.prm

>  <Rbt.Receptor>
prm/pocket_docking_7.prm

>  <SCORE>
-21.508

>  <SCORE.INTER>
-17.7255

>  <SCORE.INTER.CONST>
1

>  <SCORE.INTER.POLAR>
0

>  <SCORE.INTER.ROT>
7

>  <SCORE.INTER.SOLV>
14.3515

>  <SCORE.INTER.VDW>
-24.8675

>  <SCORE.INTER.norm>
-0.68175

>  <SCORE.INTRA>
-3.78253

>  <SCORE.INTRA.DIHEDRAL>
-6.57981

>  <SCORE.INTRA.DIHEDRAL.0>
10.1225

>  <SCORE.INTRA.POLAR>
0

>  <SCORE.INTRA.POLAR.0>
0

>  <SCORE.INTRA.REPUL>
0

>  <SCORE.INTRA.REPUL.0>
0

>  <SCORE.INTRA.SOLV>
0.0309036

>  <SCORE.INTRA.SOLV.lig_0>
-49.9393

>  <SCORE.INTRA.VDW>
-0.508075

>  <SCORE.INTRA.VDW.0>
-1.75437

>  <SCORE.INTRA.norm>
-0.145482

>  <SCORE.RESTR>
0

>  <SCORE.RESTR.CAVITY>
0

>  <SCORE.RESTR.norm>
0

>  <SCORE.SYSTEM>
0

>  <SCORE.SYSTEM.CONST>
0

>  <SCORE.SYSTEM.DIHEDRAL>
0

>  <SCORE.SYSTEM.SOLV>
0

>  <SCORE.SYSTEM.norm>
0

>  <SCORE.heavy>
26

>  <SCORE.norm>
-0.827232

>  <RMSD>
6.255

$$$$
ligand
 OpenBabel11021811473D
libRbt.so/2013.1/901 2013/11/27
 26 28  0  0  0  0  0  0  0  0999 V2000
  -15.8755    8.7327  -16.6162 N   0  0  0  0  0  0  0  0  0  0  0  0
  -14.5615    8.9962  -16.0166 C   0  0  2  0  0  0  0  0  0  0  0  0
  -14.7398    9.3972  -14.5759 C   0  0  0  0  0  0  0  0  0  0  0  0
  -14.4317    8.6323  -13.6922 O   0  0  0  0  0  0  0  0  0  0  0  0
  -13.8712   10.1276  -16.7803 C   0  0  0  0  0  0  0  0  0  0  0  0
  -13.4940    9.6432  -18.1791 C   0  0  0  0  0  0  0  0  0  0  0  0
  -12.6950   10.6763  -19.2646 S   0  0  0  0  0  0  0  0  0  0  0  0
  -13.1070   12.0744  -20.3400 C   0  0  0  0  0  0  0  0  0  0  0  0
  -11.9308   12.6252  -21.1553 C   0  0  1  0  0  0  0  0  0  0  0  0
  -11.3057   11.6287  -21.9434 O   0  0  0  0  0  0  0  0  0  0  0  0
  -12.3764   13.6412  -22.1804 C   0  0  1  0  0  0  0  0  0  0  0  0
  -11.2311   14.4238  -22.4379 O   0  0  0  0  0  0  0  0  0  0  0  0
  -12.6876   12.8396  -23.4228 C   0  0  1  0  0  0  0  0  0  0  0  0
  -12.2222   13.5292  -24.5624 O   0  0  0  0  0  0  0  0  0  0  0  0
  -11.8810   11.5729  -23.2352 C   0  0  2  0  0  0  0  0  0  0  0  0
  -15.2439   10.6043  -14.2713 O   0  0  0  0  0  0  0  0  0  0  0  0
  -11.7473    6.4541  -24.2324 N   0  0  0  0  0  0  0  0  0  0  0  0
  -10.7217    7.3643  -24.3311 C   0  0  0  0  0  0  0  0  0  0  0  0
  -10.9576    8.6852  -24.0348 N   0  0  0  0  0  0  0  0  0  0  0  0
  -12.1811    9.0955  -23.6475 C   0  0  0  0  0  0  0  0  0  0  0  0
  -13.2259    8.1970  -23.5407 C   0  0  0  0  0  0  0  0  0  0  0  0
  -12.9987    6.8591  -23.8414 C   0  0  0  0  0  0  0  0  0  0  0  0
  -13.9745    5.9634  -23.7562 N   0  0  0  0  0  0  0  0  0  0  0  0
  -14.3256    8.8724  -23.1384 N   0  0  0  0  0  0  0  0  0  0  0  0
  -13.9908   10.1684  -22.9858 C   0  0  0  0  0  0  0  0  0  0  0  0
  -12.6672   10.3277  -23.3079 N   0  0  0  0  0  0  0  0  0  0  0  0
  2  1  1  6  0  0  0
  2  3  1  0  0  0  0
  2  5  1  0  0  0  0
  3  4  1  0  0  0  0
  3 16  1  0  0  0  0
  5  6  1  0  0  0  0
  6  7  1  0  0  0  0
  7  8  1  0  0  0  0
  9  8  1  6  0  0  0
  9 10  1  0  0  0  0
  9 11  1  0  0  0  0
 10 15  1  0  0  0  0
 11 12  1  6  0  0  0
 11 13  1  0  0  0  0
 13 14  1  6  0  0  0
 13 15  1  0  0  0  0
 15 26  1  1  0  0  0
 17 18  2  0  0  0  0
 17 22  1  0  0  0  0
 18 19  1  0  0  0  0
 19 20  2  0  0  0  0
 20 21  1  0  0  0  0
 20 26  1  0  0  0  0
 21 22  2  0  0  0  0
 21 24  1  0  0  0  0
 22 23  1  0  0  0  0
 24 25  2  0  0  0  0
 25 26  1  0  0  0  0
M  END
>  <CHROM.1>
107.58494485,-68.82594769,-179.39997481,-76.50139391,-178.80710119,55.70727052
-85.97303040,-13.00387539,10.14364388,-20.81463935,2.63171333,1.24431355
0.58950934

>  <Name>
ligand

>  <RI>
0

>  <Rbt.Current_Directory>
/home/itssahil/PROJECTS/Mol_Feturizer/New_Systems/rnas/3E5E

>  <Rbt.Executable>
rbdock ($Id: //depot/dev/client3/rdock/2013.1/src/exe/rbdock.cxx#4 $)

>  <Rbt.Library>
libRbt.so (2013.1, Build901 2013/11/27)

>  <Rbt.Parameter_File>
/export/apps/rDock/src/rDock_2013.1_src/data/scripts/dock_solv.prm

>  <Rbt.Receptor>
prm/pocket_docking_7.prm

>  <SCORE>
-22.2529

>  <SCORE.INTER>
-18.1808

>  <SCORE.INTER.CONST>
1

>  <SCORE.INTER.POLAR>
0

>  <SCORE.INTER.ROT>
7

>  <SCORE.INTER.SOLV>
9.7763

>  <SCORE.INTER.VDW>
-23.6459

>  <SCORE.INTER.norm>
-0.69926

>  <SCORE.INTRA>
-4.07212

>  <SCORE.INTRA.DIHEDRAL>
-6.75885

>  <SCORE.INTRA.DIHEDRAL.0>
10.1225

>  <SCORE.INTRA.POLAR>
0

>  <SCORE.INTRA.POLAR.0>
0

>  <SCORE.INTRA.REPUL>
0

>  <SCORE.INTRA.REPUL.0>
0

>  <SCORE.INTRA.SOLV>
0.0823699

>  <SCORE.INTRA.SOLV.lig_0>
-49.9393

>  <SCORE.INTRA.VDW>
-0.733884

>  <SCORE.INTRA.VDW.0>
-1.75437

>  <SCORE.INTRA.norm>
-0.15662

>  <SCORE.RESTR>
0

>  <SCORE.RESTR.CAVITY>
0

>  <SCORE.RESTR.norm>
0

>  <SCORE.SYSTEM>
0

>  <SCORE.SYSTEM.CONST>
0

>  <SCORE.SYSTEM.DIHEDRAL>
0

>  <SCORE.SYSTEM.SOLV>
0

>  <SCORE.SYSTEM.norm>
0

>  <SCORE.heavy>
26

>  <SCORE.norm>
-0.85588

>  <RMSD>
6.257

$$$$
ligand
 OpenBabel11021811473D
libRbt.so/2013.1/901 2013/11/27
 26 28  0  0  0  0  0  0  0  0999 V2000
  -15.6522    8.8497  -16.3967 N   0  0  0  0  0  0  0  0  0  0  0  0
  -14.2868    9.1821  -15.9718 C   0  0  2  0  0  0  0  0  0  0  0  0
  -14.3076    9.6499  -14.5404 C   0  0  0  0  0  0  0  0  0  0  0  0
  -15.3403    9.6314  -13.9126 O   0  0  0  0  0  0  0  0  0  0  0  0
  -13.7323   10.2934  -16.8646 C   0  0  0  0  0  0  0  0  0  0  0  0
  -13.5403    9.7604  -18.2833 C   0  0  0  0  0  0  0  0  0  0  0  0
  -12.7496   10.6973  -19.4584 S   0  0  0  0  0  0  0  0  0  0  0  0
  -13.0285   12.2479  -20.3522 C   0  0  0  0  0  0  0  0  0  0  0  0
  -11.8440   12.7191  -21.2047 C   0  0  1  0  0  0  0  0  0  0  0  0
  -11.2638   11.6663  -21.9529 O   0  0  0  0  0  0  0  0  0  0  0  0
  -12.2667   13.7025  -22.2705 C   0  0  1  0  0  0  0  0  0  0  0  0
  -11.0982   14.4316  -22.5760 O   0  0  0  0  0  0  0  0  0  0  0  0
  -12.6210   12.8566  -23.4713 C   0  0  1  0  0  0  0  0  0  0  0  0
  -12.1461   13.4767  -24.6464 O   0  0  0  0  0  0  0  0  0  0  0  0
  -11.8567   11.5720  -23.2344 C   0  0  2  0  0  0  0  0  0  0  0  0
  -13.1792   10.0908  -13.9606 O   0  0  0  0  0  0  0  0  0  0  0  0
  -11.9453    6.4341  -24.1331 N   0  0  0  0  0  0  0  0  0  0  0  0
  -10.8966    7.3067  -24.3030 C   0  0  0  0  0  0  0  0  0  0  0  0
  -11.0727    8.6400  -24.0217 N   0  0  0  0  0  0  0  0  0  0  0  0
  -12.2600    9.0992  -23.5804 C   0  0  0  0  0  0  0  0  0  0  0  0
  -13.3272    8.2391  -23.4018 C   0  0  0  0  0  0  0  0  0  0  0  0
  -13.1605    6.8889  -23.6866 C   0  0  0  0  0  0  0  0  0  0  0  0
  -14.1598    6.0289  -23.5331 N   0  0  0  0  0  0  0  0  0  0  0  0
  -14.3814    8.9590  -22.9572 N   0  0  0  0  0  0  0  0  0  0  0  0
  -13.9961   10.2455  -22.8483 C   0  0  0  0  0  0  0  0  0  0  0  0
  -12.6866   10.3533  -23.2413 N   0  0  0  0  0  0  0  0  0  0  0  0
  2  1  1  6  0  0  0
  2  3  1  0  0  0  0
  2  5  1  0  0  0  0
  3  4  1  0  0  0  0
  3 16  1  0  0  0  0
  5  6  1  0  0  0  0
  6  7  1  0  0  0  0
  7  8  1  0  0  0  0
  9  8  1  6  0  0  0
  9 10  1  0  0  0  0
  9 11  1  0  0  0  0
 10 15  1  0  0  0  0
 11 12  1  6  0  0  0
 11 13  1  0  0  0  0
 13 14  1  6  0  0  0
 13 15  1  0  0  0  0
 15 26  1  1  0  0  0
 17 18  2  0  0  0  0
 17 22  1  0  0  0  0
 18 19  1  0  0  0  0
 19 20  2  0  0  0  0
 20 21  1  0  0  0  0
 20 26  1  0  0  0  0
 21 22  2  0  0  0  0
 21 24  1  0  0  0  0
 22 23  1  0  0  0  0
 24 25  2  0  0  0  0
 25 26  1  0  0  0  0
M  END
>  <CHROM.1>
4.09160888,-67.36263551,-171.99372891,-65.73371791,172.28078564,44.51166231
-88.72902461,-12.93861897,10.21497680,-20.80172031,2.44849520,1.25164305
0.75912641

>  <Name>
ligand

>  <RI>
0

>  <Rbt.Current_Directory>
/home/itssahil/PROJECTS/Mol_Feturizer/New_Systems/rnas/3E5E

>  <Rbt.Executable>
rbdock ($Id: //depot/dev/client3/rdock/2013.1/src/exe/rbdock.cxx#4 $)

>  <Rbt.Library>
libRbt.so (2013.1, Build901 2013/11/27)

>  <Rbt.Parameter_File>
/export/apps/rDock/src/rDock_2013.1_src/data/scripts/dock_solv.prm

>  <Rbt.Receptor>
prm/pocket_docking_6.prm

>  <SCORE>
-23.7407

>  <SCORE.INTER>
-19.9981

>  <SCORE.INTER.CONST>
1

>  <SCORE.INTER.POLAR>
0

>  <SCORE.INTER.ROT>
7

>  <SCORE.INTER.SOLV>
10.2902

>  <SCORE.INTER.VDW>
-25.0288

>  <SCORE.INTER.norm>
-0.769157

>  <SCORE.INTRA>
-3.74595

>  <SCORE.INTRA.DIHEDRAL>
-6.15568

>  <SCORE.INTRA.DIHEDRAL.0>
10.1225

>  <SCORE.INTRA.POLAR>
0

>  <SCORE.INTRA.POLAR.0>
0

>  <SCORE.INTRA.REPUL>
0

>  <SCORE.INTRA.REPUL.0>
0

>  <SCORE.INTRA.SOLV>
0.136137

>  <SCORE.INTRA.SOLV.lig_0>
-49.9393

>  <SCORE.INTRA.VDW>
-0.736176

>  <SCORE.INTRA.VDW.0>
-1.75437

>  <SCORE.INTRA.norm>
-0.144075

>  <SCORE.RESTR>
0.00336278

>  <SCORE.RESTR.CAVITY>
0.00336278

>  <SCORE.RESTR.norm>
0.000129338

>  <SCORE.SYSTEM>
0

>  <SCORE.SYSTEM.CONST>
0

>  <SCORE.SYSTEM.DIHEDRAL>
0

>  <SCORE.SYSTEM.SOLV>
0

>  <SCORE.SYSTEM.norm>
0

>  <SCORE.heavy>
26

>  <SCORE.norm>
-0.913102

>  <RMSD>
6.297

$$$$
ligand
 OpenBabel11021811473D
libRbt.so/2013.1/901 2013/11/27
 26 28  0  0  0  0  0  0  0  0999 V2000
  -15.5542    8.8380  -16.2711 N   0  0  0  0  0  0  0  0  0  0  0  0
  -14.2026    9.2711  -15.8951 C   0  0  2  0  0  0  0  0  0  0  0  0
  -14.2169    9.7846  -14.4794 C   0  0  0  0  0  0  0  0  0  0  0  0
  -13.1766   10.0169  -13.9094 O   0  0  0  0  0  0  0  0  0  0  0  0
  -13.7445   10.3850  -16.8381 C   0  0  0  0  0  0  0  0  0  0  0  0
  -13.4583    9.7988  -18.2194 C   0  0  0  0  0  0  0  0  0  0  0  0
  -12.6841   10.7305  -19.4096 S   0  0  0  0  0  0  0  0  0  0  0  0
  -13.0184   12.2276  -20.3730 C   0  0  0  0  0  0  0  0  0  0  0  0
  -11.8480   12.7073  -21.2400 C   0  0  1  0  0  0  0  0  0  0  0  0
  -11.2743   11.6601  -22.0011 O   0  0  0  0  0  0  0  0  0  0  0  0
  -12.2896   13.6936  -22.2953 C   0  0  1  0  0  0  0  0  0  0  0  0
  -11.1285   14.4288  -22.6141 O   0  0  0  0  0  0  0  0  0  0  0  0
  -12.6576   12.8517  -23.4948 C   0  0  1  0  0  0  0  0  0  0  0  0
  -12.2019   13.4789  -24.6736 O   0  0  0  0  0  0  0  0  0  0  0  0
  -11.8849   11.5692  -23.2745 C   0  0  2  0  0  0  0  0  0  0  0  0
  -15.3855    9.9824  -13.8476 O   0  0  0  0  0  0  0  0  0  0  0  0
  -11.9380    6.4160  -24.0842 N   0  0  0  0  0  0  0  0  0  0  0  0
  -10.8896    7.2897  -24.2502 C   0  0  0  0  0  0  0  0  0  0  0  0
  -11.0758    8.6271  -23.9957 N   0  0  0  0  0  0  0  0  0  0  0  0
  -12.2726    9.0891  -23.5843 C   0  0  0  0  0  0  0  0  0  0  0  0
  -13.3397    8.2279  -23.4101 C   0  0  0  0  0  0  0  0  0  0  0  0
  -13.1628    6.8736  -23.6680 C   0  0  0  0  0  0  0  0  0  0  0  0
  -14.1615    6.0124  -23.5178 N   0  0  0  0  0  0  0  0  0  0  0  0
  -14.4045    8.9513  -22.9976 N   0  0  0  0  0  0  0  0  0  0  0  0
  -14.0262   10.2410  -22.9043 C   0  0  0  0  0  0  0  0  0  0  0  0
  -12.7100   10.3472  -23.2751 N   0  0  0  0  0  0  0  0  0  0  0  0
  2  1  1  6  0  0  0
  2  3  1  0  0  0  0
  2  5  1  0  0  0  0
  3  4  1  0  0  0  0
  3 16  1  0  0  0  0
  5  6  1  0  0  0  0
  6  7  1  0  0  0  0
  7  8  1  0  0  0  0
  9  8  1  6  0  0  0
  9 10  1  0  0  0  0
  9 11  1  0  0  0  0
 10 15  1  0  0  0  0
 11 12  1  6  0  0  0
 11 13  1  0  0  0  0
 13 14  1  6  0  0  0
 13 15  1  0  0  0  0
 15 26  1  1  0  0  0
 17 18  2  0  0  0  0
 17 22  1  0  0  0  0
 18 19  1  0  0  0  0
 19 20  2  0  0  0  0
 20 21  1  0  0  0  0
 20 26  1  0  0  0  0
 21 22  2  0  0  0  0
 21 24  1  0  0  0  0
 22 23  1  0  0  0  0
 24 25  2  0  0  0  0
 25 26  1  0  0  0  0
M  END
>  <CHROM.1>
169.68947315,-71.40204296,-169.59063569,-64.52762249,173.83130897,48.16711171
-86.48041268,-12.93293236,10.23525819,-20.78911315,2.44205680,1.26286319
0.74636825

>  <Name>
ligand

>  <RI>
0

>  <Rbt.Current_Directory>
/home/itssahil/PROJECTS/Mol_Feturizer/New_Systems/rnas/3E5E

>  <Rbt.Executable>
rbdock ($Id: //depot/dev/client3/rdock/2013.1/src/exe/rbdock.cxx#4 $)

>  <Rbt.Library>
libRbt.so (2013.1, Build901 2013/11/27)

>  <Rbt.Parameter_File>
/export/apps/rDock/src/rDock_2013.1_src/data/scripts/dock_solv.prm

>  <Rbt.Receptor>
prm/pocket_docking_6.prm

>  <SCORE>
-24.2312

>  <SCORE.INTER>
-20.3725

>  <SCORE.INTER.CONST>
1

>  <SCORE.INTER.POLAR>
0

>  <SCORE.INTER.ROT>
7

>  <SCORE.INTER.SOLV>
10.7756

>  <SCORE.INTER.VDW>
-25.4402

>  <SCORE.INTER.norm>
-0.783556

>  <SCORE.INTRA>
-3.86952

>  <SCORE.INTRA.DIHEDRAL>
-6.07576

>  <SCORE.INTRA.DIHEDRAL.0>
10.1225

>  <SCORE.INTRA.POLAR>
0

>  <SCORE.INTRA.POLAR.0>
0

>  <SCORE.INTRA.REPUL>
0

>  <SCORE.INTRA.REPUL.0>
0

>  <SCORE.INTRA.SOLV>
0.124267

>  <SCORE.INTRA.SOLV.lig_0>
-49.9393

>  <SCORE.INTRA.VDW>
-0.893772

>  <SCORE.INTRA.VDW.0>
-1.75437

>  <SCORE.INTRA.norm>
-0.148828

>  <SCORE.RESTR>
0.0107994

>  <SCORE.RESTR.CAVITY>
0.0107994

>  <SCORE.RESTR.norm>
0.000415363

>  <SCORE.SYSTEM>
0

>  <SCORE.SYSTEM.CONST>
0

>  <SCORE.SYSTEM.DIHEDRAL>
0

>  <SCORE.SYSTEM.SOLV>
0

>  <SCORE.SYSTEM.norm>
0

>  <SCORE.heavy>
26

>  <SCORE.norm>
-0.931968

>  <RMSD>
6.315

$$$$
ligand
 OpenBabel11021811473D
libRbt.so/2013.1/901 2013/11/27
 26 28  0  0  0  0  0  0  0  0999 V2000
  -15.6807    9.0098  -16.1969 N   0  0  0  0  0  0  0  0  0  0  0  0
  -14.3381    9.3692  -15.7237 C   0  0  2  0  0  0  0  0  0  0  0  0
  -14.4289    9.9045  -14.3189 C   0  0  0  0  0  0  0  0  0  0  0  0
  -13.4320   10.0002  -13.6421 O   0  0  0  0  0  0  0  0  0  0  0  0
  -13.7448   10.4397  -16.6411 C   0  0  0  0  0  0  0  0  0  0  0  0
  -13.5743    9.8689  -18.0477 C   0  0  0  0  0  0  0  0  0  0  0  0
  -12.7906   10.7690  -19.2560 S   0  0  0  0  0  0  0  0  0  0  0  0
  -13.1749   12.1453  -20.3692 C   0  0  0  0  0  0  0  0  0  0  0  0
  -11.9796   12.6754  -21.1704 C   0  0  1  0  0  0  0  0  0  0  0  0
  -11.3463   11.6624  -21.9304 O   0  0  0  0  0  0  0  0  0  0  0  0
  -12.3988   13.6777  -22.2199 C   0  0  1  0  0  0  0  0  0  0  0  0
  -11.2436   14.4487  -22.4678 O   0  0  0  0  0  0  0  0  0  0  0  0
  -12.6915   12.8583  -23.4552 C   0  0  1  0  0  0  0  0  0  0  0  0
  -12.1999   13.5265  -24.5964 O   0  0  0  0  0  0  0  0  0  0  0  0
  -11.8972   11.5895  -23.2320 C   0  0  2  0  0  0  0  0  0  0  0  0
  -15.6182   10.2737  -13.8155 O   0  0  0  0  0  0  0  0  0  0  0  0
  -11.7787    6.4546  -24.1443 N   0  0  0  0  0  0  0  0  0  0  0  0
  -10.7454    7.3565  -24.2377 C   0  0  0  0  0  0  0  0  0  0  0  0
  -10.9780    8.6834  -23.9672 N   0  0  0  0  0  0  0  0  0  0  0  0
  -12.2059    9.1079  -23.6103 C   0  0  0  0  0  0  0  0  0  0  0  0
  -13.2586    8.2179  -23.5094 C   0  0  0  0  0  0  0  0  0  0  0  0
  -13.0347    6.8739  -23.7841 C   0  0  0  0  0  0  0  0  0  0  0  0
  -14.0179    5.9859  -23.7035 N   0  0  0  0  0  0  0  0  0  0  0  0
  -14.3613    8.9066  -23.1392 N   0  0  0  0  0  0  0  0  0  0  0  0
  -14.0208   10.2028  -23.0009 C   0  0  0  0  0  0  0  0  0  0  0  0
  -12.6902   10.3484  -23.2999 N   0  0  0  0  0  0  0  0  0  0  0  0
  2  1  1  6  0  0  0
  2  3  1  0  0  0  0
  2  5  1  0  0  0  0
  3  4  1  0  0  0  0
  3 16  1  0  0  0  0
  5  6  1  0  0  0  0
  6  7  1  0  0  0  0
  7  8  1  0  0  0  0
  9  8  1  6  0  0  0
  9 10  1  0  0  0  0
  9 11  1  0  0  0  0
 10 15  1  0  0  0  0
 11 12  1  6  0  0  0
 11 13  1  0  0  0  0
 13 14  1  6  0  0  0
 13 15  1  0  0  0  0
 15 26  1  1  0  0  0
 17 18  2  0  0  0  0
 17 22  1  0  0  0  0
 18 19  1  0  0  0  0
 19 20  2  0  0  0  0
 20 21  1  0  0  0  0
 20 26  1  0  0  0  0
 21 22  2  0  0  0  0
 21 24  1  0  0  0  0
 22 23  1  0  0  0  0
 24 25  2  0  0  0  0
 25 26  1  0  0  0  0
M  END
>  <CHROM.1>
164.72762707,-63.44068869,-173.75741489,-78.09286374,172.85590285,56.08520529
-85.96363546,-12.97616623,10.26989373,-20.73979207,2.51037670,1.26242971
0.64153063

>  <Name>
ligand

>  <RI>
0

>  <Rbt.Current_Directory>
/home/itssahil/PROJECTS/Mol_Feturizer/New_Systems/rnas/3E5E

>  <Rbt.Executable>
rbdock ($Id: //depot/dev/client3/rdock/2013.1/src/exe/rbdock.cxx#4 $)

>  <Rbt.Library>
libRbt.so (2013.1, Build901 2013/11/27)

>  <Rbt.Parameter_File>
/export/apps/rDock/src/rDock_2013.1_src/data/scripts/dock_solv.prm

>  <Rbt.Receptor>
prm/pocket_docking_8.prm

>  <SCORE>
-24.3703

>  <SCORE.INTER>
-20.4454

>  <SCORE.INTER.CONST>
1

>  <SCORE.INTER.POLAR>
0

>  <SCORE.INTER.ROT>
7

>  <SCORE.INTER.SOLV>
10.9948

>  <SCORE.INTER.VDW>
-25.5619

>  <SCORE.INTER.norm>
-0.786361

>  <SCORE.INTRA>
-3.9249

>  <SCORE.INTRA.DIHEDRAL>
-6.71925

>  <SCORE.INTRA.DIHEDRAL.0>
10.1225

>  <SCORE.INTRA.POLAR>
0

>  <SCORE.INTRA.POLAR.0>
0

>  <SCORE.INTRA.REPUL>
0

>  <SCORE.INTRA.REPUL.0>
0

>  <SCORE.INTRA.SOLV>
0.177861

>  <SCORE.INTRA.SOLV.lig_0>
-49.9393

>  <SCORE.INTRA.VDW>
-0.654207

>  <SCORE.INTRA.VDW.0>
-1.75437

>  <SCORE.INTRA.norm>
-0.150958

>  <SCORE.RESTR>
0

>  <SCORE.RESTR.CAVITY>
0

>  <SCORE.RESTR.norm>
0

>  <SCORE.SYSTEM>
0

>  <SCORE.SYSTEM.CONST>
0

>  <SCORE.SYSTEM.DIHEDRAL>
0

>  <SCORE.SYSTEM.SOLV>
0

>  <SCORE.SYSTEM.norm>
0

>  <SCORE.heavy>
26

>  <SCORE.norm>
-0.937319

>  <RMSD>
6.319

$$$$
ligand
 OpenBabel11021811473D
libRbt.so/2013.1/901 2013/11/27
 26 28  0  0  0  0  0  0  0  0999 V2000
   -9.8925    7.8725  -27.3920 N   0  0  0  0  0  0  0  0  0  0  0  0
  -10.4671    8.8076  -26.4168 C   0  0  2  0  0  0  0  0  0  0  0  0
   -9.7027   10.1047  -26.4563 C   0  0  0  0  0  0  0  0  0  0  0  0
  -10.2742   11.1361  -26.7222 O   0  0  0  0  0  0  0  0  0  0  0  0
  -10.3741    8.2022  -25.0152 C   0  0  0  0  0  0  0  0  0  0  0  0
  -11.3313    8.9361  -24.0777 C   0  0  0  0  0  0  0  0  0  0  0  0
  -11.1398   10.5960  -23.7744 S   0  0  0  0  0  0  0  0  0  0  0  0
  -11.8252   11.8460  -22.6568 C   0  0  0  0  0  0  0  0  0  0  0  0
  -11.3864   11.7086  -21.1939 C   0  0  1  0  0  0  0  0  0  0  0  0
  -10.1001   12.2533  -20.9619 O   0  0  0  0  0  0  0  0  0  0  0  0
  -12.2672   12.5037  -20.2594 C   0  0  1  0  0  0  0  0  0  0  0  0
  -12.1212   11.8789  -19.0029 O   0  0  0  0  0  0  0  0  0  0  0  0
  -11.6292   13.8712  -20.1818 C   0  0  1  0  0  0  0  0  0  0  0  0
  -11.6790   14.3444  -18.8535 O   0  0  0  0  0  0  0  0  0  0  0  0
  -10.1901   13.6104  -20.5710 C   0  0  2  0  0  0  0  0  0  0  0  0
   -8.3846   10.1166  -26.1986 O   0  0  0  0  0  0  0  0  0  0  0  0
   -6.9977   17.4677  -22.0351 N   0  0  0  0  0  0  0  0  0  0  0  0
   -7.2252   16.9909  -20.7658 C   0  0  0  0  0  0  0  0  0  0  0  0
   -8.1216   15.9666  -20.5777 N   0  0  0  0  0  0  0  0  0  0  0  0
   -8.7768   15.4251  -21.6230 C   0  0  0  0  0  0  0  0  0  0  0  0
   -8.5623   15.8886  -22.9074 C   0  0  0  0  0  0  0  0  0  0  0  0
   -7.6600   16.9267  -23.1082 C   0  0  0  0  0  0  0  0  0  0  0  0
   -7.4269   17.4050  -24.3241 N   0  0  0  0  0  0  0  0  0  0  0  0
   -9.3416   15.1752  -23.7506 N   0  0  0  0  0  0  0  0  0  0  0  0
  -10.0319   14.2743  -23.0247 C   0  0  0  0  0  0  0  0  0  0  0  0
   -9.7029   14.4220  -21.7014 N   0  0  0  0  0  0  0  0  0  0  0  0
  2  1  1  6  0  0  0
  2  3  1  0  0  0  0
  2  5  1  0  0  0  0
  3  4  1  0  0  0  0
  3 16  1  0  0  0  0
  5  6  1  0  0  0  0
  6  7  1  0  0  0  0
  7  8  1  0  0  0  0
  9  8  1  6  0  0  0
  9 10  1  0  0  0  0
  9 11  1  0  0  0  0
 10 15  1  0  0  0  0
 11 12  1  1  0  0  0
 11 13  1  0  0  0  0
 13 14  1  1  0  0  0
 13 15  1  0  0  0  0
 15 26  1  6  0  0  0
 17 18  2  0  0  0  0
 17 22  1  0  0  0  0
 18 19  1  0  0  0  0
 19 20  2  0  0  0  0
 20 21  1  0  0  0  0
 20 26  1  0  0  0  0
 21 22  2  0  0  0  0
 21 24  1  0  0  0  0
 22 23  1  0  0  0  0
 24 25  2  0  0  0  0
 25 26  1  0  0  0  0
M  END
>  <CHROM.1>
120.62292755,-162.48759208,-61.57973914,-170.85061447,71.28205482,80.60974640
-130.51088834,-9.96928439,12.79589240,-22.87150304,-1.88367868,0.89856183
0.82588947

>  <Name>
ligand

>  <RI>
0

>  <Rbt.Current_Directory>
/home/itssahil/PROJECTS/Mol_Feturizer/New_Systems/rnas/3E5E

>  <Rbt.Executable>
rbdock ($Id: //depot/dev/client3/rdock/2013.1/src/exe/rbdock.cxx#4 $)

>  <Rbt.Library>
libRbt.so (2013.1, Build901 2013/11/27)

>  <Rbt.Parameter_File>
/export/apps/rDock/src/rDock_2013.1_src/data/scripts/dock_solv.prm

>  <Rbt.Receptor>
prm/pocket_docking_8.prm

>  <SCORE>
-14.6466

>  <SCORE.INTER>
-11.4

>  <SCORE.INTER.CONST>
1

>  <SCORE.INTER.POLAR>
0

>  <SCORE.INTER.ROT>
7

>  <SCORE.INTER.SOLV>
6.44219

>  <SCORE.INTER.VDW>
-18.0141

>  <SCORE.INTER.norm>
-0.438463

>  <SCORE.INTRA>
-3.25096

>  <SCORE.INTRA.DIHEDRAL>
-4.47267

>  <SCORE.INTRA.DIHEDRAL.0>
10.1225

>  <SCORE.INTRA.POLAR>
0

>  <SCORE.INTRA.POLAR.0>
0

>  <SCORE.INTRA.REPUL>
0

>  <SCORE.INTRA.REPUL.0>
0

>  <SCORE.INTRA.SOLV>
-0.433682

>  <SCORE.INTRA.SOLV.lig_0>
-49.9393

>  <SCORE.INTRA.VDW>
-0.79779

>  <SCORE.INTRA.VDW.0>
-1.75437

>  <SCORE.INTRA.norm>
-0.125037

>  <SCORE.RESTR>
0.00442655

>  <SCORE.RESTR.CAVITY>
0.00442655

>  <SCORE.RESTR.norm>
0.000170252

>  <SCORE.SYSTEM>
0

>  <SCORE.SYSTEM.CONST>
0

>  <SCORE.SYSTEM.DIHEDRAL>
0

>  <SCORE.SYSTEM.SOLV>
0

>  <SCORE.SYSTEM.norm>
0

>  <SCORE.heavy>
26

>  <SCORE.norm>
-0.563329

>  <RMSD>
6.376

$$$$
ligand
 OpenBabel11021811473D
libRbt.so/2013.1/901 2013/11/27
 26 28  0  0  0  0  0  0  0  0999 V2000
   -9.0922    9.9972  -26.6088 N   0  0  0  0  0  0  0  0  0  0  0  0
   -9.4031    9.6269  -25.2225 C   0  0  2  0  0  0  0  0  0  0  0  0
   -9.6839    8.1490  -25.1498 C   0  0  0  0  0  0  0  0  0  0  0  0
  -10.4741    7.7222  -24.3408 O   0  0  0  0  0  0  0  0  0  0  0  0
  -10.6333   10.4045  -24.7517 C   0  0  0  0  0  0  0  0  0  0  0  0
  -10.3827   11.9027  -24.9136 C   0  0  0  0  0  0  0  0  0  0  0  0
  -11.5515   13.0321  -24.4211 S   0  0  0  0  0  0  0  0  0  0  0  0
  -12.1725   13.7347  -22.8714 C   0  0  0  0  0  0  0  0  0  0  0  0
  -12.1588   12.7706  -21.6788 C   0  0  1  0  0  0  0  0  0  0  0  0
  -10.8791   12.2083  -21.4530 O   0  0  0  0  0  0  0  0  0  0  0  0
  -12.4571   13.4743  -20.3760 C   0  0  1  0  0  0  0  0  0  0  0  0
  -12.9437   12.4635  -19.5204 O   0  0  0  0  0  0  0  0  0  0  0  0
  -11.1133   13.9264  -19.8536 C   0  0  1  0  0  0  0  0  0  0  0  0
  -11.0547   13.7281  -18.4579 O   0  0  0  0  0  0  0  0  0  0  0  0
  -10.1380   12.9927  -20.5373 C   0  0  2  0  0  0  0  0  0  0  0  0
   -9.0547    7.3032  -25.9821 O   0  0  0  0  0  0  0  0  0  0  0  0
   -6.5196   12.4654  -24.2580 N   0  0  0  0  0  0  0  0  0  0  0  0
   -7.3545   11.5014  -23.7443 C   0  0  0  0  0  0  0  0  0  0  0  0
   -8.2413   11.8340  -22.7488 N   0  0  0  0  0  0  0  0  0  0  0  0
   -8.3016   13.0933  -22.2736 C   0  0  0  0  0  0  0  0  0  0  0  0
   -7.4721   14.0780  -22.7765 C   0  0  0  0  0  0  0  0  0  0  0  0
   -6.5691   13.7512  -23.7814 C   0  0  0  0  0  0  0  0  0  0  0  0
   -5.7514   14.6646  -24.2900 N   0  0  0  0  0  0  0  0  0  0  0  0
   -7.7420   15.2319  -22.1261 N   0  0  0  0  0  0  0  0  0  0  0  0
   -8.7234   14.9924  -21.2346 C   0  0  0  0  0  0  0  0  0  0  0  0
   -9.0754   13.6687  -21.3040 N   0  0  0  0  0  0  0  0  0  0  0  0
  2  1  1  6  0  0  0
  2  3  1  0  0  0  0
  2  5  1  0  0  0  0
  3  4  1  0  0  0  0
  3 16  1  0  0  0  0
  5  6  1  0  0  0  0
  6  7  1  0  0  0  0
  7  8  1  0  0  0  0
  9  8  1  6  0  0  0
  9 10  1  0  0  0  0
  9 11  1  0  0  0  0
 10 15  1  0  0  0  0
 11 12  1  1  0  0  0
 11 13  1  0  0  0  0
 13 14  1  1  0  0  0
 13 15  1  0  0  0  0
 15 26  1  6  0  0  0
 17 18  2  0  0  0  0
 17 22  1  0  0  0  0
 18 19  1  0  0  0  0
 19 20  2  0  0  0  0
 20 21  1  0  0  0  0
 20 26  1  0  0  0  0
 21 22  2  0  0  0  0
 21 24  1  0  0  0  0
 22 23  1  0  0  0  0
 24 25  2  0  0  0  0
 25 26  1  0  0  0  0
M  END
>  <CHROM.1>
-148.08582688,-56.28359689,-177.79739630,75.55952276,-33.25206567,54.52601225
-42.94924924,-9.73495908,12.23911593,-22.93083852,-1.31133694,0.47850917
0.71115182

>  <Name>
ligand

>  <RI>
0

>  <Rbt.Current_Directory>
/home/itssahil/PROJECTS/Mol_Feturizer/New_Systems/rnas/3E5E

>  <Rbt.Executable>
rbdock ($Id: //depot/dev/client3/rdock/2013.1/src/exe/rbdock.cxx#4 $)

>  <Rbt.Library>
libRbt.so (2013.1, Build901 2013/11/27)

>  <Rbt.Parameter_File>
/export/apps/rDock/src/rDock_2013.1_src/data/scripts/dock_solv.prm

>  <Rbt.Receptor>
prm/blind_docking_60.prm

>  <SCORE>
-18.6458

>  <SCORE.INTER>
-14.6347

>  <SCORE.INTER.CONST>
1

>  <SCORE.INTER.POLAR>
0

>  <SCORE.INTER.ROT>
7

>  <SCORE.INTER.SOLV>
8.86849

>  <SCORE.INTER.VDW>
-20.9793

>  <SCORE.INTER.norm>
-0.562873

>  <SCORE.INTRA>
-4.01984

>  <SCORE.INTRA.DIHEDRAL>
-5.81217

>  <SCORE.INTRA.DIHEDRAL.0>
10.1225

>  <SCORE.INTRA.POLAR>
0

>  <SCORE.INTRA.POLAR.0>
0

>  <SCORE.INTRA.REPUL>
0

>  <SCORE.INTRA.REPUL.0>
0

>  <SCORE.INTRA.SOLV>
0.704618

>  <SCORE.INTRA.SOLV.lig_0>
-49.9393

>  <SCORE.INTRA.VDW>
-1.46606

>  <SCORE.INTRA.VDW.0>
-1.75437

>  <SCORE.INTRA.norm>
-0.154609

>  <SCORE.RESTR>
0.00879493

>  <SCORE.RESTR.CAVITY>
0.00879493

>  <SCORE.RESTR.norm>
0.000338267

>  <SCORE.SYSTEM>
0

>  <SCORE.SYSTEM.CONST>
0

>  <SCORE.SYSTEM.DIHEDRAL>
0

>  <SCORE.SYSTEM.SOLV>
0

>  <SCORE.SYSTEM.norm>
0

>  <SCORE.heavy>
26

>  <SCORE.norm>
-0.717144

>  <RMSD>
6.383

$$$$
ligand
 OpenBabel11021811473D
libRbt.so/2013.1/901 2013/11/27
 26 28  0  0  0  0  0  0  0  0999 V2000
  -11.0650    7.8024  -27.4830 N   0  0  0  0  0  0  0  0  0  0  0  0
  -11.1276    8.6165  -26.2628 C   0  0  2  0  0  0  0  0  0  0  0  0
   -9.9914    9.6051  -26.2615 C   0  0  0  0  0  0  0  0  0  0  0  0
  -10.2215   10.7917  -26.2725 O   0  0  0  0  0  0  0  0  0  0  0  0
  -11.0153    7.7072  -25.0380 C   0  0  0  0  0  0  0  0  0  0  0  0
  -11.0840    8.5521  -23.7672 C   0  0  0  0  0  0  0  0  0  0  0  0
  -12.5011    9.3987  -23.3683 S   0  0  0  0  0  0  0  0  0  0  0  0
  -12.9761   10.8217  -22.3531 C   0  0  0  0  0  0  0  0  0  0  0  0
  -12.4534   10.7847  -20.9119 C   0  0  1  0  0  0  0  0  0  0  0  0
  -11.0390   10.7627  -20.8503 O   0  0  0  0  0  0  0  0  0  0  0  0
  -12.8089   12.0373  -20.1463 C   0  0  1  0  0  0  0  0  0  0  0  0
  -12.7758   11.6550  -18.7887 O   0  0  0  0  0  0  0  0  0  0  0  0
  -11.6638   12.9913  -20.3946 C   0  0  1  0  0  0  0  0  0  0  0  0
  -11.3503   13.6781  -19.2027 O   0  0  0  0  0  0  0  0  0  0  0  0
  -10.5174   12.0756  -20.7658 C   0  0  2  0  0  0  0  0  0  0  0  0
   -8.7210    9.1694  -26.2507 O   0  0  0  0  0  0  0  0  0  0  0  0
   -8.7471   15.8379  -23.9163 N   0  0  0  0  0  0  0  0  0  0  0  0
   -9.3693   15.9750  -22.6980 C   0  0  0  0  0  0  0  0  0  0  0  0
   -9.7790   14.8542  -22.0169 N   0  0  0  0  0  0  0  0  0  0  0  0
   -9.5758   13.6249  -22.5294 C   0  0  0  0  0  0  0  0  0  0  0  0
   -8.9515   13.4643  -23.7521 C   0  0  0  0  0  0  0  0  0  0  0  0
   -8.5361   14.5918  -24.4508 C   0  0  0  0  0  0  0  0  0  0  0  0
   -7.9364   14.4836  -25.6299 N   0  0  0  0  0  0  0  0  0  0  0  0
   -8.8800   12.1414  -24.0205 N   0  0  0  0  0  0  0  0  0  0  0  0
   -9.4386   11.4729  -22.9927 C   0  0  0  0  0  0  0  0  0  0  0  0
   -9.8859   12.3772  -22.0636 N   0  0  0  0  0  0  0  0  0  0  0  0
  2  1  1  6  0  0  0
  2  3  1  0  0  0  0
  2  5  1  0  0  0  0
  3  4  1  0  0  0  0
  3 16  1  0  0  0  0
  5  6  1  0  0  0  0
  6  7  1  0  0  0  0
  7  8  1  0  0  0  0
  9  8  1  6  0  0  0
  9 10  1  0  0  0  0
  9 11  1  0  0  0  0
 10 15  1  0  0  0  0
 11 12  1  1  0  0  0
 11 13  1  0  0  0  0
 13 14  1  1  0  0  0
 13 15  1  0  0  0  0
 15 26  1  6  0  0  0
 17 18  2  0  0  0  0
 17 22  1  0  0  0  0
 18 19  1  0  0  0  0
 19 20  2  0  0  0  0
 20 21  1  0  0  0  0
 20 26  1  0  0  0  0
 21 22  2  0  0  0  0
 21 24  1  0  0  0  0
 22 23  1  0  0  0  0
 24 25  2  0  0  0  0
 25 26  1  0  0  0  0
M  END
>  <CHROM.1>
117.61412246,-179.85005229,65.27399358,-157.99598056,-50.62815755,60.80512292
161.90057401,-10.60497981,11.57581615,-23.14705304,-1.56282217,0.91601162
0.77917802

>  <Name>
ligand

>  <RI>
0

>  <Rbt.Current_Directory>
/home/itssahil/PROJECTS/Mol_Feturizer/New_Systems/rnas/3E5E

>  <Rbt.Executable>
rbdock ($Id: //depot/dev/client3/rdock/2013.1/src/exe/rbdock.cxx#4 $)

>  <Rbt.Library>
libRbt.so (2013.1, Build901 2013/11/27)

>  <Rbt.Parameter_File>
/export/apps/rDock/src/rDock_2013.1_src/data/scripts/dock_solv.prm

>  <Rbt.Receptor>
prm/blind_docking_80.prm

>  <SCORE>
-14.5988

>  <SCORE.INTER>
-9.2469

>  <SCORE.INTER.CONST>
1

>  <SCORE.INTER.POLAR>
0

>  <SCORE.INTER.ROT>
7

>  <SCORE.INTER.SOLV>
6.13213

>  <SCORE.INTER.VDW>
-16.4753

>  <SCORE.INTER.norm>
-0.35565

>  <SCORE.INTRA>
-5.35195

>  <SCORE.INTRA.DIHEDRAL>
-6.57141

>  <SCORE.INTRA.DIHEDRAL.0>
10.1225

>  <SCORE.INTRA.POLAR>
0

>  <SCORE.INTRA.POLAR.0>
0

>  <SCORE.INTRA.REPUL>
0

>  <SCORE.INTRA.REPUL.0>
0

>  <SCORE.INTRA.SOLV>
-0.354188

>  <SCORE.INTRA.SOLV.lig_0>
-49.9393

>  <SCORE.INTRA.VDW>
-1.88915

>  <SCORE.INTRA.VDW.0>
-1.75437

>  <SCORE.INTRA.norm>
-0.205844

>  <SCORE.RESTR>
0

>  <SCORE.RESTR.CAVITY>
0

>  <SCORE.RESTR.norm>
0

>  <SCORE.SYSTEM>
0

>  <SCORE.SYSTEM.CONST>
0

>  <SCORE.SYSTEM.DIHEDRAL>
0

>  <SCORE.SYSTEM.SOLV>
0

>  <SCORE.SYSTEM.norm>
0

>  <SCORE.heavy>
26

>  <SCORE.norm>
-0.561494

>  <RMSD>
6.452

$$$$
ligand
 OpenBabel11021811473D
libRbt.so/2013.1/901 2013/11/27
 26 28  0  0  0  0  0  0  0  0999 V2000
   -8.7926    8.1583  -27.4489 N   0  0  0  0  0  0  0  0  0  0  0  0
   -9.0368    8.9015  -26.2064 C   0  0  2  0  0  0  0  0  0  0  0  0
   -9.7937    8.0280  -25.2409 C   0  0  0  0  0  0  0  0  0  0  0  0
   -9.5753    6.8398  -25.2006 O   0  0  0  0  0  0  0  0  0  0  0  0
   -9.8593   10.1535  -26.5156 C   0  0  0  0  0  0  0  0  0  0  0  0
   -9.7691   11.1263  -25.3412 C   0  0  0  0  0  0  0  0  0  0  0  0
  -10.7878   12.4828  -25.2631 S   0  0  0  0  0  0  0  0  0  0  0  0
  -11.7888   13.3423  -24.0220 C   0  0  0  0  0  0  0  0  0  0  0  0
  -12.0703   12.5316  -22.7511 C   0  0  1  0  0  0  0  0  0  0  0  0
  -10.8847   12.0613  -22.1362 O   0  0  0  0  0  0  0  0  0  0  0  0
  -12.7051   13.3732  -21.6693 C   0  0  1  0  0  0  0  0  0  0  0  0
  -13.3821   12.4519  -20.8426 O   0  0  0  0  0  0  0  0  0  0  0  0
  -11.5485   13.9476  -20.8849 C   0  0  1  0  0  0  0  0  0  0  0  0
  -11.8498   13.9229  -19.5068 O   0  0  0  0  0  0  0  0  0  0  0  0
  -10.4166   12.9847  -21.1713 C   0  0  2  0  0  0  0  0  0  0  0  0
  -10.7143    8.5678  -24.4254 O   0  0  0  0  0  0  0  0  0  0  0  0
   -6.0743   12.2283  -23.9616 N   0  0  0  0  0  0  0  0  0  0  0  0
   -7.0155   11.2981  -23.5888 C   0  0  0  0  0  0  0  0  0  0  0  0
   -8.0953   11.6916  -22.8357 N   0  0  0  0  0  0  0  0  0  0  0  0
   -8.2411   12.9776  -22.4613 C   0  0  0  0  0  0  0  0  0  0  0  0
   -7.3071   13.9291  -22.8260 C   0  0  0  0  0  0  0  0  0  0  0  0
   -6.2094   13.5408  -23.5850 C   0  0  0  0  0  0  0  0  0  0  0  0
   -5.2867   14.4209  -23.9536 N   0  0  0  0  0  0  0  0  0  0  0  0
   -7.6975   15.1207  -22.3211 N   0  0  0  0  0  0  0  0  0  0  0  0
   -8.8547   14.9370  -21.6560 C   0  0  0  0  0  0  0  0  0  0  0  0
   -9.2014   13.6117  -21.7228 N   0  0  0  0  0  0  0  0  0  0  0  0
  2  1  1  6  0  0  0
  2  3  1  0  0  0  0
  2  5  1  0  0  0  0
  3  4  1  0  0  0  0
  3 16  1  0  0  0  0
  5  6  1  0  0  0  0
  6  7  1  0  0  0  0
  7  8  1  0  0  0  0
  9  8  1  6  0  0  0
  9 10  1  0  0  0  0
  9 11  1  0  0  0  0
 10 15  1  0  0  0  0
 11 12  1  1  0  0  0
 11 13  1  0  0  0  0
 13 14  1  1  0  0  0
 13 15  1  0  0  0  0
 15 26  1  6  0  0  0
 17 18  2  0  0  0  0
 17 22  1  0  0  0  0
 18 19  1  0  0  0  0
 19 20  2  0  0  0  0
 20 21  1  0  0  0  0
 20 26  1  0  0  0  0
 21 22  2  0  0  0  0
 21 24  1  0  0  0  0
 22 23  1  0  0  0  0
 24 25  2  0  0  0  0
 25 26  1  0  0  0  0
M  END
>  <CHROM.1>
35.34548542,-163.42545854,-169.20543646,136.53259983,-16.25507548,54.91890662
-38.08085940,-9.63696240,11.99495324,-23.44869875,-1.39754112,0.31597415
0.66944233

>  <Name>
ligand

>  <RI>
0

>  <Rbt.Current_Directory>
/home/itssahil/PROJECTS/Mol_Feturizer/New_Systems/rnas/3E5E

>  <Rbt.Executable>
rbdock ($Id: //depot/dev/client3/rdock/2013.1/src/exe/rbdock.cxx#4 $)

>  <Rbt.Library>
libRbt.so (2013.1, Build901 2013/11/27)

>  <Rbt.Parameter_File>
/export/apps/rDock/src/rDock_2013.1_src/data/scripts/dock_solv.prm

>  <Rbt.Receptor>
prm/pocket_docking_8.prm

>  <SCORE>
-16.5173

>  <SCORE.INTER>
-14.2457

>  <SCORE.INTER.CONST>
1

>  <SCORE.INTER.POLAR>
0

>  <SCORE.INTER.ROT>
7

>  <SCORE.INTER.SOLV>
9.0064

>  <SCORE.INTER.VDW>
-20.7659

>  <SCORE.INTER.norm>
-0.547912

>  <SCORE.INTRA>
-2.27163

>  <SCORE.INTRA.DIHEDRAL>
-1.80844

>  <SCORE.INTRA.DIHEDRAL.0>
10.1225

>  <SCORE.INTRA.POLAR>
0

>  <SCORE.INTRA.POLAR.0>
0

>  <SCORE.INTRA.REPUL>
0

>  <SCORE.INTRA.REPUL.0>
0

>  <SCORE.INTRA.SOLV>
-0.417821

>  <SCORE.INTRA.SOLV.lig_0>
-49.9393

>  <SCORE.INTRA.VDW>
-1.1585

>  <SCORE.INTRA.VDW.0>
-1.75437

>  <SCORE.INTRA.norm>
-0.0873705

>  <SCORE.RESTR>
0

>  <SCORE.RESTR.CAVITY>
0

>  <SCORE.RESTR.norm>
0

>  <SCORE.SYSTEM>
0

>  <SCORE.SYSTEM.CONST>
0

>  <SCORE.SYSTEM.DIHEDRAL>
0

>  <SCORE.SYSTEM.SOLV>
0

>  <SCORE.SYSTEM.norm>
0

>  <SCORE.heavy>
26

>  <SCORE.norm>
-0.635282

>  <RMSD>
6.493

$$$$
ligand
 OpenBabel11021811473D
libRbt.so/2013.1/901 2013/11/27
 26 28  0  0  0  0  0  0  0  0999 V2000
  -16.4830    8.1248  -19.5871 N   0  0  0  0  0  0  0  0  0  0  0  0
  -16.8865    7.8697  -20.9755 C   0  0  2  0  0  0  0  0  0  0  0  0
  -18.3545    7.5355  -21.0171 C   0  0  0  0  0  0  0  0  0  0  0  0
  -18.8483    7.1038  -22.0323 O   0  0  0  0  0  0  0  0  0  0  0  0
  -16.0793    6.6959  -21.5326 C   0  0  0  0  0  0  0  0  0  0  0  0
  -16.0265    6.7904  -23.0563 C   0  0  0  0  0  0  0  0  0  0  0  0
  -15.0847    7.9823  -23.8157 S   0  0  0  0  0  0  0  0  0  0  0  0
  -13.3619    8.5417  -23.8071 C   0  0  0  0  0  0  0  0  0  0  0  0
  -12.9173    9.2302  -22.5109 C   0  0  1  0  0  0  0  0  0  0  0  0
  -11.5470    9.5862  -22.5305 O   0  0  0  0  0  0  0  0  0  0  0  0
  -13.6114   10.5558  -22.3047 C   0  0  1  0  0  0  0  0  0  0  0  0
  -13.5498   10.7856  -20.9141 O   0  0  0  0  0  0  0  0  0  0  0  0
  -12.7303   11.5746  -22.9894 C   0  0  1  0  0  0  0  0  0  0  0  0
  -12.6568   12.7441  -22.2036 O   0  0  0  0  0  0  0  0  0  0  0  0
  -11.3748   10.9022  -23.0216 C   0  0  2  0  0  0  0  0  0  0  0  0
  -19.1171    7.7193  -19.9269 O   0  0  0  0  0  0  0  0  0  0  0  0
   -9.3843    7.6554  -26.5867 N   0  0  0  0  0  0  0  0  0  0  0  0
   -9.8312    7.3550  -25.3218 C   0  0  0  0  0  0  0  0  0  0  0  0
  -10.3141    8.3592  -24.5178 N   0  0  0  0  0  0  0  0  0  0  0  0
  -10.3556    9.6322  -24.9570 C   0  0  0  0  0  0  0  0  0  0  0  0
   -9.9123    9.9561  -26.2255 C   0  0  0  0  0  0  0  0  0  0  0  0
   -9.4187    8.9482  -27.0455 C   0  0  0  0  0  0  0  0  0  0  0  0
   -8.9791    9.2154  -28.2690 N   0  0  0  0  0  0  0  0  0  0  0  0
  -10.0664   11.2876  -26.4007 N   0  0  0  0  0  0  0  0  0  0  0  0
  -10.6004   11.8008  -25.2753 C   0  0  0  0  0  0  0  0  0  0  0  0
  -10.7763   10.7906  -24.3645 N   0  0  0  0  0  0  0  0  0  0  0  0
  2  1  1  1  0  0  0
  2  3  1  0  0  0  0
  2  5  1  0  0  0  0
  3  4  1  0  0  0  0
  3 16  1  0  0  0  0
  5  6  1  0  0  0  0
  6  7  1  0  0  0  0
  7  8  1  0  0  0  0
  9  8  1  6  0  0  0
  9 10  1  0  0  0  0
  9 11  1  0  0  0  0
 10 15  1  0  0  0  0
 11 12  1  1  0  0  0
 11 13  1  0  0  0  0
 13 14  1  1  0  0  0
 13 15  1  0  0  0  0
 15 26  1  6  0  0  0
 17 18  2  0  0  0  0
 17 22  1  0  0  0  0
 18 19  1  0  0  0  0
 19 20  2  0  0  0  0
 20 21  1  0  0  0  0
 20 26  1  0  0  0  0
 21 22  2  0  0  0  0
 21 24  1  0  0  0  0
 22 23  1  0  0  0  0
 24 25  2  0  0  0  0
 25 26  1  0  0  0  0
M  END
>  <CHROM.1>
-169.29334206,-155.98033143,71.84116154,55.10688024,-69.56392106,176.98853326
-5.59722508,-13.21155532,9.12333080,-23.43757777,-3.01688212,-0.59280368
-2.51705994

>  <Name>
ligand

>  <RI>
0

>  <Rbt.Current_Directory>
/home/itssahil/PROJECTS/Mol_Feturizer/New_Systems/rnas/3E5E

>  <Rbt.Executable>
rbdock ($Id: //depot/dev/client3/rdock/2013.1/src/exe/rbdock.cxx#4 $)

>  <Rbt.Library>
libRbt.so (2013.1, Build901 2013/11/27)

>  <Rbt.Parameter_File>
/export/apps/rDock/src/rDock_2013.1_src/data/scripts/dock_solv.prm

>  <Rbt.Receptor>
prm/pocket_docking_6.prm

>  <SCORE>
-14.0962

>  <SCORE.INTER>
-11.1432

>  <SCORE.INTER.CONST>
1

>  <SCORE.INTER.POLAR>
0

>  <SCORE.INTER.ROT>
7

>  <SCORE.INTER.SOLV>
5.29534

>  <SCORE.INTER.VDW>
-17.4606

>  <SCORE.INTER.norm>
-0.428584

>  <SCORE.INTRA>
-2.96652

>  <SCORE.INTRA.DIHEDRAL>
-4.63063

>  <SCORE.INTRA.DIHEDRAL.0>
10.1225

>  <SCORE.INTRA.POLAR>
0

>  <SCORE.INTRA.POLAR.0>
0

>  <SCORE.INTRA.REPUL>
0

>  <SCORE.INTRA.REPUL.0>
0

>  <SCORE.INTRA.SOLV>
-0.127767

>  <SCORE.INTRA.SOLV.lig_0>
-49.9393

>  <SCORE.INTRA.VDW>
-0.587321

>  <SCORE.INTRA.VDW.0>
-1.75437

>  <SCORE.INTRA.norm>
-0.114097

>  <SCORE.RESTR>
0.0135145

>  <SCORE.RESTR.CAVITY>
0.0135145

>  <SCORE.RESTR.norm>
0.000519788

>  <SCORE.SYSTEM>
0

>  <SCORE.SYSTEM.CONST>
0

>  <SCORE.SYSTEM.DIHEDRAL>
0

>  <SCORE.SYSTEM.SOLV>
0

>  <SCORE.SYSTEM.norm>
0

>  <SCORE.heavy>
26

>  <SCORE.norm>
-0.542161

>  <RMSD>
6.515

$$$$
ligand
 OpenBabel11021811473D
libRbt.so/2013.1/901 2013/11/27
 26 28  0  0  0  0  0  0  0  0999 V2000
   -8.8519   10.1673  -26.4670 N   0  0  0  0  0  0  0  0  0  0  0  0
   -9.0062   11.4998  -25.8703 C   0  0  2  0  0  0  0  0  0  0  0  0
   -7.8318   11.7852  -24.9716 C   0  0  0  0  0  0  0  0  0  0  0  0
   -7.4770   10.9628  -24.1599 O   0  0  0  0  0  0  0  0  0  0  0  0
  -10.2981   11.5448  -25.0525 C   0  0  0  0  0  0  0  0  0  0  0  0
  -10.5948   12.9871  -24.6459 C   0  0  0  0  0  0  0  0  0  0  0  0
  -11.9962   13.3651  -23.7643 S   0  0  0  0  0  0  0  0  0  0  0  0
  -12.7175   12.9671  -22.1511 C   0  0  0  0  0  0  0  0  0  0  0  0
  -12.6259   11.4886  -21.7544 C   0  0  1  0  0  0  0  0  0  0  0  0
  -11.3463   11.1403  -21.2580 O   0  0  0  0  0  0  0  0  0  0  0  0
  -13.5422   11.1518  -20.6019 C   0  0  1  0  0  0  0  0  0  0  0  0
  -13.7689    9.7636  -20.7116 O   0  0  0  0  0  0  0  0  0  0  0  0
  -12.7204   11.3974  -19.3579 C   0  0  1  0  0  0  0  0  0  0  0  0
  -12.9716   10.3797  -18.4136 O   0  0  0  0  0  0  0  0  0  0  0  0
  -11.2940   11.2870  -19.8514 C   0  0  2  0  0  0  0  0  0  0  0  0
   -7.1789   12.9548  -25.0693 O   0  0  0  0  0  0  0  0  0  0  0  0
   -7.8899   14.7155  -21.8192 N   0  0  0  0  0  0  0  0  0  0  0  0
   -8.4626   13.6341  -22.4459 C   0  0  0  0  0  0  0  0  0  0  0  0
   -9.3355   12.8324  -21.7506 N   0  0  0  0  0  0  0  0  0  0  0  0
   -9.6363   13.0964  -20.4641 C   0  0  0  0  0  0  0  0  0  0  0  0
   -9.0726   14.1789  -19.8153 C   0  0  0  0  0  0  0  0  0  0  0  0
   -8.1857   14.9942  -20.5086 C   0  0  0  0  0  0  0  0  0  0  0  0
   -7.6185   16.0415  -19.9230 N   0  0  0  0  0  0  0  0  0  0  0  0
   -9.5436   14.2054  -18.5485 N   0  0  0  0  0  0  0  0  0  0  0  0
  -10.3917   13.1701  -18.3933 C   0  0  0  0  0  0  0  0  0  0  0  0
  -10.4531   12.4645  -19.5678 N   0  0  0  0  0  0  0  0  0  0  0  0
  2  1  1  1  0  0  0
  2  3  1  0  0  0  0
  2  5  1  0  0  0  0
  3  4  1  0  0  0  0
  3 16  1  0  0  0  0
  5  6  1  0  0  0  0
  6  7  1  0  0  0  0
  7  8  1  0  0  0  0
  9  8  1  1  0  0  0
  9 10  1  0  0  0  0
  9 11  1  0  0  0  0
 10 15  1  0  0  0  0
 11 12  1  6  0  0  0
 11 13  1  0  0  0  0
 13 14  1  1  0  0  0
 13 15  1  0  0  0  0
 15 26  1  6  0  0  0
 17 18  2  0  0  0  0
 17 22  1  0  0  0  0
 18 19  1  0  0  0  0
 19 20  2  0  0  0  0
 20 21  1  0  0  0  0
 20 26  1  0  0  0  0
 21 22  2  0  0  0  0
 21 24  1  0  0  0  0
 22 23  1  0  0  0  0
 24 25  2  0  0  0  0
 25 26  1  0  0  0  0
M  END
>  <CHROM.1>
-48.41587041,-169.64211472,178.16819881,62.05865882,-43.71762071,79.47593790
-13.73144967,-10.30026174,12.45585821,-21.94457037,0.85644135,-0.58250738
-1.94426410

>  <Name>
ligand

>  <RI>
0

>  <Rbt.Current_Directory>
/home/itssahil/PROJECTS/Mol_Feturizer/New_Systems/rnas/3E5E

>  <Rbt.Executable>
rbdock ($Id: //depot/dev/client3/rdock/2013.1/src/exe/rbdock.cxx#4 $)

>  <Rbt.Library>
libRbt.so (2013.1, Build901 2013/11/27)

>  <Rbt.Parameter_File>
/export/apps/rDock/src/rDock_2013.1_src/data/scripts/dock_solv.prm

>  <Rbt.Receptor>
prm/pocket_docking_5.prm

>  <SCORE>
-21.5181

>  <SCORE.INTER>
-16.2982

>  <SCORE.INTER.CONST>
1

>  <SCORE.INTER.POLAR>
0

>  <SCORE.INTER.ROT>
7

>  <SCORE.INTER.SOLV>
13.5527

>  <SCORE.INTER.VDW>
-23.6497

>  <SCORE.INTER.norm>
-0.626855

>  <SCORE.INTRA>
-5.2199

>  <SCORE.INTRA.DIHEDRAL>
-5.24353

>  <SCORE.INTRA.DIHEDRAL.0>
10.1225

>  <SCORE.INTRA.POLAR>
0

>  <SCORE.INTRA.POLAR.0>
0

>  <SCORE.INTRA.REPUL>
0

>  <SCORE.INTRA.REPUL.0>
0

>  <SCORE.INTRA.SOLV>
-0.46074

>  <SCORE.INTRA.SOLV.lig_0>
-49.9393

>  <SCORE.INTRA.VDW>
-2.36776

>  <SCORE.INTRA.VDW.0>
-1.75437

>  <SCORE.INTRA.norm>
-0.200765

>  <SCORE.RESTR>
0

>  <SCORE.RESTR.CAVITY>
0

>  <SCORE.RESTR.norm>
0

>  <SCORE.SYSTEM>
0

>  <SCORE.SYSTEM.CONST>
0

>  <SCORE.SYSTEM.DIHEDRAL>
0

>  <SCORE.SYSTEM.SOLV>
0

>  <SCORE.SYSTEM.norm>
0

>  <SCORE.heavy>
26

>  <SCORE.norm>
-0.827621

>  <RMSD>
6.528

$$$$
ligand
 OpenBabel11021811473D
libRbt.so/2013.1/901 2013/11/27
 26 28  0  0  0  0  0  0  0  0999 V2000
  -15.4678    7.3835  -15.5009 N   0  0  0  0  0  0  0  0  0  0  0  0
  -14.6603    8.6067  -15.5870 C   0  0  2  0  0  0  0  0  0  0  0  0
  -15.3304    9.7054  -14.8048 C   0  0  0  0  0  0  0  0  0  0  0  0
  -14.6814   10.3979  -14.0563 O   0  0  0  0  0  0  0  0  0  0  0  0
  -14.5299    9.0283  -17.0516 C   0  0  0  0  0  0  0  0  0  0  0  0
  -13.6006   10.2364  -17.1541 C   0  0  0  0  0  0  0  0  0  0  0  0
  -13.0457   10.7734  -18.6666 S   0  0  0  0  0  0  0  0  0  0  0  0
  -12.1528   10.0949  -20.0891 C   0  0  0  0  0  0  0  0  0  0  0  0
  -11.4146   11.1359  -20.9394 C   0  0  1  0  0  0  0  0  0  0  0  0
  -10.7505   10.5563  -22.0475 O   0  0  0  0  0  0  0  0  0  0  0  0
  -12.3632   12.1178  -21.5855 C   0  0  1  0  0  0  0  0  0  0  0  0
  -11.5811   13.2637  -21.8416 O   0  0  0  0  0  0  0  0  0  0  0  0
  -12.7344   11.4956  -22.9114 C   0  0  1  0  0  0  0  0  0  0  0  0
  -12.7745   12.4920  -23.9095 O   0  0  0  0  0  0  0  0  0  0  0  0
  -11.5867   10.5490  -23.1892 C   0  0  2  0  0  0  0  0  0  0  0  0
  -16.6505    9.9154  -14.9360 O   0  0  0  0  0  0  0  0  0  0  0  0
  -10.2028    5.9720  -25.2749 N   0  0  0  0  0  0  0  0  0  0  0  0
   -9.5144    7.1616  -25.3076 C   0  0  0  0  0  0  0  0  0  0  0  0
  -10.0534    8.2728  -24.7054 N   0  0  0  0  0  0  0  0  0  0  0  0
  -11.2467    8.2075  -24.0832 C   0  0  0  0  0  0  0  0  0  0  0  0
  -11.9550    7.0215  -24.0378 C   0  0  0  0  0  0  0  0  0  0  0  0
  -11.4201    5.8923  -24.6467 C   0  0  0  0  0  0  0  0  0  0  0  0
  -12.0684    4.7343  -24.6305 N   0  0  0  0  0  0  0  0  0  0  0  0
  -13.1039    7.2403  -23.3599 N   0  0  0  0  0  0  0  0  0  0  0  0
  -13.1266    8.5316  -22.9763 C   0  0  0  0  0  0  0  0  0  0  0  0
  -11.9878    9.1500  -23.4258 N   0  0  0  0  0  0  0  0  0  0  0  0
  2  1  1  6  0  0  0
  2  3  1  0  0  0  0
  2  5  1  0  0  0  0
  3  4  1  0  0  0  0
  3 16  1  0  0  0  0
  5  6  1  0  0  0  0
  6  7  1  0  0  0  0
  7  8  1  0  0  0  0
  9  8  1  6  0  0  0
  9 10  1  0  0  0  0
  9 11  1  0  0  0  0
 10 15  1  0  0  0  0
 11 12  1  6  0  0  0
 11 13  1  0  0  0  0
 13 14  1  6  0  0  0
 13 15  1  0  0  0  0
 15 26  1  1  0  0  0
 17 18  2  0  0  0  0
 17 22  1  0  0  0  0
 18 19  1  0  0  0  0
 19 20  2  0  0  0  0
 20 21  1  0  0  0  0
 20 26  1  0  0  0  0
 21 22  2  0  0  0  0
 21 24  1  0  0  0  0
 22 23  1  0  0  0  0
 24 25  2  0  0  0  0
 25 26  1  0  0  0  0
M  END
>  <CHROM.1>
134.26217644,-175.59063797,169.47018182,-56.20202982,-155.78717848,-179.13618890
-82.51684543,-12.67150938,9.38501120,-20.82019494,2.73582533,1.13966548,0.24191029

>  <Name>
ligand

>  <RI>
0

>  <Rbt.Current_Directory>
/home/itssahil/PROJECTS/Mol_Feturizer/New_Systems/rnas/3E5E

>  <Rbt.Executable>
rbdock ($Id: //depot/dev/client3/rdock/2013.1/src/exe/rbdock.cxx#4 $)

>  <Rbt.Library>
libRbt.so (2013.1, Build901 2013/11/27)

>  <Rbt.Parameter_File>
/export/apps/rDock/src/rDock_2013.1_src/data/scripts/dock_solv.prm

>  <Rbt.Receptor>
prm/pocket_docking_8.prm

>  <SCORE>
-19.5599

>  <SCORE.INTER>
-15.8306

>  <SCORE.INTER.CONST>
1

>  <SCORE.INTER.POLAR>
0

>  <SCORE.INTER.ROT>
7

>  <SCORE.INTER.SOLV>
6.66167

>  <SCORE.INTER.VDW>
-21.041

>  <SCORE.INTER.norm>
-0.608869

>  <SCORE.INTRA>
-3.72929

>  <SCORE.INTRA.DIHEDRAL>
-6.18326

>  <SCORE.INTRA.DIHEDRAL.0>
10.1225

>  <SCORE.INTRA.POLAR>
0

>  <SCORE.INTRA.POLAR.0>
0

>  <SCORE.INTRA.REPUL>
0

>  <SCORE.INTRA.REPUL.0>
0

>  <SCORE.INTRA.SOLV>
-0.601846

>  <SCORE.INTRA.SOLV.lig_0>
-49.9393

>  <SCORE.INTRA.VDW>
-0.336738

>  <SCORE.INTRA.VDW.0>
-1.75437

>  <SCORE.INTRA.norm>
-0.143434

>  <SCORE.RESTR>
0

>  <SCORE.RESTR.CAVITY>
0

>  <SCORE.RESTR.norm>
0

>  <SCORE.SYSTEM>
0

>  <SCORE.SYSTEM.CONST>
0

>  <SCORE.SYSTEM.DIHEDRAL>
0

>  <SCORE.SYSTEM.SOLV>
0

>  <SCORE.SYSTEM.norm>
0

>  <SCORE.heavy>
26

>  <SCORE.norm>
-0.752303

>  <RMSD>
6.540

$$$$
ligand
 OpenBabel11021811473D
libRbt.so/2013.1/901 2013/11/27
 26 28  0  0  0  0  0  0  0  0999 V2000
  -17.5815    6.1292  -23.0575 N   0  0  0  0  0  0  0  0  0  0  0  0
  -16.3062    5.5615  -23.5124 C   0  0  2  0  0  0  0  0  0  0  0  0
  -16.1716    4.1536  -22.9949 C   0  0  0  0  0  0  0  0  0  0  0  0
  -15.5028    3.3481  -23.5989 O   0  0  0  0  0  0  0  0  0  0  0  0
  -15.1518    6.4135  -22.9820 C   0  0  0  0  0  0  0  0  0  0  0  0
  -15.2847    7.8399  -23.5122 C   0  0  0  0  0  0  0  0  0  0  0  0
  -14.2027    9.0506  -23.0147 S   0  0  0  0  0  0  0  0  0  0  0  0
  -12.4549    9.4677  -23.2430 C   0  0  0  0  0  0  0  0  0  0  0  0
  -11.9768   10.6875  -22.4459 C   0  0  1  0  0  0  0  0  0  0  0  0
  -10.6714   11.0952  -22.8126 O   0  0  0  0  0  0  0  0  0  0  0  0
  -12.8102   11.9146  -22.7308 C   0  0  1  0  0  0  0  0  0  0  0  0
  -12.6428   12.7385  -21.5979 O   0  0  0  0  0  0  0  0  0  0  0  0
  -12.1369   12.5864  -23.9048 C   0  0  1  0  0  0  0  0  0  0  0  0
  -12.1362   13.9847  -23.7161 O   0  0  0  0  0  0  0  0  0  0  0  0
  -10.7166   12.0677  -23.8398 C   0  0  2  0  0  0  0  0  0  0  0  0
  -16.7969    3.7907  -21.8629 O   0  0  0  0  0  0  0  0  0  0  0  0
   -9.4458   12.7653  -28.8510 N   0  0  0  0  0  0  0  0  0  0  0  0
   -9.9356   13.6937  -27.9631 C   0  0  0  0  0  0  0  0  0  0  0  0
  -10.2255   13.3122  -26.6754 N   0  0  0  0  0  0  0  0  0  0  0  0
  -10.0331   12.0403  -26.2748 C   0  0  0  0  0  0  0  0  0  0  0  0
   -9.5409   11.0912  -27.1508 C   0  0  0  0  0  0  0  0  0  0  0  0
   -9.2475   11.4660  -28.4567 C   0  0  0  0  0  0  0  0  0  0  0  0
   -8.7769   10.5860  -29.3317 N   0  0  0  0  0  0  0  0  0  0  0  0
   -9.4491    9.9143  -26.4921 N   0  0  0  0  0  0  0  0  0  0  0  0
   -9.8661   10.1076  -25.2256 C   0  0  0  0  0  0  0  0  0  0  0  0
  -10.2429   11.4177  -25.0755 N   0  0  0  0  0  0  0  0  0  0  0  0
  2  1  1  1  0  0  0
  2  3  1  0  0  0  0
  2  5  1  0  0  0  0
  3  4  1  0  0  0  0
  3 16  1  0  0  0  0
  5  6  1  0  0  0  0
  6  7  1  0  0  0  0
  7  8  1  0  0  0  0
  9  8  1  6  0  0  0
  9 10  1  0  0  0  0
  9 11  1  0  0  0  0
 10 15  1  0  0  0  0
 11 12  1  1  0  0  0
 11 13  1  0  0  0  0
 13 14  1  1  0  0  0
 13 15  1  0  0  0  0
 15 26  1  6  0  0  0
 17 18  2  0  0  0  0
 17 22  1  0  0  0  0
 18 19  1  0  0  0  0
 19 20  2  0  0  0  0
 20 21  1  0  0  0  0
 20 26  1  0  0  0  0
 21 22  2  0  0  0  0
 21 24  1  0  0  0  0
 22 23  1  0  0  0  0
 24 25  2  0  0  0  0
 25 26  1  0  0  0  0
M  END
>  <CHROM.1>
152.88521721,-60.31181554,176.01693613,69.45280336,-176.07839405,-170.87340550
-174.48934889,-12.44809479,9.80263896,-24.46217446,-2.81615684,0.86522849
0.65478442

>  <Name>
ligand

>  <RI>
0

>  <Rbt.Current_Directory>
/home/itssahil/PROJECTS/Mol_Feturizer/New_Systems/rnas/3E5E

>  <Rbt.Executable>
rbdock ($Id: //depot/dev/client3/rdock/2013.1/src/exe/rbdock.cxx#4 $)

>  <Rbt.Library>
libRbt.so (2013.1, Build901 2013/11/27)

>  <Rbt.Parameter_File>
/export/apps/rDock/src/rDock_2013.1_src/data/scripts/dock_solv.prm

>  <Rbt.Receptor>
prm/pocket_docking_8.prm

>  <SCORE>
-11.9928

>  <SCORE.INTER>
-8.53609

>  <SCORE.INTER.CONST>
1

>  <SCORE.INTER.POLAR>
0

>  <SCORE.INTER.ROT>
7

>  <SCORE.INTER.SOLV>
9.47739

>  <SCORE.INTER.VDW>
-17.1165

>  <SCORE.INTER.norm>
-0.328311

>  <SCORE.INTRA>
-3.45672

>  <SCORE.INTRA.DIHEDRAL>
-6.87474

>  <SCORE.INTRA.DIHEDRAL.0>
10.1225

>  <SCORE.INTRA.POLAR>
0

>  <SCORE.INTRA.POLAR.0>
0

>  <SCORE.INTRA.REPUL>
0

>  <SCORE.INTRA.REPUL.0>
0

>  <SCORE.INTRA.SOLV>
0.305557

>  <SCORE.INTRA.SOLV.lig_0>
-49.9393

>  <SCORE.INTRA.VDW>
-0.172127

>  <SCORE.INTRA.VDW.0>
-1.75437

>  <SCORE.INTRA.norm>
-0.132951

>  <SCORE.RESTR>
0

>  <SCORE.RESTR.CAVITY>
0

>  <SCORE.RESTR.norm>
0

>  <SCORE.SYSTEM>
0

>  <SCORE.SYSTEM.CONST>
0

>  <SCORE.SYSTEM.DIHEDRAL>
0

>  <SCORE.SYSTEM.SOLV>
0

>  <SCORE.SYSTEM.norm>
0

>  <SCORE.heavy>
26

>  <SCORE.norm>
-0.461262

>  <RMSD>
6.576

$$$$
ligand
 OpenBabel11021811473D
libRbt.so/2013.1/901 2013/11/27
 26 28  0  0  0  0  0  0  0  0999 V2000
  -11.5400    5.4234  -27.2954 N   0  0  0  0  0  0  0  0  0  0  0  0
  -11.5687    6.1358  -26.0120 C   0  0  2  0  0  0  0  0  0  0  0  0
  -11.4175    5.1466  -24.8865 C   0  0  0  0  0  0  0  0  0  0  0  0
  -10.6481    5.3719  -23.9819 O   0  0  0  0  0  0  0  0  0  0  0  0
  -12.9013    6.8730  -25.8687 C   0  0  0  0  0  0  0  0  0  0  0  0
  -12.8898    7.7036  -24.5867 C   0  0  0  0  0  0  0  0  0  0  0  0
  -14.2522    8.6103  -24.1328 S   0  0  0  0  0  0  0  0  0  0  0  0
  -14.7692    9.6580  -22.7485 C   0  0  0  0  0  0  0  0  0  0  0  0
  -14.7340    8.9727  -21.3771 C   0  0  1  0  0  0  0  0  0  0  0  0
  -13.4146    8.6902  -20.9477 O   0  0  0  0  0  0  0  0  0  0  0  0
  -15.2653    9.8666  -20.2816 C   0  0  1  0  0  0  0  0  0  0  0  0
  -15.6807    8.9841  -19.2622 O   0  0  0  0  0  0  0  0  0  0  0  0
  -14.0643   10.6336  -19.7792 C   0  0  1  0  0  0  0  0  0  0  0  0
  -14.1197   10.7360  -18.3731 O   0  0  0  0  0  0  0  0  0  0  0  0
  -12.8961    9.7570  -20.1758 C   0  0  2  0  0  0  0  0  0  0  0  0
  -12.1355    4.0114  -24.8880 O   0  0  0  0  0  0  0  0  0  0  0  0
  -11.7472   13.9980  -22.9879 N   0  0  0  0  0  0  0  0  0  0  0  0
  -12.9323   13.6906  -22.3625 C   0  0  0  0  0  0  0  0  0  0  0  0
  -13.0472   12.5078  -21.6728 N   0  0  0  0  0  0  0  0  0  0  0  0
  -12.0115   11.6490  -21.6023 C   0  0  0  0  0  0  0  0  0  0  0  0
  -10.8109   11.9387  -22.2229 C   0  0  0  0  0  0  0  0  0  0  0  0
  -10.6853   13.1312  -22.9260 C   0  0  0  0  0  0  0  0  0  0  0  0
   -9.5519   13.4472  -23.5402 N   0  0  0  0  0  0  0  0  0  0  0  0
   -9.9578   10.9157  -21.9931 N   0  0  0  0  0  0  0  0  0  0  0  0
  -10.5946    9.9983  -21.2394 C   0  0  0  0  0  0  0  0  0  0  0  0
  -11.8733   10.4309  -20.9965 N   0  0  0  0  0  0  0  0  0  0  0  0
  2  1  1  6  0  0  0
  2  3  1  0  0  0  0
  2  5  1  0  0  0  0
  3  4  1  0  0  0  0
  3 16  1  0  0  0  0
  5  6  1  0  0  0  0
  6  7  1  0  0  0  0
  7  8  1  0  0  0  0
  9  8  1  6  0  0  0
  9 10  1  0  0  0  0
  9 11  1  0  0  0  0
 10 15  1  0  0  0  0
 11 12  1  1  0  0  0
 11 13  1  0  0  0  0
 13 14  1  1  0  0  0
 13 15  1  0  0  0  0
 15 26  1  6  0  0  0
 17 18  2  0  0  0  0
 17 22  1  0  0  0  0
 18 19  1  0  0  0  0
 19 20  2  0  0  0  0
 20 21  1  0  0  0  0
 20 26  1  0  0  0  0
 21 22  2  0  0  0  0
 21 24  1  0  0  0  0
 22 23  1  0  0  0  0
 24 25  2  0  0  0  0
 25 26  1  0  0  0  0
M  END
>  <CHROM.1>
133.86526681,-175.54262542,-178.55344455,176.79589171,-57.35598219,68.37512651
106.52290619,-12.64096509,9.41339695,-22.60616919,-1.45337504,0.78400150
0.52495068

>  <Name>
ligand

>  <RI>
0

>  <Rbt.Current_Directory>
/home/itssahil/PROJECTS/Mol_Feturizer/New_Systems/rnas/3E5E

>  <Rbt.Executable>
rbdock ($Id: //depot/dev/client3/rdock/2013.1/src/exe/rbdock.cxx#4 $)

>  <Rbt.Library>
libRbt.so (2013.1, Build901 2013/11/27)

>  <Rbt.Parameter_File>
/export/apps/rDock/src/rDock_2013.1_src/data/scripts/dock_solv.prm

>  <Rbt.Receptor>
prm/blind_docking_100.prm

>  <SCORE>
-18.9103

>  <SCORE.INTER>
-14.2071

>  <SCORE.INTER.CONST>
1

>  <SCORE.INTER.POLAR>
0

>  <SCORE.INTER.ROT>
7

>  <SCORE.INTER.SOLV>
6.18987

>  <SCORE.INTER.VDW>
-19.8013

>  <SCORE.INTER.norm>
-0.546425

>  <SCORE.INTRA>
-4.70348

>  <SCORE.INTRA.DIHEDRAL>
-6.9757

>  <SCORE.INTRA.DIHEDRAL.0>
10.1225

>  <SCORE.INTRA.POLAR>
0

>  <SCORE.INTRA.POLAR.0>
0

>  <SCORE.INTRA.REPUL>
0

>  <SCORE.INTRA.REPUL.0>
0

>  <SCORE.INTRA.SOLV>
-0.550408

>  <SCORE.INTRA.SOLV.lig_0>
-49.9393

>  <SCORE.INTRA.VDW>
-0.940425

>  <SCORE.INTRA.VDW.0>
-1.75437

>  <SCORE.INTRA.norm>
-0.180903

>  <SCORE.RESTR>
0.000249297

>  <SCORE.RESTR.CAVITY>
0.000249297

>  <SCORE.RESTR.norm>
9.58835e-06

>  <SCORE.SYSTEM>
0

>  <SCORE.SYSTEM.CONST>
0

>  <SCORE.SYSTEM.DIHEDRAL>
0

>  <SCORE.SYSTEM.SOLV>
0

>  <SCORE.SYSTEM.norm>
0

>  <SCORE.heavy>
26

>  <SCORE.norm>
-0.727319

>  <RMSD>
6.705

$$$$
ligand
 OpenBabel11021811473D
libRbt.so/2013.1/901 2013/11/27
 26 28  0  0  0  0  0  0  0  0999 V2000
  -10.9064    8.6559  -26.0128 N   0  0  0  0  0  0  0  0  0  0  0  0
   -9.8890    9.3299  -25.1967 C   0  0  2  0  0  0  0  0  0  0  0  0
  -10.5272   10.4609  -24.4341 C   0  0  0  0  0  0  0  0  0  0  0  0
  -10.7989   11.4944  -24.9990 O   0  0  0  0  0  0  0  0  0  0  0  0
   -8.7908    9.8827  -26.1067 C   0  0  0  0  0  0  0  0  0  0  0  0
   -7.5760   10.2680  -25.2645 C   0  0  0  0  0  0  0  0  0  0  0  0
   -7.7237   11.3898  -23.9980 S   0  0  0  0  0  0  0  0  0  0  0  0
   -6.6997   12.6457  -23.1886 C   0  0  0  0  0  0  0  0  0  0  0  0
   -6.6401   13.9930  -23.9187 C   0  0  1  0  0  0  0  0  0  0  0  0
   -7.8925   14.6533  -23.9378 O   0  0  0  0  0  0  0  0  0  0  0  0
   -5.7434   14.9825  -23.2128 C   0  0  1  0  0  0  0  0  0  0  0  0
   -5.3557   15.8991  -24.2128 O   0  0  0  0  0  0  0  0  0  0  0  0
   -6.6421   15.7042  -22.2358 C   0  0  1  0  0  0  0  0  0  0  0  0
   -6.3189   17.0775  -22.2178 O   0  0  0  0  0  0  0  0  0  0  0  0
   -8.0235   15.5185  -22.8256 C   0  0  2  0  0  0  0  0  0  0  0  0
  -10.7928   10.3235  -23.1246 O   0  0  0  0  0  0  0  0  0  0  0  0
  -12.6553   13.1485  -22.4479 N   0  0  0  0  0  0  0  0  0  0  0  0
  -12.0546   13.6616  -23.5730 C   0  0  0  0  0  0  0  0  0  0  0  0
  -10.8253   14.2665  -23.4683 N   0  0  0  0  0  0  0  0  0  0  0  0
  -10.2036   14.3597  -22.2766 C   0  0  0  0  0  0  0  0  0  0  0  0
  -10.7893   13.8497  -21.1332 C   0  0  0  0  0  0  0  0  0  0  0  0
  -12.0342   13.2389  -21.2277 C   0  0  0  0  0  0  0  0  0  0  0  0
  -12.6344   12.7393  -20.1545 N   0  0  0  0  0  0  0  0  0  0  0  0
   -9.9569   14.0788  -20.0930 N   0  0  0  0  0  0  0  0  0  0  0  0
   -8.8642   14.7133  -20.5605 C   0  0  0  0  0  0  0  0  0  0  0  0
   -9.0045   14.9060  -21.9111 N   0  0  0  0  0  0  0  0  0  0  0  0
  2  1  1  6  0  0  0
  2  3  1  0  0  0  0
  2  5  1  0  0  0  0
  3  4  1  0  0  0  0
  3 16  1  0  0  0  0
  5  6  1  0  0  0  0
  6  7  1  0  0  0  0
  7  8  1  0  0  0  0
  9  8  1  1  0  0  0
  9 10  1  0  0  0  0
  9 11  1  0  0  0  0
 10 15  1  0  0  0  0
 11 12  1  6  0  0  0
 11 13  1  0  0  0  0
 13 14  1  6  0  0  0
 13 15  1  0  0  0  0
 15 26  1  1  0  0  0
 17 18  2  0  0  0  0
 17 22  1  0  0  0  0
 18 19  1  0  0  0  0
 19 20  2  0  0  0  0
 20 21  1  0  0  0  0
 20 26  1  0  0  0  0
 21 22  2  0  0  0  0
 21 24  1  0  0  0  0
 22 23  1  0  0  0  0
 24 25  2  0  0  0  0
 25 26  1  0  0  0  0
M  END
>  <CHROM.1>
-76.57132557,-165.94024757,-57.39473167,-148.74490141,81.63279218,65.92584555
-45.33501599,-9.08292908,13.04272512,-23.22532723,-2.17180737,0.40764508
0.62988720

>  <Name>
ligand

>  <RI>
0

>  <Rbt.Current_Directory>
/home/itssahil/PROJECTS/Mol_Feturizer/New_Systems/rnas/3E5E

>  <Rbt.Executable>
rbdock ($Id: //depot/dev/client3/rdock/2013.1/src/exe/rbdock.cxx#4 $)

>  <Rbt.Library>
libRbt.so (2013.1, Build901 2013/11/27)

>  <Rbt.Parameter_File>
/export/apps/rDock/src/rDock_2013.1_src/data/scripts/dock_solv.prm

>  <Rbt.Receptor>
prm/blind_docking_80.prm

>  <SCORE>
-15.3566

>  <SCORE.INTER>
-11.3872

>  <SCORE.INTER.CONST>
1

>  <SCORE.INTER.POLAR>
0

>  <SCORE.INTER.ROT>
7

>  <SCORE.INTER.SOLV>
9.32714

>  <SCORE.INTER.VDW>
-18.9672

>  <SCORE.INTER.norm>
-0.437968

>  <SCORE.INTRA>
-3.96941

>  <SCORE.INTRA.DIHEDRAL>
-4.46991

>  <SCORE.INTRA.DIHEDRAL.0>
10.1225

>  <SCORE.INTRA.POLAR>
0

>  <SCORE.INTRA.POLAR.0>
0

>  <SCORE.INTRA.REPUL>
0

>  <SCORE.INTRA.REPUL.0>
0

>  <SCORE.INTRA.SOLV>
-0.380966

>  <SCORE.INTRA.SOLV.lig_0>
-49.9393

>  <SCORE.INTRA.VDW>
-1.54398

>  <SCORE.INTRA.VDW.0>
-1.75437

>  <SCORE.INTRA.norm>
-0.15267

>  <SCORE.RESTR>
0

>  <SCORE.RESTR.CAVITY>
0

>  <SCORE.RESTR.norm>
0

>  <SCORE.SYSTEM>
0

>  <SCORE.SYSTEM.CONST>
0

>  <SCORE.SYSTEM.DIHEDRAL>
0

>  <SCORE.SYSTEM.SOLV>
0

>  <SCORE.SYSTEM.norm>
0

>  <SCORE.heavy>
26

>  <SCORE.norm>
-0.590638

>  <RMSD>
6.714

$$$$
ligand
 OpenBabel11021811473D
libRbt.so/2013.1/901 2013/11/27
 26 28  0  0  0  0  0  0  0  0999 V2000
   -9.0776   10.9779  -25.6210 N   0  0  0  0  0  0  0  0  0  0  0  0
   -9.8511   12.2078  -25.4094 C   0  0  2  0  0  0  0  0  0  0  0  0
   -8.9101   13.3480  -25.1222 C   0  0  0  0  0  0  0  0  0  0  0  0
   -8.8763   14.3052  -25.8597 O   0  0  0  0  0  0  0  0  0  0  0  0
  -10.7981   12.0157  -24.2236 C   0  0  0  0  0  0  0  0  0  0  0  0
  -11.7522   13.2054  -24.1346 C   0  0  0  0  0  0  0  0  0  0  0  0
  -12.5554   13.5616  -22.6813 S   0  0  0  0  0  0  0  0  0  0  0  0
  -12.1257   14.0881  -21.0023 C   0  0  0  0  0  0  0  0  0  0  0  0
  -11.0882   13.2049  -20.2986 C   0  0  1  0  0  0  0  0  0  0  0  0
   -9.8680   13.1304  -21.0131 O   0  0  0  0  0  0  0  0  0  0  0  0
  -10.6681   13.7749  -18.9644 C   0  0  1  0  0  0  0  0  0  0  0  0
  -10.1918   12.6683  -18.2303 O   0  0  0  0  0  0  0  0  0  0  0  0
   -9.4948   14.6763  -19.2709 C   0  0  1  0  0  0  0  0  0  0  0  0
   -8.5082   14.5284  -18.2732 O   0  0  0  0  0  0  0  0  0  0  0  0
   -8.9698   14.1362  -20.5836 C   0  0  2  0  0  0  0  0  0  0  0  0
   -8.1054   13.3016  -24.0479 O   0  0  0  0  0  0  0  0  0  0  0  0
   -6.1557   18.0184  -22.6387 N   0  0  0  0  0  0  0  0  0  0  0  0
   -5.9053   17.3053  -21.4902 C   0  0  0  0  0  0  0  0  0  0  0  0
   -6.7790   16.3184  -21.1017 N   0  0  0  0  0  0  0  0  0  0  0  0
   -7.8752   16.0423  -21.8348 C   0  0  0  0  0  0  0  0  0  0  0  0
   -8.1454   16.7464  -22.9931 C   0  0  0  0  0  0  0  0  0  0  0  0
   -7.2697   17.7490  -23.3932 C   0  0  0  0  0  0  0  0  0  0  0  0
   -7.4930   18.4523  -24.4964 N   0  0  0  0  0  0  0  0  0  0  0  0
   -9.2943   16.2681  -23.5209 N   0  0  0  0  0  0  0  0  0  0  0  0
   -9.7438   15.2793  -22.7238 C   0  0  0  0  0  0  0  0  0  0  0  0
   -8.8822   15.1327  -21.6668 N   0  0  0  0  0  0  0  0  0  0  0  0
  2  1  1  1  0  0  0
  2  3  1  0  0  0  0
  2  5  1  0  0  0  0
  3  4  1  0  0  0  0
  3 16  1  0  0  0  0
  5  6  1  0  0  0  0
  6  7  1  0  0  0  0
  7  8  1  0  0  0  0
  9  8  1  6  0  0  0
  9 10  1  0  0  0  0
  9 11  1  0  0  0  0
 10 15  1  0  0  0  0
 11 12  1  1  0  0  0
 11 13  1  0  0  0  0
 13 14  1  1  0  0  0
 13 15  1  0  0  0  0
 15 26  1  6  0  0  0
 17 18  2  0  0  0  0
 17 22  1  0  0  0  0
 18 19  1  0  0  0  0
 19 20  2  0  0  0  0
 20 21  1  0  0  0  0
 20 26  1  0  0  0  0
 21 22  2  0  0  0  0
 21 24  1  0  0  0  0
 22 23  1  0  0  0  0
 24 25  2  0  0  0  0
 25 26  1  0  0  0  0
M  END
>  <CHROM.1>
118.86639599,-171.30946440,-159.46104461,64.86051304,-53.91599975,58.51744956
-160.34940871,-9.35731210,14.52035671,-22.32489933,-3.11682248,0.82416051
1.43418698

>  <Name>
ligand

>  <RI>
0

>  <Rbt.Current_Directory>
/home/itssahil/PROJECTS/Mol_Feturizer/New_Systems/rnas/3E5E

>  <Rbt.Executable>
rbdock ($Id: //depot/dev/client3/rdock/2013.1/src/exe/rbdock.cxx#4 $)

>  <Rbt.Library>
libRbt.so (2013.1, Build901 2013/11/27)

>  <Rbt.Parameter_File>
/export/apps/rDock/src/rDock_2013.1_src/data/scripts/dock_solv.prm

>  <Rbt.Receptor>
prm/pocket_docking_6.prm

>  <SCORE>
-23.5495

>  <SCORE.INTER>
-17.5322

>  <SCORE.INTER.CONST>
1

>  <SCORE.INTER.POLAR>
0

>  <SCORE.INTER.ROT>
7

>  <SCORE.INTER.SOLV>
10.6225

>  <SCORE.INTER.VDW>
-23.4956

>  <SCORE.INTER.norm>
-0.674314

>  <SCORE.INTRA>
-6.01733

>  <SCORE.INTRA.DIHEDRAL>
-5.49051

>  <SCORE.INTRA.DIHEDRAL.0>
10.1225

>  <SCORE.INTRA.POLAR>
0

>  <SCORE.INTRA.POLAR.0>
0

>  <SCORE.INTRA.REPUL>
0

>  <SCORE.INTRA.REPUL.0>
0

>  <SCORE.INTRA.SOLV>
-0.370938

>  <SCORE.INTRA.SOLV.lig_0>
-49.9393

>  <SCORE.INTRA.VDW>
-3.0866

>  <SCORE.INTRA.VDW.0>
-1.75437

>  <SCORE.INTRA.norm>
-0.231436

>  <SCORE.RESTR>
0

>  <SCORE.RESTR.CAVITY>
0

>  <SCORE.RESTR.norm>
0

>  <SCORE.SYSTEM>
0

>  <SCORE.SYSTEM.CONST>
0

>  <SCORE.SYSTEM.DIHEDRAL>
0

>  <SCORE.SYSTEM.SOLV>
0

>  <SCORE.SYSTEM.norm>
0

>  <SCORE.heavy>
26

>  <SCORE.norm>
-0.90575

>  <RMSD>
6.772

$$$$
ligand
 OpenBabel11021811473D
libRbt.so/2013.1/901 2013/11/27
 26 28  0  0  0  0  0  0  0  0999 V2000
   -8.0061   14.6563  -20.9979 N   0  0  0  0  0  0  0  0  0  0  0  0
   -8.9024   14.8924  -19.8592 C   0  0  2  0  0  0  0  0  0  0  0  0
   -8.1457   15.5965  -18.7638 C   0  0  0  0  0  0  0  0  0  0  0  0
   -7.8117   16.7497  -18.9037 O   0  0  0  0  0  0  0  0  0  0  0  0
   -9.4273   13.5534  -19.3385 C   0  0  0  0  0  0  0  0  0  0  0  0
  -10.8349   13.7411  -18.7755 C   0  0  0  0  0  0  0  0  0  0  0  0
  -12.1366   14.0993  -19.8057 S   0  0  0  0  0  0  0  0  0  0  0  0
  -12.6788   13.6794  -21.4823 C   0  0  0  0  0  0  0  0  0  0  0  0
  -12.9384   12.1864  -21.7176 C   0  0  1  0  0  0  0  0  0  0  0  0
  -12.4479   11.7433  -22.9698 O   0  0  0  0  0  0  0  0  0  0  0  0
  -12.1927   11.3179  -20.7323 C   0  0  1  0  0  0  0  0  0  0  0  0
  -12.9145   10.1062  -20.6972 O   0  0  0  0  0  0  0  0  0  0  0  0
  -10.8528   11.0488  -21.3767 C   0  0  1  0  0  0  0  0  0  0  0  0
  -10.4803    9.7059  -21.1563 O   0  0  0  0  0  0  0  0  0  0  0  0
  -11.1222   11.2624  -22.8506 C   0  0  2  0  0  0  0  0  0  0  0  0
   -7.8386   14.9429  -17.6313 O   0  0  0  0  0  0  0  0  0  0  0  0
   -6.5764   12.0207  -25.2948 N   0  0  0  0  0  0  0  0  0  0  0  0
   -7.0601   10.8569  -24.7457 C   0  0  0  0  0  0  0  0  0  0  0  0
   -8.2866   10.8589  -24.1262 N   0  0  0  0  0  0  0  0  0  0  0  0
   -9.0188   11.9876  -24.0535 C   0  0  0  0  0  0  0  0  0  0  0  0
   -8.5518   13.1683  -24.5996 C   0  0  0  0  0  0  0  0  0  0  0  0
   -7.3109   13.1778  -25.2256 C   0  0  0  0  0  0  0  0  0  0  0  0
   -6.8225   14.2903  -25.7599 N   0  0  0  0  0  0  0  0  0  0  0  0
   -9.4775   14.1296  -24.3844 N   0  0  0  0  0  0  0  0  0  0  0  0
  -10.5127   13.5761  -23.7231 C   0  0  0  0  0  0  0  0  0  0  0  0
  -10.2409   12.2505  -23.4993 N   0  0  0  0  0  0  0  0  0  0  0  0
  2  1  1  6  0  0  0
  2  3  1  0  0  0  0
  2  5  1  0  0  0  0
  3  4  1  0  0  0  0
  3 16  1  0  0  0  0
  5  6  1  0  0  0  0
  6  7  1  0  0  0  0
  7  8  1  0  0  0  0
  9  8  1  1  0  0  0
  9 10  1  0  0  0  0
  9 11  1  0  0  0  0
 10 15  1  0  0  0  0
 11 12  1  6  0  0  0
 11 13  1  0  0  0  0
 13 14  1  6  0  0  0
 13 15  1  0  0  0  0
 15 26  1  1  0  0  0
 17 18  2  0  0  0  0
 17 22  1  0  0  0  0
 18 19  1  0  0  0  0
 19 20  2  0  0  0  0
 20 21  1  0  0  0  0
 20 26  1  0  0  0  0
 21 22  2  0  0  0  0
 21 24  1  0  0  0  0
 22 23  1  0  0  0  0
 24 25  2  0  0  0  0
 25 26  1  0  0  0  0
M  END
>  <CHROM.1>
70.57910082,-148.38666741,68.45608600,35.27595502,61.23907997,-138.38583349
-153.80226989,-9.86846155,12.96342958,-21.82645842,-2.00112920,-0.55024385
-2.13121146

>  <Name>
ligand

>  <RI>
0

>  <Rbt.Current_Directory>
/home/itssahil/PROJECTS/Mol_Feturizer/New_Systems/rnas/3E5E

>  <Rbt.Executable>
rbdock ($Id: //depot/dev/client3/rdock/2013.1/src/exe/rbdock.cxx#4 $)

>  <Rbt.Library>
libRbt.so (2013.1, Build901 2013/11/27)

>  <Rbt.Parameter_File>
/export/apps/rDock/src/rDock_2013.1_src/data/scripts/dock_solv.prm

>  <Rbt.Receptor>
prm/blind_docking_80.prm

>  <SCORE>
-16.1958

>  <SCORE.INTER>
-16.2936

>  <SCORE.INTER.CONST>
1

>  <SCORE.INTER.POLAR>
0

>  <SCORE.INTER.ROT>
7

>  <SCORE.INTER.SOLV>
10.5668

>  <SCORE.INTER.VDW>
-22.6513

>  <SCORE.INTER.norm>
-0.626677

>  <SCORE.INTRA>
0.0978507

>  <SCORE.INTRA.DIHEDRAL>
1.09737

>  <SCORE.INTRA.DIHEDRAL.0>
10.1225

>  <SCORE.INTRA.POLAR>
0

>  <SCORE.INTRA.POLAR.0>
0

>  <SCORE.INTRA.REPUL>
0

>  <SCORE.INTRA.REPUL.0>
0

>  <SCORE.INTRA.SOLV>
0.280585

>  <SCORE.INTRA.SOLV.lig_0>
-49.9393

>  <SCORE.INTRA.VDW>
-0.591126

>  <SCORE.INTRA.VDW.0>
-1.75437

>  <SCORE.INTRA.norm>
0.00376349

>  <SCORE.RESTR>
0

>  <SCORE.RESTR.CAVITY>
0

>  <SCORE.RESTR.norm>
0

>  <SCORE.SYSTEM>
0

>  <SCORE.SYSTEM.CONST>
0

>  <SCORE.SYSTEM.DIHEDRAL>
0

>  <SCORE.SYSTEM.SOLV>
0

>  <SCORE.SYSTEM.norm>
0

>  <SCORE.heavy>
26

>  <SCORE.norm>
-0.622913

>  <RMSD>
6.778

$$$$
ligand
 OpenBabel11021811473D
libRbt.so/2013.1/901 2013/11/27
 26 28  0  0  0  0  0  0  0  0999 V2000
  -11.7436    6.4186  -26.9766 N   0  0  0  0  0  0  0  0  0  0  0  0
  -11.0281    7.2502  -26.0010 C   0  0  2  0  0  0  0  0  0  0  0  0
   -9.8451    6.4877  -25.4648 C   0  0  0  0  0  0  0  0  0  0  0  0
   -8.7260    6.9146  -25.6270 O   0  0  0  0  0  0  0  0  0  0  0  0
  -11.9696    7.6083  -24.8498 C   0  0  0  0  0  0  0  0  0  0  0  0
  -11.2421    8.5149  -23.8587 C   0  0  0  0  0  0  0  0  0  0  0  0
  -10.7043   10.0550  -24.3310 S   0  0  0  0  0  0  0  0  0  0  0  0
   -9.6932   11.3936  -23.6477 C   0  0  0  0  0  0  0  0  0  0  0  0
   -9.9531   12.7732  -24.2649 C   0  0  1  0  0  0  0  0  0  0  0  0
  -11.2592   13.2488  -23.9950 O   0  0  0  0  0  0  0  0  0  0  0  0
   -9.0701   13.8405  -23.6627 C   0  0  1  0  0  0  0  0  0  0  0  0
   -9.0090   14.8557  -24.6404 O   0  0  0  0  0  0  0  0  0  0  0  0
   -9.8440   14.3731  -22.4792 C   0  0  1  0  0  0  0  0  0  0  0  0
   -9.7036   15.7754  -22.4115 O   0  0  0  0  0  0  0  0  0  0  0  0
  -11.2788   14.0251  -22.8118 C   0  0  2  0  0  0  0  0  0  0  0  0
  -10.0322    5.3311  -24.8082 O   0  0  0  0  0  0  0  0  0  0  0  0
  -14.2909    9.8662  -21.8926 N   0  0  0  0  0  0  0  0  0  0  0  0
  -13.8573   10.3478  -23.1051 C   0  0  0  0  0  0  0  0  0  0  0  0
  -13.0730   11.4754  -23.1446 N   0  0  0  0  0  0  0  0  0  0  0  0
  -12.7241   12.1110  -22.0090 C   0  0  0  0  0  0  0  0  0  0  0  0
  -13.1483   11.6432  -20.7795 C   0  0  0  0  0  0  0  0  0  0  0  0
  -13.9448   10.5053  -20.7287 C   0  0  0  0  0  0  0  0  0  0  0  0
  -14.3776   10.0242  -19.5698 N   0  0  0  0  0  0  0  0  0  0  0  0
  -12.6582   12.4627  -19.8227 N   0  0  0  0  0  0  0  0  0  0  0  0
  -11.9339   13.4262  -20.4247 C   0  0  0  0  0  0  0  0  0  0  0  0
  -11.9728   13.2306  -21.7817 N   0  0  0  0  0  0  0  0  0  0  0  0
  2  1  1  6  0  0  0
  2  3  1  0  0  0  0
  2  5  1  0  0  0  0
  3  4  1  0  0  0  0
  3 16  1  0  0  0  0
  5  6  1  0  0  0  0
  6  7  1  0  0  0  0
  7  8  1  0  0  0  0
  9  8  1  1  0  0  0
  9 10  1  0  0  0  0
  9 11  1  0  0  0  0
 10 15  1  0  0  0  0
 11 12  1  6  0  0  0
 11 13  1  0  0  0  0
 13 14  1  6  0  0  0
 13 15  1  0  0  0  0
 15 26  1  1  0  0  0
 17 18  2  0  0  0  0
 17 22  1  0  0  0  0
 18 19  1  0  0  0  0
 19 20  2  0  0  0  0
 20 21  1  0  0  0  0
 20 26  1  0  0  0  0
 21 22  2  0  0  0  0
 21 24  1  0  0  0  0
 22 23  1  0  0  0  0
 24 25  2  0  0  0  0
 25 26  1  0  0  0  0
M  END
>  <CHROM.1>
118.98883468,-177.98462038,63.52090637,-172.15187375,-157.76321060,65.01980979
-14.02234471,-11.32586700,10.87280017,-23.30660045,-1.47573482,0.72422631
0.38114878

>  <Name>
ligand

>  <RI>
0

>  <Rbt.Current_Directory>
/home/itssahil/PROJECTS/Mol_Feturizer/New_Systems/rnas/3E5E

>  <Rbt.Executable>
rbdock ($Id: //depot/dev/client3/rdock/2013.1/src/exe/rbdock.cxx#4 $)

>  <Rbt.Library>
libRbt.so (2013.1, Build901 2013/11/27)

>  <Rbt.Parameter_File>
/export/apps/rDock/src/rDock_2013.1_src/data/scripts/dock_solv.prm

>  <Rbt.Receptor>
prm/blind_docking_60.prm

>  <SCORE>
-18.0477

>  <SCORE.INTER>
-13.0439

>  <SCORE.INTER.CONST>
1

>  <SCORE.INTER.POLAR>
0

>  <SCORE.INTER.ROT>
7

>  <SCORE.INTER.SOLV>
10.1893

>  <SCORE.INTER.VDW>
-20.359

>  <SCORE.INTER.norm>
-0.501688

>  <SCORE.INTRA>
-5.00383

>  <SCORE.INTRA.DIHEDRAL>
-6.36527

>  <SCORE.INTRA.DIHEDRAL.0>
10.1225

>  <SCORE.INTRA.POLAR>
0

>  <SCORE.INTRA.POLAR.0>
0

>  <SCORE.INTRA.REPUL>
0

>  <SCORE.INTRA.REPUL.0>
0

>  <SCORE.INTRA.SOLV>
-0.354483

>  <SCORE.INTRA.SOLV.lig_0>
-49.9393

>  <SCORE.INTRA.VDW>
-1.64395

>  <SCORE.INTRA.VDW.0>
-1.75437

>  <SCORE.INTRA.norm>
-0.192455

>  <SCORE.RESTR>
0

>  <SCORE.RESTR.CAVITY>
0

>  <SCORE.RESTR.norm>
0

>  <SCORE.SYSTEM>
0

>  <SCORE.SYSTEM.CONST>
0

>  <SCORE.SYSTEM.DIHEDRAL>
0

>  <SCORE.SYSTEM.SOLV>
0

>  <SCORE.SYSTEM.norm>
0

>  <SCORE.heavy>
26

>  <SCORE.norm>
-0.694142

>  <RMSD>
6.898

$$$$
ligand
 OpenBabel11021811473D
libRbt.so/2013.1/901 2013/11/27
 26 28  0  0  0  0  0  0  0  0999 V2000
  -10.8054   13.7743  -18.2282 N   0  0  0  0  0  0  0  0  0  0  0  0
   -9.8535   13.5959  -19.3317 C   0  0  2  0  0  0  0  0  0  0  0  0
   -8.5882   14.3546  -19.0293 C   0  0  0  0  0  0  0  0  0  0  0  0
   -7.9051   14.7768  -19.9327 O   0  0  0  0  0  0  0  0  0  0  0  0
  -10.4705   14.1267  -20.6268 C   0  0  0  0  0  0  0  0  0  0  0  0
  -11.8884   13.5790  -20.7786 C   0  0  0  0  0  0  0  0  0  0  0  0
  -12.6941   13.6691  -22.2709 S   0  0  0  0  0  0  0  0  0  0  0  0
  -12.3488   13.2958  -24.0094 C   0  0  0  0  0  0  0  0  0  0  0  0
  -10.8607   13.1559  -24.3524 C   0  0  1  0  0  0  0  0  0  0  0  0
  -10.1023   12.6462  -23.2707 O   0  0  0  0  0  0  0  0  0  0  0  0
  -10.6225   12.1402  -25.4447 C   0  0  1  0  0  0  0  0  0  0  0  0
   -9.3836   12.5029  -26.0140 O   0  0  0  0  0  0  0  0  0  0  0  0
  -10.4429   10.8224  -24.7275 C   0  0  1  0  0  0  0  0  0  0  0  0
   -9.4054   10.0865  -25.3379 O   0  0  0  0  0  0  0  0  0  0  0  0
  -10.0173   11.2350  -23.3350 C   0  0  2  0  0  0  0  0  0  0  0  0
   -8.2159   14.5608  -17.7553 O   0  0  0  0  0  0  0  0  0  0  0  0
  -14.7664    9.5156  -22.0298 N   0  0  0  0  0  0  0  0  0  0  0  0
  -14.3508   10.0232  -23.2380 C   0  0  0  0  0  0  0  0  0  0  0  0
  -13.0499   10.4402  -23.3859 N   0  0  0  0  0  0  0  0  0  0  0  0
  -12.1793   10.3549  -22.3612 C   0  0  0  0  0  0  0  0  0  0  0  0
  -12.5760    9.8469  -21.1384 C   0  0  0  0  0  0  0  0  0  0  0  0
  -13.8907    9.4255  -20.9773 C   0  0  0  0  0  0  0  0  0  0  0  0
  -14.3149    8.9352  -19.8192 N   0  0  0  0  0  0  0  0  0  0  0  0
  -11.5141    9.8777  -20.3026 N   0  0  0  0  0  0  0  0  0  0  0  0
  -10.4636   10.3864  -20.9756 C   0  0  0  0  0  0  0  0  0  0  0  0
  -10.8604   10.6986  -22.2509 N   0  0  0  0  0  0  0  0  0  0  0  0
  2  1  1  1  0  0  0
  2  3  1  0  0  0  0
  2  5  1  0  0  0  0
  3  4  1  0  0  0  0
  3 16  1  0  0  0  0
  5  6  1  0  0  0  0
  6  7  1  0  0  0  0
  7  8  1  0  0  0  0
  9  8  1  1  0  0  0
  9 10  1  0  0  0  0
  9 11  1  0  0  0  0
 10 15  1  0  0  0  0
 11 12  1  1  0  0  0
 11 13  1  0  0  0  0
 13 14  1  6  0  0  0
 13 15  1  0  0  0  0
 15 26  1  1  0  0  0
 17 18  2  0  0  0  0
 17 22  1  0  0  0  0
 18 19  1  0  0  0  0
 19 20  2  0  0  0  0
 20 21  1  0  0  0  0
 20 26  1  0  0  0  0
 21 22  2  0  0  0  0
 21 24  1  0  0  0  0
 22 23  1  0  0  0  0
 24 25  2  0  0  0  0
 25 26  1  0  0  0  0
M  END
>  <CHROM.1>
-151.76303079,-47.99992895,-164.99033366,48.14874890,-17.98013155,31.38553609
91.78689044,-11.21269613,11.98702676,-21.98894369,0.85799605,0.72150071,1.34633405

>  <Name>
ligand

>  <RI>
0

>  <Rbt.Current_Directory>
/home/itssahil/PROJECTS/Mol_Feturizer/New_Systems/rnas/3E5E

>  <Rbt.Executable>
rbdock ($Id: //depot/dev/client3/rdock/2013.1/src/exe/rbdock.cxx#4 $)

>  <Rbt.Library>
libRbt.so (2013.1, Build901 2013/11/27)

>  <Rbt.Parameter_File>
/export/apps/rDock/src/rDock_2013.1_src/data/scripts/dock_solv.prm

>  <Rbt.Receptor>
prm/pocket_docking_8.prm

>  <SCORE>
-21.781

>  <SCORE.INTER>
-19.2741

>  <SCORE.INTER.CONST>
1

>  <SCORE.INTER.POLAR>
0

>  <SCORE.INTER.ROT>
7

>  <SCORE.INTER.SOLV>
14.1731

>  <SCORE.INTER.VDW>
-25.8404

>  <SCORE.INTER.norm>
-0.741311

>  <SCORE.INTRA>
-2.50693

>  <SCORE.INTRA.DIHEDRAL>
-1.44747

>  <SCORE.INTRA.DIHEDRAL.0>
10.1225

>  <SCORE.INTRA.POLAR>
0

>  <SCORE.INTRA.POLAR.0>
0

>  <SCORE.INTRA.REPUL>
0

>  <SCORE.INTRA.REPUL.0>
0

>  <SCORE.INTRA.SOLV>
0.849069

>  <SCORE.INTRA.SOLV.lig_0>
-49.9393

>  <SCORE.INTRA.VDW>
-2.20773

>  <SCORE.INTRA.VDW.0>
-1.75437

>  <SCORE.INTRA.norm>
-0.0964205

>  <SCORE.RESTR>
0

>  <SCORE.RESTR.CAVITY>
0

>  <SCORE.RESTR.norm>
0

>  <SCORE.SYSTEM>
0

>  <SCORE.SYSTEM.CONST>
0

>  <SCORE.SYSTEM.DIHEDRAL>
0

>  <SCORE.SYSTEM.SOLV>
0

>  <SCORE.SYSTEM.norm>
0

>  <SCORE.heavy>
26

>  <SCORE.norm>
-0.837732

>  <RMSD>
6.956

$$$$
ligand
 OpenBabel11021811473D
libRbt.so/2013.1/901 2013/11/27
 26 28  0  0  0  0  0  0  0  0999 V2000
   -7.0187   16.3655  -20.5600 N   0  0  0  0  0  0  0  0  0  0  0  0
   -8.0446   16.0293  -19.5650 C   0  0  2  0  0  0  0  0  0  0  0  0
   -7.4085   15.9302  -18.2035 C   0  0  0  0  0  0  0  0  0  0  0  0
   -6.4002   15.2810  -18.0524 O   0  0  0  0  0  0  0  0  0  0  0  0
   -8.6859   14.6889  -19.9282 C   0  0  0  0  0  0  0  0  0  0  0  0
   -9.8343   14.3948  -18.9647 C   0  0  0  0  0  0  0  0  0  0  0  0
  -10.4364   12.8160  -18.7949 S   0  0  0  0  0  0  0  0  0  0  0  0
  -11.0682   11.4963  -19.8627 C   0  0  0  0  0  0  0  0  0  0  0  0
  -12.5589   11.6067  -20.2056 C   0  0  1  0  0  0  0  0  0  0  0  0
  -12.8653   12.7976  -20.9075 O   0  0  0  0  0  0  0  0  0  0  0  0
  -13.0039   10.5239  -21.1600 C   0  0  1  0  0  0  0  0  0  0  0  0
  -14.3943   10.4054  -20.9520 O   0  0  0  0  0  0  0  0  0  0  0  0
  -12.7819   11.0971  -22.5403 C   0  0  1  0  0  0  0  0  0  0  0  0
  -13.8601   10.7461  -23.3799 O   0  0  0  0  0  0  0  0  0  0  0  0
  -12.7909   12.5923  -22.3058 C   0  0  2  0  0  0  0  0  0  0  0  0
   -7.9624   16.5609  -17.1550 O   0  0  0  0  0  0  0  0  0  0  0  0
   -9.1707   12.8590  -26.0524 N   0  0  0  0  0  0  0  0  0  0  0  0
  -10.1927   11.9484  -25.9239 C   0  0  0  0  0  0  0  0  0  0  0  0
  -11.0458   12.0347  -24.8502 N   0  0  0  0  0  0  0  0  0  0  0  0
  -10.8919   13.0022  -23.9252 C   0  0  0  0  0  0  0  0  0  0  0  0
   -9.8718   13.9284  -24.0356 C   0  0  0  0  0  0  0  0  0  0  0  0
   -9.0013   13.8478  -25.1162 C   0  0  0  0  0  0  0  0  0  0  0  0
   -8.0058   14.7140  -25.2589 N   0  0  0  0  0  0  0  0  0  0  0  0
   -9.9511   14.7729  -22.9831 N   0  0  0  0  0  0  0  0  0  0  0  0
  -10.9989   14.4000  -22.2226 C   0  0  0  0  0  0  0  0  0  0  0  0
  -11.5877   13.2965  -22.7855 N   0  0  0  0  0  0  0  0  0  0  0  0
  2  1  1  6  0  0  0
  2  3  1  0  0  0  0
  2  5  1  0  0  0  0
  3  4  1  0  0  0  0
  3 16  1  0  0  0  0
  5  6  1  0  0  0  0
  6  7  1  0  0  0  0
  7  8  1  0  0  0  0
  9  8  1  6  0  0  0
  9 10  1  0  0  0  0
  9 11  1  0  0  0  0
 10 15  1  0  0  0  0
 11 12  1  1  0  0  0
 11 13  1  0  0  0  0
 13 14  1  6  0  0  0
 13 15  1  0  0  0  0
 15 26  1  1  0  0  0
 17 18  2  0  0  0  0
 17 22  1  0  0  0  0
 18 19  1  0  0  0  0
 19 20  2  0  0  0  0
 20 21  1  0  0  0  0
 20 26  1  0  0  0  0
 21 22  2  0  0  0  0
 21 24  1  0  0  0  0
 22 23  1  0  0  0  0
 24 25  2  0  0  0  0
 25 26  1  0  0  0  0
M  END
>  <CHROM.1>
-48.42613582,-175.15755270,-161.50735313,-53.07510016,-84.80766718,61.17063275
156.09416169,-10.40152140,13.35508387,-21.53092064,-0.73217462,-0.65985270
-1.66652598

>  <Name>
ligand

>  <RI>
0

>  <Rbt.Current_Directory>
/home/itssahil/PROJECTS/Mol_Feturizer/New_Systems/rnas/3E5E

>  <Rbt.Executable>
rbdock ($Id: //depot/dev/client3/rdock/2013.1/src/exe/rbdock.cxx#4 $)

>  <Rbt.Library>
libRbt.so (2013.1, Build901 2013/11/27)

>  <Rbt.Parameter_File>
/export/apps/rDock/src/rDock_2013.1_src/data/scripts/dock_solv.prm

>  <Rbt.Receptor>
prm/pocket_docking_6.prm

>  <SCORE>
-26.3871

>  <SCORE.INTER>
-21.9404

>  <SCORE.INTER.CONST>
1

>  <SCORE.INTER.POLAR>
0

>  <SCORE.INTER.ROT>
7

>  <SCORE.INTER.SOLV>
13.4673

>  <SCORE.INTER.VDW>
-27.3827

>  <SCORE.INTER.norm>
-0.84386

>  <SCORE.INTRA>
-4.44679

>  <SCORE.INTRA.DIHEDRAL>
-5.29593

>  <SCORE.INTRA.DIHEDRAL.0>
10.1225

>  <SCORE.INTRA.POLAR>
0

>  <SCORE.INTRA.POLAR.0>
0

>  <SCORE.INTRA.REPUL>
0

>  <SCORE.INTRA.REPUL.0>
0

>  <SCORE.INTRA.SOLV>
-0.509733

>  <SCORE.INTRA.SOLV.lig_0>
-49.9393

>  <SCORE.INTRA.VDW>
-1.54396

>  <SCORE.INTRA.VDW.0>
-1.75437

>  <SCORE.INTRA.norm>
-0.171031

>  <SCORE.RESTR>
0

>  <SCORE.RESTR.CAVITY>
0

>  <SCORE.RESTR.norm>
0

>  <SCORE.SYSTEM>
0

>  <SCORE.SYSTEM.CONST>
0

>  <SCORE.SYSTEM.DIHEDRAL>
0

>  <SCORE.SYSTEM.SOLV>
0

>  <SCORE.SYSTEM.norm>
0

>  <SCORE.heavy>
26

>  <SCORE.norm>
-1.01489

>  <RMSD>
7.099

$$$$
ligand
 OpenBabel11021811473D
libRbt.so/2013.1/901 2013/11/27
 26 28  0  0  0  0  0  0  0  0999 V2000
   -7.1435    9.8198  -26.4790 N   0  0  0  0  0  0  0  0  0  0  0  0
   -7.7674   10.3894  -25.2783 C   0  0  2  0  0  0  0  0  0  0  0  0
   -9.0418   11.0941  -25.6624 C   0  0  0  0  0  0  0  0  0  0  0  0
   -9.0232   11.9635  -26.5019 O   0  0  0  0  0  0  0  0  0  0  0  0
   -6.8066   11.3878  -24.6304 C   0  0  0  0  0  0  0  0  0  0  0  0
   -7.3440   11.7978  -23.2605 C   0  0  0  0  0  0  0  0  0  0  0  0
   -8.7939   12.6721  -23.1278 S   0  0  0  0  0  0  0  0  0  0  0  0
   -9.5863   14.0904  -23.9288 C   0  0  0  0  0  0  0  0  0  0  0  0
   -9.0064   15.4550  -23.5373 C   0  0  1  0  0  0  0  0  0  0  0  0
   -9.5422   15.9410  -22.3201 O   0  0  0  0  0  0  0  0  0  0  0  0
   -7.5247   15.3822  -23.2528 C   0  0  1  0  0  0  0  0  0  0  0  0
   -7.0511   16.6957  -23.4546 O   0  0  0  0  0  0  0  0  0  0  0  0
   -7.4197   15.0654  -21.7792 C   0  0  1  0  0  0  0  0  0  0  0  0
   -6.3717   15.8156  -21.2051 O   0  0  0  0  0  0  0  0  0  0  0  0
   -8.7443   15.5403  -21.2221 C   0  0  2  0  0  0  0  0  0  0  0  0
  -10.2000   10.7592  -25.0705 O   0  0  0  0  0  0  0  0  0  0  0  0
  -13.1512   12.7550  -21.0357 N   0  0  0  0  0  0  0  0  0  0  0  0
  -12.8055   13.7361  -21.9346 C   0  0  0  0  0  0  0  0  0  0  0  0
  -11.5931   14.3709  -21.8112 N   0  0  0  0  0  0  0  0  0  0  0  0
  -10.7411   14.0407  -20.8212 C   0  0  0  0  0  0  0  0  0  0  0  0
  -11.0684   13.0567  -19.9073 C   0  0  0  0  0  0  0  0  0  0  0  0
  -12.2938   12.4106  -20.0212 C   0  0  0  0  0  0  0  0  0  0  0  0
  -12.6499   11.4628  -19.1631 N   0  0  0  0  0  0  0  0  0  0  0  0
  -10.0442   12.9326  -19.0339 N   0  0  0  0  0  0  0  0  0  0  0  0
   -9.0840   13.8104  -19.3842 C   0  0  0  0  0  0  0  0  0  0  0  0
   -9.5035   14.5143  -20.4839 N   0  0  0  0  0  0  0  0  0  0  0  0
  2  1  1  6  0  0  0
  2  3  1  0  0  0  0
  2  5  1  0  0  0  0
  3  4  1  0  0  0  0
  3 16  1  0  0  0  0
  5  6  1  0  0  0  0
  6  7  1  0  0  0  0
  7  8  1  0  0  0  0
  9  8  1  1  0  0  0
  9 10  1  0  0  0  0
  9 11  1  0  0  0  0
 10 15  1  0  0  0  0
 11 12  1  1  0  0  0
 11 13  1  0  0  0  0
 13 14  1  1  0  0  0
 13 15  1  0  0  0  0
 15 26  1  6  0  0  0
 17 18  2  0  0  0  0
 17 22  1  0  0  0  0
 18 19  1  0  0  0  0
 19 20  2  0  0  0  0
 20 21  1  0  0  0  0
 20 26  1  0  0  0  0
 21 22  2  0  0  0  0
 21 24  1  0  0  0  0
 22 23  1  0  0  0  0
 24 25  2  0  0  0  0
 25 26  1  0  0  0  0
M  END
>  <CHROM.1>
-55.52897990,-170.21340449,-65.46255988,-44.75600258,-75.22405489,-82.77648578
0.62848500,-9.31267421,13.33249647,-22.56858692,0.92693339,-0.64256611,-2.40355973

>  <Name>
ligand

>  <RI>
0

>  <Rbt.Current_Directory>
/home/itssahil/PROJECTS/Mol_Feturizer/New_Systems/rnas/3E5E

>  <Rbt.Executable>
rbdock ($Id: //depot/dev/client3/rdock/2013.1/src/exe/rbdock.cxx#4 $)

>  <Rbt.Library>
libRbt.so (2013.1, Build901 2013/11/27)

>  <Rbt.Parameter_File>
/export/apps/rDock/src/rDock_2013.1_src/data/scripts/dock_solv.prm

>  <Rbt.Receptor>
prm/pocket_docking_8.prm

>  <SCORE>
-16.4177

>  <SCORE.INTER>
-12.7661

>  <SCORE.INTER.CONST>
1

>  <SCORE.INTER.POLAR>
0

>  <SCORE.INTER.ROT>
7

>  <SCORE.INTER.SOLV>
11.6862

>  <SCORE.INTER.VDW>
-20.6728

>  <SCORE.INTER.norm>
-0.491003

>  <SCORE.INTRA>
-3.65164

>  <SCORE.INTRA.DIHEDRAL>
-4.60534

>  <SCORE.INTRA.DIHEDRAL.0>
10.1225

>  <SCORE.INTRA.POLAR>
0

>  <SCORE.INTRA.POLAR.0>
0

>  <SCORE.INTRA.REPUL>
0

>  <SCORE.INTRA.REPUL.0>
0

>  <SCORE.INTRA.SOLV>
0.0857255

>  <SCORE.INTRA.SOLV.lig_0>
-49.9393

>  <SCORE.INTRA.VDW>
-1.39183

>  <SCORE.INTRA.VDW.0>
-1.75437

>  <SCORE.INTRA.norm>
-0.140448

>  <SCORE.RESTR>
0

>  <SCORE.RESTR.CAVITY>
0

>  <SCORE.RESTR.norm>
0

>  <SCORE.SYSTEM>
0

>  <SCORE.SYSTEM.CONST>
0

>  <SCORE.SYSTEM.DIHEDRAL>
0

>  <SCORE.SYSTEM.SOLV>
0

>  <SCORE.SYSTEM.norm>
0

>  <SCORE.heavy>
26

>  <SCORE.norm>
-0.631451

>  <RMSD>
7.134

$$$$
ligand
 OpenBabel11021811473D
libRbt.so/2013.1/901 2013/11/27
 26 28  0  0  0  0  0  0  0  0999 V2000
  -12.6982   11.8790  -21.3214 N   0  0  0  0  0  0  0  0  0  0  0  0
  -12.0790   13.2043  -21.4467 C   0  0  2  0  0  0  0  0  0  0  0  0
  -12.2220   13.9490  -20.1455 C   0  0  0  0  0  0  0  0  0  0  0  0
  -13.3127   14.3141  -19.7739 O   0  0  0  0  0  0  0  0  0  0  0  0
  -12.7734   13.9871  -22.5625 C   0  0  0  0  0  0  0  0  0  0  0  0
  -12.6930   13.1962  -23.8670 C   0  0  0  0  0  0  0  0  0  0  0  0
  -11.2094   13.0045  -24.6708 S   0  0  0  0  0  0  0  0  0  0  0  0
   -9.5893   12.2634  -24.3435 C   0  0  0  0  0  0  0  0  0  0  0  0
   -9.0438   12.5110  -22.9318 C   0  0  1  0  0  0  0  0  0  0  0  0
   -7.8005   11.8699  -22.7126 O   0  0  0  0  0  0  0  0  0  0  0  0
   -8.7230   13.9678  -22.6942 C   0  0  1  0  0  0  0  0  0  0  0  0
   -8.7759   14.1276  -21.2935 O   0  0  0  0  0  0  0  0  0  0  0  0
   -7.2866   14.1334  -23.1328 C   0  0  1  0  0  0  0  0  0  0  0  0
   -6.6076   14.9768  -22.2281 O   0  0  0  0  0  0  0  0  0  0  0  0
   -6.7250   12.7315  -23.0344 C   0  0  2  0  0  0  0  0  0  0  0  0
  -11.1374   14.2106  -19.3978 O   0  0  0  0  0  0  0  0  0  0  0  0
   -6.9779    9.1033  -26.7742 N   0  0  0  0  0  0  0  0  0  0  0  0
   -7.7649    9.2220  -25.6532 C   0  0  0  0  0  0  0  0  0  0  0  0
   -7.5342   10.2484  -24.7693 N   0  0  0  0  0  0  0  0  0  0  0  0
   -6.5475   11.1386  -24.9909 C   0  0  0  0  0  0  0  0  0  0  0  0
   -5.7451   11.0383  -26.1120 C   0  0  0  0  0  0  0  0  0  0  0  0
   -5.9681   10.0017  -27.0108 C   0  0  0  0  0  0  0  0  0  0  0  0
   -5.2188    9.8657  -28.0978 N   0  0  0  0  0  0  0  0  0  0  0  0
   -4.8480   12.0490  -26.0823 N   0  0  0  0  0  0  0  0  0  0  0  0
   -5.0751   12.7805  -24.9739 C   0  0  0  0  0  0  0  0  0  0  0  0
   -6.1183   12.2242  -24.2788 N   0  0  0  0  0  0  0  0  0  0  0  0
  2  1  1  1  0  0  0
  2  3  1  0  0  0  0
  2  5  1  0  0  0  0
  3  4  1  0  0  0  0
  3 16  1  0  0  0  0
  5  6  1  0  0  0  0
  6  7  1  0  0  0  0
  7  8  1  0  0  0  0
  9  8  1  6  0  0  0
  9 10  1  0  0  0  0
  9 11  1  0  0  0  0
 10 15  1  0  0  0  0
 11 12  1  1  0  0  0
 11 13  1  0  0  0  0
 13 14  1  1  0  0  0
 13 15  1  0  0  0  0
 15 26  1  6  0  0  0
 17 18  2  0  0  0  0
 17 22  1  0  0  0  0
 18 19  1  0  0  0  0
 19 20  2  0  0  0  0
 20 21  1  0  0  0  0
 20 26  1  0  0  0  0
 21 22  2  0  0  0  0
 21 24  1  0  0  0  0
 22 23  1  0  0  0  0
 24 25  2  0  0  0  0
 25 26  1  0  0  0  0
M  END
>  <CHROM.1>
-68.39244450,-57.05273691,-69.88978656,61.79106831,-41.83581733,177.79574573
1.29510229,-8.82499728,12.47537132,-23.58451392,2.39341895,0.12993177,0.88800905

>  <Name>
ligand

>  <RI>
0

>  <Rbt.Current_Directory>
/home/itssahil/PROJECTS/Mol_Feturizer/New_Systems/rnas/3E5E

>  <Rbt.Executable>
rbdock ($Id: //depot/dev/client3/rdock/2013.1/src/exe/rbdock.cxx#4 $)

>  <Rbt.Library>
libRbt.so (2013.1, Build901 2013/11/27)

>  <Rbt.Parameter_File>
/export/apps/rDock/src/rDock_2013.1_src/data/scripts/dock_solv.prm

>  <Rbt.Receptor>
prm/blind_docking_80.prm

>  <SCORE>
-18.3738

>  <SCORE.INTER>
-14.8873

>  <SCORE.INTER.CONST>
1

>  <SCORE.INTER.POLAR>
0

>  <SCORE.INTER.ROT>
7

>  <SCORE.INTER.SOLV>
10.0426

>  <SCORE.INTER.VDW>
-21.5391

>  <SCORE.INTER.norm>
-0.572589

>  <SCORE.INTRA>
-3.53637

>  <SCORE.INTRA.DIHEDRAL>
-6.50956

>  <SCORE.INTRA.DIHEDRAL.0>
10.1225

>  <SCORE.INTRA.POLAR>
0

>  <SCORE.INTRA.POLAR.0>
0

>  <SCORE.INTRA.REPUL>
0

>  <SCORE.INTRA.REPUL.0>
0

>  <SCORE.INTRA.SOLV>
1.89737

>  <SCORE.INTRA.SOLV.lig_0>
-49.9393

>  <SCORE.INTRA.VDW>
-1.23027

>  <SCORE.INTRA.VDW.0>
-1.75437

>  <SCORE.INTRA.norm>
-0.136014

>  <SCORE.RESTR>
0.0498443

>  <SCORE.RESTR.CAVITY>
0.0498443

>  <SCORE.RESTR.norm>
0.00191709

>  <SCORE.SYSTEM>
0

>  <SCORE.SYSTEM.CONST>
0

>  <SCORE.SYSTEM.DIHEDRAL>
0

>  <SCORE.SYSTEM.SOLV>
0

>  <SCORE.SYSTEM.norm>
0

>  <SCORE.heavy>
26

>  <SCORE.norm>
-0.706686

>  <RMSD>
7.148

$$$$
ligand
 OpenBabel11021811473D
libRbt.so/2013.1/901 2013/11/27
 26 28  0  0  0  0  0  0  0  0999 V2000
  -12.7626    6.4509  -24.0145 N   0  0  0  0  0  0  0  0  0  0  0  0
  -11.5851    6.6952  -24.8567 C   0  0  2  0  0  0  0  0  0  0  0  0
  -10.7580    5.4392  -24.9376 C   0  0  0  0  0  0  0  0  0  0  0  0
  -10.7134    4.6822  -23.9964 O   0  0  0  0  0  0  0  0  0  0  0  0
  -10.7474    7.8202  -24.2464 C   0  0  0  0  0  0  0  0  0  0  0  0
  -11.5615    9.1128  -24.2326 C   0  0  0  0  0  0  0  0  0  0  0  0
  -10.8928   10.5482  -23.6191 S   0  0  0  0  0  0  0  0  0  0  0  0
  -10.2184   11.1540  -22.0508 C   0  0  0  0  0  0  0  0  0  0  0  0
  -10.4408   12.6490  -21.7916 C   0  0  1  0  0  0  0  0  0  0  0  0
  -11.8064   12.9659  -21.5928 O   0  0  0  0  0  0  0  0  0  0  0  0
   -9.7939   13.1049  -20.5051 C   0  0  1  0  0  0  0  0  0  0  0  0
   -9.5975   14.4923  -20.6690 O   0  0  0  0  0  0  0  0  0  0  0  0
  -10.8455   12.9012  -19.4394 C   0  0  1  0  0  0  0  0  0  0  0  0
  -10.8297   13.9895  -18.5417 O   0  0  0  0  0  0  0  0  0  0  0  0
  -12.1425   12.9091  -20.2192 C   0  0  2  0  0  0  0  0  0  0  0  0
  -10.0667    5.1601  -26.0549 O   0  0  0  0  0  0  0  0  0  0  0  0
  -14.8391    9.1201  -22.5826 N   0  0  0  0  0  0  0  0  0  0  0  0
  -14.1724   10.1740  -23.1612 C   0  0  0  0  0  0  0  0  0  0  0  0
  -13.5242   11.0855  -22.3631 N   0  0  0  0  0  0  0  0  0  0  0  0
  -13.5342   10.9557  -21.0221 C   0  0  0  0  0  0  0  0  0  0  0  0
  -14.1975    9.9032  -20.4199 C   0  0  0  0  0  0  0  0  0  0  0  0
  -14.8592    8.9774  -21.2180 C   0  0  0  0  0  0  0  0  0  0  0  0
  -15.5119    7.9539  -20.6812 N   0  0  0  0  0  0  0  0  0  0  0  0
  -14.0464   10.0179  -19.0814 N   0  0  0  0  0  0  0  0  0  0  0  0
  -13.3002   11.1122  -18.8347 C   0  0  0  0  0  0  0  0  0  0  0  0
  -12.9827   11.7129  -20.0260 N   0  0  0  0  0  0  0  0  0  0  0  0
  2  1  1  1  0  0  0
  2  3  1  0  0  0  0
  2  5  1  0  0  0  0
  3  4  1  0  0  0  0
  3 16  1  0  0  0  0
  5  6  1  0  0  0  0
  6  7  1  0  0  0  0
  7  8  1  0  0  0  0
  9  8  1  1  0  0  0
  9 10  1  0  0  0  0
  9 11  1  0  0  0  0
 10 15  1  0  0  0  0
 11 12  1  6  0  0  0
 11 13  1  0  0  0  0
 13 14  1  1  0  0  0
 13 15  1  0  0  0  0
 15 26  1  6  0  0  0
 17 18  2  0  0  0  0
 17 22  1  0  0  0  0
 18 19  1  0  0  0  0
 19 20  2  0  0  0  0
 20 21  1  0  0  0  0
 20 26  1  0  0  0  0
 21 22  2  0  0  0  0
 21 24  1  0  0  0  0
 22 23  1  0  0  0  0
 24 25  2  0  0  0  0
 25 26  1  0  0  0  0
M  END
>  <CHROM.1>
-32.59086336,-63.03765139,-179.62992903,-60.41125472,-148.20949595,67.41703052
-11.15462280,-12.01541889,10.07024675,-22.03509904,1.56133971,-0.49118722
-2.54843943

>  <Name>
ligand

>  <RI>
0

>  <Rbt.Current_Directory>
/home/itssahil/PROJECTS/Mol_Feturizer/New_Systems/rnas/3E5E

>  <Rbt.Executable>
rbdock ($Id: //depot/dev/client3/rdock/2013.1/src/exe/rbdock.cxx#4 $)

>  <Rbt.Library>
libRbt.so (2013.1, Build901 2013/11/27)

>  <Rbt.Parameter_File>
/export/apps/rDock/src/rDock_2013.1_src/data/scripts/dock_solv.prm

>  <Rbt.Receptor>
prm/blind_docking_100.prm

>  <SCORE>
-17.3294

>  <SCORE.INTER>
-13.3315

>  <SCORE.INTER.CONST>
1

>  <SCORE.INTER.POLAR>
0

>  <SCORE.INTER.ROT>
7

>  <SCORE.INTER.SOLV>
7.15392

>  <SCORE.INTER.VDW>
-19.5389

>  <SCORE.INTER.norm>
-0.512749

>  <SCORE.INTRA>
-3.99791

>  <SCORE.INTRA.DIHEDRAL>
-5.81365

>  <SCORE.INTRA.DIHEDRAL.0>
10.1225

>  <SCORE.INTRA.POLAR>
0

>  <SCORE.INTRA.POLAR.0>
0

>  <SCORE.INTRA.REPUL>
0

>  <SCORE.INTRA.REPUL.0>
0

>  <SCORE.INTRA.SOLV>
0.475788

>  <SCORE.INTRA.SOLV.lig_0>
-49.9393

>  <SCORE.INTRA.VDW>
-1.32897

>  <SCORE.INTRA.VDW.0>
-1.75437

>  <SCORE.INTRA.norm>
-0.153766

>  <SCORE.RESTR>
0

>  <SCORE.RESTR.CAVITY>
0

>  <SCORE.RESTR.norm>
0

>  <SCORE.SYSTEM>
0

>  <SCORE.SYSTEM.CONST>
0

>  <SCORE.SYSTEM.DIHEDRAL>
0

>  <SCORE.SYSTEM.SOLV>
0

>  <SCORE.SYSTEM.norm>
0

>  <SCORE.heavy>
26

>  <SCORE.norm>
-0.666514

>  <RMSD>
7.181

$$$$
ligand
 OpenBabel11021811473D
libRbt.so/2013.1/901 2013/11/27
 26 28  0  0  0  0  0  0  0  0999 V2000
   -6.6736   16.1020  -20.5005 N   0  0  0  0  0  0  0  0  0  0  0  0
   -7.7886   15.9461  -19.5582 C   0  0  2  0  0  0  0  0  0  0  0  0
   -7.2577   15.9505  -18.1488 C   0  0  0  0  0  0  0  0  0  0  0  0
   -6.2060   15.4107  -17.8967 O   0  0  0  0  0  0  0  0  0  0  0  0
   -8.5039   14.6218  -19.8307 C   0  0  0  0  0  0  0  0  0  0  0  0
   -9.7564   14.5299  -18.9609 C   0  0  0  0  0  0  0  0  0  0  0  0
  -10.5590   13.0473  -18.7563 S   0  0  0  0  0  0  0  0  0  0  0  0
  -10.8459   11.5319  -19.7062 C   0  0  0  0  0  0  0  0  0  0  0  0
  -12.3007   11.0472  -19.7172 C   0  0  1  0  0  0  0  0  0  0  0  0
  -13.1324   11.8518  -20.5332 O   0  0  0  0  0  0  0  0  0  0  0  0
  -12.4382    9.6764  -20.3364 C   0  0  1  0  0  0  0  0  0  0  0  0
  -13.6349    9.1546  -19.8016 O   0  0  0  0  0  0  0  0  0  0  0  0
  -12.6522    9.9279  -21.8109 C   0  0  1  0  0  0  0  0  0  0  0  0
  -13.6280    9.0384  -22.3082 O   0  0  0  0  0  0  0  0  0  0  0  0
  -13.1903   11.3418  -21.8521 C   0  0  2  0  0  0  0  0  0  0  0  0
   -7.9534   16.5519  -17.1700 O   0  0  0  0  0  0  0  0  0  0  0  0
   -8.4753   12.5727  -23.7142 N   0  0  0  0  0  0  0  0  0  0  0  0
   -8.8012   11.5817  -22.8188 C   0  0  0  0  0  0  0  0  0  0  0  0
  -10.1107   11.4189  -22.4356 N   0  0  0  0  0  0  0  0  0  0  0  0
  -11.0764   12.2182  -22.9293 C   0  0  0  0  0  0  0  0  0  0  0  0
  -10.7709   13.2200  -23.8313 C   0  0  0  0  0  0  0  0  0  0  0  0
   -9.4487   13.3952  -24.2228 C   0  0  0  0  0  0  0  0  0  0  0  0
   -9.1105   14.3473  -25.0835 N   0  0  0  0  0  0  0  0  0  0  0  0
  -11.9160   13.8605  -24.1566 N   0  0  0  0  0  0  0  0  0  0  0  0
  -12.9286   13.2789  -23.4847 C   0  0  0  0  0  0  0  0  0  0  0  0
  -12.4252   12.2654  -22.7097 N   0  0  0  0  0  0  0  0  0  0  0  0
  2  1  1  6  0  0  0
  2  3  1  0  0  0  0
  2  5  1  0  0  0  0
  3  4  1  0  0  0  0
  3 16  1  0  0  0  0
  5  6  1  0  0  0  0
  6  7  1  0  0  0  0
  7  8  1  0  0  0  0
  9  8  1  6  0  0  0
  9 10  1  0  0  0  0
  9 11  1  0  0  0  0
 10 15  1  0  0  0  0
 11 12  1  1  0  0  0
 11 13  1  0  0  0  0
 13 14  1  1  0  0  0
 13 15  1  0  0  0  0
 15 26  1  6  0  0  0
 17 18  2  0  0  0  0
 17 22  1  0  0  0  0
 18 19  1  0  0  0  0
 19 20  2  0  0  0  0
 20 21  1  0  0  0  0
 20 26  1  0  0  0  0
 21 22  2  0  0  0  0
 21 24  1  0  0  0  0
 22 23  1  0  0  0  0
 24 25  2  0  0  0  0
 25 26  1  0  0  0  0
M  END
>  <CHROM.1>
-37.69066413,-173.61946651,-165.43884401,-30.79469736,-132.70741718,73.39895421
86.27343200,-10.45980020,12.84289998,-21.04164109,-0.39987783,-0.76365385
-1.56210168

>  <Name>
ligand

>  <RI>
0

>  <Rbt.Current_Directory>
/home/itssahil/PROJECTS/Mol_Feturizer/New_Systems/rnas/3E5E

>  <Rbt.Executable>
rbdock ($Id: //depot/dev/client3/rdock/2013.1/src/exe/rbdock.cxx#4 $)

>  <Rbt.Library>
libRbt.so (2013.1, Build901 2013/11/27)

>  <Rbt.Parameter_File>
/export/apps/rDock/src/rDock_2013.1_src/data/scripts/dock_solv.prm

>  <Rbt.Receptor>
prm/pocket_docking_4.prm

>  <SCORE>
-22.58

>  <SCORE.INTER>
-19.9101

>  <SCORE.INTER.CONST>
1

>  <SCORE.INTER.POLAR>
0

>  <SCORE.INTER.ROT>
7

>  <SCORE.INTER.SOLV>
14.1257

>  <SCORE.INTER.VDW>
-26.2486

>  <SCORE.INTER.norm>
-0.765772

>  <SCORE.INTRA>
-2.66993

>  <SCORE.INTRA.DIHEDRAL>
-2.4785

>  <SCORE.INTRA.DIHEDRAL.0>
10.1225

>  <SCORE.INTRA.POLAR>
0

>  <SCORE.INTRA.POLAR.0>
0

>  <SCORE.INTRA.REPUL>
0

>  <SCORE.INTRA.REPUL.0>
0

>  <SCORE.INTRA.SOLV>
-0.624778

>  <SCORE.INTRA.SOLV.lig_0>
-49.9393

>  <SCORE.INTRA.VDW>
-1.11829

>  <SCORE.INTRA.VDW.0>
-1.75437

>  <SCORE.INTRA.norm>
-0.10269

>  <SCORE.RESTR>
0

>  <SCORE.RESTR.CAVITY>
0

>  <SCORE.RESTR.norm>
0

>  <SCORE.SYSTEM>
0

>  <SCORE.SYSTEM.CONST>
0

>  <SCORE.SYSTEM.DIHEDRAL>
0

>  <SCORE.SYSTEM.SOLV>
0

>  <SCORE.SYSTEM.norm>
0

>  <SCORE.heavy>
26

>  <SCORE.norm>
-0.868462

>  <RMSD>
7.187

$$$$
ligand
 OpenBabel11021811473D
libRbt.so/2013.1/901 2013/11/27
 26 28  0  0  0  0  0  0  0  0999 V2000
   -9.1962   13.4181  -21.2271 N   0  0  0  0  0  0  0  0  0  0  0  0
   -9.5050   14.4278  -20.2069 C   0  0  2  0  0  0  0  0  0  0  0  0
   -8.3609   15.4017  -20.1036 C   0  0  0  0  0  0  0  0  0  0  0  0
   -8.3211   16.3677  -20.8291 O   0  0  0  0  0  0  0  0  0  0  0  0
   -9.7138   13.7397  -18.8568 C   0  0  0  0  0  0  0  0  0  0  0  0
  -11.0000   12.9165  -18.8971 C   0  0  0  0  0  0  0  0  0  0  0  0
  -11.0749   11.4744  -19.7909 S   0  0  0  0  0  0  0  0  0  0  0  0
  -12.0394    9.9412  -19.7902 C   0  0  0  0  0  0  0  0  0  0  0  0
  -13.5329   10.1225  -20.0876 C   0  0  1  0  0  0  0  0  0  0  0  0
  -13.7621   10.8747  -21.2651 O   0  0  0  0  0  0  0  0  0  0  0  0
  -14.2169    8.8087  -20.3834 C   0  0  1  0  0  0  0  0  0  0  0  0
  -15.5787    9.0345  -20.0921 O   0  0  0  0  0  0  0  0  0  0  0  0
  -14.0803    8.6186  -21.8761 C   0  0  1  0  0  0  0  0  0  0  0  0
  -15.2820    8.0979  -22.4009 O   0  0  0  0  0  0  0  0  0  0  0  0
  -13.8723   10.0260  -22.3923 C   0  0  2  0  0  0  0  0  0  0  0  0
   -7.3820   15.1966  -19.2071 O   0  0  0  0  0  0  0  0  0  0  0  0
  -10.6224   13.4943  -24.5425 N   0  0  0  0  0  0  0  0  0  0  0  0
  -11.7828   13.7376  -23.8465 C   0  0  0  0  0  0  0  0  0  0  0  0
  -12.5168   12.6813  -23.3632 N   0  0  0  0  0  0  0  0  0  0  0  0
  -12.1102   11.4124  -23.5628 C   0  0  0  0  0  0  0  0  0  0  0  0
  -10.9464   11.1455  -24.2590 C   0  0  0  0  0  0  0  0  0  0  0  0
  -10.1983   12.2067  -24.7550 C   0  0  0  0  0  0  0  0  0  0  0  0
   -9.0766   11.9955  -25.4325 N   0  0  0  0  0  0  0  0  0  0  0  0
  -10.7817    9.8047  -24.3101 N   0  0  0  0  0  0  0  0  0  0  0  0
  -11.8107    9.2295  -23.6577 C   0  0  0  0  0  0  0  0  0  0  0  0
  -12.6508   10.2108  -23.1971 N   0  0  0  0  0  0  0  0  0  0  0  0
  2  1  1  6  0  0  0
  2  3  1  0  0  0  0
  2  5  1  0  0  0  0
  3  4  1  0  0  0  0
  3 16  1  0  0  0  0
  5  6  1  0  0  0  0
  6  7  1  0  0  0  0
  7  8  1  0  0  0  0
  9  8  1  6  0  0  0
  9 10  1  0  0  0  0
  9 11  1  0  0  0  0
 10 15  1  0  0  0  0
 11 12  1  6  0  0  0
 11 13  1  0  0  0  0
 13 14  1  6  0  0  0
 13 15  1  0  0  0  0
 15 26  1  1  0  0  0
 17 18  2  0  0  0  0
 17 22  1  0  0  0  0
 18 19  1  0  0  0  0
 19 20  2  0  0  0  0
 20 21  1  0  0  0  0
 20 26  1  0  0  0  0
 21 22  2  0  0  0  0
 21 24  1  0  0  0  0
 22 23  1  0  0  0  0
 24 25  2  0  0  0  0
 25 26  1  0  0  0  0
M  END
>  <CHROM.1>
87.12742798,-68.69396088,72.32083056,155.94661106,64.10710633,51.42113929
-48.21993535,-11.50983112,11.70332729,-21.69325651,-0.27244365,-0.78169460
-1.73642260

>  <Name>
ligand

>  <RI>
0

>  <Rbt.Current_Directory>
/home/itssahil/PROJECTS/Mol_Feturizer/New_Systems/rnas/3E5E

>  <Rbt.Executable>
rbdock ($Id: //depot/dev/client3/rdock/2013.1/src/exe/rbdock.cxx#4 $)

>  <Rbt.Library>
libRbt.so (2013.1, Build901 2013/11/27)

>  <Rbt.Parameter_File>
/export/apps/rDock/src/rDock_2013.1_src/data/scripts/dock_solv.prm

>  <Rbt.Receptor>
prm/blind_docking_40.prm

>  <SCORE>
-21.2417

>  <SCORE.INTER>
-18.2232

>  <SCORE.INTER.CONST>
1

>  <SCORE.INTER.POLAR>
0

>  <SCORE.INTER.ROT>
7

>  <SCORE.INTER.SOLV>
8.51662

>  <SCORE.INTER.VDW>
-23.2544

>  <SCORE.INTER.norm>
-0.700894

>  <SCORE.INTRA>
-3.01848

>  <SCORE.INTRA.DIHEDRAL>
-5.42319

>  <SCORE.INTRA.DIHEDRAL.0>
10.1225

>  <SCORE.INTRA.POLAR>
0

>  <SCORE.INTRA.POLAR.0>
0

>  <SCORE.INTRA.REPUL>
0

>  <SCORE.INTRA.REPUL.0>
0

>  <SCORE.INTRA.SOLV>
1.8282

>  <SCORE.INTRA.SOLV.lig_0>
-49.9393

>  <SCORE.INTRA.VDW>
-1.22098

>  <SCORE.INTRA.VDW.0>
-1.75437

>  <SCORE.INTRA.norm>
-0.116095

>  <SCORE.RESTR>
0

>  <SCORE.RESTR.CAVITY>
0

>  <SCORE.RESTR.norm>
0

>  <SCORE.SYSTEM>
0

>  <SCORE.SYSTEM.CONST>
0

>  <SCORE.SYSTEM.DIHEDRAL>
0

>  <SCORE.SYSTEM.SOLV>
0

>  <SCORE.SYSTEM.norm>
0

>  <SCORE.heavy>
26

>  <SCORE.norm>
-0.816989

>  <RMSD>
7.229

$$$$
ligand
 OpenBabel11021811473D
libRbt.so/2013.1/901 2013/11/27
 26 28  0  0  0  0  0  0  0  0999 V2000
   -4.3756   13.9776  -23.6727 N   0  0  0  0  0  0  0  0  0  0  0  0
   -5.2306   12.7952  -23.8356 C   0  0  2  0  0  0  0  0  0  0  0  0
   -5.2766   12.4069  -25.2900 C   0  0  0  0  0  0  0  0  0  0  0  0
   -4.9011   13.1842  -26.1361 O   0  0  0  0  0  0  0  0  0  0  0  0
   -6.6440   13.1181  -23.3480 C   0  0  0  0  0  0  0  0  0  0  0  0
   -7.4542   11.8276  -23.2409 C   0  0  0  0  0  0  0  0  0  0  0  0
   -9.0734   11.8641  -22.7300 S   0  0  0  0  0  0  0  0  0  0  0  0
  -10.2011   10.8285  -21.7621 C   0  0  0  0  0  0  0  0  0  0  0  0
  -11.6803   11.2195  -21.8665 C   0  0  1  0  0  0  0  0  0  0  0  0
  -11.9685   12.4300  -21.1908 O   0  0  0  0  0  0  0  0  0  0  0  0
  -12.0903   11.5170  -23.2895 C   0  0  1  0  0  0  0  0  0  0  0  0
  -13.4862   11.3139  -23.3154 O   0  0  0  0  0  0  0  0  0  0  0  0
  -11.8259   12.9928  -23.4772 C   0  0  1  0  0  0  0  0  0  0  0  0
  -12.8751   13.5728  -24.2212 O   0  0  0  0  0  0  0  0  0  0  0  0
  -11.8482   13.5364  -22.0650 C   0  0  2  0  0  0  0  0  0  0  0  0
   -5.7373   11.1974  -25.6488 O   0  0  0  0  0  0  0  0  0  0  0  0
   -8.3624   14.3656  -18.2735 N   0  0  0  0  0  0  0  0  0  0  0  0
   -9.4829   13.5700  -18.2360 C   0  0  0  0  0  0  0  0  0  0  0  0
  -10.2934   13.4891  -19.3426 N   0  0  0  0  0  0  0  0  0  0  0  0
  -10.0002   14.1790  -20.4621 C   0  0  0  0  0  0  0  0  0  0  0  0
   -8.8781   14.9840  -20.5215 C   0  0  0  0  0  0  0  0  0  0  0  0
   -8.0535   15.0754  -19.4064 C   0  0  0  0  0  0  0  0  0  0  0  0
   -6.9684   15.8397  -19.4187 N   0  0  0  0  0  0  0  0  0  0  0  0
   -8.8288   15.5516  -21.7474 N   0  0  0  0  0  0  0  0  0  0  0  0
   -9.8887   15.1157  -22.4557 C   0  0  0  0  0  0  0  0  0  0  0  0
  -10.6327   14.2722  -21.6708 N   0  0  0  0  0  0  0  0  0  0  0  0
  2  1  1  6  0  0  0
  2  3  1  0  0  0  0
  2  5  1  0  0  0  0
  3  4  1  0  0  0  0
  3 16  1  0  0  0  0
  5  6  1  0  0  0  0
  6  7  1  0  0  0  0
  7  8  1  0  0  0  0
  9  8  1  6  0  0  0
  9 10  1  0  0  0  0
  9 11  1  0  0  0  0
 10 15  1  0  0  0  0
 11 12  1  1  0  0  0
 11 13  1  0  0  0  0
 13 14  1  6  0  0  0
 13 15  1  0  0  0  0
 15 26  1  1  0  0  0
 17 18  2  0  0  0  0
 17 22  1  0  0  0  0
 18 19  1  0  0  0  0
 19 20  2  0  0  0  0
 20 21  1  0  0  0  0
 20 26  1  0  0  0  0
 21 22  2  0  0  0  0
 21 24  1  0  0  0  0
 22 23  1  0  0  0  0
 24 25  2  0  0  0  0
 25 26  1  0  0  0  0
M  END
>  <CHROM.1>
-15.24728457,-168.28474663,-179.67352453,-145.08663795,-167.39451472,-71.46573717
-19.32237860,-9.09388926,13.12868799,-22.28162361,-0.38687543,0.21717168
1.06660146

>  <Name>
ligand

>  <RI>
0

>  <Rbt.Current_Directory>
/home/itssahil/PROJECTS/Mol_Feturizer/New_Systems/rnas/3E5E

>  <Rbt.Executable>
rbdock ($Id: //depot/dev/client3/rdock/2013.1/src/exe/rbdock.cxx#4 $)

>  <Rbt.Library>
libRbt.so (2013.1, Build901 2013/11/27)

>  <Rbt.Parameter_File>
/export/apps/rDock/src/rDock_2013.1_src/data/scripts/dock_solv.prm

>  <Rbt.Receptor>
prm/blind_docking_80.prm

>  <SCORE>
-18.4208

>  <SCORE.INTER>
-14.6836

>  <SCORE.INTER.CONST>
1

>  <SCORE.INTER.POLAR>
0

>  <SCORE.INTER.ROT>
7

>  <SCORE.INTER.SOLV>
17.8561

>  <SCORE.INTER.VDW>
-24.0078

>  <SCORE.INTER.norm>
-0.564754

>  <SCORE.INTRA>
-3.73722

>  <SCORE.INTRA.DIHEDRAL>
-4.60394

>  <SCORE.INTRA.DIHEDRAL.0>
10.1225

>  <SCORE.INTRA.POLAR>
0

>  <SCORE.INTRA.POLAR.0>
0

>  <SCORE.INTRA.REPUL>
0

>  <SCORE.INTRA.REPUL.0>
0

>  <SCORE.INTRA.SOLV>
-0.106488

>  <SCORE.INTRA.SOLV.lig_0>
-49.9393

>  <SCORE.INTRA.VDW>
-1.382

>  <SCORE.INTRA.VDW.0>
-1.75437

>  <SCORE.INTRA.norm>
-0.143739

>  <SCORE.RESTR>
0

>  <SCORE.RESTR.CAVITY>
0

>  <SCORE.RESTR.norm>
0

>  <SCORE.SYSTEM>
0

>  <SCORE.SYSTEM.CONST>
0

>  <SCORE.SYSTEM.DIHEDRAL>
0

>  <SCORE.SYSTEM.SOLV>
0

>  <SCORE.SYSTEM.norm>
0

>  <SCORE.heavy>
26

>  <SCORE.norm>
-0.708493

>  <RMSD>
7.239

$$$$
ligand
 OpenBabel11021811473D
libRbt.so/2013.1/901 2013/11/27
 26 28  0  0  0  0  0  0  0  0999 V2000
  -12.2738    7.2136  -26.7727 N   0  0  0  0  0  0  0  0  0  0  0  0
  -10.9056    7.0159  -26.2781 C   0  0  2  0  0  0  0  0  0  0  0  0
  -10.3793    5.6953  -26.7753 C   0  0  0  0  0  0  0  0  0  0  0  0
  -10.9264    4.6663  -26.4545 O   0  0  0  0  0  0  0  0  0  0  0  0
  -10.9117    7.0203  -24.7485 C   0  0  0  0  0  0  0  0  0  0  0  0
  -11.3547    8.3925  -24.2440 C   0  0  0  0  0  0  0  0  0  0  0  0
  -10.3792    9.7603  -24.4921 S   0  0  0  0  0  0  0  0  0  0  0  0
   -9.8044   10.7666  -25.8842 C   0  0  0  0  0  0  0  0  0  0  0  0
   -9.2740   12.1527  -25.4981 C   0  0  1  0  0  0  0  0  0  0  0  0
  -10.2590   12.9527  -24.8699 O   0  0  0  0  0  0  0  0  0  0  0  0
   -8.1833   12.0737  -24.4561 C   0  0  1  0  0  0  0  0  0  0  0  0
   -7.4495   13.2692  -24.6069 O   0  0  0  0  0  0  0  0  0  0  0  0
   -8.9007   12.1263  -23.1274 C   0  0  1  0  0  0  0  0  0  0  0  0
   -8.1774   12.9383  -22.2284 O   0  0  0  0  0  0  0  0  0  0  0  0
  -10.2163   12.7943  -23.4643 C   0  0  2  0  0  0  0  0  0  0  0  0
   -9.2998    5.6591  -27.5736 O   0  0  0  0  0  0  0  0  0  0  0  0
  -12.2401    9.4313  -20.0280 N   0  0  0  0  0  0  0  0  0  0  0  0
  -10.9550    9.9166  -20.0835 C   0  0  0  0  0  0  0  0  0  0  0  0
  -10.6049   10.7940  -21.0813 N   0  0  0  0  0  0  0  0  0  0  0  0
  -11.5074   11.1838  -22.0027 C   0  0  0  0  0  0  0  0  0  0  0  0
  -12.8049   10.7089  -21.9648 C   0  0  0  0  0  0  0  0  0  0  0  0
  -13.1684    9.8183  -20.9614 C   0  0  0  0  0  0  0  0  0  0  0  0
  -14.4023    9.3344  -20.8901 N   0  0  0  0  0  0  0  0  0  0  0  0
  -13.4866   11.2568  -22.9955 N   0  0  0  0  0  0  0  0  0  0  0  0
  -12.6480   12.0663  -23.6713 C   0  0  0  0  0  0  0  0  0  0  0  0
  -11.4128   12.0250  -23.0766 N   0  0  0  0  0  0  0  0  0  0  0  0
  2  1  1  6  0  0  0
  2  3  1  0  0  0  0
  2  5  1  0  0  0  0
  3  4  1  0  0  0  0
  3 16  1  0  0  0  0
  5  6  1  0  0  0  0
  6  7  1  0  0  0  0
  7  8  1  0  0  0  0
  9  8  1  1  0  0  0
  9 10  1  0  0  0  0
  9 11  1  0  0  0  0
 10 15  1  0  0  0  0
 11 12  1  6  0  0  0
 11 13  1  0  0  0  0
 13 14  1  1  0  0  0
 13 15  1  0  0  0  0
 15 26  1  6  0  0  0
 17 18  2  0  0  0  0
 17 22  1  0  0  0  0
 18 19  1  0  0  0  0
 19 20  2  0  0  0  0
 20 21  1  0  0  0  0
 20 26  1  0  0  0  0
 21 22  2  0  0  0  0
 21 24  1  0  0  0  0
 22 23  1  0  0  0  0
 24 25  2  0  0  0  0
 25 26  1  0  0  0  0
M  END
>  <CHROM.1>
-61.92598447,-63.89297577,-67.08822767,67.14196715,162.10169487,-60.95868933
150.40287988,-10.76159815,10.01109840,-23.87690212,1.60681204,-0.77997718
-2.51334329

>  <Name>
ligand

>  <RI>
0

>  <Rbt.Current_Directory>
/home/itssahil/PROJECTS/Mol_Feturizer/New_Systems/rnas/3E5E

>  <Rbt.Executable>
rbdock ($Id: //depot/dev/client3/rdock/2013.1/src/exe/rbdock.cxx#4 $)

>  <Rbt.Library>
libRbt.so (2013.1, Build901 2013/11/27)

>  <Rbt.Parameter_File>
/export/apps/rDock/src/rDock_2013.1_src/data/scripts/dock_solv.prm

>  <Rbt.Receptor>
prm/blind_docking_60.prm

>  <SCORE>
-13.6434

>  <SCORE.INTER>
-9.55683

>  <SCORE.INTER.CONST>
1

>  <SCORE.INTER.POLAR>
0

>  <SCORE.INTER.ROT>
7

>  <SCORE.INTER.SOLV>
7.07798

>  <SCORE.INTER.VDW>
-16.9972

>  <SCORE.INTER.norm>
-0.36757

>  <SCORE.INTRA>
-4.08657

>  <SCORE.INTRA.DIHEDRAL>
-6.72443

>  <SCORE.INTRA.DIHEDRAL.0>
10.1225

>  <SCORE.INTRA.POLAR>
0

>  <SCORE.INTRA.POLAR.0>
0

>  <SCORE.INTRA.REPUL>
0

>  <SCORE.INTRA.REPUL.0>
0

>  <SCORE.INTRA.SOLV>
1.45725

>  <SCORE.INTRA.SOLV.lig_0>
-49.9393

>  <SCORE.INTRA.VDW>
-1.45299

>  <SCORE.INTRA.VDW.0>
-1.75437

>  <SCORE.INTRA.norm>
-0.157176

>  <SCORE.RESTR>
0

>  <SCORE.RESTR.CAVITY>
0

>  <SCORE.RESTR.norm>
0

>  <SCORE.SYSTEM>
0

>  <SCORE.SYSTEM.CONST>
0

>  <SCORE.SYSTEM.DIHEDRAL>
0

>  <SCORE.SYSTEM.SOLV>
0

>  <SCORE.SYSTEM.norm>
0

>  <SCORE.heavy>
26

>  <SCORE.norm>
-0.524746

>  <RMSD>
7.246

$$$$
ligand
 OpenBabel11021811473D
libRbt.so/2013.1/901 2013/11/27
 26 28  0  0  0  0  0  0  0  0999 V2000
   -8.7713   15.7097  -18.1795 N   0  0  0  0  0  0  0  0  0  0  0  0
   -8.1992   15.0607  -19.3658 C   0  0  2  0  0  0  0  0  0  0  0  0
   -7.1400   15.9503  -19.9615 C   0  0  0  0  0  0  0  0  0  0  0  0
   -7.4054   17.0912  -20.2598 O   0  0  0  0  0  0  0  0  0  0  0  0
   -9.3034   14.8201  -20.3966 C   0  0  0  0  0  0  0  0  0  0  0  0
  -10.4896   14.1328  -19.7227 C   0  0  0  0  0  0  0  0  0  0  0  0
  -10.4420   12.4710  -19.3759 S   0  0  0  0  0  0  0  0  0  0  0  0
  -11.0123   10.9244  -20.1267 C   0  0  0  0  0  0  0  0  0  0  0  0
  -12.5296   10.8300  -20.3280 C   0  0  1  0  0  0  0  0  0  0  0  0
  -13.0389   11.8970  -21.1071 O   0  0  0  0  0  0  0  0  0  0  0  0
  -12.9222    9.6082  -21.1245 C   0  0  1  0  0  0  0  0  0  0  0  0
  -14.2642    9.3580  -20.7682 O   0  0  0  0  0  0  0  0  0  0  0  0
  -12.8937   10.0513  -22.5688 C   0  0  1  0  0  0  0  0  0  0  0  0
  -13.9909    9.4940  -23.2588 O   0  0  0  0  0  0  0  0  0  0  0  0
  -13.0634   11.5525  -22.4795 C   0  0  2  0  0  0  0  0  0  0  0  0
   -5.8998   15.4762  -20.1644 O   0  0  0  0  0  0  0  0  0  0  0  0
   -9.0338   11.3829  -25.7882 N   0  0  0  0  0  0  0  0  0  0  0  0
   -9.8135   10.3399  -25.3472 C   0  0  0  0  0  0  0  0  0  0  0  0
  -10.8312   10.5844  -24.4570 N   0  0  0  0  0  0  0  0  0  0  0  0
  -11.0730   11.8337  -24.0145 C   0  0  0  0  0  0  0  0  0  0  0  0
  -10.3019   12.8968  -24.4456 C   0  0  0  0  0  0  0  0  0  0  0  0
   -9.2678   12.6598  -25.3436 C   0  0  0  0  0  0  0  0  0  0  0  0
   -8.5003   13.6507  -25.7803 N   0  0  0  0  0  0  0  0  0  0  0  0
  -10.7586   14.0205  -23.8489 N   0  0  0  0  0  0  0  0  0  0  0  0
  -11.7990   13.6853  -23.0613 C   0  0  0  0  0  0  0  0  0  0  0  0
  -12.0015   12.3313  -23.1426 N   0  0  0  0  0  0  0  0  0  0  0  0
  2  1  1  1  0  0  0
  2  3  1  0  0  0  0
  2  5  1  0  0  0  0
  3  4  1  0  0  0  0
  3 16  1  0  0  0  0
  5  6  1  0  0  0  0
  6  7  1  0  0  0  0
  7  8  1  0  0  0  0
  9  8  1  6  0  0  0
  9 10  1  0  0  0  0
  9 11  1  0  0  0  0
 10 15  1  0  0  0  0
 11 12  1  1  0  0  0
 11 13  1  0  0  0  0
 13 14  1  6  0  0  0
 13 15  1  0  0  0  0
 15 26  1  6  0  0  0
 17 18  2  0  0  0  0
 17 22  1  0  0  0  0
 18 19  1  0  0  0  0
 19 20  2  0  0  0  0
 20 21  1  0  0  0  0
 20 26  1  0  0  0  0
 21 22  2  0  0  0  0
 21 24  1  0  0  0  0
 22 23  1  0  0  0  0
 24 25  2  0  0  0  0
 25 26  1  0  0  0  0
M  END
>  <CHROM.1>
-54.86314716,-50.00671138,-77.63116486,-96.80695874,-59.95603270,56.62113634
132.37723926,-10.57395979,12.60965785,-21.89687790,0.58825145,0.72108111
1.29828116

>  <Name>
ligand

>  <RI>
0

>  <Rbt.Current_Directory>
/home/itssahil/PROJECTS/Mol_Feturizer/New_Systems/rnas/3E5E

>  <Rbt.Executable>
rbdock ($Id: //depot/dev/client3/rdock/2013.1/src/exe/rbdock.cxx#4 $)

>  <Rbt.Library>
libRbt.so (2013.1, Build901 2013/11/27)

>  <Rbt.Parameter_File>
/export/apps/rDock/src/rDock_2013.1_src/data/scripts/dock_solv.prm

>  <Rbt.Receptor>
prm/pocket_docking_6.prm

>  <SCORE>
-17.4434

>  <SCORE.INTER>
-14.695

>  <SCORE.INTER.CONST>
1

>  <SCORE.INTER.POLAR>
0

>  <SCORE.INTER.ROT>
7

>  <SCORE.INTER.SOLV>
12.6582

>  <SCORE.INTER.VDW>
-22.2827

>  <SCORE.INTER.norm>
-0.565192

>  <SCORE.INTRA>
-2.74847

>  <SCORE.INTRA.DIHEDRAL>
-4.35254

>  <SCORE.INTRA.DIHEDRAL.0>
10.1225

>  <SCORE.INTRA.POLAR>
0

>  <SCORE.INTRA.POLAR.0>
0

>  <SCORE.INTRA.REPUL>
0

>  <SCORE.INTRA.REPUL.0>
0

>  <SCORE.INTRA.SOLV>
0.94489

>  <SCORE.INTRA.SOLV.lig_0>
-49.9393

>  <SCORE.INTRA.VDW>
-1.04465

>  <SCORE.INTRA.VDW.0>
-1.75437

>  <SCORE.INTRA.norm>
-0.10571

>  <SCORE.RESTR>
0

>  <SCORE.RESTR.CAVITY>
0

>  <SCORE.RESTR.norm>
0

>  <SCORE.SYSTEM>
0

>  <SCORE.SYSTEM.CONST>
0

>  <SCORE.SYSTEM.DIHEDRAL>
0

>  <SCORE.SYSTEM.SOLV>
0

>  <SCORE.SYSTEM.norm>
0

>  <SCORE.heavy>
26

>  <SCORE.norm>
-0.670902

>  <RMSD>
7.375

$$$$
ligand
 OpenBabel11021811473D
libRbt.so/2013.1/901 2013/11/27
 26 28  0  0  0  0  0  0  0  0999 V2000
   -9.1464   10.1232  -28.1156 N   0  0  0  0  0  0  0  0  0  0  0  0
   -8.4663   11.1829  -27.3605 C   0  0  2  0  0  0  0  0  0  0  0  0
   -7.1315   11.4723  -27.9950 C   0  0  0  0  0  0  0  0  0  0  0  0
   -6.9016   12.5692  -28.4477 O   0  0  0  0  0  0  0  0  0  0  0  0
   -8.2570   10.7246  -25.9162 C   0  0  0  0  0  0  0  0  0  0  0  0
   -9.5807   10.8058  -25.1581 C   0  0  0  0  0  0  0  0  0  0  0  0
  -10.2855   12.3111  -24.8095 S   0  0  0  0  0  0  0  0  0  0  0  0
  -11.7028   12.9485  -23.8789 C   0  0  0  0  0  0  0  0  0  0  0  0
  -11.9316   12.2777  -22.5190 C   0  0  1  0  0  0  0  0  0  0  0  0
  -10.8159   12.4088  -21.6570 O   0  0  0  0  0  0  0  0  0  0  0  0
  -13.0443   12.9380  -21.7398 C   0  0  1  0  0  0  0  0  0  0  0  0
  -13.4967   11.9478  -20.8424 O   0  0  0  0  0  0  0  0  0  0  0  0
  -12.3729   14.0284  -20.9378 C   0  0  1  0  0  0  0  0  0  0  0  0
  -12.9298   14.0773  -19.6423 O   0  0  0  0  0  0  0  0  0  0  0  0
  -10.9343   13.5664  -20.8516 C   0  0  2  0  0  0  0  0  0  0  0  0
   -6.1958   10.5110  -28.0610 O   0  0  0  0  0  0  0  0  0  0  0  0
   -6.7164   16.3933  -19.6548 N   0  0  0  0  0  0  0  0  0  0  0  0
   -7.4433   15.5650  -18.8329 C   0  0  0  0  0  0  0  0  0  0  0  0
   -8.5419   14.9086  -19.3331 N   0  0  0  0  0  0  0  0  0  0  0  0
   -8.9116   15.0671  -20.6189 C   0  0  0  0  0  0  0  0  0  0  0  0
   -8.1945   15.8943  -21.4627 C   0  0  0  0  0  0  0  0  0  0  0  0
   -7.0835   16.5656  -20.9657 C   0  0  0  0  0  0  0  0  0  0  0  0
   -6.3689   17.3727  -21.7400 N   0  0  0  0  0  0  0  0  0  0  0  0
   -8.7807   15.8676  -22.6805 N   0  0  0  0  0  0  0  0  0  0  0  0
   -9.8416   15.0395  -22.6186 C   0  0  0  0  0  0  0  0  0  0  0  0
   -9.9451   14.5424  -21.3445 N   0  0  0  0  0  0  0  0  0  0  0  0
  2  1  1  6  0  0  0
  2  3  1  0  0  0  0
  2  5  1  0  0  0  0
  3  4  1  0  0  0  0
  3 16  1  0  0  0  0
  5  6  1  0  0  0  0
  6  7  1  0  0  0  0
  7  8  1  0  0  0  0
  9  8  1  6  0  0  0
  9 10  1  0  0  0  0
  9 11  1  0  0  0  0
 10 15  1  0  0  0  0
 11 12  1  1  0  0  0
 11 13  1  0  0  0  0
 13 14  1  1  0  0  0
 13 15  1  0  0  0  0
 15 26  1  6  0  0  0
 17 18  2  0  0  0  0
 17 22  1  0  0  0  0
 18 19  1  0  0  0  0
 19 20  2  0  0  0  0
 20 21  1  0  0  0  0
 20 26  1  0  0  0  0
 21 22  2  0  0  0  0
 21 24  1  0  0  0  0
 22 23  1  0  0  0  0
 24 25  2  0  0  0  0
 25 26  1  0  0  0  0
M  END
>  <CHROM.1>
118.05579246,-75.73959379,-68.42235036,-174.28193080,41.74263985,59.11732790
-119.36068122,-9.49933747,13.37826834,-23.10976862,1.34081343,-0.44851806
-2.17007671

>  <Name>
ligand

>  <RI>
0

>  <Rbt.Current_Directory>
/home/itssahil/PROJECTS/Mol_Feturizer/New_Systems/rnas/3E5E

>  <Rbt.Executable>
rbdock ($Id: //depot/dev/client3/rdock/2013.1/src/exe/rbdock.cxx#4 $)

>  <Rbt.Library>
libRbt.so (2013.1, Build901 2013/11/27)

>  <Rbt.Parameter_File>
/export/apps/rDock/src/rDock_2013.1_src/data/scripts/dock_solv.prm

>  <Rbt.Receptor>
prm/pocket_docking_6.prm

>  <SCORE>
-17.0542

>  <SCORE.INTER>
-13.4695

>  <SCORE.INTER.CONST>
1

>  <SCORE.INTER.POLAR>
0

>  <SCORE.INTER.ROT>
7

>  <SCORE.INTER.SOLV>
9.78692

>  <SCORE.INTER.VDW>
-20.5086

>  <SCORE.INTER.norm>
-0.518057

>  <SCORE.INTRA>
-3.58476

>  <SCORE.INTRA.DIHEDRAL>
-5.65795

>  <SCORE.INTRA.DIHEDRAL.0>
10.1225

>  <SCORE.INTRA.POLAR>
0

>  <SCORE.INTRA.POLAR.0>
0

>  <SCORE.INTRA.REPUL>
0

>  <SCORE.INTRA.REPUL.0>
0

>  <SCORE.INTRA.SOLV>
0.469835

>  <SCORE.INTRA.SOLV.lig_0>
-49.9393

>  <SCORE.INTRA.VDW>
-0.990699

>  <SCORE.INTRA.VDW.0>
-1.75437

>  <SCORE.INTRA.norm>
-0.137875

>  <SCORE.RESTR>
0

>  <SCORE.RESTR.CAVITY>
0

>  <SCORE.RESTR.norm>
0

>  <SCORE.SYSTEM>
0

>  <SCORE.SYSTEM.CONST>
0

>  <SCORE.SYSTEM.DIHEDRAL>
0

>  <SCORE.SYSTEM.SOLV>
0

>  <SCORE.SYSTEM.norm>
0

>  <SCORE.heavy>
26

>  <SCORE.norm>
-0.655932

>  <RMSD>
7.401

$$$$
ligand
 OpenBabel11021811473D
libRbt.so/2013.1/901 2013/11/27
 26 28  0  0  0  0  0  0  0  0999 V2000
   -8.4228   10.2012  -26.8252 N   0  0  0  0  0  0  0  0  0  0  0  0
   -9.0752   11.3378  -27.4872 C   0  0  2  0  0  0  0  0  0  0  0  0
   -8.6975   11.3526  -28.9450 C   0  0  0  0  0  0  0  0  0  0  0  0
   -9.5247   11.6293  -29.7817 O   0  0  0  0  0  0  0  0  0  0  0  0
   -8.6195   12.6407  -26.8279 C   0  0  0  0  0  0  0  0  0  0  0  0
   -9.2281   12.7458  -25.4308 C   0  0  0  0  0  0  0  0  0  0  0  0
  -10.9104   12.8600  -25.2278 S   0  0  0  0  0  0  0  0  0  0  0  0
  -12.0765   13.4059  -23.9537 C   0  0  0  0  0  0  0  0  0  0  0  0
  -12.1120   12.5272  -22.6974 C   0  0  1  0  0  0  0  0  0  0  0  0
  -10.8602   12.4768  -22.0375 O   0  0  0  0  0  0  0  0  0  0  0  0
  -13.0334   13.0860  -21.6391 C   0  0  1  0  0  0  0  0  0  0  0  0
  -13.3870   11.9765  -20.8426 O   0  0  0  0  0  0  0  0  0  0  0  0
  -12.1697   14.0058  -20.8078 C   0  0  1  0  0  0  0  0  0  0  0  0
  -12.4944   13.8580  -19.4427 O   0  0  0  0  0  0  0  0  0  0  0  0
  -10.7685   13.4884  -21.0520 C   0  0  2  0  0  0  0  0  0  0  0  0
   -7.4416   11.0558  -29.3173 O   0  0  0  0  0  0  0  0  0  0  0  0
   -6.6286   16.4456  -19.8988 N   0  0  0  0  0  0  0  0  0  0  0  0
   -7.3159   15.5892  -19.0715 C   0  0  0  0  0  0  0  0  0  0  0  0
   -8.3995   14.8998  -19.5599 N   0  0  0  0  0  0  0  0  0  0  0  0
   -8.7930   15.0534  -20.8393 C   0  0  0  0  0  0  0  0  0  0  0  0
   -8.1158   15.9085  -21.6882 C   0  0  0  0  0  0  0  0  0  0  0  0
   -7.0203   16.6131  -21.2032 C   0  0  0  0  0  0  0  0  0  0  0  0
   -6.3438   17.4477  -21.9826 N   0  0  0  0  0  0  0  0  0  0  0  0
   -8.7185   15.8695  -22.8976 N   0  0  0  0  0  0  0  0  0  0  0  0
   -9.7507   15.0066  -22.8255 C   0  0  0  0  0  0  0  0  0  0  0  0
   -9.8192   14.4992  -21.5531 N   0  0  0  0  0  0  0  0  0  0  0  0
  2  1  1  1  0  0  0
  2  3  1  0  0  0  0
  2  5  1  0  0  0  0
  3  4  1  0  0  0  0
  3 16  1  0  0  0  0
  5  6  1  0  0  0  0
  6  7  1  0  0  0  0
  7  8  1  0  0  0  0
  9  8  1  6  0  0  0
  9 10  1  0  0  0  0
  9 11  1  0  0  0  0
 10 15  1  0  0  0  0
 11 12  1  1  0  0  0
 11 13  1  0  0  0  0
 13 14  1  1  0  0  0
 13 15  1  0  0  0  0
 15 26  1  6  0  0  0
 17 18  2  0  0  0  0
 17 22  1  0  0  0  0
 18 19  1  0  0  0  0
 19 20  2  0  0  0  0
 20 21  1  0  0  0  0
 20 26  1  0  0  0  0
 21 22  2  0  0  0  0
 21 24  1  0  0  0  0
 22 23  1  0  0  0  0
 24 25  2  0  0  0  0
 25 26  1  0  0  0  0
M  END
>  <CHROM.1>
140.16517083,-70.73658249,-63.96635748,-160.22118822,-67.98901669,60.62653454
-133.04607436,-9.71606222,13.58316118,-23.38108607,-1.52203847,0.47971042
1.11193177

>  <Name>
ligand

>  <RI>
0

>  <Rbt.Current_Directory>
/home/itssahil/PROJECTS/Mol_Feturizer/New_Systems/rnas/3E5E

>  <Rbt.Executable>
rbdock ($Id: //depot/dev/client3/rdock/2013.1/src/exe/rbdock.cxx#4 $)

>  <Rbt.Library>
libRbt.so (2013.1, Build901 2013/11/27)

>  <Rbt.Parameter_File>
/export/apps/rDock/src/rDock_2013.1_src/data/scripts/dock_solv.prm

>  <Rbt.Receptor>
prm/pocket_docking_8.prm

>  <SCORE>
-17.4012

>  <SCORE.INTER>
-13.4701

>  <SCORE.INTER.CONST>
1

>  <SCORE.INTER.POLAR>
0

>  <SCORE.INTER.ROT>
7

>  <SCORE.INTER.SOLV>
9.77738

>  <SCORE.INTER.VDW>
-20.5058

>  <SCORE.INTER.norm>
-0.51808

>  <SCORE.INTRA>
-3.93115

>  <SCORE.INTRA.DIHEDRAL>
-6.14423

>  <SCORE.INTRA.DIHEDRAL.0>
10.1225

>  <SCORE.INTRA.POLAR>
0

>  <SCORE.INTRA.POLAR.0>
0

>  <SCORE.INTRA.REPUL>
0

>  <SCORE.INTRA.REPUL.0>
0

>  <SCORE.INTRA.SOLV>
0.660911

>  <SCORE.INTRA.SOLV.lig_0>
-49.9393

>  <SCORE.INTRA.VDW>
-1.18949

>  <SCORE.INTRA.VDW.0>
-1.75437

>  <SCORE.INTRA.norm>
-0.151198

>  <SCORE.RESTR>
0

>  <SCORE.RESTR.CAVITY>
0

>  <SCORE.RESTR.norm>
0

>  <SCORE.SYSTEM>
0

>  <SCORE.SYSTEM.CONST>
0

>  <SCORE.SYSTEM.DIHEDRAL>
0

>  <SCORE.SYSTEM.SOLV>
0

>  <SCORE.SYSTEM.norm>
0

>  <SCORE.heavy>
26

>  <SCORE.norm>
-0.669278

>  <RMSD>
7.419

$$$$
ligand
 OpenBabel11021811473D
libRbt.so/2013.1/901 2013/11/27
 26 28  0  0  0  0  0  0  0  0999 V2000
   -8.2907    9.8766  -25.9005 N   0  0  0  0  0  0  0  0  0  0  0  0
   -7.8049   10.8280  -24.8934 C   0  0  2  0  0  0  0  0  0  0  0  0
   -8.9035   11.7995  -24.5510 C   0  0  0  0  0  0  0  0  0  0  0  0
   -9.4747   11.7175  -23.4888 O   0  0  0  0  0  0  0  0  0  0  0  0
   -6.6033   11.5918  -25.4526 C   0  0  0  0  0  0  0  0  0  0  0  0
   -5.8302   12.2381  -24.3045 C   0  0  0  0  0  0  0  0  0  0  0  0
   -6.4316   13.6254  -23.5312 S   0  0  0  0  0  0  0  0  0  0  0  0
   -7.9131   14.1159  -22.6117 C   0  0  0  0  0  0  0  0  0  0  0  0
   -7.8544   15.5225  -22.0036 C   0  0  1  0  0  0  0  0  0  0  0  0
   -9.0315   15.8519  -21.2888 O   0  0  0  0  0  0  0  0  0  0  0  0
   -6.7735   15.6438  -20.9556 C   0  0  1  0  0  0  0  0  0  0  0  0
   -6.4731   17.0212  -20.9012 O   0  0  0  0  0  0  0  0  0  0  0  0
   -7.4377   15.2554  -19.6551 C   0  0  1  0  0  0  0  0  0  0  0  0
   -6.9977   16.1105  -18.6227 O   0  0  0  0  0  0  0  0  0  0  0  0
   -8.9066   15.5022  -19.9231 C   0  0  2  0  0  0  0  0  0  0  0  0
   -9.2519   12.7566  -25.4265 O   0  0  0  0  0  0  0  0  0  0  0  0
  -12.7377   12.5420  -21.8658 N   0  0  0  0  0  0  0  0  0  0  0  0
  -12.1809   13.6742  -22.4119 C   0  0  0  0  0  0  0  0  0  0  0  0
  -11.1796   14.3297  -21.7368 N   0  0  0  0  0  0  0  0  0  0  0  0
  -10.7380   13.8737  -20.5485 C   0  0  0  0  0  0  0  0  0  0  0  0
  -11.2832   12.7369  -19.9820 C   0  0  0  0  0  0  0  0  0  0  0  0
  -12.2989   12.0681  -20.6551 C   0  0  0  0  0  0  0  0  0  0  0  0
  -12.8532   10.9751  -20.1455 N   0  0  0  0  0  0  0  0  0  0  0  0
  -10.6604   12.5107  -18.8036 N   0  0  0  0  0  0  0  0  0  0  0  0
   -9.7364   13.4747  -18.6245 C   0  0  0  0  0  0  0  0  0  0  0  0
   -9.7778   14.3355  -19.6914 N   0  0  0  0  0  0  0  0  0  0  0  0
  2  1  1  6  0  0  0
  2  3  1  0  0  0  0
  2  5  1  0  0  0  0
  3  4  1  0  0  0  0
  3 16  1  0  0  0  0
  5  6  1  0  0  0  0
  6  7  1  0  0  0  0
  7  8  1  0  0  0  0
  9  8  1  1  0  0  0
  9 10  1  0  0  0  0
  9 11  1  0  0  0  0
 10 15  1  0  0  0  0
 11 12  1  1  0  0  0
 11 13  1  0  0  0  0
 13 14  1  1  0  0  0
 13 15  1  0  0  0  0
 15 26  1  6  0  0  0
 17 18  2  0  0  0  0
 17 22  1  0  0  0  0
 18 19  1  0  0  0  0
 19 20  2  0  0  0  0
 20 21  1  0  0  0  0
 20 26  1  0  0  0  0
 21 22  2  0  0  0  0
 21 24  1  0  0  0  0
 22 23  1  0  0  0  0
 24 25  2  0  0  0  0
 25 26  1  0  0  0  0
M  END
>  <CHROM.1>
106.79655976,-162.15072834,-75.24407413,59.23885394,174.21714694,-179.57710127
-13.14418366,-8.94101568,13.50348662,-21.95690842,1.17582217,-0.47434687
-2.23457213

>  <Name>
ligand

>  <RI>
0

>  <Rbt.Current_Directory>
/home/itssahil/PROJECTS/Mol_Feturizer/New_Systems/rnas/3E5E

>  <Rbt.Executable>
rbdock ($Id: //depot/dev/client3/rdock/2013.1/src/exe/rbdock.cxx#4 $)

>  <Rbt.Library>
libRbt.so (2013.1, Build901 2013/11/27)

>  <Rbt.Parameter_File>
/export/apps/rDock/src/rDock_2013.1_src/data/scripts/dock_solv.prm

>  <Rbt.Receptor>
prm/pocket_docking_5.prm

>  <SCORE>
-18.3426

>  <SCORE.INTER>
-13.9111

>  <SCORE.INTER.CONST>
1

>  <SCORE.INTER.POLAR>
0

>  <SCORE.INTER.ROT>
7

>  <SCORE.INTER.SOLV>
11.0133

>  <SCORE.INTER.VDW>
-21.2118

>  <SCORE.INTER.norm>
-0.535041

>  <SCORE.INTRA>
-4.43151

>  <SCORE.INTRA.DIHEDRAL>
-5.27278

>  <SCORE.INTRA.DIHEDRAL.0>
10.1225

>  <SCORE.INTRA.POLAR>
0

>  <SCORE.INTRA.POLAR.0>
0

>  <SCORE.INTRA.REPUL>
0

>  <SCORE.INTRA.REPUL.0>
0

>  <SCORE.INTRA.SOLV>
-0.362896

>  <SCORE.INTRA.SOLV.lig_0>
-49.9393

>  <SCORE.INTRA.VDW>
-1.61367

>  <SCORE.INTRA.VDW.0>
-1.75437

>  <SCORE.INTRA.norm>
-0.170443

>  <SCORE.RESTR>
0

>  <SCORE.RESTR.CAVITY>
0

>  <SCORE.RESTR.norm>
0

>  <SCORE.SYSTEM>
0

>  <SCORE.SYSTEM.CONST>
0

>  <SCORE.SYSTEM.DIHEDRAL>
0

>  <SCORE.SYSTEM.SOLV>
0

>  <SCORE.SYSTEM.norm>
0

>  <SCORE.heavy>
26

>  <SCORE.norm>
-0.705483

>  <RMSD>
7.427

$$$$
ligand
 OpenBabel11021811473D
libRbt.so/2013.1/901 2013/11/27
 26 28  0  0  0  0  0  0  0  0999 V2000
   -8.3702   10.1546  -26.2914 N   0  0  0  0  0  0  0  0  0  0  0  0
   -7.8444   10.8821  -25.1295 C   0  0  2  0  0  0  0  0  0  0  0  0
   -8.8975   11.8253  -24.6106 C   0  0  0  0  0  0  0  0  0  0  0  0
   -9.3835   11.6480  -23.5182 O   0  0  0  0  0  0  0  0  0  0  0  0
   -6.6058   11.6777  -25.5451 C   0  0  0  0  0  0  0  0  0  0  0  0
   -5.8641   12.1556  -24.2980 C   0  0  0  0  0  0  0  0  0  0  0  0
   -6.3907   13.5323  -23.4545 S   0  0  0  0  0  0  0  0  0  0  0  0
   -7.8871   14.0971  -22.6043 C   0  0  0  0  0  0  0  0  0  0  0  0
   -7.7996   15.5141  -22.0246 C   0  0  1  0  0  0  0  0  0  0  0  0
   -8.9716   15.8838  -21.3214 O   0  0  0  0  0  0  0  0  0  0  0  0
   -6.7201   15.6328  -20.9747 C   0  0  1  0  0  0  0  0  0  0  0  0
   -6.3895   17.0040  -20.9470 O   0  0  0  0  0  0  0  0  0  0  0  0
   -7.3976   15.2856  -19.6695 C   0  0  1  0  0  0  0  0  0  0  0  0
   -6.9425   16.1516  -18.6527 O   0  0  0  0  0  0  0  0  0  0  0  0
   -8.8597   15.5593  -19.9485 C   0  0  2  0  0  0  0  0  0  0  0  0
   -9.2999   12.8632  -25.3622 O   0  0  0  0  0  0  0  0  0  0  0  0
  -12.6848   12.5873  -21.8848 N   0  0  0  0  0  0  0  0  0  0  0  0
  -12.0931   13.6878  -22.4582 C   0  0  0  0  0  0  0  0  0  0  0  0
  -11.1001   14.3531  -21.7805 N   0  0  0  0  0  0  0  0  0  0  0  0
  -10.7005   13.9373  -20.5628 C   0  0  0  0  0  0  0  0  0  0  0  0
  -11.2813   12.8328  -19.9685 C   0  0  0  0  0  0  0  0  0  0  0  0
  -12.2890   12.1546  -20.6442 C   0  0  0  0  0  0  0  0  0  0  0  0
  -12.8766   11.0918  -20.1087 N   0  0  0  0  0  0  0  0  0  0  0  0
  -10.6965   12.6433  -18.7646 N   0  0  0  0  0  0  0  0  0  0  0  0
   -9.7613   13.5985  -18.5963 C   0  0  0  0  0  0  0  0  0  0  0  0
   -9.7573   14.4170  -19.6968 N   0  0  0  0  0  0  0  0  0  0  0  0
  2  1  1  6  0  0  0
  2  3  1  0  0  0  0
  2  5  1  0  0  0  0
  3  4  1  0  0  0  0
  3 16  1  0  0  0  0
  5  6  1  0  0  0  0
  6  7  1  0  0  0  0
  7  8  1  0  0  0  0
  9  8  1  1  0  0  0
  9 10  1  0  0  0  0
  9 11  1  0  0  0  0
 10 15  1  0  0  0  0
 11 12  1  1  0  0  0
 11 13  1  0  0  0  0
 13 14  1  1  0  0  0
 13 15  1  0  0  0  0
 15 26  1  6  0  0  0
 17 18  2  0  0  0  0
 17 22  1  0  0  0  0
 18 19  1  0  0  0  0
 19 20  2  0  0  0  0
 20 21  1  0  0  0  0
 20 26  1  0  0  0  0
 21 22  2  0  0  0  0
 21 24  1  0  0  0  0
 22 23  1  0  0  0  0
 24 25  2  0  0  0  0
 25 26  1  0  0  0  0
M  END
>  <CHROM.1>
113.99883886,-166.35104646,-80.47791669,58.94110259,-178.56705396,-177.40753521
-11.32291024,-8.91790072,13.54151941,-21.98385259,1.19897583,-0.46162708
-2.21305904

>  <Name>
ligand

>  <RI>
0

>  <Rbt.Current_Directory>
/home/itssahil/PROJECTS/Mol_Feturizer/New_Systems/rnas/3E5E

>  <Rbt.Executable>
rbdock ($Id: //depot/dev/client3/rdock/2013.1/src/exe/rbdock.cxx#4 $)

>  <Rbt.Library>
libRbt.so (2013.1, Build901 2013/11/27)

>  <Rbt.Parameter_File>
/export/apps/rDock/src/rDock_2013.1_src/data/scripts/dock_solv.prm

>  <Rbt.Receptor>
prm/pocket_docking_6.prm

>  <SCORE>
-18.3359

>  <SCORE.INTER>
-13.9069

>  <SCORE.INTER.CONST>
1

>  <SCORE.INTER.POLAR>
0

>  <SCORE.INTER.ROT>
7

>  <SCORE.INTER.SOLV>
10.3942

>  <SCORE.INTER.VDW>
-21.0026

>  <SCORE.INTER.norm>
-0.534879

>  <SCORE.INTRA>
-4.429

>  <SCORE.INTRA.DIHEDRAL>
-5.17033

>  <SCORE.INTRA.DIHEDRAL.0>
10.1225

>  <SCORE.INTRA.POLAR>
0

>  <SCORE.INTRA.POLAR.0>
0

>  <SCORE.INTRA.REPUL>
0

>  <SCORE.INTRA.REPUL.0>
0

>  <SCORE.INTRA.SOLV>
-0.364638

>  <SCORE.INTRA.SOLV.lig_0>
-49.9393

>  <SCORE.INTRA.VDW>
-1.66152

>  <SCORE.INTRA.VDW.0>
-1.75437

>  <SCORE.INTRA.norm>
-0.170346

>  <SCORE.RESTR>
0

>  <SCORE.RESTR.CAVITY>
0

>  <SCORE.RESTR.norm>
0

>  <SCORE.SYSTEM>
0

>  <SCORE.SYSTEM.CONST>
0

>  <SCORE.SYSTEM.DIHEDRAL>
0

>  <SCORE.SYSTEM.SOLV>
0

>  <SCORE.SYSTEM.norm>
0

>  <SCORE.heavy>
26

>  <SCORE.norm>
-0.705225

>  <RMSD>
7.454

$$$$
ligand
 OpenBabel11021811473D
libRbt.so/2013.1/901 2013/11/27
 26 28  0  0  0  0  0  0  0  0999 V2000
   -7.0720   13.4062  -25.6384 N   0  0  0  0  0  0  0  0  0  0  0  0
   -6.1908   13.2124  -24.4802 C   0  0  2  0  0  0  0  0  0  0  0  0
   -4.7556   13.2158  -24.9366 C   0  0  0  0  0  0  0  0  0  0  0  0
   -4.4572   12.7224  -25.9990 O   0  0  0  0  0  0  0  0  0  0  0  0
   -6.5122   11.8731  -23.8147 C   0  0  0  0  0  0  0  0  0  0  0  0
   -7.8479   11.9756  -23.0805 C   0  0  0  0  0  0  0  0  0  0  0  0
   -9.3098   11.9874  -23.9447 S   0  0  0  0  0  0  0  0  0  0  0  0
  -11.0579   12.3372  -23.6241 C   0  0  0  0  0  0  0  0  0  0  0  0
  -11.5708   11.8495  -22.2636 C   0  0  1  0  0  0  0  0  0  0  0  0
  -10.7006   12.1964  -21.2019 O   0  0  0  0  0  0  0  0  0  0  0  0
  -12.8684   12.5169  -21.8732 C   0  0  1  0  0  0  0  0  0  0  0  0
  -13.4722   11.6295  -20.9576 O   0  0  0  0  0  0  0  0  0  0  0  0
  -12.4621   13.7634  -21.1221 C   0  0  1  0  0  0  0  0  0  0  0  0
  -13.3134   13.9484  -20.0122 O   0  0  0  0  0  0  0  0  0  0  0  0
  -11.0645   13.4425  -20.6381 C   0  0  2  0  0  0  0  0  0  0  0  0
   -3.8051   13.7646  -24.1626 O   0  0  0  0  0  0  0  0  0  0  0  0
   -7.0166   16.3255  -19.0516 N   0  0  0  0  0  0  0  0  0  0  0  0
   -7.8204   15.5042  -18.2969 C   0  0  0  0  0  0  0  0  0  0  0  0
   -8.8553   14.8301  -18.8989 N   0  0  0  0  0  0  0  0  0  0  0  0
   -9.0884   14.9645  -20.2191 C   0  0  0  0  0  0  0  0  0  0  0  0
   -8.2920   15.7842  -20.9965 C   0  0  0  0  0  0  0  0  0  0  0  0
   -7.2445   16.4732  -20.3967 C   0  0  0  0  0  0  0  0  0  0  0  0
   -6.4578   17.2739  -21.1049 N   0  0  0  0  0  0  0  0  0  0  0  0
   -8.7461   15.7326  -22.2687 N   0  0  0  0  0  0  0  0  0  0  0  0
   -9.8018   14.8963  -22.3049 C   0  0  0  0  0  0  0  0  0  0  0  0
  -10.0357   14.4190  -21.0406 N   0  0  0  0  0  0  0  0  0  0  0  0
  2  1  1  6  0  0  0
  2  3  1  0  0  0  0
  2  5  1  0  0  0  0
  3  4  1  0  0  0  0
  3 16  1  0  0  0  0
  5  6  1  0  0  0  0
  6  7  1  0  0  0  0
  7  8  1  0  0  0  0
  9  8  1  6  0  0  0
  9 10  1  0  0  0  0
  9 11  1  0  0  0  0
 10 15  1  0  0  0  0
 11 12  1  1  0  0  0
 11 13  1  0  0  0  0
 13 14  1  1  0  0  0
 13 15  1  0  0  0  0
 15 26  1  6  0  0  0
 17 18  2  0  0  0  0
 17 22  1  0  0  0  0
 18 19  1  0  0  0  0
 19 20  2  0  0  0  0
 20 21  1  0  0  0  0
 20 26  1  0  0  0  0
 21 22  2  0  0  0  0
 21 24  1  0  0  0  0
 22 23  1  0  0  0  0
 24 25  2  0  0  0  0
 25 26  1  0  0  0  0
M  END
>  <CHROM.1>
-36.31399087,-72.60905582,74.52705055,-167.95120288,-38.54715442,46.97184548
-108.03036671,-8.87587324,13.70218796,-22.14321585,0.36245849,-0.35912051
-2.26060944

>  <Name>
ligand

>  <RI>
0

>  <Rbt.Current_Directory>
/home/itssahil/PROJECTS/Mol_Feturizer/New_Systems/rnas/3E5E

>  <Rbt.Executable>
rbdock ($Id: //depot/dev/client3/rdock/2013.1/src/exe/rbdock.cxx#4 $)

>  <Rbt.Library>
libRbt.so (2013.1, Build901 2013/11/27)

>  <Rbt.Parameter_File>
/export/apps/rDock/src/rDock_2013.1_src/data/scripts/dock_solv.prm

>  <Rbt.Receptor>
prm/pocket_docking_6.prm

>  <SCORE>
-20.4988

>  <SCORE.INTER>
-16.8906

>  <SCORE.INTER.CONST>
1

>  <SCORE.INTER.POLAR>
0

>  <SCORE.INTER.ROT>
7

>  <SCORE.INTER.SOLV>
10.8904

>  <SCORE.INTER.VDW>
-23.1572

>  <SCORE.INTER.norm>
-0.649638

>  <SCORE.INTRA>
-3.6082

>  <SCORE.INTRA.DIHEDRAL>
-4.64426

>  <SCORE.INTRA.DIHEDRAL.0>
10.1225

>  <SCORE.INTRA.POLAR>
0

>  <SCORE.INTRA.POLAR.0>
0

>  <SCORE.INTRA.REPUL>
0

>  <SCORE.INTRA.REPUL.0>
0

>  <SCORE.INTRA.SOLV>
1.39248

>  <SCORE.INTRA.SOLV.lig_0>
-49.9393

>  <SCORE.INTRA.VDW>
-1.98232

>  <SCORE.INTRA.VDW.0>
-1.75437

>  <SCORE.INTRA.norm>
-0.138777

>  <SCORE.RESTR>
0

>  <SCORE.RESTR.CAVITY>
0

>  <SCORE.RESTR.norm>
0

>  <SCORE.SYSTEM>
0

>  <SCORE.SYSTEM.CONST>
0

>  <SCORE.SYSTEM.DIHEDRAL>
0

>  <SCORE.SYSTEM.SOLV>
0

>  <SCORE.SYSTEM.norm>
0

>  <SCORE.heavy>
26

>  <SCORE.norm>
-0.788415

>  <RMSD>
7.461

$$$$
ligand
 OpenBabel11021811473D
libRbt.so/2013.1/901 2013/11/27
 26 28  0  0  0  0  0  0  0  0999 V2000
  -12.1065    4.7623  -26.2071 N   0  0  0  0  0  0  0  0  0  0  0  0
  -11.8377    6.0331  -25.5228 C   0  0  2  0  0  0  0  0  0  0  0  0
  -13.0129    6.3913  -24.6518 C   0  0  0  0  0  0  0  0  0  0  0  0
  -14.1349    6.3410  -25.0986 O   0  0  0  0  0  0  0  0  0  0  0  0
  -11.6173    7.1340  -26.5617 C   0  0  0  0  0  0  0  0  0  0  0  0
  -10.7155    8.2176  -25.9735 C   0  0  0  0  0  0  0  0  0  0  0  0
  -11.1661    9.0425  -24.5591 S   0  0  0  0  0  0  0  0  0  0  0  0
  -10.5436   10.4062  -23.5422 C   0  0  0  0  0  0  0  0  0  0  0  0
  -11.0629   11.7929  -23.9410 C   0  0  1  0  0  0  0  0  0  0  0  0
  -12.4697   11.8987  -23.8201 O   0  0  0  0  0  0  0  0  0  0  0  0
  -10.5586   12.8758  -23.0167 C   0  0  1  0  0  0  0  0  0  0  0  0
  -10.6331   14.0637  -23.7741 O   0  0  0  0  0  0  0  0  0  0  0  0
  -11.5827   12.9592  -21.9088 C   0  0  1  0  0  0  0  0  0  0  0  0
  -11.8088   14.3103  -21.5711 O   0  0  0  0  0  0  0  0  0  0  0  0
  -12.8310   12.3810  -22.5397 C   0  0  2  0  0  0  0  0  0  0  0  0
  -12.8155    6.7696  -23.3782 O   0  0  0  0  0  0  0  0  0  0  0  0
  -15.4507    7.8871  -22.9343 N   0  0  0  0  0  0  0  0  0  0  0  0
  -15.0935    8.7518  -23.9417 C   0  0  0  0  0  0  0  0  0  0  0  0
  -14.4097    9.9034  -23.6351 N   0  0  0  0  0  0  0  0  0  0  0  0
  -14.0850   10.1919  -22.3597 C   0  0  0  0  0  0  0  0  0  0  0  0
  -14.4335    9.3361  -21.3318 C   0  0  0  0  0  0  0  0  0  0  0  0
  -15.1283    8.1700  -21.6309 C   0  0  0  0  0  0  0  0  0  0  0  0
  -15.4862    7.3223  -20.6744 N   0  0  0  0  0  0  0  0  0  0  0  0
  -13.9887    9.8661  -20.1705 N   0  0  0  0  0  0  0  0  0  0  0  0
  -13.3663   11.0279  -20.4495 C   0  0  0  0  0  0  0  0  0  0  0  0
  -13.4259   11.2519  -21.8013 N   0  0  0  0  0  0  0  0  0  0  0  0
  2  1  1  6  0  0  0
  2  3  1  0  0  0  0
  2  5  1  0  0  0  0
  3  4  1  0  0  0  0
  3 16  1  0  0  0  0
  5  6  1  0  0  0  0
  6  7  1  0  0  0  0
  7  8  1  0  0  0  0
  9  8  1  1  0  0  0
  9 10  1  0  0  0  0
  9 11  1  0  0  0  0
 10 15  1  0  0  0  0
 11 12  1  6  0  0  0
 11 13  1  0  0  0  0
 13 14  1  6  0  0  0
 13 15  1  0  0  0  0
 15 26  1  1  0  0  0
 17 18  2  0  0  0  0
 17 22  1  0  0  0  0
 18 19  1  0  0  0  0
 19 20  2  0  0  0  0
 20 21  1  0  0  0  0
 20 26  1  0  0  0  0
 21 22  2  0  0  0  0
 21 24  1  0  0  0  0
 22 23  1  0  0  0  0
 24 25  2  0  0  0  0
 25 26  1  0  0  0  0
M  END
>  <CHROM.1>
-48.14053892,-152.78055145,-58.48253531,-175.86167290,90.18877350,61.77552504
-28.34584715,-12.71764703,9.58117234,-23.36471162,-1.78323973,0.72378596
0.51818042

>  <Name>
ligand

>  <RI>
0

>  <Rbt.Current_Directory>
/home/itssahil/PROJECTS/Mol_Feturizer/New_Systems/rnas/3E5E

>  <Rbt.Executable>
rbdock ($Id: //depot/dev/client3/rdock/2013.1/src/exe/rbdock.cxx#4 $)

>  <Rbt.Library>
libRbt.so (2013.1, Build901 2013/11/27)

>  <Rbt.Parameter_File>
/export/apps/rDock/src/rDock_2013.1_src/data/scripts/dock_solv.prm

>  <Rbt.Receptor>
prm/blind_docking_100.prm

>  <SCORE>
-14.8305

>  <SCORE.INTER>
-9.99081

>  <SCORE.INTER.CONST>
1

>  <SCORE.INTER.POLAR>
0

>  <SCORE.INTER.ROT>
7

>  <SCORE.INTER.SOLV>
5.47023

>  <SCORE.INTER.VDW>
-16.7506

>  <SCORE.INTER.norm>
-0.384262

>  <SCORE.INTRA>
-4.84223

>  <SCORE.INTRA.DIHEDRAL>
-3.54647

>  <SCORE.INTRA.DIHEDRAL.0>
10.1225

>  <SCORE.INTRA.POLAR>
0

>  <SCORE.INTRA.POLAR.0>
0

>  <SCORE.INTRA.REPUL>
0

>  <SCORE.INTRA.REPUL.0>
0

>  <SCORE.INTRA.SOLV>
-0.141584

>  <SCORE.INTRA.SOLV.lig_0>
-49.9393

>  <SCORE.INTRA.VDW>
-2.9982

>  <SCORE.INTRA.VDW.0>
-1.75437

>  <SCORE.INTRA.norm>
-0.186239

>  <SCORE.RESTR>
0.00254147

>  <SCORE.RESTR.CAVITY>
0.00254147

>  <SCORE.RESTR.norm>
9.7749e-05

>  <SCORE.SYSTEM>
0

>  <SCORE.SYSTEM.CONST>
0

>  <SCORE.SYSTEM.DIHEDRAL>
0

>  <SCORE.SYSTEM.SOLV>
0

>  <SCORE.SYSTEM.norm>
0

>  <SCORE.heavy>
26

>  <SCORE.norm>
-0.570404

>  <RMSD>
7.467

$$$$
ligand
 OpenBabel11021811473D
libRbt.so/2013.1/901 2013/11/27
 26 28  0  0  0  0  0  0  0  0999 V2000
   -7.9669   14.7996  -20.7631 N   0  0  0  0  0  0  0  0  0  0  0  0
   -8.6115   15.1461  -19.4903 C   0  0  2  0  0  0  0  0  0  0  0  0
   -7.6088   15.8139  -18.5865 C   0  0  0  0  0  0  0  0  0  0  0  0
   -7.6287   17.0139  -18.4426 O   0  0  0  0  0  0  0  0  0  0  0  0
   -9.1342   13.8735  -18.8215 C   0  0  0  0  0  0  0  0  0  0  0  0
  -10.6472   13.9777  -18.6386 C   0  0  0  0  0  0  0  0  0  0  0  0
  -11.7000   13.5944  -19.9148 S   0  0  0  0  0  0  0  0  0  0  0  0
  -11.9178   14.0391  -21.6572 C   0  0  0  0  0  0  0  0  0  0  0  0
  -10.7280   13.6942  -22.5611 C   0  0  1  0  0  0  0  0  0  0  0  0
  -10.0018   12.5720  -22.0940 O   0  0  0  0  0  0  0  0  0  0  0  0
  -11.1682   13.2655  -23.9409 C   0  0  1  0  0  0  0  0  0  0  0  0
  -10.0555   13.5160  -24.7714 O   0  0  0  0  0  0  0  0  0  0  0  0
  -11.3590   11.7694  -23.8485 C   0  0  1  0  0  0  0  0  0  0  0  0
  -10.8661   11.1542  -25.0187 O   0  0  0  0  0  0  0  0  0  0  0  0
  -10.4949   11.3769  -22.6697 C   0  0  2  0  0  0  0  0  0  0  0  0
   -6.6894   15.0771  -17.9415 O   0  0  0  0  0  0  0  0  0  0  0  0
  -14.9782    9.1118  -21.2615 N   0  0  0  0  0  0  0  0  0  0  0  0
  -14.7018    9.7969  -22.4210 C   0  0  0  0  0  0  0  0  0  0  0  0
  -13.4526   10.3383  -22.6063 N   0  0  0  0  0  0  0  0  0  0  0  0
  -12.4976   10.2030  -21.6656 C   0  0  0  0  0  0  0  0  0  0  0  0
  -12.7539    9.5173  -20.4931 C   0  0  0  0  0  0  0  0  0  0  0  0
  -14.0154    8.9686  -20.2943 C   0  0  0  0  0  0  0  0  0  0  0  0
  -14.3057    8.3060  -19.1816 N   0  0  0  0  0  0  0  0  0  0  0  0
  -11.6329    9.5361  -19.7380 N   0  0  0  0  0  0  0  0  0  0  0  0
  -10.6823   10.2111  -20.4131 C   0  0  0  0  0  0  0  0  0  0  0  0
  -11.2039   10.6419  -21.6062 N   0  0  0  0  0  0  0  0  0  0  0  0
  2  1  1  6  0  0  0
  2  3  1  0  0  0  0
  2  5  1  0  0  0  0
  3  4  1  0  0  0  0
  3 16  1  0  0  0  0
  5  6  1  0  0  0  0
  6  7  1  0  0  0  0
  7  8  1  0  0  0  0
  9  8  1  1  0  0  0
  9 10  1  0  0  0  0
  9 11  1  0  0  0  0
 10 15  1  0  0  0  0
 11 12  1  6  0  0  0
 11 13  1  0  0  0  0
 13 14  1  6  0  0  0
 13 15  1  0  0  0  0
 15 26  1  1  0  0  0
 17 18  2  0  0  0  0
 17 22  1  0  0  0  0
 18 19  1  0  0  0  0
 19 20  2  0  0  0  0
 20 21  1  0  0  0  0
 20 26  1  0  0  0  0
 21 22  2  0  0  0  0
 21 24  1  0  0  0  0
 22 23  1  0  0  0  0
 24 25  2  0  0  0  0
 25 26  1  0  0  0  0
M  END
>  <CHROM.1>
102.61047608,-119.93761936,83.00336847,-51.82554584,60.72227091,29.12722716
125.10386461,-10.98537669,12.35088271,-21.06251509,-0.28855422,-0.84011523
-1.54125753

>  <Name>
ligand

>  <RI>
0

>  <Rbt.Current_Directory>
/home/itssahil/PROJECTS/Mol_Feturizer/New_Systems/rnas/3E5E

>  <Rbt.Executable>
rbdock ($Id: //depot/dev/client3/rdock/2013.1/src/exe/rbdock.cxx#4 $)

>  <Rbt.Library>
libRbt.so (2013.1, Build901 2013/11/27)

>  <Rbt.Parameter_File>
/export/apps/rDock/src/rDock_2013.1_src/data/scripts/dock_solv.prm

>  <Rbt.Receptor>
prm/pocket_docking_2.prm

>  <SCORE>
-16.8079

>  <SCORE.INTER>
-19.9336

>  <SCORE.INTER.CONST>
1

>  <SCORE.INTER.POLAR>
0

>  <SCORE.INTER.ROT>
7

>  <SCORE.INTER.SOLV>
12.0211

>  <SCORE.INTER.VDW>
-25.5628

>  <SCORE.INTER.norm>
-0.766678

>  <SCORE.INTRA>
0.376371

>  <SCORE.INTRA.DIHEDRAL>
2.98528

>  <SCORE.INTRA.DIHEDRAL.0>
10.1225

>  <SCORE.INTRA.POLAR>
0

>  <SCORE.INTRA.POLAR.0>
0

>  <SCORE.INTRA.REPUL>
0

>  <SCORE.INTRA.REPUL.0>
0

>  <SCORE.INTRA.SOLV>
2.40713

>  <SCORE.INTRA.SOLV.lig_0>
-49.9393

>  <SCORE.INTRA.VDW>
-2.31983

>  <SCORE.INTRA.VDW.0>
-1.75437

>  <SCORE.INTRA.norm>
0.0144758

>  <SCORE.RESTR>
2.74939

>  <SCORE.RESTR.CAVITY>
2.74939

>  <SCORE.RESTR.norm>
0.105746

>  <SCORE.SYSTEM>
0

>  <SCORE.SYSTEM.CONST>
0

>  <SCORE.SYSTEM.DIHEDRAL>
0

>  <SCORE.SYSTEM.SOLV>
0

>  <SCORE.SYSTEM.norm>
0

>  <SCORE.heavy>
26

>  <SCORE.norm>
-0.646456

>  <RMSD>
7.515

$$$$
ligand
 OpenBabel11021811473D
libRbt.so/2013.1/901 2013/11/27
 26 28  0  0  0  0  0  0  0  0999 V2000
  -10.0126    7.0555  -26.0245 N   0  0  0  0  0  0  0  0  0  0  0  0
  -10.5329    6.7650  -24.6827 C   0  0  2  0  0  0  0  0  0  0  0  0
  -10.6945    5.2765  -24.5196 C   0  0  0  0  0  0  0  0  0  0  0  0
  -10.6883    4.5571  -25.4908 O   0  0  0  0  0  0  0  0  0  0  0  0
  -11.8894    7.4489  -24.5039 C   0  0  0  0  0  0  0  0  0  0  0  0
  -11.6885    8.9588  -24.3889 C   0  0  0  0  0  0  0  0  0  0  0  0
  -11.0936    9.6442  -22.9535 S   0  0  0  0  0  0  0  0  0  0  0  0
  -10.1816   11.1256  -22.4485 C   0  0  0  0  0  0  0  0  0  0  0  0
  -10.8806   12.4513  -22.7736 C   0  0  1  0  0  0  0  0  0  0  0  0
  -12.2699   12.2899  -22.9942 O   0  0  0  0  0  0  0  0  0  0  0  0
  -10.8291   13.4196  -21.6155 C   0  0  1  0  0  0  0  0  0  0  0  0
  -10.9843   14.6940  -22.2004 O   0  0  0  0  0  0  0  0  0  0  0  0
  -12.0645   13.1239  -20.7972 C   0  0  1  0  0  0  0  0  0  0  0  0
  -12.6373   14.3324  -20.3476 O   0  0  0  0  0  0  0  0  0  0  0  0
  -12.9951   12.4635  -21.7913 C   0  0  2  0  0  0  0  0  0  0  0  0
  -10.8482    4.7471  -23.2948 O   0  0  0  0  0  0  0  0  0  0  0  0
  -15.2201    8.0243  -23.3903 N   0  0  0  0  0  0  0  0  0  0  0  0
  -14.9447    9.1495  -24.1307 C   0  0  0  0  0  0  0  0  0  0  0  0
  -14.3609   10.2344  -23.5224 N   0  0  0  0  0  0  0  0  0  0  0  0
  -14.0547   10.2055  -22.2106 C   0  0  0  0  0  0  0  0  0  0  0  0
  -14.3221    9.0842  -21.4480 C   0  0  0  0  0  0  0  0  0  0  0  0
  -14.9156    7.9825  -22.0530 C   0  0  0  0  0  0  0  0  0  0  0  0
  -15.1935    6.8869  -21.3573 N   0  0  0  0  0  0  0  0  0  0  0  0
  -13.9178    9.3275  -20.1812 N   0  0  0  0  0  0  0  0  0  0  0  0
  -13.3994   10.5702  -20.1366 C   0  0  0  0  0  0  0  0  0  0  0  0
  -13.4861   11.1343  -21.3837 N   0  0  0  0  0  0  0  0  0  0  0  0
  2  1  1  6  0  0  0
  2  3  1  0  0  0  0
  2  5  1  0  0  0  0
  3  4  1  0  0  0  0
  3 16  1  0  0  0  0
  5  6  1  0  0  0  0
  6  7  1  0  0  0  0
  7  8  1  0  0  0  0
  9  8  1  1  0  0  0
  9 10  1  0  0  0  0
  9 11  1  0  0  0  0
 10 15  1  0  0  0  0
 11 12  1  6  0  0  0
 11 13  1  0  0  0  0
 13 14  1  6  0  0  0
 13 15  1  0  0  0  0
 15 26  1  1  0  0  0
 17 18  2  0  0  0  0
 17 22  1  0  0  0  0
 18 19  1  0  0  0  0
 19 20  2  0  0  0  0
 20 21  1  0  0  0  0
 20 26  1  0  0  0  0
 21 22  2  0  0  0  0
 21 24  1  0  0  0  0
 22 23  1  0  0  0  0
 24 25  2  0  0  0  0
 25 26  1  0  0  0  0
M  END
>  <CHROM.1>
-15.95757878,-71.32758573,-75.63887316,153.86610273,60.43234563,19.70166475
-44.17831331,-12.34653468,9.66787886,-22.74710233,-1.46842011,0.47227741
0.35050982

>  <Name>
ligand

>  <RI>
0

>  <Rbt.Current_Directory>
/home/itssahil/PROJECTS/Mol_Feturizer/New_Systems/rnas/3E5E

>  <Rbt.Executable>
rbdock ($Id: //depot/dev/client3/rdock/2013.1/src/exe/rbdock.cxx#4 $)

>  <Rbt.Library>
libRbt.so (2013.1, Build901 2013/11/27)

>  <Rbt.Parameter_File>
/export/apps/rDock/src/rDock_2013.1_src/data/scripts/dock_solv.prm

>  <Rbt.Receptor>
prm/blind_docking_100.prm

>  <SCORE>
-15.8959

>  <SCORE.INTER>
-13.1294

>  <SCORE.INTER.CONST>
1

>  <SCORE.INTER.POLAR>
0

>  <SCORE.INTER.ROT>
7

>  <SCORE.INTER.SOLV>
8.86298

>  <SCORE.INTER.VDW>
-19.9739

>  <SCORE.INTER.norm>
-0.504978

>  <SCORE.INTRA>
-2.76647

>  <SCORE.INTRA.DIHEDRAL>
-1.12714

>  <SCORE.INTRA.DIHEDRAL.0>
10.1225

>  <SCORE.INTRA.POLAR>
0

>  <SCORE.INTRA.POLAR.0>
0

>  <SCORE.INTRA.REPUL>
0

>  <SCORE.INTRA.REPUL.0>
0

>  <SCORE.INTRA.SOLV>
0.905388

>  <SCORE.INTRA.SOLV.lig_0>
-49.9393

>  <SCORE.INTRA.VDW>
-2.65559

>  <SCORE.INTRA.VDW.0>
-1.75437

>  <SCORE.INTRA.norm>
-0.106403

>  <SCORE.RESTR>
0

>  <SCORE.RESTR.CAVITY>
0

>  <SCORE.RESTR.norm>
0

>  <SCORE.SYSTEM>
0

>  <SCORE.SYSTEM.CONST>
0

>  <SCORE.SYSTEM.DIHEDRAL>
0

>  <SCORE.SYSTEM.SOLV>
0

>  <SCORE.SYSTEM.norm>
0

>  <SCORE.heavy>
26

>  <SCORE.norm>
-0.61138

>  <RMSD>
7.578

$$$$
ligand
 OpenBabel11021811473D
libRbt.so/2013.1/901 2013/11/27
 26 28  0  0  0  0  0  0  0  0999 V2000
   -4.8735   14.2984  -22.7046 N   0  0  0  0  0  0  0  0  0  0  0  0
   -5.2154   13.0485  -23.3947 C   0  0  2  0  0  0  0  0  0  0  0  0
   -4.6812   13.0910  -24.8022 C   0  0  0  0  0  0  0  0  0  0  0  0
   -4.8889   14.0563  -25.4994 O   0  0  0  0  0  0  0  0  0  0  0  0
   -6.7360   12.8861  -23.4300 C   0  0  0  0  0  0  0  0  0  0  0  0
   -7.0921   11.5576  -24.0947 C   0  0  0  0  0  0  0  0  0  0  0  0
   -8.7149   11.1293  -24.3542 S   0  0  0  0  0  0  0  0  0  0  0  0
  -10.3452   11.9111  -24.2457 C   0  0  0  0  0  0  0  0  0  0  0  0
  -11.0035   11.8331  -22.8628 C   0  0  1  0  0  0  0  0  0  0  0  0
  -10.3128   12.5977  -21.8915 O   0  0  0  0  0  0  0  0  0  0  0  0
  -12.3858   12.4418  -22.8564 C   0  0  1  0  0  0  0  0  0  0  0  0
  -13.0450   11.8348  -21.7668 O   0  0  0  0  0  0  0  0  0  0  0  0
  -12.1744   13.9008  -22.5249 C   0  0  1  0  0  0  0  0  0  0  0  0
  -13.1800   14.3370  -21.6366 O   0  0  0  0  0  0  0  0  0  0  0  0
  -10.8368   13.9102  -21.8168 C   0  0  2  0  0  0  0  0  0  0  0  0
   -3.9756   12.0553  -25.2852 O   0  0  0  0  0  0  0  0  0  0  0  0
   -6.9295   17.2284  -20.8491 N   0  0  0  0  0  0  0  0  0  0  0  0
   -7.7210   16.5630  -19.9431 C   0  0  0  0  0  0  0  0  0  0  0  0
   -8.7178   15.7327  -20.3960 N   0  0  0  0  0  0  0  0  0  0  0  0
   -8.9252   15.5633  -21.7164 C   0  0  0  0  0  0  0  0  0  0  0  0
   -8.1405   16.2219  -22.6443 C   0  0  0  0  0  0  0  0  0  0  0  0
   -7.1317   17.0668  -22.1967 C   0  0  0  0  0  0  0  0  0  0  0  0
   -6.3576   17.7217  -23.0530 N   0  0  0  0  0  0  0  0  0  0  0  0
   -8.5634   15.8732  -23.8800 N   0  0  0  0  0  0  0  0  0  0  0  0
   -9.5881   15.0089  -23.7455 C   0  0  0  0  0  0  0  0  0  0  0  0
   -9.8340   14.8135  -22.4104 N   0  0  0  0  0  0  0  0  0  0  0  0
  2  1  1  6  0  0  0
  2  3  1  0  0  0  0
  2  5  1  0  0  0  0
  3  4  1  0  0  0  0
  3 16  1  0  0  0  0
  5  6  1  0  0  0  0
  6  7  1  0  0  0  0
  7  8  1  0  0  0  0
  9  8  1  6  0  0  0
  9 10  1  0  0  0  0
  9 11  1  0  0  0  0
 10 15  1  0  0  0  0
 11 12  1  1  0  0  0
 11 13  1  0  0  0  0
 13 14  1  1  0  0  0
 13 15  1  0  0  0  0
 15 26  1  6  0  0  0
 17 18  2  0  0  0  0
 17 22  1  0  0  0  0
 18 19  1  0  0  0  0
 19 20  2  0  0  0  0
 20 21  1  0  0  0  0
 20 26  1  0  0  0  0
 21 22  2  0  0  0  0
 21 24  1  0  0  0  0
 22 23  1  0  0  0  0
 24 25  2  0  0  0  0
 25 26  1  0  0  0  0
M  END
>  <CHROM.1>
-49.02848702,-177.61019911,-176.78319001,9.67688148,-87.61768435,67.25103163
-98.67875577,-8.54108980,13.89676403,-22.94154705,0.01572218,0.29006667,0.49523531

>  <Name>
ligand

>  <RI>
0

>  <Rbt.Current_Directory>
/home/itssahil/PROJECTS/Mol_Feturizer/New_Systems/rnas/3E5E

>  <Rbt.Executable>
rbdock ($Id: //depot/dev/client3/rdock/2013.1/src/exe/rbdock.cxx#4 $)

>  <Rbt.Library>
libRbt.so (2013.1, Build901 2013/11/27)

>  <Rbt.Parameter_File>
/export/apps/rDock/src/rDock_2013.1_src/data/scripts/dock_solv.prm

>  <Rbt.Receptor>
prm/pocket_docking_7.prm

>  <SCORE>
-19.5166

>  <SCORE.INTER>
-15.8295

>  <SCORE.INTER.CONST>
1

>  <SCORE.INTER.POLAR>
0

>  <SCORE.INTER.ROT>
7

>  <SCORE.INTER.SOLV>
9.67491

>  <SCORE.INTER.VDW>
-22.0446

>  <SCORE.INTER.norm>
-0.608828

>  <SCORE.INTRA>
-3.68707

>  <SCORE.INTRA.DIHEDRAL>
-3.97729

>  <SCORE.INTRA.DIHEDRAL.0>
10.1225

>  <SCORE.INTRA.POLAR>
0

>  <SCORE.INTRA.POLAR.0>
0

>  <SCORE.INTRA.REPUL>
0

>  <SCORE.INTRA.REPUL.0>
0

>  <SCORE.INTRA.SOLV>
0.904176

>  <SCORE.INTRA.SOLV.lig_0>
-49.9393

>  <SCORE.INTRA.VDW>
-2.15051

>  <SCORE.INTRA.VDW.0>
-1.75437

>  <SCORE.INTRA.norm>
-0.14181

>  <SCORE.RESTR>
0

>  <SCORE.RESTR.CAVITY>
0

>  <SCORE.RESTR.norm>
0

>  <SCORE.SYSTEM>
0

>  <SCORE.SYSTEM.CONST>
0

>  <SCORE.SYSTEM.DIHEDRAL>
0

>  <SCORE.SYSTEM.SOLV>
0

>  <SCORE.SYSTEM.norm>
0

>  <SCORE.heavy>
26

>  <SCORE.norm>
-0.750638

>  <RMSD>
7.584

$$$$
ligand
 OpenBabel11021811473D
libRbt.so/2013.1/901 2013/11/27
 26 28  0  0  0  0  0  0  0  0999 V2000
   -7.6064   15.3212  -21.0981 N   0  0  0  0  0  0  0  0  0  0  0  0
   -6.7602   16.2129  -20.2953 C   0  0  2  0  0  0  0  0  0  0  0  0
   -5.4135   16.3532  -20.9547 C   0  0  0  0  0  0  0  0  0  0  0  0
   -4.9884   17.4493  -21.2357 O   0  0  0  0  0  0  0  0  0  0  0  0
   -6.5846   15.6234  -18.8948 C   0  0  0  0  0  0  0  0  0  0  0  0
   -7.9165   15.6751  -18.1486 C   0  0  0  0  0  0  0  0  0  0  0  0
   -9.2760   14.8540  -18.7501 S   0  0  0  0  0  0  0  0  0  0  0  0
   -9.7914   13.1425  -19.0436 C   0  0  0  0  0  0  0  0  0  0  0  0
  -11.2408   12.9813  -19.5179 C   0  0  1  0  0  0  0  0  0  0  0  0
  -11.4174   13.3856  -20.8634 O   0  0  0  0  0  0  0  0  0  0  0  0
  -11.6749   11.5347  -19.5365 C   0  0  1  0  0  0  0  0  0  0  0  0
  -13.0820   11.5764  -19.4426 O   0  0  0  0  0  0  0  0  0  0  0  0
  -11.3101   11.0296  -20.9131 C   0  0  1  0  0  0  0  0  0  0  0  0
  -12.3382   10.1960  -21.4015 O   0  0  0  0  0  0  0  0  0  0  0  0
  -11.2458   12.2921  -21.7452 C   0  0  2  0  0  0  0  0  0  0  0  0
   -4.6843   15.2603  -21.2337 O   0  0  0  0  0  0  0  0  0  0  0  0
   -8.0244   15.8017  -23.8710 N   0  0  0  0  0  0  0  0  0  0  0  0
   -9.2576   16.0173  -23.3028 C   0  0  0  0  0  0  0  0  0  0  0  0
   -9.9684   14.9529  -22.8030 N   0  0  0  0  0  0  0  0  0  0  0  0
   -9.4688   13.7031  -22.8626 C   0  0  0  0  0  0  0  0  0  0  0  0
   -8.2307   13.4642  -23.4287 C   0  0  0  0  0  0  0  0  0  0  0  0
   -7.5050   14.5335  -23.9403 C   0  0  0  0  0  0  0  0  0  0  0  0
   -6.3140   14.3487  -24.4961 N   0  0  0  0  0  0  0  0  0  0  0  0
   -7.9811   12.1376  -23.3565 N   0  0  0  0  0  0  0  0  0  0  0  0
   -9.0300   11.5444  -22.7539 C   0  0  0  0  0  0  0  0  0  0  0  0
   -9.9676   12.4984  -22.4505 N   0  0  0  0  0  0  0  0  0  0  0  0
  2  1  1  6  0  0  0
  2  3  1  0  0  0  0
  2  5  1  0  0  0  0
  3  4  1  0  0  0  0
  3 16  1  0  0  0  0
  5  6  1  0  0  0  0
  6  7  1  0  0  0  0
  7  8  1  0  0  0  0
  9  8  1  6  0  0  0
  9 10  1  0  0  0  0
  9 11  1  0  0  0  0
 10 15  1  0  0  0  0
 11 12  1  6  0  0  0
 11 13  1  0  0  0  0
 13 14  1  6  0  0  0
 13 15  1  0  0  0  0
 15 26  1  1  0  0  0
 17 18  2  0  0  0  0
 17 22  1  0  0  0  0
 18 19  1  0  0  0  0
 19 20  2  0  0  0  0
 20 21  1  0  0  0  0
 20 26  1  0  0  0  0
 21 22  2  0  0  0  0
 21 24  1  0  0  0  0
 22 23  1  0  0  0  0
 24 25  2  0  0  0  0
 25 26  1  0  0  0  0
M  END
>  <CHROM.1>
124.28070351,-68.48143651,60.48857290,65.38527024,174.92249854,73.38311214
-36.83891478,-8.92016616,13.95817920,-21.22100410,0.05354243,0.66340645,1.27237323

>  <Name>
ligand

>  <RI>
0

>  <Rbt.Current_Directory>
/home/itssahil/PROJECTS/Mol_Feturizer/New_Systems/rnas/3E5E

>  <Rbt.Executable>
rbdock ($Id: //depot/dev/client3/rdock/2013.1/src/exe/rbdock.cxx#4 $)

>  <Rbt.Library>
libRbt.so (2013.1, Build901 2013/11/27)

>  <Rbt.Parameter_File>
/export/apps/rDock/src/rDock_2013.1_src/data/scripts/dock_solv.prm

>  <Rbt.Receptor>
prm/blind_docking_40.prm

>  <SCORE>
-19.0155

>  <SCORE.INTER>
-16.7636

>  <SCORE.INTER.CONST>
1

>  <SCORE.INTER.POLAR>
0

>  <SCORE.INTER.ROT>
7

>  <SCORE.INTER.SOLV>
9.60638

>  <SCORE.INTER.VDW>
-22.6445

>  <SCORE.INTER.norm>
-0.644754

>  <SCORE.INTRA>
-2.25191

>  <SCORE.INTRA.DIHEDRAL>
-6.32638

>  <SCORE.INTRA.DIHEDRAL.0>
10.1225

>  <SCORE.INTRA.POLAR>
0

>  <SCORE.INTRA.POLAR.0>
0

>  <SCORE.INTRA.REPUL>
0

>  <SCORE.INTRA.REPUL.0>
0

>  <SCORE.INTRA.SOLV>
6.2128

>  <SCORE.INTRA.SOLV.lig_0>
-49.9393

>  <SCORE.INTRA.VDW>
-2.19513

>  <SCORE.INTRA.VDW.0>
-1.75437

>  <SCORE.INTRA.norm>
-0.0866121

>  <SCORE.RESTR>
0

>  <SCORE.RESTR.CAVITY>
0

>  <SCORE.RESTR.norm>
0

>  <SCORE.SYSTEM>
0

>  <SCORE.SYSTEM.CONST>
0

>  <SCORE.SYSTEM.DIHEDRAL>
0

>  <SCORE.SYSTEM.SOLV>
0

>  <SCORE.SYSTEM.norm>
0

>  <SCORE.heavy>
26

>  <SCORE.norm>
-0.731366

>  <RMSD>
7.590

$$$$
ligand
 OpenBabel11021811473D
libRbt.so/2013.1/901 2013/11/27
 26 28  0  0  0  0  0  0  0  0999 V2000
   -8.9373   15.5670  -20.4674 N   0  0  0  0  0  0  0  0  0  0  0  0
   -9.0445   15.2467  -19.0386 C   0  0  2  0  0  0  0  0  0  0  0  0
   -7.7720   15.6460  -18.3390 C   0  0  0  0  0  0  0  0  0  0  0  0
   -7.8198   16.2088  -17.2704 O   0  0  0  0  0  0  0  0  0  0  0  0
   -9.2705   13.7434  -18.8696 C   0  0  0  0  0  0  0  0  0  0  0  0
  -10.7679   13.4615  -18.7606 C   0  0  0  0  0  0  0  0  0  0  0  0
  -11.8335   13.9698  -19.9813 S   0  0  0  0  0  0  0  0  0  0  0  0
  -11.9730   13.8419  -21.7828 C   0  0  0  0  0  0  0  0  0  0  0  0
  -10.6805   13.4313  -22.4989 C   0  0  1  0  0  0  0  0  0  0  0  0
  -10.0933   12.2738  -21.9329 O   0  0  0  0  0  0  0  0  0  0  0  0
  -10.9301   13.0218  -23.9312 C   0  0  1  0  0  0  0  0  0  0  0  0
   -9.6934   13.2102  -24.5836 O   0  0  0  0  0  0  0  0  0  0  0  0
  -11.2114   11.5382  -23.8754 C   0  0  1  0  0  0  0  0  0  0  0  0
  -10.5812   10.8937  -24.9608 O   0  0  0  0  0  0  0  0  0  0  0  0
  -10.5566   11.1046  -22.5817 C   0  0  2  0  0  0  0  0  0  0  0  0
   -6.5825   15.3795  -18.9030 O   0  0  0  0  0  0  0  0  0  0  0  0
  -15.3018    9.0518  -21.8872 N   0  0  0  0  0  0  0  0  0  0  0  0
  -14.8171    9.7127  -22.9909 C   0  0  0  0  0  0  0  0  0  0  0  0
  -13.5313   10.1971  -22.9797 N   0  0  0  0  0  0  0  0  0  0  0  0
  -12.7422   10.0294  -21.9006 C   0  0  0  0  0  0  0  0  0  0  0  0
  -13.2093    9.3672  -20.7808 C   0  0  0  0  0  0  0  0  0  0  0  0
  -14.5096    8.8762  -20.7806 C   0  0  0  0  0  0  0  0  0  0  0  0
  -14.9998    8.2379  -19.7252 N   0  0  0  0  0  0  0  0  0  0  0  0
  -12.2205    9.3443  -19.8593 N   0  0  0  0  0  0  0  0  0  0  0  0
  -11.1467    9.9704  -20.3791 C   0  0  0  0  0  0  0  0  0  0  0  0
  -11.4554   10.4118  -21.6404 N   0  0  0  0  0  0  0  0  0  0  0  0
  2  1  1  6  0  0  0
  2  3  1  0  0  0  0
  2  5  1  0  0  0  0
  3  4  1  0  0  0  0
  3 16  1  0  0  0  0
  5  6  1  0  0  0  0
  6  7  1  0  0  0  0
  7  8  1  0  0  0  0
  9  8  1  1  0  0  0
  9 10  1  0  0  0  0
  9 11  1  0  0  0  0
 10 15  1  0  0  0  0
 11 12  1  6  0  0  0
 11 13  1  0  0  0  0
 13 14  1  6  0  0  0
 13 15  1  0  0  0  0
 15 26  1  1  0  0  0
 17 18  2  0  0  0  0
 17 22  1  0  0  0  0
 18 19  1  0  0  0  0
 19 20  2  0  0  0  0
 20 21  1  0  0  0  0
 20 26  1  0  0  0  0
 21 22  2  0  0  0  0
 21 24  1  0  0  0  0
 22 23  1  0  0  0  0
 24 25  2  0  0  0  0
 25 26  1  0  0  0  0
M  END
>  <CHROM.1>
136.80928576,-94.52072875,56.25692228,51.43280404,-16.49264314,50.72250889
125.83020218,-11.16092387,12.23535483,-21.12649821,-0.46956309,-0.79286263
-1.72193639

>  <Name>
ligand

>  <RI>
0

>  <Rbt.Current_Directory>
/home/itssahil/PROJECTS/Mol_Feturizer/New_Systems/rnas/3E5E

>  <Rbt.Executable>
rbdock ($Id: //depot/dev/client3/rdock/2013.1/src/exe/rbdock.cxx#4 $)

>  <Rbt.Library>
libRbt.so (2013.1, Build901 2013/11/27)

>  <Rbt.Parameter_File>
/export/apps/rDock/src/rDock_2013.1_src/data/scripts/dock_solv.prm

>  <Rbt.Receptor>
prm/pocket_docking_8.prm

>  <SCORE>
-23.9545

>  <SCORE.INTER>
-22.5214

>  <SCORE.INTER.CONST>
1

>  <SCORE.INTER.POLAR>
0

>  <SCORE.INTER.ROT>
7

>  <SCORE.INTER.SOLV>
11.2699

>  <SCORE.INTER.VDW>
-27.0376

>  <SCORE.INTER.norm>
-0.866206

>  <SCORE.INTRA>
-1.43313

>  <SCORE.INTRA.DIHEDRAL>
-1.38686

>  <SCORE.INTRA.DIHEDRAL.0>
10.1225

>  <SCORE.INTRA.POLAR>
0

>  <SCORE.INTRA.POLAR.0>
0

>  <SCORE.INTRA.REPUL>
0

>  <SCORE.INTRA.REPUL.0>
0

>  <SCORE.INTRA.SOLV>
2.9218

>  <SCORE.INTRA.SOLV.lig_0>
-49.9393

>  <SCORE.INTRA.VDW>
-2.2006

>  <SCORE.INTRA.VDW.0>
-1.75437

>  <SCORE.INTRA.norm>
-0.0551204

>  <SCORE.RESTR>
0

>  <SCORE.RESTR.CAVITY>
0

>  <SCORE.RESTR.norm>
0

>  <SCORE.SYSTEM>
0

>  <SCORE.SYSTEM.CONST>
0

>  <SCORE.SYSTEM.DIHEDRAL>
0

>  <SCORE.SYSTEM.SOLV>
0

>  <SCORE.SYSTEM.norm>
0

>  <SCORE.heavy>
26

>  <SCORE.norm>
-0.921327

>  <RMSD>
7.592

$$$$
ligand
 OpenBabel11021811473D
libRbt.so/2013.1/901 2013/11/27
 26 28  0  0  0  0  0  0  0  0999 V2000
   -5.6747   14.6199  -25.6157 N   0  0  0  0  0  0  0  0  0  0  0  0
   -5.8140   14.0960  -24.2513 C   0  0  2  0  0  0  0  0  0  0  0  0
   -4.4987   13.5177  -23.8001 C   0  0  0  0  0  0  0  0  0  0  0  0
   -3.8345   12.8566  -24.5635 O   0  0  0  0  0  0  0  0  0  0  0  0
   -6.8855   13.0045  -24.2323 C   0  0  0  0  0  0  0  0  0  0  0  0
   -8.2372   13.6097  -24.6067 C   0  0  0  0  0  0  0  0  0  0  0  0
   -9.6565   12.6827  -24.5051 S   0  0  0  0  0  0  0  0  0  0  0  0
  -11.3711   12.9047  -23.9646 C   0  0  0  0  0  0  0  0  0  0  0  0
  -11.7202   12.2170  -22.6392 C   0  0  1  0  0  0  0  0  0  0  0  0
  -10.7152   12.3934  -21.6575 O   0  0  0  0  0  0  0  0  0  0  0  0
  -12.9419   12.8226  -21.9894 C   0  0  1  0  0  0  0  0  0  0  0  0
  -13.4468   11.8083  -21.1487 O   0  0  0  0  0  0  0  0  0  0  0  0
  -12.4144   13.9377  -21.1168 C   0  0  1  0  0  0  0  0  0  0  0  0
  -13.1146   13.9546  -19.8920 O   0  0  0  0  0  0  0  0  0  0  0  0
  -10.9752   13.5402  -20.8700 C   0  0  2  0  0  0  0  0  0  0  0  0
   -4.0633   13.7337  -22.5480 O   0  0  0  0  0  0  0  0  0  0  0  0
   -6.7651   16.2182  -19.3476 N   0  0  0  0  0  0  0  0  0  0  0  0
   -7.4982   15.3075  -18.6242 C   0  0  0  0  0  0  0  0  0  0  0  0
   -8.5933   14.7096  -19.1996 N   0  0  0  0  0  0  0  0  0  0  0  0
   -8.9537   15.0051  -20.4637 C   0  0  0  0  0  0  0  0  0  0  0  0
   -8.2302   15.9170  -21.2090 C   0  0  0  0  0  0  0  0  0  0  0  0
   -7.1226   16.5300  -20.6351 C   0  0  0  0  0  0  0  0  0  0  0  0
   -6.4021   17.4145  -21.3135 N   0  0  0  0  0  0  0  0  0  0  0  0
   -8.8075   16.0213  -22.4269 N   0  0  0  0  0  0  0  0  0  0  0  0
   -9.8692   15.1926  -22.4614 C   0  0  0  0  0  0  0  0  0  0  0  0
   -9.9821   14.5622  -21.2486 N   0  0  0  0  0  0  0  0  0  0  0  0
  2  1  1  6  0  0  0
  2  3  1  0  0  0  0
  2  5  1  0  0  0  0
  3  4  1  0  0  0  0
  3 16  1  0  0  0  0
  5  6  1  0  0  0  0
  6  7  1  0  0  0  0
  7  8  1  0  0  0  0
  9  8  1  6  0  0  0
  9 10  1  0  0  0  0
  9 11  1  0  0  0  0
 10 15  1  0  0  0  0
 11 12  1  1  0  0  0
 11 13  1  0  0  0  0
 13 14  1  1  0  0  0
 13 15  1  0  0  0  0
 15 26  1  6  0  0  0
 17 18  2  0  0  0  0
 17 22  1  0  0  0  0
 18 19  1  0  0  0  0
 19 20  2  0  0  0  0
 20 21  1  0  0  0  0
 20 26  1  0  0  0  0
 21 22  2  0  0  0  0
 21 24  1  0  0  0  0
 22 23  1  0  0  0  0
 24 25  2  0  0  0  0
 25 26  1  0  0  0  0
M  END
>  <CHROM.1>
-41.60494954,-63.52068033,-173.15812876,138.99857419,-106.83033495,43.44591604
-110.48184823,-8.81148819,14.04863508,-22.23008638,0.14761153,-0.29299228
-2.13502432

>  <Name>
ligand

>  <RI>
0

>  <Rbt.Current_Directory>
/home/itssahil/PROJECTS/Mol_Feturizer/New_Systems/rnas/3E5E

>  <Rbt.Executable>
rbdock ($Id: //depot/dev/client3/rdock/2013.1/src/exe/rbdock.cxx#4 $)

>  <Rbt.Library>
libRbt.so (2013.1, Build901 2013/11/27)

>  <Rbt.Parameter_File>
/export/apps/rDock/src/rDock_2013.1_src/data/scripts/dock_solv.prm

>  <Rbt.Receptor>
prm/blind_docking_40.prm

>  <SCORE>
-19.0397

>  <SCORE.INTER>
-16.38

>  <SCORE.INTER.CONST>
1

>  <SCORE.INTER.POLAR>
0

>  <SCORE.INTER.ROT>
7

>  <SCORE.INTER.SOLV>
11.1432

>  <SCORE.INTER.VDW>
-22.9011

>  <SCORE.INTER.norm>
-0.629999

>  <SCORE.INTRA>
-2.6597

>  <SCORE.INTRA.DIHEDRAL>
-2.38553

>  <SCORE.INTRA.DIHEDRAL.0>
10.1225

>  <SCORE.INTRA.POLAR>
0

>  <SCORE.INTRA.POLAR.0>
0

>  <SCORE.INTRA.REPUL>
0

>  <SCORE.INTRA.REPUL.0>
0

>  <SCORE.INTRA.SOLV>
0.389244

>  <SCORE.INTRA.SOLV.lig_0>
-49.9393

>  <SCORE.INTRA.VDW>
-1.66156

>  <SCORE.INTRA.VDW.0>
-1.75437

>  <SCORE.INTRA.norm>
-0.102296

>  <SCORE.RESTR>
0

>  <SCORE.RESTR.CAVITY>
0

>  <SCORE.RESTR.norm>
0

>  <SCORE.SYSTEM>
0

>  <SCORE.SYSTEM.CONST>
0

>  <SCORE.SYSTEM.DIHEDRAL>
0

>  <SCORE.SYSTEM.SOLV>
0

>  <SCORE.SYSTEM.norm>
0

>  <SCORE.heavy>
26

>  <SCORE.norm>
-0.732295

>  <RMSD>
7.593

$$$$
ligand
 OpenBabel11021811473D
libRbt.so/2013.1/901 2013/11/27
 26 28  0  0  0  0  0  0  0  0999 V2000
  -14.0343    7.5032  -17.4048 N   0  0  0  0  0  0  0  0  0  0  0  0
  -13.4335    8.6291  -18.1308 C   0  0  2  0  0  0  0  0  0  0  0  0
  -13.6114    9.8928  -17.3311 C   0  0  0  0  0  0  0  0  0  0  0  0
  -13.1323   10.9304  -17.7246 O   0  0  0  0  0  0  0  0  0  0  0  0
  -14.1197    8.7830  -19.4892 C   0  0  0  0  0  0  0  0  0  0  0  0
  -13.2814    9.6942  -20.3840 C   0  0  0  0  0  0  0  0  0  0  0  0
  -13.8400   10.1444  -21.9233 S   0  0  0  0  0  0  0  0  0  0  0  0
  -14.1993    9.3464  -23.5092 C   0  0  0  0  0  0  0  0  0  0  0  0
  -15.0035    8.0448  -23.4049 C   0  0  1  0  0  0  0  0  0  0  0  0
  -15.1131    7.3761  -24.6482 O   0  0  0  0  0  0  0  0  0  0  0  0
  -14.3196    7.0233  -22.5272 C   0  0  1  0  0  0  0  0  0  0  0  0
  -15.3543    6.1702  -22.0889 O   0  0  0  0  0  0  0  0  0  0  0  0
  -13.4246    6.2379  -23.4574 C   0  0  1  0  0  0  0  0  0  0  0  0
  -13.4731    4.8687  -23.1203 O   0  0  0  0  0  0  0  0  0  0  0  0
  -14.0596    6.4461  -24.8153 C   0  0  2  0  0  0  0  0  0  0  0  0
  -14.3003    9.8678  -16.1784 O   0  0  0  0  0  0  0  0  0  0  0  0
   -9.9934    9.5862  -25.7211 N   0  0  0  0  0  0  0  0  0  0  0  0
  -10.6370    9.3548  -24.5285 C   0  0  0  0  0  0  0  0  0  0  0  0
  -11.7077    8.4943  -24.4925 N   0  0  0  0  0  0  0  0  0  0  0  0
  -12.1307    7.8751  -25.6118 C   0  0  0  0  0  0  0  0  0  0  0  0
  -11.4975    8.0928  -26.8210 C   0  0  0  0  0  0  0  0  0  0  0  0
  -10.4155    8.9640  -26.8689 C   0  0  0  0  0  0  0  0  0  0  0  0
   -9.7811    9.2049  -28.0096 N   0  0  0  0  0  0  0  0  0  0  0  0
  -12.1221    7.3537  -27.7650 N   0  0  0  0  0  0  0  0  0  0  0  0
  -13.1249    6.6761  -27.1732 C   0  0  0  0  0  0  0  0  0  0  0  0
  -13.1526    6.9956  -25.8397 N   0  0  0  0  0  0  0  0  0  0  0  0
  2  1  1  1  0  0  0
  2  3  1  0  0  0  0
  2  5  1  0  0  0  0
  3  4  1  0  0  0  0
  3 16  1  0  0  0  0
  5  6  1  0  0  0  0
  6  7  1  0  0  0  0
  7  8  1  0  0  0  0
  9  8  1  6  0  0  0
  9 10  1  0  0  0  0
  9 11  1  0  0  0  0
 10 15  1  0  0  0  0
 11 12  1  6  0  0  0
 11 13  1  0  0  0  0
 13 14  1  1  0  0  0
 13 15  1  0  0  0  0
 15 26  1  6  0  0  0
 17 18  2  0  0  0  0
 17 22  1  0  0  0  0
 18 19  1  0  0  0  0
 19 20  2  0  0  0  0
 20 21  1  0  0  0  0
 20 26  1  0  0  0  0
 21 22  2  0  0  0  0
 21 24  1  0  0  0  0
 22 23  1  0  0  0  0
 24 25  2  0  0  0  0
 25 26  1  0  0  0  0
M  END
>  <CHROM.1>
176.61646533,-165.47468742,-175.68329372,-65.84954453,45.77617583,-172.58648942
85.69793837,-13.14270239,8.30083300,-22.87644954,1.93579958,0.83025474,1.13058109

>  <Name>
ligand

>  <RI>
0

>  <Rbt.Current_Directory>
/home/itssahil/PROJECTS/Mol_Feturizer/New_Systems/rnas/3E5E

>  <Rbt.Executable>
rbdock ($Id: //depot/dev/client3/rdock/2013.1/src/exe/rbdock.cxx#4 $)

>  <Rbt.Library>
libRbt.so (2013.1, Build901 2013/11/27)

>  <Rbt.Parameter_File>
/export/apps/rDock/src/rDock_2013.1_src/data/scripts/dock_solv.prm

>  <Rbt.Receptor>
prm/pocket_docking_8.prm

>  <SCORE>
-15.2331

>  <SCORE.INTER>
-11.3637

>  <SCORE.INTER.CONST>
1

>  <SCORE.INTER.POLAR>
0

>  <SCORE.INTER.ROT>
7

>  <SCORE.INTER.SOLV>
6.08416

>  <SCORE.INTER.VDW>
-17.8705

>  <SCORE.INTER.norm>
-0.437067

>  <SCORE.INTRA>
-3.8694

>  <SCORE.INTRA.DIHEDRAL>
-5.8674

>  <SCORE.INTRA.DIHEDRAL.0>
10.1225

>  <SCORE.INTRA.POLAR>
0

>  <SCORE.INTRA.POLAR.0>
0

>  <SCORE.INTRA.REPUL>
0

>  <SCORE.INTRA.REPUL.0>
0

>  <SCORE.INTRA.SOLV>
-0.315719

>  <SCORE.INTRA.SOLV.lig_0>
-49.9393

>  <SCORE.INTRA.VDW>
-0.777839

>  <SCORE.INTRA.VDW.0>
-1.75437

>  <SCORE.INTRA.norm>
-0.148823

>  <SCORE.RESTR>
0

>  <SCORE.RESTR.CAVITY>
0

>  <SCORE.RESTR.norm>
0

>  <SCORE.SYSTEM>
0

>  <SCORE.SYSTEM.CONST>
0

>  <SCORE.SYSTEM.DIHEDRAL>
0

>  <SCORE.SYSTEM.SOLV>
0

>  <SCORE.SYSTEM.norm>
0

>  <SCORE.heavy>
26

>  <SCORE.norm>
-0.58589

>  <RMSD>
7.614

$$$$
ligand
 OpenBabel11021811473D
libRbt.so/2013.1/901 2013/11/27
 26 28  0  0  0  0  0  0  0  0999 V2000
   -6.6233   16.2675  -21.6421 N   0  0  0  0  0  0  0  0  0  0  0  0
   -7.6776   15.4523  -21.0262 C   0  0  2  0  0  0  0  0  0  0  0  0
   -8.9372   15.5609  -21.8446 C   0  0  0  0  0  0  0  0  0  0  0  0
   -9.6542   14.5977  -21.9827 O   0  0  0  0  0  0  0  0  0  0  0  0
   -7.9457   15.9549  -19.6066 C   0  0  0  0  0  0  0  0  0  0  0  0
   -8.4293   14.7954  -18.7375 C   0  0  0  0  0  0  0  0  0  0  0  0
   -9.9012   14.0184  -19.0749 S   0  0  0  0  0  0  0  0  0  0  0  0
  -10.4747   12.3567  -19.5119 C   0  0  0  0  0  0  0  0  0  0  0  0
  -11.9537   12.0880  -19.2086 C   0  0  1  0  0  0  0  0  0  0  0  0
  -12.8202   12.7671  -20.0991 O   0  0  0  0  0  0  0  0  0  0  0  0
  -12.3215   10.6375  -19.4145 C   0  0  1  0  0  0  0  0  0  0  0  0
  -13.4645   10.4353  -18.6126 O   0  0  0  0  0  0  0  0  0  0  0  0
  -12.7391   10.5368  -20.8631 C   0  0  1  0  0  0  0  0  0  0  0  0
  -13.8640    9.6926  -20.9759 O   0  0  0  0  0  0  0  0  0  0  0  0
  -13.1350   11.9547  -21.2143 C   0  0  2  0  0  0  0  0  0  0  0  0
   -9.2639   16.7276  -22.4243 O   0  0  0  0  0  0  0  0  0  0  0  0
  -10.1548   10.8995  -25.3638 N   0  0  0  0  0  0  0  0  0  0  0  0
  -10.6103   10.0278  -24.4032 C   0  0  0  0  0  0  0  0  0  0  0  0
  -11.3811   10.5019  -23.3693 N   0  0  0  0  0  0  0  0  0  0  0  0
  -11.6955   11.8095  -23.2889 C   0  0  0  0  0  0  0  0  0  0  0  0
  -11.2488   12.7029  -24.2444 C   0  0  0  0  0  0  0  0  0  0  0  0
  -10.4656   12.2341  -25.2926 C   0  0  0  0  0  0  0  0  0  0  0  0
  -10.0122   13.0578  -26.2294 N   0  0  0  0  0  0  0  0  0  0  0  0
  -11.7063   13.9330  -23.9205 N   0  0  0  0  0  0  0  0  0  0  0  0
  -12.4322   13.8277  -22.7904 C   0  0  0  0  0  0  0  0  0  0  0  0
  -12.4273   12.5197  -22.3779 N   0  0  0  0  0  0  0  0  0  0  0  0
  2  1  1  6  0  0  0
  2  3  1  0  0  0  0
  2  5  1  0  0  0  0
  3  4  1  0  0  0  0
  3 16  1  0  0  0  0
  5  6  1  0  0  0  0
  6  7  1  0  0  0  0
  7  8  1  0  0  0  0
  9  8  1  6  0  0  0
  9 10  1  0  0  0  0
  9 11  1  0  0  0  0
 10 15  1  0  0  0  0
 11 12  1  1  0  0  0
 11 13  1  0  0  0  0
 13 14  1  1  0  0  0
 13 15  1  0  0  0  0
 15 26  1  6  0  0  0
 17 18  2  0  0  0  0
 17 22  1  0  0  0  0
 18 19  1  0  0  0  0
 19 20  2  0  0  0  0
 20 21  1  0  0  0  0
 20 26  1  0  0  0  0
 21 22  2  0  0  0  0
 21 24  1  0  0  0  0
 22 23  1  0  0  0  0
 24 25  2  0  0  0  0
 25 26  1  0  0  0  0
M  END
>  <CHROM.1>
143.24633290,-150.85374867,-64.23723525,119.23740293,158.45901447,72.36730447
133.27530153,-10.79029356,12.96761057,-21.62964143,-0.25329642,-0.82757399
-1.73363900

>  <Name>
ligand

>  <RI>
0

>  <Rbt.Current_Directory>
/home/itssahil/PROJECTS/Mol_Feturizer/New_Systems/rnas/3E5E

>  <Rbt.Executable>
rbdock ($Id: //depot/dev/client3/rdock/2013.1/src/exe/rbdock.cxx#4 $)

>  <Rbt.Library>
libRbt.so (2013.1, Build901 2013/11/27)

>  <Rbt.Parameter_File>
/export/apps/rDock/src/rDock_2013.1_src/data/scripts/dock_solv.prm

>  <Rbt.Receptor>
prm/blind_docking_40.prm

>  <SCORE>
-22.9695

>  <SCORE.INTER>
-20.4036

>  <SCORE.INTER.CONST>
1

>  <SCORE.INTER.POLAR>
0

>  <SCORE.INTER.ROT>
7

>  <SCORE.INTER.SOLV>
13.3182

>  <SCORE.INTER.VDW>
-26.3085

>  <SCORE.INTER.norm>
-0.784753

>  <SCORE.INTRA>
-2.56596

>  <SCORE.INTRA.DIHEDRAL>
-0.99096

>  <SCORE.INTRA.DIHEDRAL.0>
10.1225

>  <SCORE.INTRA.POLAR>
0

>  <SCORE.INTRA.POLAR.0>
0

>  <SCORE.INTRA.REPUL>
0

>  <SCORE.INTRA.REPUL.0>
0

>  <SCORE.INTRA.SOLV>
-0.335519

>  <SCORE.INTRA.SOLV.lig_0>
-49.9393

>  <SCORE.INTRA.VDW>
-1.90272

>  <SCORE.INTRA.VDW.0>
-1.75437

>  <SCORE.INTRA.norm>
-0.0986908

>  <SCORE.RESTR>
0

>  <SCORE.RESTR.CAVITY>
0

>  <SCORE.RESTR.norm>
0

>  <SCORE.SYSTEM>
0

>  <SCORE.SYSTEM.CONST>
0

>  <SCORE.SYSTEM.DIHEDRAL>
0

>  <SCORE.SYSTEM.SOLV>
0

>  <SCORE.SYSTEM.norm>
0

>  <SCORE.heavy>
26

>  <SCORE.norm>
-0.883444

>  <RMSD>
7.654

$$$$
ligand
 OpenBabel11021811473D
libRbt.so/2013.1/901 2013/11/27
 26 28  0  0  0  0  0  0  0  0999 V2000
   -7.4840   16.5384  -18.8046 N   0  0  0  0  0  0  0  0  0  0  0  0
   -7.8626   15.3233  -19.5365 C   0  0  2  0  0  0  0  0  0  0  0  0
   -7.8959   15.6178  -21.0130 C   0  0  0  0  0  0  0  0  0  0  0  0
   -8.5939   16.5091  -21.4368 O   0  0  0  0  0  0  0  0  0  0  0  0
   -9.2465   14.8623  -19.0760 C   0  0  0  0  0  0  0  0  0  0  0  0
   -9.6198   13.5687  -19.7976 C   0  0  0  0  0  0  0  0  0  0  0  0
  -11.1330   12.8419  -19.5404 S   0  0  0  0  0  0  0  0  0  0  0  0
  -11.8030   11.1730  -19.3234 C   0  0  0  0  0  0  0  0  0  0  0  0
  -13.3308   11.0780  -19.4157 C   0  0  1  0  0  0  0  0  0  0  0  0
  -13.8143   11.3850  -20.7107 O   0  0  0  0  0  0  0  0  0  0  0  0
  -13.8270    9.6691  -19.1914 C   0  0  1  0  0  0  0  0  0  0  0  0
  -15.1634    9.8183  -18.7644 O   0  0  0  0  0  0  0  0  0  0  0  0
  -13.8391    9.0309  -20.5609 C   0  0  1  0  0  0  0  0  0  0  0  0
  -14.9960    8.2362  -20.7048 O   0  0  0  0  0  0  0  0  0  0  0  0
  -13.9202   10.2150  -21.4999 C   0  0  2  0  0  0  0  0  0  0  0  0
   -7.1521   14.8888  -21.8611 O   0  0  0  0  0  0  0  0  0  0  0  0
  -11.1756   13.3008  -24.6872 N   0  0  0  0  0  0  0  0  0  0  0  0
  -12.2207   13.6472  -23.8639 C   0  0  0  0  0  0  0  0  0  0  0  0
  -12.8310   12.6809  -23.1012 N   0  0  0  0  0  0  0  0  0  0  0  0
  -12.4149   11.4004  -23.1510 C   0  0  0  0  0  0  0  0  0  0  0  0
  -11.3655   11.0307  -23.9711 C   0  0  0  0  0  0  0  0  0  0  0  0
  -10.7434   12.0000  -24.7492 C   0  0  0  0  0  0  0  0  0  0  0  0
   -9.7348   11.6880  -25.5536 N   0  0  0  0  0  0  0  0  0  0  0  0
  -11.1622    9.7022  -23.8256 N   0  0  0  0  0  0  0  0  0  0  0  0
  -12.0547    9.2357  -22.9306 C   0  0  0  0  0  0  0  0  0  0  0  0
  -12.8474   10.2728  -22.5097 N   0  0  0  0  0  0  0  0  0  0  0  0
  2  1  1  1  0  0  0
  2  3  1  0  0  0  0
  2  5  1  0  0  0  0
  3  4  1  0  0  0  0
  3 16  1  0  0  0  0
  5  6  1  0  0  0  0
  6  7  1  0  0  0  0
  7  8  1  0  0  0  0
  9  8  1  6  0  0  0
  9 10  1  0  0  0  0
  9 11  1  0  0  0  0
 10 15  1  0  0  0  0
 11 12  1  6  0  0  0
 11 13  1  0  0  0  0
 13 14  1  1  0  0  0
 13 15  1  0  0  0  0
 15 26  1  6  0  0  0
 17 18  2  0  0  0  0
 17 22  1  0  0  0  0
 18 19  1  0  0  0  0
 19 20  2  0  0  0  0
 20 21  1  0  0  0  0
 20 26  1  0  0  0  0
 21 22  2  0  0  0  0
 21 24  1  0  0  0  0
 22 23  1  0  0  0  0
 24 25  2  0  0  0  0
 25 26  1  0  0  0  0
M  END
>  <CHROM.1>
-56.28896524,-177.86914163,-177.54933494,-139.15071543,-167.57921109,65.90413170
-37.43583810,-11.38899463,12.19112271,-21.36813085,0.20517859,0.77632928
1.35073425

>  <Name>
ligand

>  <RI>
0

>  <Rbt.Current_Directory>
/home/itssahil/PROJECTS/Mol_Feturizer/New_Systems/rnas/3E5E

>  <Rbt.Executable>
rbdock ($Id: //depot/dev/client3/rdock/2013.1/src/exe/rbdock.cxx#4 $)

>  <Rbt.Library>
libRbt.so (2013.1, Build901 2013/11/27)

>  <Rbt.Parameter_File>
/export/apps/rDock/src/rDock_2013.1_src/data/scripts/dock_solv.prm

>  <Rbt.Receptor>
prm/pocket_docking_3.prm

>  <SCORE>
-18.9512

>  <SCORE.INTER>
-15.5099

>  <SCORE.INTER.CONST>
1

>  <SCORE.INTER.POLAR>
0

>  <SCORE.INTER.ROT>
7

>  <SCORE.INTER.SOLV>
15.5553

>  <SCORE.INTER.VDW>
-23.7917

>  <SCORE.INTER.norm>
-0.596534

>  <SCORE.INTRA>
-3.44941

>  <SCORE.INTRA.DIHEDRAL>
-5.07117

>  <SCORE.INTRA.DIHEDRAL.0>
10.1225

>  <SCORE.INTRA.POLAR>
0

>  <SCORE.INTRA.POLAR.0>
0

>  <SCORE.INTRA.REPUL>
0

>  <SCORE.INTRA.REPUL.0>
0

>  <SCORE.INTRA.SOLV>
-0.588482

>  <SCORE.INTRA.SOLV.lig_0>
-49.9393

>  <SCORE.INTRA.VDW>
-0.619583

>  <SCORE.INTRA.VDW.0>
-1.75437

>  <SCORE.INTRA.norm>
-0.13267

>  <SCORE.RESTR>
0.00805857

>  <SCORE.RESTR.CAVITY>
0.00805857

>  <SCORE.RESTR.norm>
0.000309945

>  <SCORE.SYSTEM>
0

>  <SCORE.SYSTEM.CONST>
0

>  <SCORE.SYSTEM.DIHEDRAL>
0

>  <SCORE.SYSTEM.SOLV>
0

>  <SCORE.SYSTEM.norm>
0

>  <SCORE.heavy>
26

>  <SCORE.norm>
-0.728894

>  <RMSD>
7.697

$$$$
ligand
 OpenBabel11021811473D
libRbt.so/2013.1/901 2013/11/27
 26 28  0  0  0  0  0  0  0  0999 V2000
   -6.6969   16.0592  -20.5083 N   0  0  0  0  0  0  0  0  0  0  0  0
   -7.8154   15.9033  -19.5701 C   0  0  2  0  0  0  0  0  0  0  0  0
   -7.2792   15.7724  -18.1688 C   0  0  0  0  0  0  0  0  0  0  0  0
   -6.2865   15.1153  -17.9596 O   0  0  0  0  0  0  0  0  0  0  0  0
   -8.6119   14.6485  -19.9318 C   0  0  0  0  0  0  0  0  0  0  0  0
   -9.8066   14.5132  -18.9896 C   0  0  0  0  0  0  0  0  0  0  0  0
  -11.1143   13.5070  -19.3918 S   0  0  0  0  0  0  0  0  0  0  0  0
  -11.4930   11.7358  -19.4046 C   0  0  0  0  0  0  0  0  0  0  0  0
  -12.9888   11.3992  -19.3722 C   0  0  1  0  0  0  0  0  0  0  0  0
  -13.5869   11.4713  -20.6536 O   0  0  0  0  0  0  0  0  0  0  0  0
  -13.2404    9.9685  -18.9582 C   0  0  1  0  0  0  0  0  0  0  0  0
  -14.5574    9.9631  -18.4522 O   0  0  0  0  0  0  0  0  0  0  0  0
  -13.2274    9.1761  -20.2446 C   0  0  1  0  0  0  0  0  0  0  0  0
  -14.2489    8.2033  -20.2141 O   0  0  0  0  0  0  0  0  0  0  0  0
  -13.5489   10.2126  -21.2995 C   0  0  2  0  0  0  0  0  0  0  0  0
   -7.9051   16.3834  -17.1496 O   0  0  0  0  0  0  0  0  0  0  0  0
  -11.2136   13.3887  -24.7159 N   0  0  0  0  0  0  0  0  0  0  0  0
  -12.2127   13.6924  -23.8217 C   0  0  0  0  0  0  0  0  0  0  0  0
  -12.7131   12.7073  -23.0050 N   0  0  0  0  0  0  0  0  0  0  0  0
  -12.2338   11.4498  -23.0706 C   0  0  0  0  0  0  0  0  0  0  0  0
  -11.2290   11.1231  -23.9617 C   0  0  0  0  0  0  0  0  0  0  0  0
  -10.7181   12.1115  -24.7947 C   0  0  0  0  0  0  0  0  0  0  0  0
   -9.7558   11.8406  -25.6677 N   0  0  0  0  0  0  0  0  0  0  0  0
  -10.9449    9.8095  -23.8164 N   0  0  0  0  0  0  0  0  0  0  0  0
  -11.7433    9.3106  -22.8526 C   0  0  0  0  0  0  0  0  0  0  0  0
  -12.5574   10.3110  -22.3863 N   0  0  0  0  0  0  0  0  0  0  0  0
  2  1  1  6  0  0  0
  2  3  1  0  0  0  0
  2  5  1  0  0  0  0
  3  4  1  0  0  0  0
  3 16  1  0  0  0  0
  5  6  1  0  0  0  0
  6  7  1  0  0  0  0
  7  8  1  0  0  0  0
  9  8  1  6  0  0  0
  9 10  1  0  0  0  0
  9 11  1  0  0  0  0
 10 15  1  0  0  0  0
 11 12  1  6  0  0  0
 11 13  1  0  0  0  0
 13 14  1  1  0  0  0
 13 15  1  0  0  0  0
 15 26  1  6  0  0  0
 17 18  2  0  0  0  0
 17 22  1  0  0  0  0
 18 19  1  0  0  0  0
 19 20  2  0  0  0  0
 20 21  1  0  0  0  0
 20 26  1  0  0  0  0
 21 22  2  0  0  0  0
 21 24  1  0  0  0  0
 22 23  1  0  0  0  0
 24 25  2  0  0  0  0
 25 26  1  0  0  0  0
M  END
>  <CHROM.1>
-40.16137994,-177.88443941,162.28829595,76.82244494,158.26803959,82.13820999
-29.07088893,-11.06606399,12.37002310,-20.91228099,-0.47125801,-0.75870994
-1.70218878

>  <Name>
ligand

>  <RI>
0

>  <Rbt.Current_Directory>
/home/itssahil/PROJECTS/Mol_Feturizer/New_Systems/rnas/3E5E

>  <Rbt.Executable>
rbdock ($Id: //depot/dev/client3/rdock/2013.1/src/exe/rbdock.cxx#4 $)

>  <Rbt.Library>
libRbt.so (2013.1, Build901 2013/11/27)

>  <Rbt.Parameter_File>
/export/apps/rDock/src/rDock_2013.1_src/data/scripts/dock_solv.prm

>  <Rbt.Receptor>
prm/pocket_docking_4.prm

>  <SCORE>
-24.8063

>  <SCORE.INTER>
-22.3072

>  <SCORE.INTER.CONST>
1

>  <SCORE.INTER.POLAR>
0

>  <SCORE.INTER.ROT>
7

>  <SCORE.INTER.SOLV>
13.7678

>  <SCORE.INTER.VDW>
-27.7274

>  <SCORE.INTER.norm>
-0.85797

>  <SCORE.INTRA>
-2.49906

>  <SCORE.INTRA.DIHEDRAL>
-3.48932

>  <SCORE.INTRA.DIHEDRAL.0>
10.1225

>  <SCORE.INTRA.POLAR>
0

>  <SCORE.INTRA.POLAR.0>
0

>  <SCORE.INTRA.REPUL>
0

>  <SCORE.INTRA.REPUL.0>
0

>  <SCORE.INTRA.SOLV>
-0.623497

>  <SCORE.INTRA.SOLV.lig_0>
-49.9393

>  <SCORE.INTRA.VDW>
-0.442652

>  <SCORE.INTRA.VDW.0>
-1.75437

>  <SCORE.INTRA.norm>
-0.0961176

>  <SCORE.RESTR>
0

>  <SCORE.RESTR.CAVITY>
0

>  <SCORE.RESTR.norm>
0

>  <SCORE.SYSTEM>
0

>  <SCORE.SYSTEM.CONST>
0

>  <SCORE.SYSTEM.DIHEDRAL>
0

>  <SCORE.SYSTEM.SOLV>
0

>  <SCORE.SYSTEM.norm>
0

>  <SCORE.heavy>
26

>  <SCORE.norm>
-0.954088

>  <RMSD>
7.698

$$$$
ligand
 OpenBabel11021811473D
libRbt.so/2013.1/901 2013/11/27
 26 28  0  0  0  0  0  0  0  0999 V2000
   -6.3816   16.5981  -20.5725 N   0  0  0  0  0  0  0  0  0  0  0  0
   -7.2880   15.4807  -20.2802 C   0  0  2  0  0  0  0  0  0  0  0  0
   -8.2097   15.2640  -21.4514 C   0  0  0  0  0  0  0  0  0  0  0  0
   -8.1832   14.2183  -22.0570 O   0  0  0  0  0  0  0  0  0  0  0  0
   -8.1130   15.8071  -19.0342 C   0  0  0  0  0  0  0  0  0  0  0  0
   -8.8456   14.5518  -18.5640 C   0  0  0  0  0  0  0  0  0  0  0  0
   -9.9553   13.7670  -19.5822 S   0  0  0  0  0  0  0  0  0  0  0  0
  -10.7333   12.1370  -19.7196 C   0  0  0  0  0  0  0  0  0  0  0  0
  -12.2481   12.1268  -19.4808 C   0  0  1  0  0  0  0  0  0  0  0  0
  -12.9860   12.1509  -20.6890 O   0  0  0  0  0  0  0  0  0  0  0  0
  -12.7110   10.8481  -18.8237 C   0  0  1  0  0  0  0  0  0  0  0  0
  -13.9259   11.1844  -18.1900 O   0  0  0  0  0  0  0  0  0  0  0  0
  -13.0202    9.9064  -19.9642 C   0  0  1  0  0  0  0  0  0  0  0  0
  -14.1954    9.1807  -19.6762 O   0  0  0  0  0  0  0  0  0  0  0  0
  -13.2750   10.8375  -21.1298 C   0  0  2  0  0  0  0  0  0  0  0  0
   -9.0604   16.2335  -21.8259 O   0  0  0  0  0  0  0  0  0  0  0  0
  -10.4968   12.9990  -24.9799 N   0  0  0  0  0  0  0  0  0  0  0  0
  -11.2423   13.6318  -24.0136 C   0  0  0  0  0  0  0  0  0  0  0  0
  -11.9211   12.8826  -23.0830 N   0  0  0  0  0  0  0  0  0  0  0  0
  -11.8616   11.5368  -23.1072 C   0  0  0  0  0  0  0  0  0  0  0  0
  -11.1173   10.8804  -24.0694 C   0  0  0  0  0  0  0  0  0  0  0  0
  -10.4296   11.6290  -25.0174 C   0  0  0  0  0  0  0  0  0  0  0  0
   -9.7063   11.0395  -25.9613 N   0  0  0  0  0  0  0  0  0  0  0  0
  -11.2346    9.5500  -23.8607 N   0  0  0  0  0  0  0  0  0  0  0  0
  -12.0285    9.3609  -22.7886 C   0  0  0  0  0  0  0  0  0  0  0  0
  -12.4360   10.5818  -22.3149 N   0  0  0  0  0  0  0  0  0  0  0  0
  2  1  1  6  0  0  0
  2  3  1  0  0  0  0
  2  5  1  0  0  0  0
  3  4  1  0  0  0  0
  3 16  1  0  0  0  0
  5  6  1  0  0  0  0
  6  7  1  0  0  0  0
  7  8  1  0  0  0  0
  9  8  1  6  0  0  0
  9 10  1  0  0  0  0
  9 11  1  0  0  0  0
 10 15  1  0  0  0  0
 11 12  1  6  0  0  0
 11 13  1  0  0  0  0
 13 14  1  1  0  0  0
 13 15  1  0  0  0  0
 15 26  1  6  0  0  0
 17 18  2  0  0  0  0
 17 22  1  0  0  0  0
 18 19  1  0  0  0  0
 19 20  2  0  0  0  0
 20 21  1  0  0  0  0
 20 26  1  0  0  0  0
 21 22  2  0  0  0  0
 21 24  1  0  0  0  0
 22 23  1  0  0  0  0
 24 25  2  0  0  0  0
 25 26  1  0  0  0  0
M  END
>  <CHROM.1>
117.63484856,-168.69625651,-60.10390609,160.68131284,113.69064383,97.77534730
-20.70466611,-10.79985740,12.56373500,-21.38635065,-0.32798019,-0.77776456
-1.86050794

>  <Name>
ligand

>  <RI>
0

>  <Rbt.Current_Directory>
/home/itssahil/PROJECTS/Mol_Feturizer/New_Systems/rnas/3E5E

>  <Rbt.Executable>
rbdock ($Id: //depot/dev/client3/rdock/2013.1/src/exe/rbdock.cxx#4 $)

>  <Rbt.Library>
libRbt.so (2013.1, Build901 2013/11/27)

>  <Rbt.Parameter_File>
/export/apps/rDock/src/rDock_2013.1_src/data/scripts/dock_solv.prm

>  <Rbt.Receptor>
prm/blind_docking_40.prm

>  <SCORE>
-17.5703

>  <SCORE.INTER>
-16.2442

>  <SCORE.INTER.CONST>
1

>  <SCORE.INTER.POLAR>
0

>  <SCORE.INTER.ROT>
7

>  <SCORE.INTER.SOLV>
13.5049

>  <SCORE.INTER.VDW>
-23.5977

>  <SCORE.INTER.norm>
-0.624776

>  <SCORE.INTRA>
-1.32616

>  <SCORE.INTRA.DIHEDRAL>
-0.287134

>  <SCORE.INTRA.DIHEDRAL.0>
10.1225

>  <SCORE.INTRA.POLAR>
0

>  <SCORE.INTRA.POLAR.0>
0

>  <SCORE.INTRA.REPUL>
0

>  <SCORE.INTRA.REPUL.0>
0

>  <SCORE.INTRA.SOLV>
-0.397118

>  <SCORE.INTRA.SOLV.lig_0>
-49.9393

>  <SCORE.INTRA.VDW>
-0.984039

>  <SCORE.INTRA.VDW.0>
-1.75437

>  <SCORE.INTRA.norm>
-0.0510063

>  <SCORE.RESTR>
0

>  <SCORE.RESTR.CAVITY>
0

>  <SCORE.RESTR.norm>
0

>  <SCORE.SYSTEM>
0

>  <SCORE.SYSTEM.CONST>
0

>  <SCORE.SYSTEM.DIHEDRAL>
0

>  <SCORE.SYSTEM.SOLV>
0

>  <SCORE.SYSTEM.norm>
0

>  <SCORE.heavy>
26

>  <SCORE.norm>
-0.675782

>  <RMSD>
7.712

$$$$
ligand
 OpenBabel11021811473D
libRbt.so/2013.1/901 2013/11/27
 26 28  0  0  0  0  0  0  0  0999 V2000
   -5.9458   15.7309  -20.8373 N   0  0  0  0  0  0  0  0  0  0  0  0
   -7.0884   16.4329  -20.2396 C   0  0  2  0  0  0  0  0  0  0  0  0
   -7.3371   15.8963  -18.8546 C   0  0  0  0  0  0  0  0  0  0  0  0
   -6.5316   15.1579  -18.3380 O   0  0  0  0  0  0  0  0  0  0  0  0
   -8.3306   16.2115  -21.1042 C   0  0  0  0  0  0  0  0  0  0  0  0
   -8.6445   14.7181  -21.1736 C   0  0  0  0  0  0  0  0  0  0  0  0
   -9.6378   13.9890  -20.0050 S   0  0  0  0  0  0  0  0  0  0  0  0
  -10.3429   12.3543  -19.6709 C   0  0  0  0  0  0  0  0  0  0  0  0
  -11.7853   12.3718  -19.1504 C   0  0  1  0  0  0  0  0  0  0  0  0
  -12.6392   13.1687  -19.9508 O   0  0  0  0  0  0  0  0  0  0  0  0
  -12.4300   11.0075  -19.2173 C   0  0  1  0  0  0  0  0  0  0  0  0
  -13.4604   11.0450  -18.2543 O   0  0  0  0  0  0  0  0  0  0  0  0
  -13.0671   10.9375  -20.5856 C   0  0  1  0  0  0  0  0  0  0  0  0
  -14.3278   10.3108  -20.4914 O   0  0  0  0  0  0  0  0  0  0  0  0
  -13.2532   12.3916  -20.9617 C   0  0  2  0  0  0  0  0  0  0  0  0
   -8.4556   16.2356  -18.1928 O   0  0  0  0  0  0  0  0  0  0  0  0
  -10.2261   10.8424  -24.9178 N   0  0  0  0  0  0  0  0  0  0  0  0
  -10.5593   10.1444  -23.7812 C   0  0  0  0  0  0  0  0  0  0  0  0
  -11.3671   10.7322  -22.8378 N   0  0  0  0  0  0  0  0  0  0  0  0
  -11.8361   11.9825  -23.0164 C   0  0  0  0  0  0  0  0  0  0  0  0
  -11.5142   12.7016  -24.1520 C   0  0  0  0  0  0  0  0  0  0  0  0
  -10.6950   12.1174  -25.1109 C   0  0  0  0  0  0  0  0  0  0  0  0
  -10.3577   12.7736  -26.2142 N   0  0  0  0  0  0  0  0  0  0  0  0
  -12.1124   13.9112  -24.0710 N   0  0  0  0  0  0  0  0  0  0  0  0
  -12.8043   13.9616  -22.9160 C   0  0  0  0  0  0  0  0  0  0  0  0
  -12.6355   12.7784  -22.2433 N   0  0  0  0  0  0  0  0  0  0  0  0
  2  1  1  6  0  0  0
  2  3  1  0  0  0  0
  2  5  1  0  0  0  0
  3  4  1  0  0  0  0
  3 16  1  0  0  0  0
  5  6  1  0  0  0  0
  6  7  1  0  0  0  0
  7  8  1  0  0  0  0
  9  8  1  6  0  0  0
  9 10  1  0  0  0  0
  9 11  1  0  0  0  0
 10 15  1  0  0  0  0
 11 12  1  1  0  0  0
 11 13  1  0  0  0  0
 13 14  1  1  0  0  0
 13 15  1  0  0  0  0
 15 26  1  6  0  0  0
 17 18  2  0  0  0  0
 17 22  1  0  0  0  0
 18 19  1  0  0  0  0
 19 20  2  0  0  0  0
 20 21  1  0  0  0  0
 20 26  1  0  0  0  0
 21 22  2  0  0  0  0
 21 24  1  0  0  0  0
 22 23  1  0  0  0  0
 24 25  2  0  0  0  0
 25 26  1  0  0  0  0
M  END
>  <CHROM.1>
10.28684171,60.53615038,88.46950140,177.15321599,-140.28627056,50.21450198
112.55203944,-10.61465403,13.13500956,-21.23395660,-0.51771923,-0.64650852
-1.72723154

>  <Name>
ligand

>  <RI>
0

>  <Rbt.Current_Directory>
/home/itssahil/PROJECTS/Mol_Feturizer/New_Systems/rnas/3E5E

>  <Rbt.Executable>
rbdock ($Id: //depot/dev/client3/rdock/2013.1/src/exe/rbdock.cxx#4 $)

>  <Rbt.Library>
libRbt.so (2013.1, Build901 2013/11/27)

>  <Rbt.Parameter_File>
/export/apps/rDock/src/rDock_2013.1_src/data/scripts/dock_solv.prm

>  <Rbt.Receptor>
prm/pocket_docking_5.prm

>  <SCORE>
-20.0709

>  <SCORE.INTER>
-18.4715

>  <SCORE.INTER.CONST>
1

>  <SCORE.INTER.POLAR>
0

>  <SCORE.INTER.ROT>
7

>  <SCORE.INTER.SOLV>
18.2258

>  <SCORE.INTER.VDW>
-26.6562

>  <SCORE.INTER.norm>
-0.710441

>  <SCORE.INTRA>
-1.60333

>  <SCORE.INTRA.DIHEDRAL>
-2.72106

>  <SCORE.INTRA.DIHEDRAL.0>
10.1225

>  <SCORE.INTRA.POLAR>
0

>  <SCORE.INTRA.POLAR.0>
0

>  <SCORE.INTRA.REPUL>
0

>  <SCORE.INTRA.REPUL.0>
0

>  <SCORE.INTRA.SOLV>
0.656706

>  <SCORE.INTRA.SOLV.lig_0>
-49.9393

>  <SCORE.INTRA.VDW>
-0.571152

>  <SCORE.INTRA.VDW.0>
-1.75437

>  <SCORE.INTRA.norm>
-0.0616664

>  <SCORE.RESTR>
0.00386107

>  <SCORE.RESTR.CAVITY>
0.00386107

>  <SCORE.RESTR.norm>
0.000148503

>  <SCORE.SYSTEM>
0

>  <SCORE.SYSTEM.CONST>
0

>  <SCORE.SYSTEM.DIHEDRAL>
0

>  <SCORE.SYSTEM.SOLV>
0

>  <SCORE.SYSTEM.norm>
0

>  <SCORE.heavy>
26

>  <SCORE.norm>
-0.771959

>  <RMSD>
7.785

$$$$
ligand
 OpenBabel11021811473D
libRbt.so/2013.1/901 2013/11/27
 26 28  0  0  0  0  0  0  0  0999 V2000
  -12.2131   13.5790  -23.9400 N   0  0  0  0  0  0  0  0  0  0  0  0
  -10.9584   12.8349  -23.7733 C   0  0  2  0  0  0  0  0  0  0  0  0
  -11.2341   11.3581  -23.8791 C   0  0  0  0  0  0  0  0  0  0  0  0
  -12.1963   10.8808  -23.3245 O   0  0  0  0  0  0  0  0  0  0  0  0
  -10.3608   13.1461  -22.4001 C   0  0  0  0  0  0  0  0  0  0  0  0
   -9.8406   14.5823  -22.3835 C   0  0  0  0  0  0  0  0  0  0  0  0
   -8.6048   15.0656  -23.4434 S   0  0  0  0  0  0  0  0  0  0  0  0
   -7.2651   16.2842  -23.4794 C   0  0  0  0  0  0  0  0  0  0  0  0
   -6.3322   16.2483  -22.2628 C   0  0  1  0  0  0  0  0  0  0  0  0
   -5.8124   14.9541  -22.0182 O   0  0  0  0  0  0  0  0  0  0  0  0
   -5.0897   17.0805  -22.4748 C   0  0  1  0  0  0  0  0  0  0  0  0
   -4.6399   17.3992  -21.1762 O   0  0  0  0  0  0  0  0  0  0  0  0
   -4.0866   16.1412  -23.1029 C   0  0  1  0  0  0  0  0  0  0  0  0
   -2.8090   16.3711  -22.5499 O   0  0  0  0  0  0  0  0  0  0  0  0
   -4.5780   14.7719  -22.6860 C   0  0  2  0  0  0  0  0  0  0  0  0
  -10.4097   10.5692  -24.5876 O   0  0  0  0  0  0  0  0  0  0  0  0
   -7.4535   10.7719  -24.4020 N   0  0  0  0  0  0  0  0  0  0  0  0
   -7.5025   11.3856  -23.1728 C   0  0  0  0  0  0  0  0  0  0  0  0
   -6.6470   12.4259  -22.9007 N   0  0  0  0  0  0  0  0  0  0  0  0
   -5.7638   12.8503  -23.8254 C   0  0  0  0  0  0  0  0  0  0  0  0
   -5.6985   12.2480  -25.0678 C   0  0  0  0  0  0  0  0  0  0  0  0
   -6.5572   11.1927  -25.3520 C   0  0  0  0  0  0  0  0  0  0  0  0
   -6.5255   10.5832  -26.5306 N   0  0  0  0  0  0  0  0  0  0  0  0
   -4.7353   12.8657  -25.7875 N   0  0  0  0  0  0  0  0  0  0  0  0
   -4.2028   13.8420  -25.0270 C   0  0  0  0  0  0  0  0  0  0  0  0
   -4.8207   13.8401  -23.8026 N   0  0  0  0  0  0  0  0  0  0  0  0
  2  1  1  1  0  0  0
  2  3  1  0  0  0  0
  2  5  1  0  0  0  0
  3  4  1  0  0  0  0
  3 16  1  0  0  0  0
  5  6  1  0  0  0  0
  6  7  1  0  0  0  0
  7  8  1  0  0  0  0
  9  8  1  6  0  0  0
  9 10  1  0  0  0  0
  9 11  1  0  0  0  0
 10 15  1  0  0  0  0
 11 12  1  1  0  0  0
 11 13  1  0  0  0  0
 13 14  1  1  0  0  0
 13 15  1  0  0  0  0
 15 26  1  6  0  0  0
 17 18  2  0  0  0  0
 17 22  1  0  0  0  0
 18 19  1  0  0  0  0
 19 20  2  0  0  0  0
 20 21  1  0  0  0  0
 20 26  1  0  0  0  0
 21 22  2  0  0  0  0
 21 24  1  0  0  0  0
 22 23  1  0  0  0  0
 24 25  2  0  0  0  0
 25 26  1  0  0  0  0
M  END
>  <CHROM.1>
-43.26143337,-70.58772345,-61.43929287,-151.39794205,52.62370551,52.88385910
-29.87381563,-7.25995310,13.69245602,-23.54456434,2.55754085,-0.17462232
-2.61778881

>  <Name>
ligand

>  <RI>
0

>  <Rbt.Current_Directory>
/home/itssahil/PROJECTS/Mol_Feturizer/New_Systems/rnas/3E5E

>  <Rbt.Executable>
rbdock ($Id: //depot/dev/client3/rdock/2013.1/src/exe/rbdock.cxx#4 $)

>  <Rbt.Library>
libRbt.so (2013.1, Build901 2013/11/27)

>  <Rbt.Parameter_File>
/export/apps/rDock/src/rDock_2013.1_src/data/scripts/dock_solv.prm

>  <Rbt.Receptor>
prm/pocket_docking_6.prm

>  <SCORE>
-14.7036

>  <SCORE.INTER>
-9.62026

>  <SCORE.INTER.CONST>
1

>  <SCORE.INTER.POLAR>
0

>  <SCORE.INTER.ROT>
7

>  <SCORE.INTER.SOLV>
15.2423

>  <SCORE.INTER.VDW>
-19.7609

>  <SCORE.INTER.norm>
-0.37001

>  <SCORE.INTRA>
-5.08825

>  <SCORE.INTRA.DIHEDRAL>
-5.50789

>  <SCORE.INTRA.DIHEDRAL.0>
10.1225

>  <SCORE.INTRA.POLAR>
0

>  <SCORE.INTRA.POLAR.0>
0

>  <SCORE.INTRA.REPUL>
0

>  <SCORE.INTRA.REPUL.0>
0

>  <SCORE.INTRA.SOLV>
0.788987

>  <SCORE.INTRA.SOLV.lig_0>
-49.9393

>  <SCORE.INTRA.VDW>
-2.7288

>  <SCORE.INTRA.VDW.0>
-1.75437

>  <SCORE.INTRA.norm>
-0.195702

>  <SCORE.RESTR>
0.00487495

>  <SCORE.RESTR.CAVITY>
0.00487495

>  <SCORE.RESTR.norm>
0.000187498

>  <SCORE.SYSTEM>
0

>  <SCORE.SYSTEM.CONST>
0

>  <SCORE.SYSTEM.DIHEDRAL>
0

>  <SCORE.SYSTEM.SOLV>
0

>  <SCORE.SYSTEM.norm>
0

>  <SCORE.heavy>
26

>  <SCORE.norm>
-0.565525

>  <RMSD>
7.840

$$$$
ligand
 OpenBabel11021811473D
libRbt.so/2013.1/901 2013/11/27
 26 28  0  0  0  0  0  0  0  0999 V2000
   -5.7405   16.9582  -23.2877 N   0  0  0  0  0  0  0  0  0  0  0  0
   -5.5713   15.5110  -23.4680 C   0  0  2  0  0  0  0  0  0  0  0  0
   -4.2011   15.1040  -22.9936 C   0  0  0  0  0  0  0  0  0  0  0  0
   -3.2871   15.8939  -23.0345 O   0  0  0  0  0  0  0  0  0  0  0  0
   -5.7240   15.1615  -24.9493 C   0  0  0  0  0  0  0  0  0  0  0  0
   -7.1608   15.4319  -25.3921 C   0  0  0  0  0  0  0  0  0  0  0  0
   -8.4365   14.4669  -24.8214 S   0  0  0  0  0  0  0  0  0  0  0  0
   -8.8367   13.5076  -23.3380 C   0  0  0  0  0  0  0  0  0  0  0  0
  -10.1863   12.7812  -23.3883 C   0  0  1  0  0  0  0  0  0  0  0  0
  -10.4908   12.1217  -22.1729 O   0  0  0  0  0  0  0  0  0  0  0  0
  -11.3416   13.7399  -23.5550 C   0  0  1  0  0  0  0  0  0  0  0  0
  -12.3771   12.9661  -24.1201 O   0  0  0  0  0  0  0  0  0  0  0  0
  -11.7491   14.1168  -22.1497 C   0  0  1  0  0  0  0  0  0  0  0  0
  -13.1562   14.1696  -22.0608 O   0  0  0  0  0  0  0  0  0  0  0  0
  -11.2334   12.9657  -21.3133 C   0  0  2  0  0  0  0  0  0  0  0  0
   -3.9926   13.8619  -22.5270 O   0  0  0  0  0  0  0  0  0  0  0  0
   -7.6011   16.3579  -19.7281 N   0  0  0  0  0  0  0  0  0  0  0  0
   -8.2154   16.2854  -20.9559 C   0  0  0  0  0  0  0  0  0  0  0  0
   -9.1475   15.3033  -21.1899 N   0  0  0  0  0  0  0  0  0  0  0  0
   -9.4657   14.4138  -20.2293 C   0  0  0  0  0  0  0  0  0  0  0  0
   -8.8608   14.4692  -18.9877 C   0  0  0  0  0  0  0  0  0  0  0  0
   -7.9141   15.4568  -18.7418 C   0  0  0  0  0  0  0  0  0  0  0  0
   -7.3060   15.5439  -17.5652 N   0  0  0  0  0  0  0  0  0  0  0  0
   -9.3613   13.4694  -18.2279 N   0  0  0  0  0  0  0  0  0  0  0  0
  -10.2676   12.7960  -18.9629 C   0  0  0  0  0  0  0  0  0  0  0  0
  -10.3376   13.3606  -20.2109 N   0  0  0  0  0  0  0  0  0  0  0  0
  2  1  1  6  0  0  0
  2  3  1  0  0  0  0
  2  5  1  0  0  0  0
  3  4  1  0  0  0  0
  3 16  1  0  0  0  0
  5  6  1  0  0  0  0
  6  7  1  0  0  0  0
  7  8  1  0  0  0  0
  9  8  1  1  0  0  0
  9 10  1  0  0  0  0
  9 11  1  0  0  0  0
 10 15  1  0  0  0  0
 11 12  1  1  0  0  0
 11 13  1  0  0  0  0
 13 14  1  6  0  0  0
 13 15  1  0  0  0  0
 15 26  1  1  0  0  0
 17 18  2  0  0  0  0
 17 22  1  0  0  0  0
 18 19  1  0  0  0  0
 19 20  2  0  0  0  0
 20 21  1  0  0  0  0
 20 26  1  0  0  0  0
 21 22  2  0  0  0  0
 21 24  1  0  0  0  0
 22 23  1  0  0  0  0
 24 25  2  0  0  0  0
 25 26  1  0  0  0  0
M  END
>  <CHROM.1>
-28.21461148,-66.21831413,-69.02596882,29.83303565,-178.84717977,-176.01759983
85.89191718,-8.52800474,14.45140591,-22.03315593,0.25233271,-0.33311382,-1.64386971

>  <Name>
ligand

>  <RI>
0

>  <Rbt.Current_Directory>
/home/itssahil/PROJECTS/Mol_Feturizer/New_Systems/rnas/3E5E

>  <Rbt.Executable>
rbdock ($Id: //depot/dev/client3/rdock/2013.1/src/exe/rbdock.cxx#4 $)

>  <Rbt.Library>
libRbt.so (2013.1, Build901 2013/11/27)

>  <Rbt.Parameter_File>
/export/apps/rDock/src/rDock_2013.1_src/data/scripts/dock_solv.prm

>  <Rbt.Receptor>
prm/blind_docking_40.prm

>  <SCORE>
-20.3227

>  <SCORE.INTER>
-16.7062

>  <SCORE.INTER.CONST>
1

>  <SCORE.INTER.POLAR>
0

>  <SCORE.INTER.ROT>
7

>  <SCORE.INTER.SOLV>
18.4656

>  <SCORE.INTER.VDW>
-25.5593

>  <SCORE.INTER.norm>
-0.642545

>  <SCORE.INTRA>
-3.61658

>  <SCORE.INTRA.DIHEDRAL>
-5.59895

>  <SCORE.INTRA.DIHEDRAL.0>
10.1225

>  <SCORE.INTRA.POLAR>
0

>  <SCORE.INTRA.POLAR.0>
0

>  <SCORE.INTRA.REPUL>
0

>  <SCORE.INTRA.REPUL.0>
0

>  <SCORE.INTRA.SOLV>
1.01487

>  <SCORE.INTRA.SOLV.lig_0>
-49.9393

>  <SCORE.INTRA.VDW>
-1.32454

>  <SCORE.INTRA.VDW.0>
-1.75437

>  <SCORE.INTRA.norm>
-0.139099

>  <SCORE.RESTR>
0

>  <SCORE.RESTR.CAVITY>
0

>  <SCORE.RESTR.norm>
0

>  <SCORE.SYSTEM>
0

>  <SCORE.SYSTEM.CONST>
0

>  <SCORE.SYSTEM.DIHEDRAL>
0

>  <SCORE.SYSTEM.SOLV>
0

>  <SCORE.SYSTEM.norm>
0

>  <SCORE.heavy>
26

>  <SCORE.norm>
-0.781644

>  <RMSD>
7.853

$$$$
ligand
 OpenBabel11021811473D
libRbt.so/2013.1/901 2013/11/27
 26 28  0  0  0  0  0  0  0  0999 V2000
   -9.3584   14.6501  -21.9481 N   0  0  0  0  0  0  0  0  0  0  0  0
   -8.7715   15.7544  -21.1788 C   0  0  2  0  0  0  0  0  0  0  0  0
   -7.7932   16.5035  -22.0446 C   0  0  0  0  0  0  0  0  0  0  0  0
   -7.2164   17.4718  -21.6077 O   0  0  0  0  0  0  0  0  0  0  0  0
   -8.0453   15.1927  -19.9553 C   0  0  0  0  0  0  0  0  0  0  0  0
   -9.0613   14.8775  -18.8590 C   0  0  0  0  0  0  0  0  0  0  0  0
  -10.3897   13.8683  -19.1767 S   0  0  0  0  0  0  0  0  0  0  0  0
  -10.6894   12.1282  -19.5811 C   0  0  0  0  0  0  0  0  0  0  0  0
  -12.1390   11.6655  -19.3902 C   0  0  1  0  0  0  0  0  0  0  0  0
  -13.0218   12.2523  -20.3289 O   0  0  0  0  0  0  0  0  0  0  0  0
  -12.3016   10.1860  -19.6473 C   0  0  1  0  0  0  0  0  0  0  0  0
  -13.4619    9.8188  -18.9337 O   0  0  0  0  0  0  0  0  0  0  0  0
  -12.6014   10.0715  -21.1238 C   0  0  1  0  0  0  0  0  0  0  0  0
  -13.5975    9.0943  -21.3323 O   0  0  0  0  0  0  0  0  0  0  0  0
  -13.1513   11.4363  -21.4779 C   0  0  2  0  0  0  0  0  0  0  0  0
   -7.5624   16.0983  -23.3042 O   0  0  0  0  0  0  0  0  0  0  0  0
  -10.0141   10.8293  -25.6015 N   0  0  0  0  0  0  0  0  0  0  0  0
  -10.4495    9.8696  -24.7186 C   0  0  0  0  0  0  0  0  0  0  0  0
  -11.2701   10.2298  -23.6770 N   0  0  0  0  0  0  0  0  0  0  0  0
  -11.6528   11.5113  -23.5141 C   0  0  0  0  0  0  0  0  0  0  0  0
  -11.2274   12.4918  -24.3905 C   0  0  0  0  0  0  0  0  0  0  0  0
  -10.3944   12.1385  -25.4456 C   0  0  0  0  0  0  0  0  0  0  0  0
   -9.9592   13.0486  -26.3081 N   0  0  0  0  0  0  0  0  0  0  0  0
  -11.7553   13.6716  -23.9945 N   0  0  0  0  0  0  0  0  0  0  0  0
  -12.5041   13.4499  -22.8966 C   0  0  0  0  0  0  0  0  0  0  0  0
  -12.4432   12.1175  -22.5773 N   0  0  0  0  0  0  0  0  0  0  0  0
  2  1  1  6  0  0  0
  2  3  1  0  0  0  0
  2  5  1  0  0  0  0
  3  4  1  0  0  0  0
  3 16  1  0  0  0  0
  5  6  1  0  0  0  0
  6  7  1  0  0  0  0
  7  8  1  0  0  0  0
  9  8  1  6  0  0  0
  9 10  1  0  0  0  0
  9 11  1  0  0  0  0
 10 15  1  0  0  0  0
 11 12  1  1  0  0  0
 11 13  1  0  0  0  0
 13 14  1  1  0  0  0
 13 15  1  0  0  0  0
 15 26  1  6  0  0  0
 17 18  2  0  0  0  0
 17 22  1  0  0  0  0
 18 19  1  0  0  0  0
 19 20  2  0  0  0  0
 20 21  1  0  0  0  0
 20 26  1  0  0  0  0
 21 22  2  0  0  0  0
 21 24  1  0  0  0  0
 22 23  1  0  0  0  0
 24 25  2  0  0  0  0
 25 26  1  0  0  0  0
M  END
>  <CHROM.1>
178.50637192,-79.88231658,54.37319109,66.58843193,163.86962338,68.57327550
139.12717609,-10.77686219,12.78425295,-21.83811759,-0.17625432,-0.88370753
-1.81206294

>  <Name>
ligand

>  <RI>
0

>  <Rbt.Current_Directory>
/home/itssahil/PROJECTS/Mol_Feturizer/New_Systems/rnas/3E5E

>  <Rbt.Executable>
rbdock ($Id: //depot/dev/client3/rdock/2013.1/src/exe/rbdock.cxx#4 $)

>  <Rbt.Library>
libRbt.so (2013.1, Build901 2013/11/27)

>  <Rbt.Parameter_File>
/export/apps/rDock/src/rDock_2013.1_src/data/scripts/dock_solv.prm

>  <Rbt.Receptor>
prm/blind_docking_40.prm

>  <SCORE>
-20.9004

>  <SCORE.INTER>
-18.7523

>  <SCORE.INTER.CONST>
1

>  <SCORE.INTER.POLAR>
0

>  <SCORE.INTER.ROT>
7

>  <SCORE.INTER.SOLV>
12.6489

>  <SCORE.INTER.VDW>
-24.9845

>  <SCORE.INTER.norm>
-0.721243

>  <SCORE.INTRA>
-2.14804

>  <SCORE.INTRA.DIHEDRAL>
-5.2081

>  <SCORE.INTRA.DIHEDRAL.0>
10.1225

>  <SCORE.INTRA.POLAR>
0

>  <SCORE.INTRA.POLAR.0>
0

>  <SCORE.INTRA.REPUL>
0

>  <SCORE.INTRA.REPUL.0>
0

>  <SCORE.INTRA.SOLV>
2.66484

>  <SCORE.INTRA.SOLV.lig_0>
-49.9393

>  <SCORE.INTRA.VDW>
-0.87641

>  <SCORE.INTRA.VDW.0>
-1.75437

>  <SCORE.INTRA.norm>
-0.0826169

>  <SCORE.RESTR>
0

>  <SCORE.RESTR.CAVITY>
0

>  <SCORE.RESTR.norm>
0

>  <SCORE.SYSTEM>
0

>  <SCORE.SYSTEM.CONST>
0

>  <SCORE.SYSTEM.DIHEDRAL>
0

>  <SCORE.SYSTEM.SOLV>
0

>  <SCORE.SYSTEM.norm>
0

>  <SCORE.heavy>
26

>  <SCORE.norm>
-0.80386

>  <RMSD>
7.874

$$$$
ligand
 OpenBabel11021811473D
libRbt.so/2013.1/901 2013/11/27
 26 28  0  0  0  0  0  0  0  0999 V2000
   -7.6627   16.6603  -18.3483 N   0  0  0  0  0  0  0  0  0  0  0  0
   -7.2599   15.6364  -19.3204 C   0  0  2  0  0  0  0  0  0  0  0  0
   -6.5266   16.2902  -20.4618 C   0  0  0  0  0  0  0  0  0  0  0  0
   -6.9405   17.3228  -20.9347 O   0  0  0  0  0  0  0  0  0  0  0  0
   -8.5039   14.9236  -19.8536 C   0  0  0  0  0  0  0  0  0  0  0  0
   -9.2328   14.2374  -18.6998 C   0  0  0  0  0  0  0  0  0  0  0  0
  -10.5714   13.2356  -18.9978 S   0  0  0  0  0  0  0  0  0  0  0  0
  -10.9063   11.6382  -19.7835 C   0  0  0  0  0  0  0  0  0  0  0  0
  -12.3664   11.1766  -19.7019 C   0  0  1  0  0  0  0  0  0  0  0  0
  -13.2028   11.8651  -20.6136 O   0  0  0  0  0  0  0  0  0  0  0  0
  -12.5295    9.7323  -20.1130 C   0  0  1  0  0  0  0  0  0  0  0  0
  -13.7227    9.3098  -19.4900 O   0  0  0  0  0  0  0  0  0  0  0  0
  -12.7654    9.7698  -21.6050 C   0  0  1  0  0  0  0  0  0  0  0  0
  -13.7593    8.8307  -21.9528 O   0  0  0  0  0  0  0  0  0  0  0  0
  -13.2885   11.1698  -21.8433 C   0  0  2  0  0  0  0  0  0  0  0  0
   -5.4134   15.7254  -20.9574 O   0  0  0  0  0  0  0  0  0  0  0  0
   -9.6839   10.9829  -25.6097 N   0  0  0  0  0  0  0  0  0  0  0  0
  -10.1270    9.9574  -24.8083 C   0  0  0  0  0  0  0  0  0  0  0  0
  -11.0834   10.2083  -23.8542 N   0  0  0  0  0  0  0  0  0  0  0  0
  -11.5912   11.4464  -23.6980 C   0  0  0  0  0  0  0  0  0  0  0  0
  -11.1606   12.4915  -24.4935 C   0  0  0  0  0  0  0  0  0  0  0  0
  -10.1910   12.2491  -25.4595 C   0  0  0  0  0  0  0  0  0  0  0  0
   -9.7461   13.2243  -26.2421 N   0  0  0  0  0  0  0  0  0  0  0  0
  -11.8286   13.6074  -24.1247 N   0  0  0  0  0  0  0  0  0  0  0  0
  -12.6693   13.2827  -23.1233 C   0  0  0  0  0  0  0  0  0  0  0  0
  -12.5278   11.9487  -22.8375 N   0  0  0  0  0  0  0  0  0  0  0  0
  2  1  1  1  0  0  0
  2  3  1  0  0  0  0
  2  5  1  0  0  0  0
  3  4  1  0  0  0  0
  3 16  1  0  0  0  0
  5  6  1  0  0  0  0
  6  7  1  0  0  0  0
  7  8  1  0  0  0  0
  9  8  1  6  0  0  0
  9 10  1  0  0  0  0
  9 11  1  0  0  0  0
 10 15  1  0  0  0  0
 11 12  1  1  0  0  0
 11 13  1  0  0  0  0
 13 14  1  1  0  0  0
 13 15  1  0  0  0  0
 15 26  1  6  0  0  0
 17 18  2  0  0  0  0
 17 22  1  0  0  0  0
 18 19  1  0  0  0  0
 19 20  2  0  0  0  0
 20 21  1  0  0  0  0
 20 26  1  0  0  0  0
 21 22  2  0  0  0  0
 21 24  1  0  0  0  0
 22 23  1  0  0  0  0
 24 25  2  0  0  0  0
 25 26  1  0  0  0  0
M  END
>  <CHROM.1>
-42.99014562,-61.15396601,-174.00878272,67.52651816,177.36301910,76.21471610
131.43744084,-10.57938852,12.61963370,-21.59988667,0.44864675,0.76027371
1.39128569

>  <Name>
ligand

>  <RI>
0

>  <Rbt.Current_Directory>
/home/itssahil/PROJECTS/Mol_Feturizer/New_Systems/rnas/3E5E

>  <Rbt.Executable>
rbdock ($Id: //depot/dev/client3/rdock/2013.1/src/exe/rbdock.cxx#4 $)

>  <Rbt.Library>
libRbt.so (2013.1, Build901 2013/11/27)

>  <Rbt.Parameter_File>
/export/apps/rDock/src/rDock_2013.1_src/data/scripts/dock_solv.prm

>  <Rbt.Receptor>
prm/pocket_docking_7.prm

>  <SCORE>
-22.2472

>  <SCORE.INTER>
-18.9283

>  <SCORE.INTER.CONST>
1

>  <SCORE.INTER.POLAR>
0

>  <SCORE.INTER.ROT>
7

>  <SCORE.INTER.SOLV>
18.7159

>  <SCORE.INTER.VDW>
-27.1242

>  <SCORE.INTER.norm>
-0.728011

>  <SCORE.INTRA>
-3.31889

>  <SCORE.INTRA.DIHEDRAL>
-6.34962

>  <SCORE.INTRA.DIHEDRAL.0>
10.1225

>  <SCORE.INTRA.POLAR>
0

>  <SCORE.INTRA.POLAR.0>
0

>  <SCORE.INTRA.REPUL>
0

>  <SCORE.INTRA.REPUL.0>
0

>  <SCORE.INTRA.SOLV>
0.141225

>  <SCORE.INTRA.SOLV.lig_0>
-49.9393

>  <SCORE.INTRA.VDW>
-0.214695

>  <SCORE.INTRA.VDW.0>
-1.75437

>  <SCORE.INTRA.norm>
-0.12765

>  <SCORE.RESTR>
0

>  <SCORE.RESTR.CAVITY>
0

>  <SCORE.RESTR.norm>
0

>  <SCORE.SYSTEM>
0

>  <SCORE.SYSTEM.CONST>
0

>  <SCORE.SYSTEM.DIHEDRAL>
0

>  <SCORE.SYSTEM.SOLV>
0

>  <SCORE.SYSTEM.norm>
0

>  <SCORE.heavy>
26

>  <SCORE.norm>
-0.855661

>  <RMSD>
7.922

$$$$
ligand
 OpenBabel11021811473D
libRbt.so/2013.1/901 2013/11/27
 26 28  0  0  0  0  0  0  0  0999 V2000
   -7.8968   14.7369  -23.3473 N   0  0  0  0  0  0  0  0  0  0  0  0
   -8.5088   15.4129  -22.1966 C   0  0  2  0  0  0  0  0  0  0  0  0
   -8.4146   16.9043  -22.3835 C   0  0  0  0  0  0  0  0  0  0  0  0
   -7.4553   17.5076  -21.9630 O   0  0  0  0  0  0  0  0  0  0  0  0
   -7.7709   15.0105  -20.9185 C   0  0  0  0  0  0  0  0  0  0  0  0
   -8.6906   15.2075  -19.7148 C   0  0  0  0  0  0  0  0  0  0  0  0
  -10.0543   14.2187  -19.4988 S   0  0  0  0  0  0  0  0  0  0  0  0
  -10.4490   12.4510  -19.5148 C   0  0  0  0  0  0  0  0  0  0  0  0
  -11.9064   12.1158  -19.1754 C   0  0  1  0  0  0  0  0  0  0  0  0
  -12.8239   12.7472  -20.0498 O   0  0  0  0  0  0  0  0  0  0  0  0
  -12.2105   10.6483  -19.3635 C   0  0  1  0  0  0  0  0  0  0  0  0
  -13.3241   10.3988  -18.5340 O   0  0  0  0  0  0  0  0  0  0  0  0
  -12.6562   10.5175  -20.8014 C   0  0  1  0  0  0  0  0  0  0  0  0
  -13.7426    9.6209  -20.8826 O   0  0  0  0  0  0  0  0  0  0  0  0
  -13.1260   11.9127  -21.1522 C   0  0  2  0  0  0  0  0  0  0  0  0
   -9.3978   17.5662  -23.0154 O   0  0  0  0  0  0  0  0  0  0  0  0
  -10.2520   10.9567  -25.3995 N   0  0  0  0  0  0  0  0  0  0  0  0
  -10.6515   10.0692  -24.4285 C   0  0  0  0  0  0  0  0  0  0  0  0
  -11.4018   10.5177  -23.3684 N   0  0  0  0  0  0  0  0  0  0  0  0
  -11.7505   11.8155  -23.2725 C   0  0  0  0  0  0  0  0  0  0  0  0
  -11.3603   12.7244  -24.2380 C   0  0  0  0  0  0  0  0  0  0  0  0
  -10.5982   12.2816  -25.3128 C   0  0  0  0  0  0  0  0  0  0  0  0
  -10.1987   13.1210  -26.2601 N   0  0  0  0  0  0  0  0  0  0  0  0
  -11.8418   13.9399  -23.8944 N   0  0  0  0  0  0  0  0  0  0  0  0
  -12.5277   13.8102  -22.7421 C   0  0  0  0  0  0  0  0  0  0  0  0
  -12.4724   12.5015  -22.3354 N   0  0  0  0  0  0  0  0  0  0  0  0
  2  1  1  6  0  0  0
  2  3  1  0  0  0  0
  2  5  1  0  0  0  0
  3  4  1  0  0  0  0
  3 16  1  0  0  0  0
  5  6  1  0  0  0  0
  6  7  1  0  0  0  0
  7  8  1  0  0  0  0
  9  8  1  6  0  0  0
  9 10  1  0  0  0  0
  9 11  1  0  0  0  0
 10 15  1  0  0  0  0
 11 12  1  1  0  0  0
 11 13  1  0  0  0  0
 13 14  1  1  0  0  0
 13 15  1  0  0  0  0
 15 26  1  6  0  0  0
 17 18  2  0  0  0  0
 17 22  1  0  0  0  0
 18 19  1  0  0  0  0
 19 20  2  0  0  0  0
 20 21  1  0  0  0  0
 20 26  1  0  0  0  0
 21 22  2  0  0  0  0
 21 24  1  0  0  0  0
 22 23  1  0  0  0  0
 24 25  2  0  0  0  0
 25 26  1  0  0  0  0
M  END
>  <CHROM.1>
-90.36370469,-156.76548299,68.46944025,48.95127734,177.16842989,57.72230904
134.59020687,-10.78961099,13.11421937,-21.87975210,0.03395818,-0.91761773
-1.78866311

>  <Name>
ligand

>  <RI>
0

>  <Rbt.Current_Directory>
/home/itssahil/PROJECTS/Mol_Feturizer/New_Systems/rnas/3E5E

>  <Rbt.Executable>
rbdock ($Id: //depot/dev/client3/rdock/2013.1/src/exe/rbdock.cxx#4 $)

>  <Rbt.Library>
libRbt.so (2013.1, Build901 2013/11/27)

>  <Rbt.Parameter_File>
/export/apps/rDock/src/rDock_2013.1_src/data/scripts/dock_solv.prm

>  <Rbt.Receptor>
prm/pocket_docking_4.prm

>  <SCORE>
-20.6227

>  <SCORE.INTER>
-17.4862

>  <SCORE.INTER.CONST>
1

>  <SCORE.INTER.POLAR>
0

>  <SCORE.INTER.ROT>
7

>  <SCORE.INTER.SOLV>
12.5661

>  <SCORE.INTER.VDW>
-24.1129

>  <SCORE.INTER.norm>
-0.672547

>  <SCORE.INTRA>
-3.13645

>  <SCORE.INTRA.DIHEDRAL>
-5.08865

>  <SCORE.INTRA.DIHEDRAL.0>
10.1225

>  <SCORE.INTRA.POLAR>
0

>  <SCORE.INTRA.POLAR.0>
0

>  <SCORE.INTRA.REPUL>
0

>  <SCORE.INTRA.REPUL.0>
0

>  <SCORE.INTRA.SOLV>
0.284632

>  <SCORE.INTRA.SOLV.lig_0>
-49.9393

>  <SCORE.INTRA.VDW>
-0.734437

>  <SCORE.INTRA.VDW.0>
-1.75437

>  <SCORE.INTRA.norm>
-0.120633

>  <SCORE.RESTR>
0

>  <SCORE.RESTR.CAVITY>
0

>  <SCORE.RESTR.norm>
0

>  <SCORE.SYSTEM>
0

>  <SCORE.SYSTEM.CONST>
0

>  <SCORE.SYSTEM.DIHEDRAL>
0

>  <SCORE.SYSTEM.SOLV>
0

>  <SCORE.SYSTEM.norm>
0

>  <SCORE.heavy>
26

>  <SCORE.norm>
-0.79318

>  <RMSD>
7.965

$$$$
ligand
 OpenBabel11021811473D
libRbt.so/2013.1/901 2013/11/27
 26 28  0  0  0  0  0  0  0  0999 V2000
   -5.9154   16.4620  -22.0813 N   0  0  0  0  0  0  0  0  0  0  0  0
   -7.2255   16.0635  -21.5518 C   0  0  2  0  0  0  0  0  0  0  0  0
   -8.3094   16.8127  -22.2812 C   0  0  0  0  0  0  0  0  0  0  0  0
   -9.3705   16.2781  -22.5031 O   0  0  0  0  0  0  0  0  0  0  0  0
   -7.2926   16.3921  -20.0594 C   0  0  0  0  0  0  0  0  0  0  0  0
   -7.8078   15.1760  -19.2918 C   0  0  0  0  0  0  0  0  0  0  0  0
   -9.3331   14.5163  -19.6417 S   0  0  0  0  0  0  0  0  0  0  0  0
  -10.2204   13.8726  -21.0837 C   0  0  0  0  0  0  0  0  0  0  0  0
  -11.7476   13.9846  -20.9999 C   0  0  1  0  0  0  0  0  0  0  0  0
  -12.3823   13.6424  -22.2185 O   0  0  0  0  0  0  0  0  0  0  0  0
  -12.3367   12.9981  -20.0195 C   0  0  1  0  0  0  0  0  0  0  0  0
  -13.5770   13.5558  -19.6441 O   0  0  0  0  0  0  0  0  0  0  0  0
  -12.6071   11.7504  -20.8277 C   0  0  1  0  0  0  0  0  0  0  0  0
  -13.8424   11.1905  -20.4387 O   0  0  0  0  0  0  0  0  0  0  0  0
  -12.7112   12.2662  -22.2467 C   0  0  2  0  0  0  0  0  0  0  0  0
   -8.0974   18.0750  -22.6883 O   0  0  0  0  0  0  0  0  0  0  0  0
   -8.7182   12.9743  -25.5282 N   0  0  0  0  0  0  0  0  0  0  0  0
   -9.3847   13.9210  -24.7868 C   0  0  0  0  0  0  0  0  0  0  0  0
  -10.4299   13.5379  -23.9813 N   0  0  0  0  0  0  0  0  0  0  0  0
  -10.8060   12.2461  -23.9100 C   0  0  0  0  0  0  0  0  0  0  0  0
  -10.1491   11.2781  -24.6462 C   0  0  0  0  0  0  0  0  0  0  0  0
   -9.0925   11.6556  -25.4666 C   0  0  0  0  0  0  0  0  0  0  0  0
   -8.4368   10.7594  -26.1937 N   0  0  0  0  0  0  0  0  0  0  0  0
  -10.7274   10.0841  -24.3870 N   0  0  0  0  0  0  0  0  0  0  0  0
  -11.7244   10.2827  -23.5029 C   0  0  0  0  0  0  0  0  0  0  0  0
  -11.7953   11.6194  -23.2041 N   0  0  0  0  0  0  0  0  0  0  0  0
  2  1  1  6  0  0  0
  2  3  1  0  0  0  0
  2  5  1  0  0  0  0
  3  4  1  0  0  0  0
  3 16  1  0  0  0  0
  5  6  1  0  0  0  0
  6  7  1  0  0  0  0
  7  8  1  0  0  0  0
  9  8  1  6  0  0  0
  9 10  1  0  0  0  0
  9 11  1  0  0  0  0
 10 15  1  0  0  0  0
 11 12  1  6  0  0  0
 11 13  1  0  0  0  0
 13 14  1  1  0  0  0
 13 15  1  0  0  0  0
 15 26  1  6  0  0  0
 17 18  2  0  0  0  0
 17 22  1  0  0  0  0
 18 19  1  0  0  0  0
 19 20  2  0  0  0  0
 20 21  1  0  0  0  0
 20 26  1  0  0  0  0
 21 22  2  0  0  0  0
 21 24  1  0  0  0  0
 22 23  1  0  0  0  0
 24 25  2  0  0  0  0
 25 26  1  0  0  0  0
M  END
>  <CHROM.1>
145.24014406,-131.33607165,-59.24901946,55.21139448,-153.37570716,171.78820358
0.82808470,-10.14245691,13.61842599,-22.23482741,-0.70709550,-0.64329074
-2.19684095

>  <Name>
ligand

>  <RI>
0

>  <Rbt.Current_Directory>
/home/itssahil/PROJECTS/Mol_Feturizer/New_Systems/rnas/3E5E

>  <Rbt.Executable>
rbdock ($Id: //depot/dev/client3/rdock/2013.1/src/exe/rbdock.cxx#4 $)

>  <Rbt.Library>
libRbt.so (2013.1, Build901 2013/11/27)

>  <Rbt.Parameter_File>
/export/apps/rDock/src/rDock_2013.1_src/data/scripts/dock_solv.prm

>  <Rbt.Receptor>
prm/blind_docking_60.prm

>  <SCORE>
-16.2429

>  <SCORE.INTER>
-14.3995

>  <SCORE.INTER.CONST>
1

>  <SCORE.INTER.POLAR>
0

>  <SCORE.INTER.ROT>
7

>  <SCORE.INTER.SOLV>
8.68612

>  <SCORE.INTER.VDW>
-20.7617

>  <SCORE.INTER.norm>
-0.553827

>  <SCORE.INTRA>
-2.11466

>  <SCORE.INTRA.DIHEDRAL>
-0.792827

>  <SCORE.INTRA.DIHEDRAL.0>
10.1225

>  <SCORE.INTRA.POLAR>
0

>  <SCORE.INTRA.POLAR.0>
0

>  <SCORE.INTRA.REPUL>
0

>  <SCORE.INTRA.REPUL.0>
0

>  <SCORE.INTRA.SOLV>
-0.238651

>  <SCORE.INTRA.SOLV.lig_0>
-49.9393

>  <SCORE.INTRA.VDW>
-1.59892

>  <SCORE.INTRA.VDW.0>
-1.75437

>  <SCORE.INTRA.norm>
-0.0813332

>  <SCORE.RESTR>
0.271264

>  <SCORE.RESTR.CAVITY>
0.271264

>  <SCORE.RESTR.norm>
0.0104332

>  <SCORE.SYSTEM>
0

>  <SCORE.SYSTEM.CONST>
0

>  <SCORE.SYSTEM.DIHEDRAL>
0

>  <SCORE.SYSTEM.SOLV>
0

>  <SCORE.SYSTEM.norm>
0

>  <SCORE.heavy>
26

>  <SCORE.norm>
-0.624727

>  <RMSD>
7.988

$$$$
ligand
 OpenBabel11021811473D
libRbt.so/2013.1/901 2013/11/27
 26 28  0  0  0  0  0  0  0  0999 V2000
   -7.4101   16.9396  -21.9156 N   0  0  0  0  0  0  0  0  0  0  0  0
   -7.6856   16.4085  -20.5749 C   0  0  2  0  0  0  0  0  0  0  0  0
   -6.4079   15.8902  -19.9692 C   0  0  0  0  0  0  0  0  0  0  0  0
   -6.3110   15.7719  -18.7701 O   0  0  0  0  0  0  0  0  0  0  0  0
   -8.7014   15.2694  -20.6775 C   0  0  0  0  0  0  0  0  0  0  0  0
   -9.1405   14.8494  -19.2760 C   0  0  0  0  0  0  0  0  0  0  0  0
  -10.4004   13.7304  -19.0647 S   0  0  0  0  0  0  0  0  0  0  0  0
  -10.7632   12.0139  -19.5152 C   0  0  0  0  0  0  0  0  0  0  0  0
  -12.2279   11.5982  -19.3319 C   0  0  1  0  0  0  0  0  0  0  0  0
  -13.0914   12.2411  -20.2516 O   0  0  0  0  0  0  0  0  0  0  0  0
  -12.4439   10.1329  -19.6280 C   0  0  1  0  0  0  0  0  0  0  0  0
  -13.6149    9.7882  -18.9206 O   0  0  0  0  0  0  0  0  0  0  0  0
  -12.7511   10.0689  -21.1060 C   0  0  1  0  0  0  0  0  0  0  0  0
  -13.7821    9.1338  -21.3372 O   0  0  0  0  0  0  0  0  0  0  0  0
  -13.2527   11.4614  -21.4216 C   0  0  2  0  0  0  0  0  0  0  0  0
   -5.3736   15.5612  -20.7604 O   0  0  0  0  0  0  0  0  0  0  0  0
  -10.1062   10.8585  -25.5386 N   0  0  0  0  0  0  0  0  0  0  0  0
  -10.5678    9.8931  -24.6756 C   0  0  0  0  0  0  0  0  0  0  0  0
  -11.3862   10.2528  -23.6321 N   0  0  0  0  0  0  0  0  0  0  0  0
  -11.7412   11.5394  -23.4481 C   0  0  0  0  0  0  0  0  0  0  0  0
  -11.2892   12.5257  -24.3044 C   0  0  0  0  0  0  0  0  0  0  0  0
  -10.4582   12.1729  -25.3612 C   0  0  0  0  0  0  0  0  0  0  0  0
   -9.9980   13.0883  -26.2049 N   0  0  0  0  0  0  0  0  0  0  0  0
  -11.7930   13.7097  -23.8900 N   0  0  0  0  0  0  0  0  0  0  0  0
  -12.5528   13.4851  -22.8003 C   0  0  0  0  0  0  0  0  0  0  0  0
  -12.5234   12.1462  -22.5048 N   0  0  0  0  0  0  0  0  0  0  0  0
  2  1  1  6  0  0  0
  2  3  1  0  0  0  0
  2  5  1  0  0  0  0
  3  4  1  0  0  0  0
  3 16  1  0  0  0  0
  5  6  1  0  0  0  0
  6  7  1  0  0  0  0
  7  8  1  0  0  0  0
  9  8  1  6  0  0  0
  9 10  1  0  0  0  0
  9 11  1  0  0  0  0
 10 15  1  0  0  0  0
 11 12  1  1  0  0  0
 11 13  1  0  0  0  0
 13 14  1  1  0  0  0
 13 15  1  0  0  0  0
 15 26  1  6  0  0  0
 17 18  2  0  0  0  0
 17 22  1  0  0  0  0
 18 19  1  0  0  0  0
 19 20  2  0  0  0  0
 20 21  1  0  0  0  0
 20 26  1  0  0  0  0
 21 22  2  0  0  0  0
 21 24  1  0  0  0  0
 22 23  1  0  0  0  0
 24 25  2  0  0  0  0
 25 26  1  0  0  0  0
M  END
>  <CHROM.1>
158.52636067,-171.95269232,172.74560349,60.12939619,-166.30767992,68.60226045
138.08657090,-10.58130227,12.77055787,-21.51527740,-0.35098372,-0.73202947
-1.71532723

>  <Name>
ligand

>  <RI>
0

>  <Rbt.Current_Directory>
/home/itssahil/PROJECTS/Mol_Feturizer/New_Systems/rnas/3E5E

>  <Rbt.Executable>
rbdock ($Id: //depot/dev/client3/rdock/2013.1/src/exe/rbdock.cxx#4 $)

>  <Rbt.Library>
libRbt.so (2013.1, Build901 2013/11/27)

>  <Rbt.Parameter_File>
/export/apps/rDock/src/rDock_2013.1_src/data/scripts/dock_solv.prm

>  <Rbt.Receptor>
prm/blind_docking_40.prm

>  <SCORE>
-23.162

>  <SCORE.INTER>
-19.2823

>  <SCORE.INTER.CONST>
1

>  <SCORE.INTER.POLAR>
0

>  <SCORE.INTER.ROT>
7

>  <SCORE.INTER.SOLV>
13.5139

>  <SCORE.INTER.VDW>
-25.6262

>  <SCORE.INTER.norm>
-0.741628

>  <SCORE.INTRA>
-3.8797

>  <SCORE.INTRA.DIHEDRAL>
-6.49542

>  <SCORE.INTRA.DIHEDRAL.0>
10.1225

>  <SCORE.INTRA.POLAR>
0

>  <SCORE.INTRA.POLAR.0>
0

>  <SCORE.INTRA.REPUL>
0

>  <SCORE.INTRA.REPUL.0>
0

>  <SCORE.INTRA.SOLV>
-0.545133

>  <SCORE.INTRA.SOLV.lig_0>
-49.9393

>  <SCORE.INTRA.VDW>
-0.35942

>  <SCORE.INTRA.VDW.0>
-1.75437

>  <SCORE.INTRA.norm>
-0.149219

>  <SCORE.RESTR>
0

>  <SCORE.RESTR.CAVITY>
0

>  <SCORE.RESTR.norm>
0

>  <SCORE.SYSTEM>
0

>  <SCORE.SYSTEM.CONST>
0

>  <SCORE.SYSTEM.DIHEDRAL>
0

>  <SCORE.SYSTEM.SOLV>
0

>  <SCORE.SYSTEM.norm>
0

>  <SCORE.heavy>
26

>  <SCORE.norm>
-0.890847

>  <RMSD>
8.002

$$$$
ligand
 OpenBabel11021811473D
libRbt.so/2013.1/901 2013/11/27
 26 28  0  0  0  0  0  0  0  0999 V2000
   -7.7049   11.7851  -25.7618 N   0  0  0  0  0  0  0  0  0  0  0  0
   -8.2603   12.6329  -24.6995 C   0  0  2  0  0  0  0  0  0  0  0  0
   -7.5680   12.3235  -23.3983 C   0  0  0  0  0  0  0  0  0  0  0  0
   -7.0023   11.2656  -23.2504 O   0  0  0  0  0  0  0  0  0  0  0  0
   -9.7584   12.3575  -24.5594 C   0  0  0  0  0  0  0  0  0  0  0  0
  -10.3704   13.3525  -23.5751 C   0  0  0  0  0  0  0  0  0  0  0  0
  -12.0160   13.2613  -23.1657 S   0  0  0  0  0  0  0  0  0  0  0  0
  -13.1803   14.1233  -22.0782 C   0  0  0  0  0  0  0  0  0  0  0  0
  -12.8159   14.0851  -20.5891 C   0  0  1  0  0  0  0  0  0  0  0  0
  -13.4387   13.0117  -19.9074 O   0  0  0  0  0  0  0  0  0  0  0  0
  -11.3449   13.8204  -20.3707 C   0  0  1  0  0  0  0  0  0  0  0  0
  -11.0678   14.3434  -19.0900 O   0  0  0  0  0  0  0  0  0  0  0  0
  -11.2194   12.3162  -20.3019 C   0  0  1  0  0  0  0  0  0  0  0  0
  -10.3043   11.9614  -19.2883 O   0  0  0  0  0  0  0  0  0  0  0  0
  -12.6092   11.8650  -19.9075 C   0  0  2  0  0  0  0  0  0  0  0  0
   -7.5805   13.2216  -22.3998 O   0  0  0  0  0  0  0  0  0  0  0  0
  -11.8245    8.7488  -24.0169 N   0  0  0  0  0  0  0  0  0  0  0  0
  -10.9386    9.6248  -23.4355 C   0  0  0  0  0  0  0  0  0  0  0  0
  -11.3385   10.3763  -22.3570 N   0  0  0  0  0  0  0  0  0  0  0  0
  -12.5871   10.2619  -21.8637 C   0  0  0  0  0  0  0  0  0  0  0  0
  -13.4932    9.3867  -22.4324 C   0  0  0  0  0  0  0  0  0  0  0  0
  -13.0998    8.6243  -23.5260 C   0  0  0  0  0  0  0  0  0  0  0  0
  -13.9390    7.7747  -24.1052 N   0  0  0  0  0  0  0  0  0  0  0  0
  -14.6548    9.4752  -21.7467 N   0  0  0  0  0  0  0  0  0  0  0  0
  -14.4934   10.3791  -20.7608 C   0  0  0  0  0  0  0  0  0  0  0  0
  -13.2205   10.8859  -20.8248 N   0  0  0  0  0  0  0  0  0  0  0  0
  2  1  1  6  0  0  0
  2  3  1  0  0  0  0
  2  5  1  0  0  0  0
  3  4  1  0  0  0  0
  3 16  1  0  0  0  0
  5  6  1  0  0  0  0
  6  7  1  0  0  0  0
  7  8  1  0  0  0  0
  9  8  1  6  0  0  0
  9 10  1  0  0  0  0
  9 11  1  0  0  0  0
 10 15  1  0  0  0  0
 11 12  1  1  0  0  0
 11 13  1  0  0  0  0
 13 14  1  1  0  0  0
 13 15  1  0  0  0  0
 15 26  1  6  0  0  0
 17 18  2  0  0  0  0
 17 22  1  0  0  0  0
 18 19  1  0  0  0  0
 19 20  2  0  0  0  0
 20 21  1  0  0  0  0
 20 26  1  0  0  0  0
 21 22  2  0  0  0  0
 21 24  1  0  0  0  0
 22 23  1  0  0  0  0
 24 25  2  0  0  0  0
 25 26  1  0  0  0  0
M  END
>  <CHROM.1>
-21.33849791,-173.27647313,-177.67860298,178.25890919,-59.90664418,-93.50078642
127.19663163,-11.34981348,11.72861759,-22.21876333,0.04367289,-0.49716575
-2.41471602

>  <Name>
ligand

>  <RI>
0

>  <Rbt.Current_Directory>
/home/itssahil/PROJECTS/Mol_Feturizer/New_Systems/rnas/3E5E

>  <Rbt.Executable>
rbdock ($Id: //depot/dev/client3/rdock/2013.1/src/exe/rbdock.cxx#4 $)

>  <Rbt.Library>
libRbt.so (2013.1, Build901 2013/11/27)

>  <Rbt.Parameter_File>
/export/apps/rDock/src/rDock_2013.1_src/data/scripts/dock_solv.prm

>  <Rbt.Receptor>
prm/pocket_docking_6.prm

>  <SCORE>
-19.0482

>  <SCORE.INTER>
-15.7209

>  <SCORE.INTER.CONST>
1

>  <SCORE.INTER.POLAR>
0

>  <SCORE.INTER.ROT>
7

>  <SCORE.INTER.SOLV>
10.3648

>  <SCORE.INTER.VDW>
-22.2022

>  <SCORE.INTER.norm>
-0.604651

>  <SCORE.INTRA>
-3.32729

>  <SCORE.INTRA.DIHEDRAL>
-4.22762

>  <SCORE.INTRA.DIHEDRAL.0>
10.1225

>  <SCORE.INTRA.POLAR>
0

>  <SCORE.INTRA.POLAR.0>
0

>  <SCORE.INTRA.REPUL>
0

>  <SCORE.INTRA.REPUL.0>
0

>  <SCORE.INTRA.SOLV>
-0.112688

>  <SCORE.INTRA.SOLV.lig_0>
-49.9393

>  <SCORE.INTRA.VDW>
-1.15713

>  <SCORE.INTRA.VDW.0>
-1.75437

>  <SCORE.INTRA.norm>
-0.127973

>  <SCORE.RESTR>
0

>  <SCORE.RESTR.CAVITY>
0

>  <SCORE.RESTR.norm>
0

>  <SCORE.SYSTEM>
0

>  <SCORE.SYSTEM.CONST>
0

>  <SCORE.SYSTEM.DIHEDRAL>
0

>  <SCORE.SYSTEM.SOLV>
0

>  <SCORE.SYSTEM.norm>
0

>  <SCORE.heavy>
26

>  <SCORE.norm>
-0.732624

>  <RMSD>
8.003

$$$$
ligand
 OpenBabel11021811473D
libRbt.so/2013.1/901 2013/11/27
 26 28  0  0  0  0  0  0  0  0999 V2000
   -7.3810   16.8889  -22.0866 N   0  0  0  0  0  0  0  0  0  0  0  0
   -7.6698   16.4094  -20.7294 C   0  0  2  0  0  0  0  0  0  0  0  0
   -6.4008   15.9020  -20.0968 C   0  0  0  0  0  0  0  0  0  0  0  0
   -6.3434   15.7410  -18.9002 O   0  0  0  0  0  0  0  0  0  0  0  0
   -8.6954   15.2765  -20.7974 C   0  0  0  0  0  0  0  0  0  0  0  0
   -9.1269   14.8932  -19.3830 C   0  0  0  0  0  0  0  0  0  0  0  0
  -10.3693   13.7621  -19.1357 S   0  0  0  0  0  0  0  0  0  0  0  0
  -10.7068   12.0276  -19.5340 C   0  0  0  0  0  0  0  0  0  0  0  0
  -12.1677   11.5994  -19.3494 C   0  0  1  0  0  0  0  0  0  0  0  0
  -13.0385   12.2401  -20.2637 O   0  0  0  0  0  0  0  0  0  0  0  0
  -12.3728   10.1339  -19.6525 C   0  0  1  0  0  0  0  0  0  0  0  0
  -13.5392    9.7762  -18.9442 O   0  0  0  0  0  0  0  0  0  0  0  0
  -12.6830   10.0751  -21.1302 C   0  0  1  0  0  0  0  0  0  0  0  0
  -13.7070    9.1330  -21.3638 O   0  0  0  0  0  0  0  0  0  0  0  0
  -13.1964   11.4652  -21.4373 C   0  0  2  0  0  0  0  0  0  0  0  0
   -5.3304   15.6302  -20.8612 O   0  0  0  0  0  0  0  0  0  0  0  0
  -10.0678   10.9072  -25.5743 N   0  0  0  0  0  0  0  0  0  0  0  0
  -10.5213    9.9332  -24.7165 C   0  0  0  0  0  0  0  0  0  0  0  0
  -11.3360   10.2815  -23.6663 N   0  0  0  0  0  0  0  0  0  0  0  0
  -11.6953   11.5651  -23.4705 C   0  0  0  0  0  0  0  0  0  0  0  0
  -11.2514   12.5599  -24.3213 C   0  0  0  0  0  0  0  0  0  0  0  0
  -10.4242   12.2187  -25.3849 C   0  0  0  0  0  0  0  0  0  0  0  0
   -9.9718   13.1426  -26.2236 N   0  0  0  0  0  0  0  0  0  0  0  0
  -11.7579   13.7386  -23.8951 N   0  0  0  0  0  0  0  0  0  0  0  0
  -12.5115   13.5025  -22.8035 C   0  0  0  0  0  0  0  0  0  0  0  0
  -12.4752   12.1613  -22.5186 N   0  0  0  0  0  0  0  0  0  0  0  0
  2  1  1  6  0  0  0
  2  3  1  0  0  0  0
  2  5  1  0  0  0  0
  3  4  1  0  0  0  0
  3 16  1  0  0  0  0
  5  6  1  0  0  0  0
  6  7  1  0  0  0  0
  7  8  1  0  0  0  0
  9  8  1  6  0  0  0
  9 10  1  0  0  0  0
  9 11  1  0  0  0  0
 10 15  1  0  0  0  0
 11 12  1  1  0  0  0
 11 13  1  0  0  0  0
 13 14  1  1  0  0  0
 13 15  1  0  0  0  0
 15 26  1  6  0  0  0
 17 18  2  0  0  0  0
 17 22  1  0  0  0  0
 18 19  1  0  0  0  0
 19 20  2  0  0  0  0
 20 21  1  0  0  0  0
 20 26  1  0  0  0  0
 21 22  2  0  0  0  0
 21 24  1  0  0  0  0
 22 23  1  0  0  0  0
 24 25  2  0  0  0  0
 25 26  1  0  0  0  0
M  END
>  <CHROM.1>
163.51977582,-173.04390581,174.19721615,60.05672543,-165.69602724,66.37009505
138.39340921,-10.54196955,12.78743918,-21.56912407,-0.32241882,-0.73872427
-1.71088100

>  <Name>
ligand

>  <RI>
0

>  <Rbt.Current_Directory>
/home/itssahil/PROJECTS/Mol_Feturizer/New_Systems/rnas/3E5E

>  <Rbt.Executable>
rbdock ($Id: //depot/dev/client3/rdock/2013.1/src/exe/rbdock.cxx#4 $)

>  <Rbt.Library>
libRbt.so (2013.1, Build901 2013/11/27)

>  <Rbt.Parameter_File>
/export/apps/rDock/src/rDock_2013.1_src/data/scripts/dock_solv.prm

>  <Rbt.Receptor>
prm/blind_docking_80.prm

>  <SCORE>
-23.1823

>  <SCORE.INTER>
-19.3209

>  <SCORE.INTER.CONST>
1

>  <SCORE.INTER.POLAR>
0

>  <SCORE.INTER.ROT>
7

>  <SCORE.INTER.SOLV>
12.8116

>  <SCORE.INTER.VDW>
-25.4178

>  <SCORE.INTER.norm>
-0.74311

>  <SCORE.INTRA>
-3.86147

>  <SCORE.INTRA.DIHEDRAL>
-6.7249

>  <SCORE.INTRA.DIHEDRAL.0>
10.1225

>  <SCORE.INTRA.POLAR>
0

>  <SCORE.INTRA.POLAR.0>
0

>  <SCORE.INTRA.REPUL>
0

>  <SCORE.INTRA.REPUL.0>
0

>  <SCORE.INTRA.SOLV>
-0.537594

>  <SCORE.INTRA.SOLV.lig_0>
-49.9393

>  <SCORE.INTRA.VDW>
-0.23023

>  <SCORE.INTRA.VDW.0>
-1.75437

>  <SCORE.INTRA.norm>
-0.148518

>  <SCORE.RESTR>
0

>  <SCORE.RESTR.CAVITY>
0

>  <SCORE.RESTR.norm>
0

>  <SCORE.SYSTEM>
0

>  <SCORE.SYSTEM.CONST>
0

>  <SCORE.SYSTEM.DIHEDRAL>
0

>  <SCORE.SYSTEM.SOLV>
0

>  <SCORE.SYSTEM.norm>
0

>  <SCORE.heavy>
26

>  <SCORE.norm>
-0.891628

>  <RMSD>
8.008

$$$$
ligand
 OpenBabel11021811473D
libRbt.so/2013.1/901 2013/11/27
 26 28  0  0  0  0  0  0  0  0999 V2000
   -6.9613   15.2043  -23.7782 N   0  0  0  0  0  0  0  0  0  0  0  0
   -8.2835   15.4345  -23.1830 C   0  0  2  0  0  0  0  0  0  0  0  0
   -8.3300   16.8160  -22.5852 C   0  0  0  0  0  0  0  0  0  0  0  0
   -9.1265   17.6269  -22.9964 O   0  0  0  0  0  0  0  0  0  0  0  0
   -8.5373   14.3956  -22.0894 C   0  0  0  0  0  0  0  0  0  0  0  0
   -9.9582   14.5569  -21.5521 C   0  0  0  0  0  0  0  0  0  0  0  0
  -10.5020   13.6112  -20.2506 S   0  0  0  0  0  0  0  0  0  0  0  0
  -10.7365   11.8558  -19.8702 C   0  0  0  0  0  0  0  0  0  0  0  0
  -12.1988   11.4255  -19.7022 C   0  0  1  0  0  0  0  0  0  0  0  0
  -13.0631   12.0807  -20.6124 O   0  0  0  0  0  0  0  0  0  0  0  0
  -12.4024    9.9650  -20.0294 C   0  0  1  0  0  0  0  0  0  0  0  0
  -13.5739    9.5970  -19.3346 O   0  0  0  0  0  0  0  0  0  0  0  0
  -12.7025    9.9291  -21.5098 C   0  0  1  0  0  0  0  0  0  0  0  0
  -13.7253    8.9913  -21.7649 O   0  0  0  0  0  0  0  0  0  0  0  0
  -13.2133   11.3241  -21.7990 C   0  0  2  0  0  0  0  0  0  0  0  0
   -7.4847   17.1495  -21.5961 O   0  0  0  0  0  0  0  0  0  0  0  0
   -9.6907   10.9015  -25.6234 N   0  0  0  0  0  0  0  0  0  0  0  0
  -10.1033    9.9326  -24.7397 C   0  0  0  0  0  0  0  0  0  0  0  0
  -11.0414   10.2422  -23.7846 N   0  0  0  0  0  0  0  0  0  0  0  0
  -11.5610   11.4829  -23.7073 C   0  0  0  0  0  0  0  0  0  0  0  0
  -11.1610   12.4716  -24.5864 C   0  0  0  0  0  0  0  0  0  0  0  0
  -10.2100   12.1698  -25.5541 C   0  0  0  0  0  0  0  0  0  0  0  0
   -9.7946   13.0900  -26.4156 N   0  0  0  0  0  0  0  0  0  0  0  0
  -11.8344   13.6042  -24.2845 N   0  0  0  0  0  0  0  0  0  0  0  0
  -12.6488   13.3444  -23.2431 C   0  0  0  0  0  0  0  0  0  0  0  0
  -12.4845   12.0365  -22.8644 N   0  0  0  0  0  0  0  0  0  0  0  0
  2  1  1  1  0  0  0
  2  3  1  0  0  0  0
  2  5  1  0  0  0  0
  3  4  1  0  0  0  0
  3 16  1  0  0  0  0
  5  6  1  0  0  0  0
  6  7  1  0  0  0  0
  7  8  1  0  0  0  0
  9  8  1  6  0  0  0
  9 10  1  0  0  0  0
  9 11  1  0  0  0  0
 10 15  1  0  0  0  0
 11 12  1  1  0  0  0
 11 13  1  0  0  0  0
 13 14  1  1  0  0  0
 13 15  1  0  0  0  0
 15 26  1  6  0  0  0
 17 18  2  0  0  0  0
 17 22  1  0  0  0  0
 18 19  1  0  0  0  0
 19 20  2  0  0  0  0
 20 21  1  0  0  0  0
 20 26  1  0  0  0  0
 21 22  2  0  0  0  0
 21 24  1  0  0  0  0
 22 23  1  0  0  0  0
 24 25  2  0  0  0  0
 25 26  1  0  0  0  0
M  END
>  <CHROM.1>
118.87783194,-175.15015625,-175.82184937,-60.35994795,-112.71296097,37.70739472
129.10159958,-10.81257876,12.73261997,-22.41682777,-0.09831881,-0.92723608
-2.00004795

>  <Name>
ligand

>  <RI>
0

>  <Rbt.Current_Directory>
/home/itssahil/PROJECTS/Mol_Feturizer/New_Systems/rnas/3E5E

>  <Rbt.Executable>
rbdock ($Id: //depot/dev/client3/rdock/2013.1/src/exe/rbdock.cxx#4 $)

>  <Rbt.Library>
libRbt.so (2013.1, Build901 2013/11/27)

>  <Rbt.Parameter_File>
/export/apps/rDock/src/rDock_2013.1_src/data/scripts/dock_solv.prm

>  <Rbt.Receptor>
prm/pocket_docking_4.prm

>  <SCORE>
-19.2043

>  <SCORE.INTER>
-15.4432

>  <SCORE.INTER.CONST>
1

>  <SCORE.INTER.POLAR>
0

>  <SCORE.INTER.ROT>
7

>  <SCORE.INTER.SOLV>
8.63775

>  <SCORE.INTER.VDW>
-21.4414

>  <SCORE.INTER.norm>
-0.593968

>  <SCORE.INTRA>
-3.7611

>  <SCORE.INTRA.DIHEDRAL>
-3.45422

>  <SCORE.INTRA.DIHEDRAL.0>
10.1225

>  <SCORE.INTRA.POLAR>
0

>  <SCORE.INTRA.POLAR.0>
0

>  <SCORE.INTRA.REPUL>
0

>  <SCORE.INTRA.REPUL.0>
0

>  <SCORE.INTRA.SOLV>
-0.0280758

>  <SCORE.INTRA.SOLV.lig_0>
-49.9393

>  <SCORE.INTRA.VDW>
-2.01996

>  <SCORE.INTRA.VDW.0>
-1.75437

>  <SCORE.INTRA.norm>
-0.144658

>  <SCORE.RESTR>
0

>  <SCORE.RESTR.CAVITY>
0

>  <SCORE.RESTR.norm>
0

>  <SCORE.SYSTEM>
0

>  <SCORE.SYSTEM.CONST>
0

>  <SCORE.SYSTEM.DIHEDRAL>
0

>  <SCORE.SYSTEM.SOLV>
0

>  <SCORE.SYSTEM.norm>
0

>  <SCORE.heavy>
26

>  <SCORE.norm>
-0.738626

>  <RMSD>
8.014

$$$$
ligand
 OpenBabel11021811473D
libRbt.so/2013.1/901 2013/11/27
 26 28  0  0  0  0  0  0  0  0999 V2000
   -8.4866   11.5920  -25.2176 N   0  0  0  0  0  0  0  0  0  0  0  0
   -8.2363   12.5292  -24.1155 C   0  0  2  0  0  0  0  0  0  0  0  0
   -6.9963   12.1079  -23.3717 C   0  0  0  0  0  0  0  0  0  0  0  0
   -6.8521   10.9546  -23.0400 O   0  0  0  0  0  0  0  0  0  0  0  0
   -9.4315   12.5234  -23.1610 C   0  0  0  0  0  0  0  0  0  0  0  0
  -10.6855   12.9695  -23.9107 C   0  0  0  0  0  0  0  0  0  0  0  0
  -12.1946   12.9937  -23.1321 S   0  0  0  0  0  0  0  0  0  0  0  0
  -13.1370   14.1104  -22.0617 C   0  0  0  0  0  0  0  0  0  0  0  0
  -12.7490   14.0574  -20.5790 C   0  0  1  0  0  0  0  0  0  0  0  0
  -13.3807   12.9922  -19.8926 O   0  0  0  0  0  0  0  0  0  0  0  0
  -11.2799   13.7639  -20.3863 C   0  0  1  0  0  0  0  0  0  0  0  0
  -10.9721   14.2747  -19.1078 O   0  0  0  0  0  0  0  0  0  0  0  0
  -11.1817   12.2573  -20.3272 C   0  0  1  0  0  0  0  0  0  0  0  0
  -10.2569   11.8799  -19.3307 O   0  0  0  0  0  0  0  0  0  0  0  0
  -12.5730   11.8302  -19.9122 C   0  0  2  0  0  0  0  0  0  0  0  0
   -6.0505   13.0138  -23.0738 O   0  0  0  0  0  0  0  0  0  0  0  0
  -11.8697    8.5790  -23.9308 N   0  0  0  0  0  0  0  0  0  0  0  0
  -10.9486    9.4147  -23.3449 C   0  0  0  0  0  0  0  0  0  0  0  0
  -11.3307   10.2132  -22.2939 N   0  0  0  0  0  0  0  0  0  0  0  0
  -12.5960   10.1837  -21.8320 C   0  0  0  0  0  0  0  0  0  0  0  0
  -13.5376    9.3503  -22.4059 C   0  0  0  0  0  0  0  0  0  0  0  0
  -13.1622    8.5410  -23.4717 C   0  0  0  0  0  0  0  0  0  0  0  0
  -14.0352    7.7288  -24.0548 N   0  0  0  0  0  0  0  0  0  0  0  0
  -14.7090    9.5226  -21.7536 N   0  0  0  0  0  0  0  0  0  0  0  0
  -14.5196   10.4381  -20.7835 C   0  0  0  0  0  0  0  0  0  0  0  0
  -13.2177   10.8676  -20.8242 N   0  0  0  0  0  0  0  0  0  0  0  0
  2  1  1  6  0  0  0
  2  3  1  0  0  0  0
  2  5  1  0  0  0  0
  3  4  1  0  0  0  0
  3 16  1  0  0  0  0
  5  6  1  0  0  0  0
  6  7  1  0  0  0  0
  7  8  1  0  0  0  0
  9  8  1  6  0  0  0
  9 10  1  0  0  0  0
  9 11  1  0  0  0  0
 10 15  1  0  0  0  0
 11 12  1  1  0  0  0
 11 13  1  0  0  0  0
 13 14  1  1  0  0  0
 13 15  1  0  0  0  0
 15 26  1  6  0  0  0
 17 18  2  0  0  0  0
 17 22  1  0  0  0  0
 18 19  1  0  0  0  0
 19 20  2  0  0  0  0
 20 21  1  0  0  0  0
 20 26  1  0  0  0  0
 21 22  2  0  0  0  0
 21 24  1  0  0  0  0
 22 23  1  0  0  0  0
 24 25  2  0  0  0  0
 25 26  1  0  0  0  0
M  END
>  <CHROM.1>
-47.71912722,-60.83630182,177.07044825,84.00592626,-81.25796424,-82.81666063
130.91018896,-11.29748085,11.61973498,-22.14409091,-0.07083412,-0.39732688
-2.45170879

>  <Name>
ligand

>  <RI>
0

>  <Rbt.Current_Directory>
/home/itssahil/PROJECTS/Mol_Feturizer/New_Systems/rnas/3E5E

>  <Rbt.Executable>
rbdock ($Id: //depot/dev/client3/rdock/2013.1/src/exe/rbdock.cxx#4 $)

>  <Rbt.Library>
libRbt.so (2013.1, Build901 2013/11/27)

>  <Rbt.Parameter_File>
/export/apps/rDock/src/rDock_2013.1_src/data/scripts/dock_solv.prm

>  <Rbt.Receptor>
prm/blind_docking_60.prm

>  <SCORE>
-19.7733

>  <SCORE.INTER>
-16.3438

>  <SCORE.INTER.CONST>
1

>  <SCORE.INTER.POLAR>
0

>  <SCORE.INTER.ROT>
7

>  <SCORE.INTER.SOLV>
10.6321

>  <SCORE.INTER.VDW>
-22.7066

>  <SCORE.INTER.norm>
-0.628607

>  <SCORE.INTRA>
-3.42951

>  <SCORE.INTRA.DIHEDRAL>
-4.34098

>  <SCORE.INTRA.DIHEDRAL.0>
10.1225

>  <SCORE.INTRA.POLAR>
0

>  <SCORE.INTRA.POLAR.0>
0

>  <SCORE.INTRA.REPUL>
0

>  <SCORE.INTRA.REPUL.0>
0

>  <SCORE.INTRA.SOLV>
0.960535

>  <SCORE.INTRA.SOLV.lig_0>
-49.9393

>  <SCORE.INTRA.VDW>
-1.73929

>  <SCORE.INTRA.VDW.0>
-1.75437

>  <SCORE.INTRA.norm>
-0.131904

>  <SCORE.RESTR>
0

>  <SCORE.RESTR.CAVITY>
0

>  <SCORE.RESTR.norm>
0

>  <SCORE.SYSTEM>
0

>  <SCORE.SYSTEM.CONST>
0

>  <SCORE.SYSTEM.DIHEDRAL>
0

>  <SCORE.SYSTEM.SOLV>
0

>  <SCORE.SYSTEM.norm>
0

>  <SCORE.heavy>
26

>  <SCORE.norm>
-0.760512

>  <RMSD>
8.026

$$$$
ligand
 OpenBabel11021811473D
libRbt.so/2013.1/901 2013/11/27
 26 28  0  0  0  0  0  0  0  0999 V2000
   -7.6296   15.8073  -21.7422 N   0  0  0  0  0  0  0  0  0  0  0  0
   -8.4381   15.2624  -22.8398 C   0  0  2  0  0  0  0  0  0  0  0  0
   -8.5808   16.3015  -23.9205 C   0  0  0  0  0  0  0  0  0  0  0  0
   -8.3698   16.0080  -25.0740 O   0  0  0  0  0  0  0  0  0  0  0  0
   -9.8221   14.8809  -22.3118 C   0  0  0  0  0  0  0  0  0  0  0  0
   -9.6833   13.7710  -21.2714 C   0  0  0  0  0  0  0  0  0  0  0  0
  -11.0523   13.1558  -20.4769 S   0  0  0  0  0  0  0  0  0  0  0  0
  -11.4805   11.7287  -19.4468 C   0  0  0  0  0  0  0  0  0  0  0  0
  -12.9774   11.3994  -19.3968 C   0  0  1  0  0  0  0  0  0  0  0  0
  -13.5864   11.4569  -20.6738 O   0  0  0  0  0  0  0  0  0  0  0  0
  -13.2317    9.9757  -18.9612 C   0  0  1  0  0  0  0  0  0  0  0  0
  -14.5442    9.9830  -18.4438 O   0  0  0  0  0  0  0  0  0  0  0  0
  -13.2334    9.1658  -20.2369 C   0  0  1  0  0  0  0  0  0  0  0  0
  -14.2589    8.1982  -20.1843 O   0  0  0  0  0  0  0  0  0  0  0  0
  -13.5597   10.1894  -21.3028 C   0  0  2  0  0  0  0  0  0  0  0  0
   -8.9399   17.5563  -23.6037 O   0  0  0  0  0  0  0  0  0  0  0  0
  -11.3716   13.2659  -24.9030 N   0  0  0  0  0  0  0  0  0  0  0  0
  -12.3791   13.5770  -24.0208 C   0  0  0  0  0  0  0  0  0  0  0  0
  -12.8349   12.6185  -23.1480 N   0  0  0  0  0  0  0  0  0  0  0  0
  -12.3040   11.3802  -23.1474 C   0  0  0  0  0  0  0  0  0  0  0  0
  -11.2898   11.0467  -24.0253 C   0  0  0  0  0  0  0  0  0  0  0  0
  -10.8238   12.0079  -24.9145 C   0  0  0  0  0  0  0  0  0  0  0  0
   -9.8544   11.7292  -25.7772 N   0  0  0  0  0  0  0  0  0  0  0  0
  -10.9508    9.7560  -23.8097 N   0  0  0  0  0  0  0  0  0  0  0  0
  -11.7240    9.2785  -22.8150 C   0  0  0  0  0  0  0  0  0  0  0  0
  -12.5773   10.2686  -22.3995 N   0  0  0  0  0  0  0  0  0  0  0  0
  2  1  1  1  0  0  0
  2  3  1  0  0  0  0
  2  5  1  0  0  0  0
  3  4  1  0  0  0  0
  3 16  1  0  0  0  0
  5  6  1  0  0  0  0
  6  7  1  0  0  0  0
  7  8  1  0  0  0  0
  9  8  1  6  0  0  0
  9 10  1  0  0  0  0
  9 11  1  0  0  0  0
 10 15  1  0  0  0  0
 11 12  1  6  0  0  0
 11 13  1  0  0  0  0
 13 14  1  1  0  0  0
 13 15  1  0  0  0  0
 15 26  1  6  0  0  0
 17 18  2  0  0  0  0
 17 22  1  0  0  0  0
 18 19  1  0  0  0  0
 19 20  2  0  0  0  0
 20 21  1  0  0  0  0
 20 26  1  0  0  0  0
 21 22  2  0  0  0  0
 21 24  1  0  0  0  0
 22 23  1  0  0  0  0
 24 25  2  0  0  0  0
 25 26  1  0  0  0  0
M  END
>  <CHROM.1>
131.50124423,-63.20612442,178.70873927,166.35007913,-159.27246417,44.08993393
-32.62985103,-11.35899048,12.36482560,-22.13282253,-0.15023645,0.97031339
1.20496032

>  <Name>
ligand

>  <RI>
0

>  <Rbt.Current_Directory>
/home/itssahil/PROJECTS/Mol_Feturizer/New_Systems/rnas/3E5E

>  <Rbt.Executable>
rbdock ($Id: //depot/dev/client3/rdock/2013.1/src/exe/rbdock.cxx#4 $)

>  <Rbt.Library>
libRbt.so (2013.1, Build901 2013/11/27)

>  <Rbt.Parameter_File>
/export/apps/rDock/src/rDock_2013.1_src/data/scripts/dock_solv.prm

>  <Rbt.Receptor>
prm/pocket_docking_6.prm

>  <SCORE>
-20.3642

>  <SCORE.INTER>
-15.0852

>  <SCORE.INTER.CONST>
1

>  <SCORE.INTER.POLAR>
0

>  <SCORE.INTER.ROT>
7

>  <SCORE.INTER.SOLV>
10.5013

>  <SCORE.INTER.VDW>
-21.8239

>  <SCORE.INTER.norm>
-0.580201

>  <SCORE.INTRA>
-5.27898

>  <SCORE.INTRA.DIHEDRAL>
-5.51091

>  <SCORE.INTRA.DIHEDRAL.0>
10.1225

>  <SCORE.INTRA.POLAR>
0

>  <SCORE.INTRA.POLAR.0>
0

>  <SCORE.INTRA.REPUL>
0

>  <SCORE.INTRA.REPUL.0>
0

>  <SCORE.INTRA.SOLV>
0.398279

>  <SCORE.INTRA.SOLV.lig_0>
-49.9393

>  <SCORE.INTRA.VDW>
-2.72266

>  <SCORE.INTRA.VDW.0>
-1.75437

>  <SCORE.INTRA.norm>
-0.203038

>  <SCORE.RESTR>
0

>  <SCORE.RESTR.CAVITY>
0

>  <SCORE.RESTR.norm>
0

>  <SCORE.SYSTEM>
0

>  <SCORE.SYSTEM.CONST>
0

>  <SCORE.SYSTEM.DIHEDRAL>
0

>  <SCORE.SYSTEM.SOLV>
0

>  <SCORE.SYSTEM.norm>
0

>  <SCORE.heavy>
26

>  <SCORE.norm>
-0.783239

>  <RMSD>
8.054

$$$$
ligand
 OpenBabel11021811473D
libRbt.so/2013.1/901 2013/11/27
 26 28  0  0  0  0  0  0  0  0999 V2000
   -6.9498   17.0536  -20.7717 N   0  0  0  0  0  0  0  0  0  0  0  0
   -7.4260   15.7378  -20.3276 C   0  0  2  0  0  0  0  0  0  0  0  0
   -8.3286   15.1502  -21.3804 C   0  0  0  0  0  0  0  0  0  0  0  0
   -9.1594   15.8425  -21.9202 O   0  0  0  0  0  0  0  0  0  0  0  0
   -8.2014   15.8924  -19.0182 C   0  0  0  0  0  0  0  0  0  0  0  0
   -8.5767   14.5124  -18.4812 C   0  0  0  0  0  0  0  0  0  0  0  0
  -10.1298   13.8769  -18.7426 S   0  0  0  0  0  0  0  0  0  0  0  0
  -11.4188   13.9576  -20.0126 C   0  0  0  0  0  0  0  0  0  0  0  0
  -10.9645   13.5369  -21.4156 C   0  0  1  0  0  0  0  0  0  0  0  0
  -10.7265   12.1444  -21.5119 O   0  0  0  0  0  0  0  0  0  0  0  0
  -12.0357   13.7726  -22.4541 C   0  0  1  0  0  0  0  0  0  0  0  0
  -11.3396   13.8763  -23.6769 O   0  0  0  0  0  0  0  0  0  0  0  0
  -12.8476   12.4986  -22.4815 C   0  0  1  0  0  0  0  0  0  0  0  0
  -13.1779   12.1739  -23.8142 O   0  0  0  0  0  0  0  0  0  0  0  0
  -11.8928   11.4613  -21.9312 C   0  0  2  0  0  0  0  0  0  0  0  0
   -8.2131   13.8556  -21.7188 O   0  0  0  0  0  0  0  0  0  0  0  0
  -14.4706    7.2156  -20.3365 N   0  0  0  0  0  0  0  0  0  0  0  0
  -14.2184    7.6200  -21.6260 C   0  0  0  0  0  0  0  0  0  0  0  0
  -13.5269    8.7867  -21.8469 N   0  0  0  0  0  0  0  0  0  0  0  0
  -13.0930    9.5354  -20.8142 C   0  0  0  0  0  0  0  0  0  0  0  0
  -13.3349    9.1467  -19.5100 C   0  0  0  0  0  0  0  0  0  0  0  0
  -14.0365    7.9700  -19.2757 C   0  0  0  0  0  0  0  0  0  0  0  0
  -14.2942    7.5617  -18.0393 N   0  0  0  0  0  0  0  0  0  0  0  0
  -12.7953   10.0722  -18.6855 N   0  0  0  0  0  0  0  0  0  0  0  0
  -12.2177   11.0248  -19.4432 C   0  0  0  0  0  0  0  0  0  0  0  0
  -12.4020   10.7144  -20.7664 N   0  0  0  0  0  0  0  0  0  0  0  0
  2  1  1  6  0  0  0
  2  3  1  0  0  0  0
  2  5  1  0  0  0  0
  3  4  1  0  0  0  0
  3 16  1  0  0  0  0
  5  6  1  0  0  0  0
  6  7  1  0  0  0  0
  7  8  1  0  0  0  0
  9  8  1  1  0  0  0
  9 10  1  0  0  0  0
  9 11  1  0  0  0  0
 10 15  1  0  0  0  0
 11 12  1  6  0  0  0
 11 13  1  0  0  0  0
 13 14  1  6  0  0  0
 13 15  1  0  0  0  0
 15 26  1  1  0  0  0
 17 18  2  0  0  0  0
 17 22  1  0  0  0  0
 18 19  1  0  0  0  0
 19 20  2  0  0  0  0
 20 21  1  0  0  0  0
 20 26  1  0  0  0  0
 21 22  2  0  0  0  0
 21 24  1  0  0  0  0
 22 23  1  0  0  0  0
 24 25  2  0  0  0  0
 25 26  1  0  0  0  0
M  END
>  <CHROM.1>
-43.51555357,-174.34880304,-98.79549317,32.04530149,56.28679760,70.84326517
-149.83701539,-11.26060010,12.28721854,-20.71940572,-0.35372124,0.86171440
1.97892626

>  <Name>
ligand

>  <RI>
0

>  <Rbt.Current_Directory>
/home/itssahil/PROJECTS/Mol_Feturizer/New_Systems/rnas/3E5E

>  <Rbt.Executable>
rbdock ($Id: //depot/dev/client3/rdock/2013.1/src/exe/rbdock.cxx#4 $)

>  <Rbt.Library>
libRbt.so (2013.1, Build901 2013/11/27)

>  <Rbt.Parameter_File>
/export/apps/rDock/src/rDock_2013.1_src/data/scripts/dock_solv.prm

>  <Rbt.Receptor>
prm/blind_docking_40.prm

>  <SCORE>
-20.687

>  <SCORE.INTER>
-17.841

>  <SCORE.INTER.CONST>
1

>  <SCORE.INTER.POLAR>
0

>  <SCORE.INTER.ROT>
7

>  <SCORE.INTER.SOLV>
12.9803

>  <SCORE.INTER.VDW>
-24.4874

>  <SCORE.INTER.norm>
-0.686191

>  <SCORE.INTRA>
-2.84601

>  <SCORE.INTRA.DIHEDRAL>
-1.69381

>  <SCORE.INTRA.DIHEDRAL.0>
10.1225

>  <SCORE.INTRA.POLAR>
0

>  <SCORE.INTRA.POLAR.0>
0

>  <SCORE.INTRA.REPUL>
0

>  <SCORE.INTRA.REPUL.0>
0

>  <SCORE.INTRA.SOLV>
-0.282173

>  <SCORE.INTRA.SOLV.lig_0>
-49.9393

>  <SCORE.INTRA.VDW>
-1.85802

>  <SCORE.INTRA.VDW.0>
-1.75437

>  <SCORE.INTRA.norm>
-0.109462

>  <SCORE.RESTR>
0

>  <SCORE.RESTR.CAVITY>
0

>  <SCORE.RESTR.norm>
0

>  <SCORE.SYSTEM>
0

>  <SCORE.SYSTEM.CONST>
0

>  <SCORE.SYSTEM.DIHEDRAL>
0

>  <SCORE.SYSTEM.SOLV>
0

>  <SCORE.SYSTEM.norm>
0

>  <SCORE.heavy>
26

>  <SCORE.norm>
-0.795653

>  <RMSD>
8.058

$$$$
ligand
 OpenBabel11021811473D
libRbt.so/2013.1/901 2013/11/27
 26 28  0  0  0  0  0  0  0  0999 V2000
   -6.7315   17.1726  -21.4917 N   0  0  0  0  0  0  0  0  0  0  0  0
   -7.6653   16.2003  -22.0733 C   0  0  2  0  0  0  0  0  0  0  0  0
   -8.5287   16.8867  -23.0987 C   0  0  0  0  0  0  0  0  0  0  0  0
   -8.8523   18.0408  -22.9426 O   0  0  0  0  0  0  0  0  0  0  0  0
   -8.5486   15.6191  -20.9680 C   0  0  0  0  0  0  0  0  0  0  0  0
   -9.5180   14.6037  -21.5705 C   0  0  0  0  0  0  0  0  0  0  0  0
  -10.6238   13.7745  -20.5837 S   0  0  0  0  0  0  0  0  0  0  0  0
  -10.7062   12.2066  -19.6804 C   0  0  0  0  0  0  0  0  0  0  0  0
  -12.1230   11.6549  -19.4805 C   0  0  1  0  0  0  0  0  0  0  0  0
  -13.0473   12.1889  -20.4109 O   0  0  0  0  0  0  0  0  0  0  0  0
  -12.1962   10.1690  -19.7413 C   0  0  1  0  0  0  0  0  0  0  0  0
  -13.3263    9.7289  -19.0205 O   0  0  0  0  0  0  0  0  0  0  0  0
  -12.4993   10.0404  -21.2160 C   0  0  1  0  0  0  0  0  0  0  0  0
  -13.4349    9.0043  -21.4204 O   0  0  0  0  0  0  0  0  0  0  0  0
  -13.1348   11.3697  -21.5616 C   0  0  2  0  0  0  0  0  0  0  0  0
   -8.9424   16.2165  -24.1866 O   0  0  0  0  0  0  0  0  0  0  0  0
   -9.8256   11.0131  -25.5785 N   0  0  0  0  0  0  0  0  0  0  0  0
  -10.1724   10.0355  -24.6762 C   0  0  0  0  0  0  0  0  0  0  0  0
  -11.0604   10.3277  -23.6691 N   0  0  0  0  0  0  0  0  0  0  0  0
  -11.5947   11.5596  -23.5588 C   0  0  0  0  0  0  0  0  0  0  0  0
  -11.2604   12.5568  -24.4557 C   0  0  0  0  0  0  0  0  0  0  0  0
  -10.3604   12.2726  -25.4761 C   0  0  0  0  0  0  0  0  0  0  0  0
  -10.0086   13.2014  -26.3566 N   0  0  0  0  0  0  0  0  0  0  0  0
  -11.9339   13.6776  -24.1130 N   0  0  0  0  0  0  0  0  0  0  0  0
  -12.6844   13.4023  -23.0285 C   0  0  0  0  0  0  0  0  0  0  0  0
  -12.4783   12.0963  -22.6638 N   0  0  0  0  0  0  0  0  0  0  0  0
  2  1  1  1  0  0  0
  2  3  1  0  0  0  0
  2  5  1  0  0  0  0
  3  4  1  0  0  0  0
  3 16  1  0  0  0  0
  5  6  1  0  0  0  0
  6  7  1  0  0  0  0
  7  8  1  0  0  0  0
  9  8  1  6  0  0  0
  9 10  1  0  0  0  0
  9 11  1  0  0  0  0
 10 15  1  0  0  0  0
 11 12  1  1  0  0  0
 11 13  1  0  0  0  0
 13 14  1  1  0  0  0
 13 15  1  0  0  0  0
 15 26  1  6  0  0  0
 17 18  2  0  0  0  0
 17 22  1  0  0  0  0
 18 19  1  0  0  0  0
 19 20  2  0  0  0  0
 20 21  1  0  0  0  0
 20 26  1  0  0  0  0
 21 22  2  0  0  0  0
 21 24  1  0  0  0  0
 22 23  1  0  0  0  0
 24 25  2  0  0  0  0
 25 26  1  0  0  0  0
M  END
>  <CHROM.1>
-33.63504698,-179.81444318,179.45648918,-92.99421440,-153.00130231,20.92232331
134.84860645,-10.81908070,12.94865057,-22.28254463,0.02694630,0.98231445
1.26339339

>  <Name>
ligand

>  <RI>
0

>  <Rbt.Current_Directory>
/home/itssahil/PROJECTS/Mol_Feturizer/New_Systems/rnas/3E5E

>  <Rbt.Executable>
rbdock ($Id: //depot/dev/client3/rdock/2013.1/src/exe/rbdock.cxx#4 $)

>  <Rbt.Library>
libRbt.so (2013.1, Build901 2013/11/27)

>  <Rbt.Parameter_File>
/export/apps/rDock/src/rDock_2013.1_src/data/scripts/dock_solv.prm

>  <Rbt.Receptor>
prm/pocket_docking_4.prm

>  <SCORE>
-18.3108

>  <SCORE.INTER>
-16.2652

>  <SCORE.INTER.CONST>
1

>  <SCORE.INTER.POLAR>
0

>  <SCORE.INTER.ROT>
7

>  <SCORE.INTER.SOLV>
12.5835

>  <SCORE.INTER.VDW>
-23.3046

>  <SCORE.INTER.norm>
-0.625584

>  <SCORE.INTRA>
-2.04564

>  <SCORE.INTRA.DIHEDRAL>
-1.35718

>  <SCORE.INTRA.DIHEDRAL.0>
10.1225

>  <SCORE.INTRA.POLAR>
0

>  <SCORE.INTRA.POLAR.0>
0

>  <SCORE.INTRA.REPUL>
0

>  <SCORE.INTRA.REPUL.0>
0

>  <SCORE.INTRA.SOLV>
-0.18417

>  <SCORE.INTRA.SOLV.lig_0>
-49.9393

>  <SCORE.INTRA.VDW>
-1.27497

>  <SCORE.INTRA.VDW.0>
-1.75437

>  <SCORE.INTRA.norm>
-0.0786785

>  <SCORE.RESTR>
0

>  <SCORE.RESTR.CAVITY>
0

>  <SCORE.RESTR.norm>
0

>  <SCORE.SYSTEM>
0

>  <SCORE.SYSTEM.CONST>
0

>  <SCORE.SYSTEM.DIHEDRAL>
0

>  <SCORE.SYSTEM.SOLV>
0

>  <SCORE.SYSTEM.norm>
0

>  <SCORE.heavy>
26

>  <SCORE.norm>
-0.704263

>  <RMSD>
8.077

$$$$
ligand
 OpenBabel11021811473D
libRbt.so/2013.1/901 2013/11/27
 26 28  0  0  0  0  0  0  0  0999 V2000
   -7.3345   16.3293  -21.4364 N   0  0  0  0  0  0  0  0  0  0  0  0
   -7.8688   15.1219  -20.7943 C   0  0  2  0  0  0  0  0  0  0  0  0
   -8.9026   14.4934  -21.6912 C   0  0  0  0  0  0  0  0  0  0  0  0
   -9.8744   15.1266  -22.0311 O   0  0  0  0  0  0  0  0  0  0  0  0
   -8.5121   15.4981  -19.4584 C   0  0  0  0  0  0  0  0  0  0  0  0
   -8.9101   14.2283  -18.7082 C   0  0  0  0  0  0  0  0  0  0  0  0
  -10.4449   13.5371  -18.9336 S   0  0  0  0  0  0  0  0  0  0  0  0
  -11.4441   12.9001  -20.3036 C   0  0  0  0  0  0  0  0  0  0  0  0
  -10.8548   11.6740  -21.0116 C   0  0  1  0  0  0  0  0  0  0  0  0
  -10.8398   10.5263  -20.1825 O   0  0  0  0  0  0  0  0  0  0  0  0
  -11.6983   11.2360  -22.1855 C   0  0  1  0  0  0  0  0  0  0  0  0
  -10.8142   10.5223  -23.0218 O   0  0  0  0  0  0  0  0  0  0  0  0
  -12.6967   10.2574  -21.6122 C   0  0  1  0  0  0  0  0  0  0  0  0
  -12.8664    9.1754  -22.5017 O   0  0  0  0  0  0  0  0  0  0  0  0
  -12.0245    9.7698  -20.3470 C   0  0  2  0  0  0  0  0  0  0  0  0
   -8.7472   13.2275  -22.1123 O   0  0  0  0  0  0  0  0  0  0  0  0
  -14.1828    7.3727  -16.2471 N   0  0  0  0  0  0  0  0  0  0  0  0
  -13.4941    6.8073  -17.2940 C   0  0  0  0  0  0  0  0  0  0  0  0
  -13.0071    7.6107  -18.2968 N   0  0  0  0  0  0  0  0  0  0  0  0
  -13.1960    8.9442  -18.2630 C   0  0  0  0  0  0  0  0  0  0  0  0
  -13.8847    9.5333  -17.2193 C   0  0  0  0  0  0  0  0  0  0  0  0
  -14.3844    8.7292  -16.2016 C   0  0  0  0  0  0  0  0  0  0  0  0
  -15.0550    9.2527  -15.1829 N   0  0  0  0  0  0  0  0  0  0  0  0
  -13.9258   10.8666  -17.4383 N   0  0  0  0  0  0  0  0  0  0  0  0
  -13.2745   11.1240  -18.5892 C   0  0  0  0  0  0  0  0  0  0  0  0
  -12.8246    9.9424  -19.1206 N   0  0  0  0  0  0  0  0  0  0  0  0
  2  1  1  6  0  0  0
  2  3  1  0  0  0  0
  2  5  1  0  0  0  0
  3  4  1  0  0  0  0
  3 16  1  0  0  0  0
  5  6  1  0  0  0  0
  6  7  1  0  0  0  0
  7  8  1  0  0  0  0
  9  8  1  1  0  0  0
  9 10  1  0  0  0  0
  9 11  1  0  0  0  0
 10 15  1  0  0  0  0
 11 12  1  6  0  0  0
 11 13  1  0  0  0  0
 13 14  1  6  0  0  0
 13 15  1  0  0  0  0
 15 26  1  1  0  0  0
 17 18  2  0  0  0  0
 17 22  1  0  0  0  0
 18 19  1  0  0  0  0
 19 20  2  0  0  0  0
 20 21  1  0  0  0  0
 20 26  1  0  0  0  0
 21 22  2  0  0  0  0
 21 24  1  0  0  0  0
 22 23  1  0  0  0  0
 24 25  2  0  0  0  0
 25 26  1  0  0  0  0
M  END
>  <CHROM.1>
-58.40165855,-172.89410597,-89.58566274,57.18420683,63.56409153,67.34228987
-118.68944869,-11.46571428,11.45867735,-19.67607440,-0.12191910,0.94863419
1.17805360

>  <Name>
ligand

>  <RI>
0

>  <Rbt.Current_Directory>
/home/itssahil/PROJECTS/Mol_Feturizer/New_Systems/rnas/3E5E

>  <Rbt.Executable>
rbdock ($Id: //depot/dev/client3/rdock/2013.1/src/exe/rbdock.cxx#4 $)

>  <Rbt.Library>
libRbt.so (2013.1, Build901 2013/11/27)

>  <Rbt.Parameter_File>
/export/apps/rDock/src/rDock_2013.1_src/data/scripts/dock_solv.prm

>  <Rbt.Receptor>
prm/pocket_docking_4.prm

>  <SCORE>
-24.1701

>  <SCORE.INTER>
-20.096

>  <SCORE.INTER.CONST>
1

>  <SCORE.INTER.POLAR>
0

>  <SCORE.INTER.ROT>
7

>  <SCORE.INTER.SOLV>
10.4663

>  <SCORE.INTER.VDW>
-25.1528

>  <SCORE.INTER.norm>
-0.772923

>  <SCORE.INTRA>
-4.0758

>  <SCORE.INTRA.DIHEDRAL>
-4.29658

>  <SCORE.INTRA.DIHEDRAL.0>
10.1225

>  <SCORE.INTRA.POLAR>
0

>  <SCORE.INTRA.POLAR.0>
0

>  <SCORE.INTRA.REPUL>
0

>  <SCORE.INTRA.REPUL.0>
0

>  <SCORE.INTRA.SOLV>
-0.378018

>  <SCORE.INTRA.SOLV.lig_0>
-49.9393

>  <SCORE.INTRA.VDW>
-1.7385

>  <SCORE.INTRA.VDW.0>
-1.75437

>  <SCORE.INTRA.norm>
-0.156762

>  <SCORE.RESTR>
0.00174211

>  <SCORE.RESTR.CAVITY>
0.00174211

>  <SCORE.RESTR.norm>
6.70044e-05

>  <SCORE.SYSTEM>
0

>  <SCORE.SYSTEM.CONST>
0

>  <SCORE.SYSTEM.DIHEDRAL>
0

>  <SCORE.SYSTEM.SOLV>
0

>  <SCORE.SYSTEM.norm>
0

>  <SCORE.heavy>
26

>  <SCORE.norm>
-0.929618

>  <RMSD>
8.080

$$$$
ligand
 OpenBabel11021811473D
libRbt.so/2013.1/901 2013/11/27
 26 28  0  0  0  0  0  0  0  0999 V2000
   -8.8136   15.4387  -20.5575 N   0  0  0  0  0  0  0  0  0  0  0  0
   -8.9781   15.2268  -19.1140 C   0  0  2  0  0  0  0  0  0  0  0  0
   -7.7313   15.6734  -18.3970 C   0  0  0  0  0  0  0  0  0  0  0  0
   -6.6453   15.4679  -18.8862 O   0  0  0  0  0  0  0  0  0  0  0  0
   -9.2197   13.7411  -18.8420 C   0  0  0  0  0  0  0  0  0  0  0  0
  -10.5211   13.3046  -19.5122 C   0  0  0  0  0  0  0  0  0  0  0  0
  -10.6753   11.7446  -20.1655 S   0  0  0  0  0  0  0  0  0  0  0  0
  -11.8396   10.3597  -20.0780 C   0  0  0  0  0  0  0  0  0  0  0  0
  -13.2755   10.7014  -20.4941 C   0  0  1  0  0  0  0  0  0  0  0  0
  -13.3348   11.3431  -21.7549 O   0  0  0  0  0  0  0  0  0  0  0  0
  -14.1167    9.4641  -20.7010 C   0  0  1  0  0  0  0  0  0  0  0  0
  -15.4483    9.8970  -20.5283 O   0  0  0  0  0  0  0  0  0  0  0  0
  -13.9268    9.0948  -22.1538 C   0  0  1  0  0  0  0  0  0  0  0  0
  -15.1584    8.6815  -22.7042 O   0  0  0  0  0  0  0  0  0  0  0  0
  -13.4993   10.3975  -22.7948 C   0  0  2  0  0  0  0  0  0  0  0  0
   -7.8245   16.2982  -17.2117 O   0  0  0  0  0  0  0  0  0  0  0  0
  -10.0315    7.2679  -25.1173 N   0  0  0  0  0  0  0  0  0  0  0  0
  -11.1751    6.9130  -24.4418 C   0  0  0  0  0  0  0  0  0  0  0  0
  -11.9619    7.8904  -23.8819 N   0  0  0  0  0  0  0  0  0  0  0  0
  -11.6252    9.1905  -23.9897 C   0  0  0  0  0  0  0  0  0  0  0  0
  -10.4803    9.5693  -24.6652 C   0  0  0  0  0  0  0  0  0  0  0  0
   -9.6757    8.5882  -25.2325 C   0  0  0  0  0  0  0  0  0  0  0  0
   -8.5656    8.9073  -25.8863 N   0  0  0  0  0  0  0  0  0  0  0  0
  -10.3876   10.9171  -24.6185 N   0  0  0  0  0  0  0  0  0  0  0  0
  -11.4494   11.3883  -23.9360 C   0  0  0  0  0  0  0  0  0  0  0  0
  -12.2222   10.3310  -23.5285 N   0  0  0  0  0  0  0  0  0  0  0  0
  2  1  1  6  0  0  0
  2  3  1  0  0  0  0
  2  5  1  0  0  0  0
  3  4  1  0  0  0  0
  3 16  1  0  0  0  0
  5  6  1  0  0  0  0
  6  7  1  0  0  0  0
  7  8  1  0  0  0  0
  9  8  1  6  0  0  0
  9 10  1  0  0  0  0
  9 11  1  0  0  0  0
 10 15  1  0  0  0  0
 11 12  1  6  0  0  0
 11 13  1  0  0  0  0
 13 14  1  6  0  0  0
 13 15  1  0  0  0  0
 15 26  1  1  0  0  0
 17 18  2  0  0  0  0
 17 22  1  0  0  0  0
 18 19  1  0  0  0  0
 19 20  2  0  0  0  0
 20 21  1  0  0  0  0
 20 26  1  0  0  0  0
 21 22  2  0  0  0  0
 21 24  1  0  0  0  0
 22 23  1  0  0  0  0
 24 25  2  0  0  0  0
 25 26  1  0  0  0  0
M  END
>  <CHROM.1>
-38.30851496,-62.83482486,145.42737632,129.54876995,57.64834147,51.52439321
138.62157307,-11.09618836,11.16381447,-21.72569724,-1.09299584,-0.39397646
-2.27797442

>  <Name>
ligand

>  <RI>
0

>  <Rbt.Current_Directory>
/home/itssahil/PROJECTS/Mol_Feturizer/New_Systems/rnas/3E5E

>  <Rbt.Executable>
rbdock ($Id: //depot/dev/client3/rdock/2013.1/src/exe/rbdock.cxx#4 $)

>  <Rbt.Library>
libRbt.so (2013.1, Build901 2013/11/27)

>  <Rbt.Parameter_File>
/export/apps/rDock/src/rDock_2013.1_src/data/scripts/dock_solv.prm

>  <Rbt.Receptor>
prm/blind_docking_80.prm

>  <SCORE>
-19.1783

>  <SCORE.INTER>
-17.9498

>  <SCORE.INTER.CONST>
1

>  <SCORE.INTER.POLAR>
0

>  <SCORE.INTER.ROT>
7

>  <SCORE.INTER.SOLV>
13.4409

>  <SCORE.INTER.VDW>
-24.7135

>  <SCORE.INTER.norm>
-0.690376

>  <SCORE.INTRA>
-1.24012

>  <SCORE.INTRA.DIHEDRAL>
-1.57843

>  <SCORE.INTRA.DIHEDRAL.0>
10.1225

>  <SCORE.INTRA.POLAR>
0

>  <SCORE.INTRA.POLAR.0>
0

>  <SCORE.INTRA.REPUL>
0

>  <SCORE.INTRA.REPUL.0>
0

>  <SCORE.INTRA.SOLV>
0.568982

>  <SCORE.INTRA.SOLV.lig_0>
-49.9393

>  <SCORE.INTRA.VDW>
-0.735391

>  <SCORE.INTRA.VDW.0>
-1.75437

>  <SCORE.INTRA.norm>
-0.0476968

>  <SCORE.RESTR>
0.0116245

>  <SCORE.RESTR.CAVITY>
0.0116245

>  <SCORE.RESTR.norm>
0.000447096

>  <SCORE.SYSTEM>
0

>  <SCORE.SYSTEM.CONST>
0

>  <SCORE.SYSTEM.DIHEDRAL>
0

>  <SCORE.SYSTEM.SOLV>
0

>  <SCORE.SYSTEM.norm>
0

>  <SCORE.heavy>
26

>  <SCORE.norm>
-0.737625

>  <RMSD>
8.088

$$$$
ligand
 OpenBabel11021811473D
libRbt.so/2013.1/901 2013/11/27
 26 28  0  0  0  0  0  0  0  0999 V2000
   -7.2577   16.3117  -21.3614 N   0  0  0  0  0  0  0  0  0  0  0  0
   -7.8494   15.1129  -20.7546 C   0  0  2  0  0  0  0  0  0  0  0  0
   -8.8741   14.5306  -21.6922 C   0  0  0  0  0  0  0  0  0  0  0  0
   -9.7848   15.2160  -22.0947 O   0  0  0  0  0  0  0  0  0  0  0  0
   -8.5217   15.4902  -19.4334 C   0  0  0  0  0  0  0  0  0  0  0  0
   -8.9099   14.2207  -18.6776 C   0  0  0  0  0  0  0  0  0  0  0  0
  -10.4455   13.5262  -18.8872 S   0  0  0  0  0  0  0  0  0  0  0  0
  -11.4551   12.8818  -20.2461 C   0  0  0  0  0  0  0  0  0  0  0  0
  -10.8664   11.6579  -20.9583 C   0  0  1  0  0  0  0  0  0  0  0  0
  -10.8667   10.5033  -20.1386 O   0  0  0  0  0  0  0  0  0  0  0  0
  -11.7009   11.2347  -22.1441 C   0  0  1  0  0  0  0  0  0  0  0  0
  -10.8130   10.5224  -22.9775 O   0  0  0  0  0  0  0  0  0  0  0  0
  -12.7110   10.2578  -21.5888 C   0  0  1  0  0  0  0  0  0  0  0  0
  -12.8786    9.1842  -22.4888 O   0  0  0  0  0  0  0  0  0  0  0  0
  -12.0544    9.7557  -20.3210 C   0  0  2  0  0  0  0  0  0  0  0  0
   -8.7787   13.2483  -22.0802 O   0  0  0  0  0  0  0  0  0  0  0  0
  -14.2059    7.3497  -16.2227 N   0  0  0  0  0  0  0  0  0  0  0  0
  -13.5016    6.7888  -17.2616 C   0  0  0  0  0  0  0  0  0  0  0  0
  -13.0194    7.5937  -18.2655 N   0  0  0  0  0  0  0  0  0  0  0  0
  -13.2283    8.9244  -18.2406 C   0  0  0  0  0  0  0  0  0  0  0  0
  -13.9329    9.5090  -17.2051 C   0  0  0  0  0  0  0  0  0  0  0  0
  -14.4278    8.7033  -16.1863 C   0  0  0  0  0  0  0  0  0  0  0  0
  -15.1132    9.2225  -15.1753 N   0  0  0  0  0  0  0  0  0  0  0  0
  -13.9921   10.8403  -17.4319 N   0  0  0  0  0  0  0  0  0  0  0  0
  -13.3366   11.1010  -18.5797 C   0  0  0  0  0  0  0  0  0  0  0  0
  -12.8656    9.9232  -19.1013 N   0  0  0  0  0  0  0  0  0  0  0  0
  2  1  1  6  0  0  0
  2  3  1  0  0  0  0
  2  5  1  0  0  0  0
  3  4  1  0  0  0  0
  3 16  1  0  0  0  0
  5  6  1  0  0  0  0
  6  7  1  0  0  0  0
  7  8  1  0  0  0  0
  9  8  1  1  0  0  0
  9 10  1  0  0  0  0
  9 11  1  0  0  0  0
 10 15  1  0  0  0  0
 11 12  1  6  0  0  0
 11 13  1  0  0  0  0
 13 14  1  6  0  0  0
 13 15  1  0  0  0  0
 15 26  1  1  0  0  0
 17 18  2  0  0  0  0
 17 22  1  0  0  0  0
 18 19  1  0  0  0  0
 19 20  2  0  0  0  0
 20 21  1  0  0  0  0
 20 26  1  0  0  0  0
 21 22  2  0  0  0  0
 21 24  1  0  0  0  0
 22 23  1  0  0  0  0
 24 25  2  0  0  0  0
 25 26  1  0  0  0  0
M  END
>  <CHROM.1>
-55.40620943,-169.63698536,-91.41310540,57.37006729,63.26844672,68.78326547
-117.23744066,-11.47692603,11.45183954,-19.64946832,-0.12292257,0.94467285
1.18272768

>  <Name>
ligand

>  <RI>
0

>  <Rbt.Current_Directory>
/home/itssahil/PROJECTS/Mol_Feturizer/New_Systems/rnas/3E5E

>  <Rbt.Executable>
rbdock ($Id: //depot/dev/client3/rdock/2013.1/src/exe/rbdock.cxx#4 $)

>  <Rbt.Library>
libRbt.so (2013.1, Build901 2013/11/27)

>  <Rbt.Parameter_File>
/export/apps/rDock/src/rDock_2013.1_src/data/scripts/dock_solv.prm

>  <Rbt.Receptor>
prm/pocket_docking_4.prm

>  <SCORE>
-24.0325

>  <SCORE.INTER>
-20.0988

>  <SCORE.INTER.CONST>
1

>  <SCORE.INTER.POLAR>
0

>  <SCORE.INTER.ROT>
7

>  <SCORE.INTER.SOLV>
10.3979

>  <SCORE.INTER.VDW>
-25.1319

>  <SCORE.INTER.norm>
-0.773032

>  <SCORE.INTRA>
-3.93369

>  <SCORE.INTRA.DIHEDRAL>
-3.74389

>  <SCORE.INTRA.DIHEDRAL.0>
10.1225

>  <SCORE.INTRA.POLAR>
0

>  <SCORE.INTRA.POLAR.0>
0

>  <SCORE.INTRA.REPUL>
0

>  <SCORE.INTRA.REPUL.0>
0

>  <SCORE.INTRA.SOLV>
-0.395122

>  <SCORE.INTRA.SOLV.lig_0>
-49.9393

>  <SCORE.INTRA.VDW>
-1.86418

>  <SCORE.INTRA.VDW.0>
-1.75437

>  <SCORE.INTRA.norm>
-0.151296

>  <SCORE.RESTR>
0

>  <SCORE.RESTR.CAVITY>
0

>  <SCORE.RESTR.norm>
0

>  <SCORE.SYSTEM>
0

>  <SCORE.SYSTEM.CONST>
0

>  <SCORE.SYSTEM.DIHEDRAL>
0

>  <SCORE.SYSTEM.SOLV>
0

>  <SCORE.SYSTEM.norm>
0

>  <SCORE.heavy>
26

>  <SCORE.norm>
-0.924328

>  <RMSD>
8.108

$$$$
ligand
 OpenBabel11021811473D
libRbt.so/2013.1/901 2013/11/27
 26 28  0  0  0  0  0  0  0  0999 V2000
  -11.2036   11.4518  -24.0545 N   0  0  0  0  0  0  0  0  0  0  0  0
  -10.5666   12.7642  -23.8887 C   0  0  2  0  0  0  0  0  0  0  0  0
   -9.3507   12.8461  -24.7736 C   0  0  0  0  0  0  0  0  0  0  0  0
   -9.1358   13.8474  -25.4157 O   0  0  0  0  0  0  0  0  0  0  0  0
  -10.1491   12.9465  -22.4285 C   0  0  0  0  0  0  0  0  0  0  0  0
  -10.3391   14.4066  -22.0219 C   0  0  0  0  0  0  0  0  0  0  0  0
   -9.0386   15.4970  -22.0853 S   0  0  0  0  0  0  0  0  0  0  0  0
   -7.2875   15.5289  -21.6232 C   0  0  0  0  0  0  0  0  0  0  0  0
   -6.7367   16.9210  -21.2910 C   0  0  1  0  0  0  0  0  0  0  0  0
   -5.3221   16.9430  -21.2334 O   0  0  0  0  0  0  0  0  0  0  0  0
   -7.0499   17.9286  -22.3719 C   0  0  1  0  0  0  0  0  0  0  0  0
   -6.9975   19.1819  -21.7263 O   0  0  0  0  0  0  0  0  0  0  0  0
   -5.8899   17.8474  -23.3367 C   0  0  1  0  0  0  0  0  0  0  0  0
   -5.5378   19.1442  -23.7670 O   0  0  0  0  0  0  0  0  0  0  0  0
   -4.7710   17.2742  -22.4941 C   0  0  2  0  0  0  0  0  0  0  0  0
   -8.5050   11.8056  -24.8524 O   0  0  0  0  0  0  0  0  0  0  0  0
   -5.5378   13.0090  -25.3982 N   0  0  0  0  0  0  0  0  0  0  0  0
   -6.4524   13.9755  -25.0530 C   0  0  0  0  0  0  0  0  0  0  0  0
   -6.0596   15.0280  -24.2618 N   0  0  0  0  0  0  0  0  0  0  0  0
   -4.7892   15.1225  -23.8234 C   0  0  0  0  0  0  0  0  0  0  0  0
   -3.8534   14.1623  -24.1593 C   0  0  0  0  0  0  0  0  0  0  0  0
   -4.2412   13.0919  -24.9565 C   0  0  0  0  0  0  0  0  0  0  0  0
   -3.3762   12.1455  -25.2995 N   0  0  0  0  0  0  0  0  0  0  0  0
   -2.6751   14.5023  -23.5905 N   0  0  0  0  0  0  0  0  0  0  0  0
   -2.8516   15.6537  -22.9135 C   0  0  0  0  0  0  0  0  0  0  0  0
   -4.1595   16.0475  -23.0374 N   0  0  0  0  0  0  0  0  0  0  0  0
  2  1  1  1  0  0  0
  2  3  1  0  0  0  0
  2  5  1  0  0  0  0
  3  4  1  0  0  0  0
  3 16  1  0  0  0  0
  5  6  1  0  0  0  0
  6  7  1  0  0  0  0
  7  8  1  0  0  0  0
  9  8  1  6  0  0  0
  9 10  1  0  0  0  0
  9 11  1  0  0  0  0
 10 15  1  0  0  0  0
 11 12  1  1  0  0  0
 11 13  1  0  0  0  0
 13 14  1  1  0  0  0
 13 15  1  0  0  0  0
 15 26  1  6  0  0  0
 17 18  2  0  0  0  0
 17 22  1  0  0  0  0
 18 19  1  0  0  0  0
 19 20  2  0  0  0  0
 20 21  1  0  0  0  0
 20 26  1  0  0  0  0
 21 22  2  0  0  0  0
 21 24  1  0  0  0  0
 22 23  1  0  0  0  0
 24 25  2  0  0  0  0
 25 26  1  0  0  0  0
M  END
>  <CHROM.1>
136.39116095,-144.03127524,-95.65426055,-44.32795974,-152.35081241,-166.64474263
90.16645695,-6.77888947,15.02765108,-23.37234921,2.48759652,-0.20286852,-2.64515241

>  <Name>
ligand

>  <RI>
0

>  <Rbt.Current_Directory>
/home/itssahil/PROJECTS/Mol_Feturizer/New_Systems/rnas/3E5E

>  <Rbt.Executable>
rbdock ($Id: //depot/dev/client3/rdock/2013.1/src/exe/rbdock.cxx#4 $)

>  <Rbt.Library>
libRbt.so (2013.1, Build901 2013/11/27)

>  <Rbt.Parameter_File>
/export/apps/rDock/src/rDock_2013.1_src/data/scripts/dock_solv.prm

>  <Rbt.Receptor>
prm/blind_docking_40.prm

>  <SCORE>
-9.26374

>  <SCORE.INTER>
-8.10112

>  <SCORE.INTER.CONST>
1

>  <SCORE.INTER.POLAR>
0

>  <SCORE.INTER.ROT>
7

>  <SCORE.INTER.SOLV>
13.8261

>  <SCORE.INTER.VDW>
-18.2761

>  <SCORE.INTER.norm>
-0.311582

>  <SCORE.INTRA>
-1.16262

>  <SCORE.INTRA.DIHEDRAL>
2.15366

>  <SCORE.INTRA.DIHEDRAL.0>
10.1225

>  <SCORE.INTRA.POLAR>
0

>  <SCORE.INTRA.POLAR.0>
0

>  <SCORE.INTRA.REPUL>
0

>  <SCORE.INTRA.REPUL.0>
0

>  <SCORE.INTRA.SOLV>
-0.336767

>  <SCORE.INTRA.SOLV.lig_0>
-49.9393

>  <SCORE.INTRA.VDW>
-2.07106

>  <SCORE.INTRA.VDW.0>
-1.75437

>  <SCORE.INTRA.norm>
-0.044716

>  <SCORE.RESTR>
0

>  <SCORE.RESTR.CAVITY>
0

>  <SCORE.RESTR.norm>
0

>  <SCORE.SYSTEM>
0

>  <SCORE.SYSTEM.CONST>
0

>  <SCORE.SYSTEM.DIHEDRAL>
0

>  <SCORE.SYSTEM.SOLV>
0

>  <SCORE.SYSTEM.norm>
0

>  <SCORE.heavy>
26

>  <SCORE.norm>
-0.356298

>  <RMSD>
8.129

$$$$
ligand
 OpenBabel11021811473D
libRbt.so/2013.1/901 2013/11/27
 26 28  0  0  0  0  0  0  0  0999 V2000
   -8.2533   15.2410  -21.3427 N   0  0  0  0  0  0  0  0  0  0  0  0
   -7.5842   16.2382  -20.4981 C   0  0  2  0  0  0  0  0  0  0  0  0
   -6.3991   16.8046  -21.2350 C   0  0  0  0  0  0  0  0  0  0  0  0
   -5.4777   16.0854  -21.5429 O   0  0  0  0  0  0  0  0  0  0  0  0
   -7.1114   15.5741  -19.2038 C   0  0  0  0  0  0  0  0  0  0  0  0
   -8.3162   15.2778  -18.3126 C   0  0  0  0  0  0  0  0  0  0  0  0
   -9.4626   14.1113  -18.7698 S   0  0  0  0  0  0  0  0  0  0  0  0
  -10.7209   13.8947  -20.0547 C   0  0  0  0  0  0  0  0  0  0  0  0
  -11.9177   13.0295  -19.6415 C   0  0  1  0  0  0  0  0  0  0  0  0
  -12.9203   12.9813  -20.6402 O   0  0  0  0  0  0  0  0  0  0  0  0
  -11.5371   11.5780  -19.4697 C   0  0  1  0  0  0  0  0  0  0  0  0
  -12.5143   11.0464  -18.6020 O   0  0  0  0  0  0  0  0  0  0  0  0
  -11.7288   10.9545  -20.8326 C   0  0  1  0  0  0  0  0  0  0  0  0
  -12.3067    9.6750  -20.6930 O   0  0  0  0  0  0  0  0  0  0  0  0
  -12.7149   11.8826  -21.5083 C   0  0  2  0  0  0  0  0  0  0  0  0
   -6.3635   18.1102  -21.5485 O   0  0  0  0  0  0  0  0  0  0  0  0
   -9.3491   11.3434  -25.4573 N   0  0  0  0  0  0  0  0  0  0  0  0
   -9.4342   10.5948  -24.3073 C   0  0  0  0  0  0  0  0  0  0  0  0
  -10.3896   10.9015  -23.3687 N   0  0  0  0  0  0  0  0  0  0  0  0
  -11.2432   11.9253  -23.5648 C   0  0  0  0  0  0  0  0  0  0  0  0
  -11.1757   12.6901  -24.7142 C   0  0  0  0  0  0  0  0  0  0  0  0
  -10.2107   12.3904  -25.6685 C   0  0  0  0  0  0  0  0  0  0  0  0
  -10.1080   13.1014  -26.7845 N   0  0  0  0  0  0  0  0  0  0  0  0
  -12.1378   13.6375  -24.6493 N   0  0  0  0  0  0  0  0  0  0  0  0
  -12.8073   13.4785  -23.4910 C   0  0  0  0  0  0  0  0  0  0  0  0
  -12.2591   12.4282  -22.8000 N   0  0  0  0  0  0  0  0  0  0  0  0
  2  1  1  6  0  0  0
  2  3  1  0  0  0  0
  2  5  1  0  0  0  0
  3  4  1  0  0  0  0
  3 16  1  0  0  0  0
  5  6  1  0  0  0  0
  6  7  1  0  0  0  0
  7  8  1  0  0  0  0
  9  8  1  6  0  0  0
  9 10  1  0  0  0  0
  9 11  1  0  0  0  0
 10 15  1  0  0  0  0
 11 12  1  1  0  0  0
 11 13  1  0  0  0  0
 13 14  1  1  0  0  0
 13 15  1  0  0  0  0
 15 26  1  6  0  0  0
 17 18  2  0  0  0  0
 17 22  1  0  0  0  0
 18 19  1  0  0  0  0
 19 20  2  0  0  0  0
 20 21  1  0  0  0  0
 20 26  1  0  0  0  0
 21 22  2  0  0  0  0
 21 24  1  0  0  0  0
 22 23  1  0  0  0  0
 24 25  2  0  0  0  0
 25 26  1  0  0  0  0
M  END
>  <CHROM.1>
-63.06523280,-72.53923679,67.68695547,-67.57428508,-150.76996026,175.19289620
136.65091215,-10.11635310,13.33353879,-21.64684655,-0.48517649,-0.73578254
-1.72171124

>  <Name>
ligand

>  <RI>
0

>  <Rbt.Current_Directory>
/home/itssahil/PROJECTS/Mol_Feturizer/New_Systems/rnas/3E5E

>  <Rbt.Executable>
rbdock ($Id: //depot/dev/client3/rdock/2013.1/src/exe/rbdock.cxx#4 $)

>  <Rbt.Library>
libRbt.so (2013.1, Build901 2013/11/27)

>  <Rbt.Parameter_File>
/export/apps/rDock/src/rDock_2013.1_src/data/scripts/dock_solv.prm

>  <Rbt.Receptor>
prm/pocket_docking_3.prm

>  <SCORE>
-21.4099

>  <SCORE.INTER>
-19.5936

>  <SCORE.INTER.CONST>
1

>  <SCORE.INTER.POLAR>
0

>  <SCORE.INTER.ROT>
7

>  <SCORE.INTER.SOLV>
16.2461

>  <SCORE.INTER.VDW>
-26.7444

>  <SCORE.INTER.norm>
-0.7536

>  <SCORE.INTRA>
-1.82293

>  <SCORE.INTRA.DIHEDRAL>
-5.36224

>  <SCORE.INTRA.DIHEDRAL.0>
10.1225

>  <SCORE.INTRA.POLAR>
0

>  <SCORE.INTRA.POLAR.0>
0

>  <SCORE.INTRA.REPUL>
0

>  <SCORE.INTRA.REPUL.0>
0

>  <SCORE.INTRA.SOLV>
2.35412

>  <SCORE.INTRA.SOLV.lig_0>
-49.9393

>  <SCORE.INTRA.VDW>
-0.318872

>  <SCORE.INTRA.VDW.0>
-1.75437

>  <SCORE.INTRA.norm>
-0.0701128

>  <SCORE.RESTR>
0.00667418

>  <SCORE.RESTR.CAVITY>
0.00667418

>  <SCORE.RESTR.norm>
0.000256699

>  <SCORE.SYSTEM>
0

>  <SCORE.SYSTEM.CONST>
0

>  <SCORE.SYSTEM.DIHEDRAL>
0

>  <SCORE.SYSTEM.SOLV>
0

>  <SCORE.SYSTEM.norm>
0

>  <SCORE.heavy>
26

>  <SCORE.norm>
-0.823457

>  <RMSD>
8.134

$$$$
ligand
 OpenBabel11021811473D
libRbt.so/2013.1/901 2013/11/27
 26 28  0  0  0  0  0  0  0  0999 V2000
   -7.6412   10.3915  -25.4752 N   0  0  0  0  0  0  0  0  0  0  0  0
   -8.1688   11.7023  -25.0763 C   0  0  2  0  0  0  0  0  0  0  0  0
   -7.3706   12.2307  -23.9136 C   0  0  0  0  0  0  0  0  0  0  0  0
   -7.3788   13.4128  -23.6613 O   0  0  0  0  0  0  0  0  0  0  0  0
   -9.6351   11.5571  -24.6655 C   0  0  0  0  0  0  0  0  0  0  0  0
  -10.3184   12.9222  -24.7218 C   0  0  0  0  0  0  0  0  0  0  0  0
  -11.8930   13.1254  -24.1190 S   0  0  0  0  0  0  0  0  0  0  0  0
  -12.7499   12.9989  -22.5281 C   0  0  0  0  0  0  0  0  0  0  0  0
  -12.1384   13.8403  -21.4012 C   0  0  1  0  0  0  0  0  0  0  0  0
  -12.8153   13.6679  -20.1696 O   0  0  0  0  0  0  0  0  0  0  0  0
  -10.7259   13.4148  -21.0769 C   0  0  1  0  0  0  0  0  0  0  0  0
  -10.1333   14.5474  -20.4798 O   0  0  0  0  0  0  0  0  0  0  0  0
  -10.8678   12.3453  -20.0190 C   0  0  1  0  0  0  0  0  0  0  0  0
   -9.8669   12.5109  -19.0384 O   0  0  0  0  0  0  0  0  0  0  0  0
  -12.2234   12.6310  -19.4097 C   0  0  2  0  0  0  0  0  0  0  0  0
   -6.6465   11.3895  -23.1573 O   0  0  0  0  0  0  0  0  0  0  0  0
  -14.7239    9.0735  -16.5278 N   0  0  0  0  0  0  0  0  0  0  0  0
  -13.8189   10.0199  -16.1092 C   0  0  0  0  0  0  0  0  0  0  0  0
  -13.2518   10.8684  -17.0293 N   0  0  0  0  0  0  0  0  0  0  0  0
  -13.5749   10.7832  -18.3345 C   0  0  0  0  0  0  0  0  0  0  0  0
  -14.4831    9.8397  -18.7767 C   0  0  0  0  0  0  0  0  0  0  0  0
  -15.0600    8.9743  -17.8545 C   0  0  0  0  0  0  0  0  0  0  0  0
  -15.9336    8.0509  -18.2363 N   0  0  0  0  0  0  0  0  0  0  0  0
  -14.6178    9.9762  -20.1148 N   0  0  0  0  0  0  0  0  0  0  0  0
  -13.8208   10.9853  -20.5169 C   0  0  0  0  0  0  0  0  0  0  0  0
  -13.1577   11.4905  -19.4278 N   0  0  0  0  0  0  0  0  0  0  0  0
  2  1  1  1  0  0  0
  2  3  1  0  0  0  0
  2  5  1  0  0  0  0
  3  4  1  0  0  0  0
  3 16  1  0  0  0  0
  5  6  1  0  0  0  0
  6  7  1  0  0  0  0
  7  8  1  0  0  0  0
  9  8  1  6  0  0  0
  9 10  1  0  0  0  0
  9 11  1  0  0  0  0
 10 15  1  0  0  0  0
 11 12  1  1  0  0  0
 11 13  1  0  0  0  0
 13 14  1  1  0  0  0
 13 15  1  0  0  0  0
 15 26  1  6  0  0  0
 17 18  2  0  0  0  0
 17 22  1  0  0  0  0
 18 19  1  0  0  0  0
 19 20  2  0  0  0  0
 20 21  1  0  0  0  0
 20 26  1  0  0  0  0
 21 22  2  0  0  0  0
 21 24  1  0  0  0  0
 22 23  1  0  0  0  0
 24 25  2  0  0  0  0
 25 26  1  0  0  0  0
M  END
>  <CHROM.1>
159.71105196,-160.40543347,-171.60228668,63.16869006,54.48475238,-177.83686569
-130.95012338,-11.57241236,11.77677365,-21.05385237,0.67452544,-0.58453167
-1.80597204

>  <Name>
ligand

>  <RI>
0

>  <Rbt.Current_Directory>
/home/itssahil/PROJECTS/Mol_Feturizer/New_Systems/rnas/3E5E

>  <Rbt.Executable>
rbdock ($Id: //depot/dev/client3/rdock/2013.1/src/exe/rbdock.cxx#4 $)

>  <Rbt.Library>
libRbt.so (2013.1, Build901 2013/11/27)

>  <Rbt.Parameter_File>
/export/apps/rDock/src/rDock_2013.1_src/data/scripts/dock_solv.prm

>  <Rbt.Receptor>
prm/blind_docking_40.prm

>  <SCORE>
-20.1551

>  <SCORE.INTER>
-16.3214

>  <SCORE.INTER.CONST>
1

>  <SCORE.INTER.POLAR>
0

>  <SCORE.INTER.ROT>
7

>  <SCORE.INTER.SOLV>
11.2682

>  <SCORE.INTER.VDW>
-22.9037

>  <SCORE.INTER.norm>
-0.627747

>  <SCORE.INTRA>
-3.83367

>  <SCORE.INTRA.DIHEDRAL>
-5.59376

>  <SCORE.INTRA.DIHEDRAL.0>
10.1225

>  <SCORE.INTRA.POLAR>
0

>  <SCORE.INTRA.POLAR.0>
0

>  <SCORE.INTRA.REPUL>
0

>  <SCORE.INTRA.REPUL.0>
0

>  <SCORE.INTRA.SOLV>
-0.519586

>  <SCORE.INTRA.SOLV.lig_0>
-49.9393

>  <SCORE.INTRA.VDW>
-0.776996

>  <SCORE.INTRA.VDW.0>
-1.75437

>  <SCORE.INTRA.norm>
-0.147449

>  <SCORE.RESTR>
0

>  <SCORE.RESTR.CAVITY>
0

>  <SCORE.RESTR.norm>
0

>  <SCORE.SYSTEM>
0

>  <SCORE.SYSTEM.CONST>
0

>  <SCORE.SYSTEM.DIHEDRAL>
0

>  <SCORE.SYSTEM.SOLV>
0

>  <SCORE.SYSTEM.norm>
0

>  <SCORE.heavy>
26

>  <SCORE.norm>
-0.775196

>  <RMSD>
8.152

$$$$
ligand
 OpenBabel11021811473D
libRbt.so/2013.1/901 2013/11/27
 26 28  0  0  0  0  0  0  0  0999 V2000
   -6.9520   13.0983  -23.9783 N   0  0  0  0  0  0  0  0  0  0  0  0
   -8.2823   13.6943  -24.1538 C   0  0  2  0  0  0  0  0  0  0  0  0
   -8.5551   14.6519  -23.0240 C   0  0  0  0  0  0  0  0  0  0  0  0
   -8.0260   14.4870  -21.9497 O   0  0  0  0  0  0  0  0  0  0  0  0
   -9.3394   12.5887  -24.1531 C   0  0  0  0  0  0  0  0  0  0  0  0
  -10.6966   13.1800  -24.5298 C   0  0  0  0  0  0  0  0  0  0  0  0
  -12.1218   12.5954  -23.8151 S   0  0  0  0  0  0  0  0  0  0  0  0
  -12.7420   12.2368  -22.1514 C   0  0  0  0  0  0  0  0  0  0  0  0
  -12.3389   13.2594  -21.0821 C   0  0  1  0  0  0  0  0  0  0  0  0
  -12.8325   12.9224  -19.7985 O   0  0  0  0  0  0  0  0  0  0  0  0
  -10.8437   13.3025  -20.8722 C   0  0  1  0  0  0  0  0  0  0  0  0
  -10.5896   14.5802  -20.3307 O   0  0  0  0  0  0  0  0  0  0  0  0
  -10.5645   12.2737  -19.8013 C   0  0  1  0  0  0  0  0  0  0  0  0
   -9.5933   12.7704  -18.9065 O   0  0  0  0  0  0  0  0  0  0  0  0
  -11.8912   12.1431  -19.0847 C   0  0  2  0  0  0  0  0  0  0  0  0
   -9.3887   15.6888  -23.2078 O   0  0  0  0  0  0  0  0  0  0  0  0
  -14.4215    8.6411  -16.1613 N   0  0  0  0  0  0  0  0  0  0  0  0
  -14.0368    9.9149  -15.8156 C   0  0  0  0  0  0  0  0  0  0  0  0
  -13.3612   10.6893  -16.7276 N   0  0  0  0  0  0  0  0  0  0  0  0
  -13.0743   10.2140  -17.9552 C   0  0  0  0  0  0  0  0  0  0  0  0
  -13.4526    8.9367  -18.3237 C   0  0  0  0  0  0  0  0  0  0  0  0
  -14.1336    8.1439  -17.4073 C   0  0  0  0  0  0  0  0  0  0  0  0
  -14.5119    6.9102  -17.7180 N   0  0  0  0  0  0  0  0  0  0  0  0
  -13.0412    8.7231  -19.5935 N   0  0  0  0  0  0  0  0  0  0  0  0
  -12.4214    9.8376  -20.0279 C   0  0  0  0  0  0  0  0  0  0  0  0
  -12.4224   10.7692  -19.0213 N   0  0  0  0  0  0  0  0  0  0  0  0
  2  1  1  1  0  0  0
  2  3  1  0  0  0  0
  2  5  1  0  0  0  0
  3  4  1  0  0  0  0
  3 16  1  0  0  0  0
  5  6  1  0  0  0  0
  6  7  1  0  0  0  0
  7  8  1  0  0  0  0
  9  8  1  6  0  0  0
  9 10  1  0  0  0  0
  9 11  1  0  0  0  0
 10 15  1  0  0  0  0
 11 12  1  1  0  0  0
 11 13  1  0  0  0  0
 13 14  1  1  0  0  0
 13 15  1  0  0  0  0
 15 26  1  6  0  0  0
 17 18  2  0  0  0  0
 17 22  1  0  0  0  0
 18 19  1  0  0  0  0
 19 20  2  0  0  0  0
 20 21  1  0  0  0  0
 20 26  1  0  0  0  0
 21 22  2  0  0  0  0
 21 24  1  0  0  0  0
 22 23  1  0  0  0  0
 24 25  2  0  0  0  0
 25 26  1  0  0  0  0
M  END
>  <CHROM.1>
-27.40866000,-172.11465991,-144.30779220,49.30125567,39.88610077,-179.15344391
-99.45592048,-11.48989046,11.91222953,-20.59069082,-0.69905710,0.84329358
1.53019297

>  <Name>
ligand

>  <RI>
0

>  <Rbt.Current_Directory>
/home/itssahil/PROJECTS/Mol_Feturizer/New_Systems/rnas/3E5E

>  <Rbt.Executable>
rbdock ($Id: //depot/dev/client3/rdock/2013.1/src/exe/rbdock.cxx#4 $)

>  <Rbt.Library>
libRbt.so (2013.1, Build901 2013/11/27)

>  <Rbt.Parameter_File>
/export/apps/rDock/src/rDock_2013.1_src/data/scripts/dock_solv.prm

>  <Rbt.Receptor>
prm/blind_docking_40.prm

>  <SCORE>
-19.3876

>  <SCORE.INTER>
-15.8008

>  <SCORE.INTER.CONST>
1

>  <SCORE.INTER.POLAR>
0

>  <SCORE.INTER.ROT>
7

>  <SCORE.INTER.SOLV>
9.05974

>  <SCORE.INTER.VDW>
-21.8205

>  <SCORE.INTER.norm>
-0.607724

>  <SCORE.INTRA>
-3.58726

>  <SCORE.INTRA.DIHEDRAL>
-2.92274

>  <SCORE.INTRA.DIHEDRAL.0>
10.1225

>  <SCORE.INTRA.POLAR>
0

>  <SCORE.INTRA.POLAR.0>
0

>  <SCORE.INTRA.REPUL>
0

>  <SCORE.INTRA.REPUL.0>
0

>  <SCORE.INTRA.SOLV>
-0.265791

>  <SCORE.INTRA.SOLV.lig_0>
-49.9393

>  <SCORE.INTRA.VDW>
-1.993

>  <SCORE.INTRA.VDW.0>
-1.75437

>  <SCORE.INTRA.norm>
-0.137972

>  <SCORE.RESTR>
0.000473584

>  <SCORE.RESTR.CAVITY>
0.000473584

>  <SCORE.RESTR.norm>
1.82148e-05

>  <SCORE.SYSTEM>
0

>  <SCORE.SYSTEM.CONST>
0

>  <SCORE.SYSTEM.DIHEDRAL>
0

>  <SCORE.SYSTEM.SOLV>
0

>  <SCORE.SYSTEM.norm>
0

>  <SCORE.heavy>
26

>  <SCORE.norm>
-0.745678

>  <RMSD>
8.154

$$$$
ligand
 OpenBabel11021811473D
libRbt.so/2013.1/901 2013/11/27
 26 28  0  0  0  0  0  0  0  0999 V2000
   -9.7134   10.5579  -27.2544 N   0  0  0  0  0  0  0  0  0  0  0  0
  -10.2956   11.0514  -26.0002 C   0  0  2  0  0  0  0  0  0  0  0  0
   -9.9887   12.5180  -25.8485 C   0  0  0  0  0  0  0  0  0  0  0  0
   -9.4565   13.1214  -26.7506 O   0  0  0  0  0  0  0  0  0  0  0  0
   -9.6970   10.2796  -24.8229 C   0  0  0  0  0  0  0  0  0  0  0  0
  -10.4237    8.9452  -24.6652 C   0  0  0  0  0  0  0  0  0  0  0  0
  -12.0122    8.8922  -24.0670 S   0  0  0  0  0  0  0  0  0  0  0  0
  -12.8919    9.3380  -22.5476 C   0  0  0  0  0  0  0  0  0  0  0  0
  -12.7732   10.8135  -22.1469 C   0  0  1  0  0  0  0  0  0  0  0  0
  -13.4693   11.1059  -20.9490 O   0  0  0  0  0  0  0  0  0  0  0  0
  -11.3506   11.2001  -21.8179 C   0  0  1  0  0  0  0  0  0  0  0  0
  -11.2993   12.5964  -22.0130 O   0  0  0  0  0  0  0  0  0  0  0  0
  -11.1975   10.9257  -20.3399 C   0  0  1  0  0  0  0  0  0  0  0  0
  -10.4499   11.9605  -19.7392 O   0  0  0  0  0  0  0  0  0  0  0  0
  -12.6202   10.9668  -19.8254 C   0  0  2  0  0  0  0  0  0  0  0  0
  -10.3035   13.1566  -24.7096 O   0  0  0  0  0  0  0  0  0  0  0  0
  -14.3032    9.0331  -15.2821 N   0  0  0  0  0  0  0  0  0  0  0  0
  -13.9305   10.3252  -15.5677 C   0  0  0  0  0  0  0  0  0  0  0  0
  -13.4984   10.6414  -16.8332 N   0  0  0  0  0  0  0  0  0  0  0  0
  -13.4383    9.6998  -17.7950 C   0  0  0  0  0  0  0  0  0  0  0  0
  -13.8091    8.3950  -17.5295 C   0  0  0  0  0  0  0  0  0  0  0  0
  -14.2446    8.0640  -16.2518 C   0  0  0  0  0  0  0  0  0  0  0  0
  -14.6062    6.8225  -15.9524 N   0  0  0  0  0  0  0  0  0  0  0  0
  -13.6509    7.6715  -18.6604 N   0  0  0  0  0  0  0  0  0  0  0  0
  -13.1965    8.4941  -19.6259 C   0  0  0  0  0  0  0  0  0  0  0  0
  -13.0479    9.7539  -19.1044 N   0  0  0  0  0  0  0  0  0  0  0  0
  2  1  1  6  0  0  0
  2  3  1  0  0  0  0
  2  5  1  0  0  0  0
  3  4  1  0  0  0  0
  3 16  1  0  0  0  0
  5  6  1  0  0  0  0
  6  7  1  0  0  0  0
  7  8  1  0  0  0  0
  9  8  1  1  0  0  0
  9 10  1  0  0  0  0
  9 11  1  0  0  0  0
 10 15  1  0  0  0  0
 11 12  1  1  0  0  0
 11 13  1  0  0  0  0
 13 14  1  1  0  0  0
 13 15  1  0  0  0  0
 15 26  1  6  0  0  0
 17 18  2  0  0  0  0
 17 22  1  0  0  0  0
 18 19  1  0  0  0  0
 19 20  2  0  0  0  0
 20 21  1  0  0  0  0
 20 26  1  0  0  0  0
 21 22  2  0  0  0  0
 21 24  1  0  0  0  0
 22 23  1  0  0  0  0
 24 25  2  0  0  0  0
 25 26  1  0  0  0  0
M  END
>  <CHROM.1>
6.66924950,-81.72447219,-72.12658746,-61.57283783,58.19652613,-179.54829748
-122.83287076,-12.08016456,10.24652079,-21.25801858,0.52466072,-1.12335304
-2.29516381

>  <Name>
ligand

>  <RI>
0

>  <Rbt.Current_Directory>
/home/itssahil/PROJECTS/Mol_Feturizer/New_Systems/rnas/3E5E

>  <Rbt.Executable>
rbdock ($Id: //depot/dev/client3/rdock/2013.1/src/exe/rbdock.cxx#4 $)

>  <Rbt.Library>
libRbt.so (2013.1, Build901 2013/11/27)

>  <Rbt.Parameter_File>
/export/apps/rDock/src/rDock_2013.1_src/data/scripts/dock_solv.prm

>  <Rbt.Receptor>
prm/pocket_docking_5.prm

>  <SCORE>
-16.3024

>  <SCORE.INTER>
-12.7437

>  <SCORE.INTER.CONST>
1

>  <SCORE.INTER.POLAR>
0

>  <SCORE.INTER.ROT>
7

>  <SCORE.INTER.SOLV>
8.82908

>  <SCORE.INTER.VDW>
-19.7055

>  <SCORE.INTER.norm>
-0.490141

>  <SCORE.INTRA>
-3.55873

>  <SCORE.INTRA.DIHEDRAL>
-5.15093

>  <SCORE.INTRA.DIHEDRAL.0>
10.1225

>  <SCORE.INTRA.POLAR>
0

>  <SCORE.INTRA.POLAR.0>
0

>  <SCORE.INTRA.REPUL>
0

>  <SCORE.INTRA.REPUL.0>
0

>  <SCORE.INTRA.SOLV>
0.496673

>  <SCORE.INTRA.SOLV.lig_0>
-49.9393

>  <SCORE.INTRA.VDW>
-1.2316

>  <SCORE.INTRA.VDW.0>
-1.75437

>  <SCORE.INTRA.norm>
-0.136874

>  <SCORE.RESTR>
0

>  <SCORE.RESTR.CAVITY>
0

>  <SCORE.RESTR.norm>
0

>  <SCORE.SYSTEM>
0

>  <SCORE.SYSTEM.CONST>
0

>  <SCORE.SYSTEM.DIHEDRAL>
0

>  <SCORE.SYSTEM.SOLV>
0

>  <SCORE.SYSTEM.norm>
0

>  <SCORE.heavy>
26

>  <SCORE.norm>
-0.627015

>  <RMSD>
8.184

$$$$
ligand
 OpenBabel11021811473D
libRbt.so/2013.1/901 2013/11/27
 26 28  0  0  0  0  0  0  0  0999 V2000
   -6.8471   15.5222  -21.4778 N   0  0  0  0  0  0  0  0  0  0  0  0
   -8.1394   15.0026  -21.0135 C   0  0  2  0  0  0  0  0  0  0  0  0
   -9.2331   15.4926  -21.9256 C   0  0  0  0  0  0  0  0  0  0  0  0
  -10.1529   14.7631  -22.2138 O   0  0  0  0  0  0  0  0  0  0  0  0
   -8.4034   15.4940  -19.5892 C   0  0  0  0  0  0  0  0  0  0  0  0
   -8.8438   14.3194  -18.7175 C   0  0  0  0  0  0  0  0  0  0  0  0
  -10.3968   13.6532  -18.8861 S   0  0  0  0  0  0  0  0  0  0  0  0
  -11.4224   12.9512  -20.2038 C   0  0  0  0  0  0  0  0  0  0  0  0
  -10.8239   11.7207  -20.8962 C   0  0  1  0  0  0  0  0  0  0  0  0
  -10.8082   10.5816  -20.0553 O   0  0  0  0  0  0  0  0  0  0  0  0
  -11.6591   11.2669  -22.0700 C   0  0  1  0  0  0  0  0  0  0  0  0
  -10.7673   10.5487  -22.8943 O   0  0  0  0  0  0  0  0  0  0  0  0
  -12.6561   10.2897  -21.4921 C   0  0  1  0  0  0  0  0  0  0  0  0
  -12.8162    9.1979  -22.3714 O   0  0  0  0  0  0  0  0  0  0  0  0
  -11.9886    9.8180  -20.2184 C   0  0  2  0  0  0  0  0  0  0  0  0
   -9.1865   16.7397  -22.4220 O   0  0  0  0  0  0  0  0  0  0  0  0
  -14.2326    7.4405  -16.1532 N   0  0  0  0  0  0  0  0  0  0  0  0
  -13.5462    6.8676  -17.1975 C   0  0  0  0  0  0  0  0  0  0  0  0
  -13.0337    7.6670  -18.1908 N   0  0  0  0  0  0  0  0  0  0  0  0
  -13.1956    9.0039  -18.1502 C   0  0  0  0  0  0  0  0  0  0  0  0
  -13.8815    9.6005  -17.1090 C   0  0  0  0  0  0  0  0  0  0  0  0
  -14.4067    8.8006  -16.1009 C   0  0  0  0  0  0  0  0  0  0  0  0
  -15.0757    9.3315  -15.0849 N   0  0  0  0  0  0  0  0  0  0  0  0
  -13.8932   10.9357  -17.3198 N   0  0  0  0  0  0  0  0  0  0  0  0
  -13.2264   11.1868  -18.4633 C   0  0  0  0  0  0  0  0  0  0  0  0
  -12.7961    9.9995  -18.9982 N   0  0  0  0  0  0  0  0  0  0  0  0
  2  1  1  6  0  0  0
  2  3  1  0  0  0  0
  2  5  1  0  0  0  0
  3  4  1  0  0  0  0
  3 16  1  0  0  0  0
  5  6  1  0  0  0  0
  6  7  1  0  0  0  0
  7  8  1  0  0  0  0
  9  8  1  1  0  0  0
  9 10  1  0  0  0  0
  9 11  1  0  0  0  0
 10 15  1  0  0  0  0
 11 12  1  6  0  0  0
 11 13  1  0  0  0  0
 13 14  1  6  0  0  0
 13 15  1  0  0  0  0
 15 26  1  1  0  0  0
 17 18  2  0  0  0  0
 17 22  1  0  0  0  0
 18 19  1  0  0  0  0
 19 20  2  0  0  0  0
 20 21  1  0  0  0  0
 20 26  1  0  0  0  0
 21 22  2  0  0  0  0
 21 24  1  0  0  0  0
 22 23  1  0  0  0  0
 24 25  2  0  0  0  0
 25 26  1  0  0  0  0
M  END
>  <CHROM.1>
141.78295970,-132.03478394,-73.49636617,54.97301521,59.63047285,70.06562057
-120.41848582,-11.47812667,11.63818856,-19.64054300,-0.14367632,0.98409283
1.19654551

>  <Name>
ligand

>  <RI>
0

>  <Rbt.Current_Directory>
/home/itssahil/PROJECTS/Mol_Feturizer/New_Systems/rnas/3E5E

>  <Rbt.Executable>
rbdock ($Id: //depot/dev/client3/rdock/2013.1/src/exe/rbdock.cxx#4 $)

>  <Rbt.Library>
libRbt.so (2013.1, Build901 2013/11/27)

>  <Rbt.Parameter_File>
/export/apps/rDock/src/rDock_2013.1_src/data/scripts/dock_solv.prm

>  <Rbt.Receptor>
prm/pocket_docking_3.prm

>  <SCORE>
-23.5988

>  <SCORE.INTER>
-21.0958

>  <SCORE.INTER.CONST>
1

>  <SCORE.INTER.POLAR>
0

>  <SCORE.INTER.ROT>
7

>  <SCORE.INTER.SOLV>
10.9167

>  <SCORE.INTER.VDW>
-25.9694

>  <SCORE.INTER.norm>
-0.811377

>  <SCORE.INTRA>
-2.52148

>  <SCORE.INTRA.DIHEDRAL>
-1.03242

>  <SCORE.INTRA.DIHEDRAL.0>
10.1225

>  <SCORE.INTRA.POLAR>
0

>  <SCORE.INTRA.POLAR.0>
0

>  <SCORE.INTRA.REPUL>
0

>  <SCORE.INTRA.REPUL.0>
0

>  <SCORE.INTRA.SOLV>
-0.272904

>  <SCORE.INTRA.SOLV.lig_0>
-49.9393

>  <SCORE.INTRA.VDW>
-1.86882

>  <SCORE.INTRA.VDW.0>
-1.75437

>  <SCORE.INTRA.norm>
-0.0969801

>  <SCORE.RESTR>
0.0185018

>  <SCORE.RESTR.CAVITY>
0.0185018

>  <SCORE.RESTR.norm>
0.00071161

>  <SCORE.SYSTEM>
0

>  <SCORE.SYSTEM.CONST>
0

>  <SCORE.SYSTEM.DIHEDRAL>
0

>  <SCORE.SYSTEM.SOLV>
0

>  <SCORE.SYSTEM.norm>
0

>  <SCORE.heavy>
26

>  <SCORE.norm>
-0.907645

>  <RMSD>
8.199

$$$$
ligand
 OpenBabel11021811473D
libRbt.so/2013.1/901 2013/11/27
 26 28  0  0  0  0  0  0  0  0999 V2000
   -9.5688   14.9782  -23.8776 N   0  0  0  0  0  0  0  0  0  0  0  0
   -9.8037   13.5296  -23.8324 C   0  0  2  0  0  0  0  0  0  0  0  0
  -11.2639   13.2669  -23.5735 C   0  0  0  0  0  0  0  0  0  0  0  0
  -11.9393   14.1003  -23.0165 O   0  0  0  0  0  0  0  0  0  0  0  0
   -8.9667   12.9131  -22.7103 C   0  0  0  0  0  0  0  0  0  0  0  0
   -9.2802   13.6195  -21.3927 C   0  0  0  0  0  0  0  0  0  0  0  0
  -10.6380   13.1737  -20.4753 S   0  0  0  0  0  0  0  0  0  0  0  0
  -11.1945   11.7508  -19.5022 C   0  0  0  0  0  0  0  0  0  0  0  0
  -12.7113   11.6719  -19.2906 C   0  0  1  0  0  0  0  0  0  0  0  0
  -13.4143   11.4424  -20.4981 O   0  0  0  0  0  0  0  0  0  0  0  0
  -13.1050   10.4899  -18.4366 C   0  0  1  0  0  0  0  0  0  0  0  0
  -14.3575   10.8388  -17.8887 O   0  0  0  0  0  0  0  0  0  0  0  0
  -13.3169    9.3525  -19.4084 C   0  0  1  0  0  0  0  0  0  0  0  0
  -14.4480    8.6023  -19.0228 O   0  0  0  0  0  0  0  0  0  0  0  0
  -13.6009   10.0568  -20.7175 C   0  0  2  0  0  0  0  0  0  0  0  0
  -11.8167   12.1051  -23.9590 O   0  0  0  0  0  0  0  0  0  0  0  0
  -13.3176    7.7790  -25.4021 N   0  0  0  0  0  0  0  0  0  0  0  0
  -14.4188    7.9147  -24.5904 C   0  0  0  0  0  0  0  0  0  0  0  0
  -14.2905    8.5407  -23.3739 N   0  0  0  0  0  0  0  0  0  0  0  0
  -13.0990    9.0233  -22.9708 C   0  0  0  0  0  0  0  0  0  0  0  0
  -11.9794    8.8984  -23.7716 C   0  0  0  0  0  0  0  0  0  0  0  0
  -12.0977    8.2638  -25.0026 C   0  0  0  0  0  0  0  0  0  0  0  0
  -11.0476    8.1187  -25.8013 N   0  0  0  0  0  0  0  0  0  0  0  0
  -10.9334    9.4632  -23.1281 N   0  0  0  0  0  0  0  0  0  0  0  0
  -11.3744    9.9426  -21.9487 C   0  0  0  0  0  0  0  0  0  0  0  0
  -12.7129    9.6689  -21.8289 N   0  0  0  0  0  0  0  0  0  0  0  0
  2  1  1  1  0  0  0
  2  3  1  0  0  0  0
  2  5  1  0  0  0  0
  3  4  1  0  0  0  0
  3 16  1  0  0  0  0
  5  6  1  0  0  0  0
  6  7  1  0  0  0  0
  7  8  1  0  0  0  0
  9  8  1  6  0  0  0
  9 10  1  0  0  0  0
  9 11  1  0  0  0  0
 10 15  1  0  0  0  0
 11 12  1  6  0  0  0
 11 13  1  0  0  0  0
 13 14  1  1  0  0  0
 13 15  1  0  0  0  0
 15 26  1  6  0  0  0
 17 18  2  0  0  0  0
 17 22  1  0  0  0  0
 18 19  1  0  0  0  0
 19 20  2  0  0  0  0
 20 21  1  0  0  0  0
 20 26  1  0  0  0  0
 21 22  2  0  0  0  0
 21 24  1  0  0  0  0
 22 23  1  0  0  0  0
 24 25  2  0  0  0  0
 25 26  1  0  0  0  0
M  END
>  <CHROM.1>
-24.44576225,55.13894612,82.54473297,68.20755439,-158.99582094,66.25807243
-126.06644837,-12.04795996,10.91949290,-21.99384049,-0.54387588,-0.92324302
-2.06945138

>  <Name>
ligand

>  <RI>
0

>  <Rbt.Current_Directory>
/home/itssahil/PROJECTS/Mol_Feturizer/New_Systems/rnas/3E5E

>  <Rbt.Executable>
rbdock ($Id: //depot/dev/client3/rdock/2013.1/src/exe/rbdock.cxx#4 $)

>  <Rbt.Library>
libRbt.so (2013.1, Build901 2013/11/27)

>  <Rbt.Parameter_File>
/export/apps/rDock/src/rDock_2013.1_src/data/scripts/dock_solv.prm

>  <Rbt.Receptor>
prm/blind_docking_40.prm

>  <SCORE>
-16.3941

>  <SCORE.INTER>
-12.6193

>  <SCORE.INTER.CONST>
1

>  <SCORE.INTER.POLAR>
0

>  <SCORE.INTER.ROT>
7

>  <SCORE.INTER.SOLV>
9.9588

>  <SCORE.INTER.VDW>
-19.9991

>  <SCORE.INTER.norm>
-0.485358

>  <SCORE.INTRA>
-3.77478

>  <SCORE.INTRA.DIHEDRAL>
-4.67731

>  <SCORE.INTRA.DIHEDRAL.0>
10.1225

>  <SCORE.INTRA.POLAR>
0

>  <SCORE.INTRA.POLAR.0>
0

>  <SCORE.INTRA.REPUL>
0

>  <SCORE.INTRA.REPUL.0>
0

>  <SCORE.INTRA.SOLV>
0.7481

>  <SCORE.INTRA.SOLV.lig_0>
-49.9393

>  <SCORE.INTRA.VDW>
-1.81018

>  <SCORE.INTRA.VDW.0>
-1.75437

>  <SCORE.INTRA.norm>
-0.145184

>  <SCORE.RESTR>
0

>  <SCORE.RESTR.CAVITY>
0

>  <SCORE.RESTR.norm>
0

>  <SCORE.SYSTEM>
0

>  <SCORE.SYSTEM.CONST>
0

>  <SCORE.SYSTEM.DIHEDRAL>
0

>  <SCORE.SYSTEM.SOLV>
0

>  <SCORE.SYSTEM.norm>
0

>  <SCORE.heavy>
26

>  <SCORE.norm>
-0.630542

>  <RMSD>
8.207

$$$$
ligand
 OpenBabel11021811473D
libRbt.so/2013.1/901 2013/11/27
 26 28  0  0  0  0  0  0  0  0999 V2000
   -6.7319   15.4742  -21.3490 N   0  0  0  0  0  0  0  0  0  0  0  0
   -8.0897   15.0740  -20.9592 C   0  0  2  0  0  0  0  0  0  0  0  0
   -9.0861   15.7047  -21.8961 C   0  0  0  0  0  0  0  0  0  0  0  0
   -9.0069   16.8813  -22.1612 O   0  0  0  0  0  0  0  0  0  0  0  0
   -8.3669   15.5404  -19.5291 C   0  0  0  0  0  0  0  0  0  0  0  0
   -8.9391   14.3806  -18.7160 C   0  0  0  0  0  0  0  0  0  0  0  0
  -10.5459   13.8784  -18.9404 S   0  0  0  0  0  0  0  0  0  0  0  0
  -11.6497   13.4814  -20.3206 C   0  0  0  0  0  0  0  0  0  0  0  0
  -11.0874   12.4624  -21.3192 C   0  0  1  0  0  0  0  0  0  0  0  0
  -11.1176   11.1392  -20.8161 O   0  0  0  0  0  0  0  0  0  0  0  0
  -11.9275   12.3707  -22.5711 C   0  0  1  0  0  0  0  0  0  0  0  0
  -11.0537   11.8701  -23.5592 O   0  0  0  0  0  0  0  0  0  0  0  0
  -12.9621   11.3096  -22.2767 C   0  0  1  0  0  0  0  0  0  0  0  0
  -13.1517   10.5010  -23.4173 O   0  0  0  0  0  0  0  0  0  0  0  0
  -12.3218   10.4895  -21.1776 C   0  0  2  0  0  0  0  0  0  0  0  0
  -10.0655   14.9609  -22.4361 O   0  0  0  0  0  0  0  0  0  0  0  0
  -16.9126    9.0063  -19.1929 N   0  0  0  0  0  0  0  0  0  0  0  0
  -16.5212    9.0141  -20.5108 C   0  0  0  0  0  0  0  0  0  0  0  0
  -15.2631    9.4568  -20.8411 N   0  0  0  0  0  0  0  0  0  0  0  0
  -14.4106    9.8808  -19.8878 C   0  0  0  0  0  0  0  0  0  0  0  0
  -14.7834    9.8805  -18.5568 C   0  0  0  0  0  0  0  0  0  0  0  0
  -16.0551    9.4377  -18.2123 C   0  0  0  0  0  0  0  0  0  0  0  0
  -16.4555    9.4244  -16.9470 N   0  0  0  0  0  0  0  0  0  0  0  0
  -13.7474   10.3511  -17.8269 N   0  0  0  0  0  0  0  0  0  0  0  0
  -12.7360   10.6389  -18.6691 C   0  0  0  0  0  0  0  0  0  0  0  0
  -13.1331   10.3641  -19.9528 N   0  0  0  0  0  0  0  0  0  0  0  0
  2  1  1  6  0  0  0
  2  3  1  0  0  0  0
  2  5  1  0  0  0  0
  3  4  1  0  0  0  0
  3 16  1  0  0  0  0
  5  6  1  0  0  0  0
  6  7  1  0  0  0  0
  7  8  1  0  0  0  0
  9  8  1  1  0  0  0
  9 10  1  0  0  0  0
  9 11  1  0  0  0  0
 10 15  1  0  0  0  0
 11 12  1  6  0  0  0
 11 13  1  0  0  0  0
 13 14  1  6  0  0  0
 13 15  1  0  0  0  0
 15 26  1  1  0  0  0
 17 18  2  0  0  0  0
 17 22  1  0  0  0  0
 18 19  1  0  0  0  0
 19 20  2  0  0  0  0
 20 21  1  0  0  0  0
 20 26  1  0  0  0  0
 21 22  2  0  0  0  0
 21 24  1  0  0  0  0
 22 23  1  0  0  0  0
 24 25  2  0  0  0  0
 25 26  1  0  0  0  0
M  END
>  <CHROM.1>
-47.58536364,-131.03041295,-74.84498073,47.72677943,52.00335430,75.32762982
174.93753731,-12.00158992,12.19057117,-20.45434051,-0.12376005,0.72729662
1.44953875

>  <Name>
ligand

>  <RI>
0

>  <Rbt.Current_Directory>
/home/itssahil/PROJECTS/Mol_Feturizer/New_Systems/rnas/3E5E

>  <Rbt.Executable>
rbdock ($Id: //depot/dev/client3/rdock/2013.1/src/exe/rbdock.cxx#4 $)

>  <Rbt.Library>
libRbt.so (2013.1, Build901 2013/11/27)

>  <Rbt.Parameter_File>
/export/apps/rDock/src/rDock_2013.1_src/data/scripts/dock_solv.prm

>  <Rbt.Receptor>
prm/pocket_docking_4.prm

>  <SCORE>
-18.4868

>  <SCORE.INTER>
-16.2867

>  <SCORE.INTER.CONST>
1

>  <SCORE.INTER.POLAR>
0

>  <SCORE.INTER.ROT>
7

>  <SCORE.INTER.SOLV>
11.3341

>  <SCORE.INTER.VDW>
-22.9025

>  <SCORE.INTER.norm>
-0.62641

>  <SCORE.INTRA>
-2.20013

>  <SCORE.INTRA.DIHEDRAL>
-0.12769

>  <SCORE.INTRA.DIHEDRAL.0>
10.1225

>  <SCORE.INTRA.POLAR>
0

>  <SCORE.INTRA.POLAR.0>
0

>  <SCORE.INTRA.REPUL>
0

>  <SCORE.INTRA.REPUL.0>
0

>  <SCORE.INTRA.SOLV>
-0.183216

>  <SCORE.INTRA.SOLV.lig_0>
-49.9393

>  <SCORE.INTRA.VDW>
-2.04468

>  <SCORE.INTRA.VDW.0>
-1.75437

>  <SCORE.INTRA.norm>
-0.0846204

>  <SCORE.RESTR>
0

>  <SCORE.RESTR.CAVITY>
0

>  <SCORE.RESTR.norm>
0

>  <SCORE.SYSTEM>
0

>  <SCORE.SYSTEM.CONST>
0

>  <SCORE.SYSTEM.DIHEDRAL>
0

>  <SCORE.SYSTEM.SOLV>
0

>  <SCORE.SYSTEM.norm>
0

>  <SCORE.heavy>
26

>  <SCORE.norm>
-0.711031

>  <RMSD>
8.220

$$$$
ligand
 OpenBabel11021811473D
libRbt.so/2013.1/901 2013/11/27
 26 28  0  0  0  0  0  0  0  0999 V2000
   -7.7469   16.3003  -18.3985 N   0  0  0  0  0  0  0  0  0  0  0  0
   -7.4747   15.4665  -19.5759 C   0  0  2  0  0  0  0  0  0  0  0  0
   -6.4893   16.1705  -20.4711 C   0  0  0  0  0  0  0  0  0  0  0  0
   -6.7294   17.2829  -20.8787 O   0  0  0  0  0  0  0  0  0  0  0  0
   -8.7773   15.2245  -20.3403 C   0  0  0  0  0  0  0  0  0  0  0  0
   -9.7016   14.3394  -19.5062 C   0  0  0  0  0  0  0  0  0  0  0  0
  -11.1329   13.7146  -20.1735 S   0  0  0  0  0  0  0  0  0  0  0  0
  -11.7366   13.1741  -21.7935 C   0  0  0  0  0  0  0  0  0  0  0  0
  -10.7381   12.3391  -22.6044 C   0  0  1  0  0  0  0  0  0  0  0  0
  -10.2897   11.1967  -21.8982 O   0  0  0  0  0  0  0  0  0  0  0  0
  -11.3665   11.7487  -23.8446 C   0  0  1  0  0  0  0  0  0  0  0  0
  -10.2866   11.5096  -24.7203 O   0  0  0  0  0  0  0  0  0  0  0  0
  -11.9234   10.4134  -23.4088 C   0  0  1  0  0  0  0  0  0  0  0  0
  -11.6843    9.4489  -24.4104 O   0  0  0  0  0  0  0  0  0  0  0  0
  -11.1080   10.0768  -22.1790 C   0  0  2  0  0  0  0  0  0  0  0  0
   -5.3438   15.5622  -20.8199 O   0  0  0  0  0  0  0  0  0  0  0  0
  -15.8985    9.2807  -20.2735 N   0  0  0  0  0  0  0  0  0  0  0  0
  -15.5387    9.5758  -21.5671 C   0  0  0  0  0  0  0  0  0  0  0  0
  -14.2130    9.7648  -21.8750 N   0  0  0  0  0  0  0  0  0  0  0  0
  -13.2643    9.6621  -20.9238 C   0  0  0  0  0  0  0  0  0  0  0  0
  -13.6040    9.3654  -19.6173 C   0  0  0  0  0  0  0  0  0  0  0  0
  -14.9426    9.1756  -19.2946 C   0  0  0  0  0  0  0  0  0  0  0  0
  -15.3134    8.8931  -18.0519 N   0  0  0  0  0  0  0  0  0  0  0  0
  -12.4694    9.3252  -18.8836 N   0  0  0  0  0  0  0  0  0  0  0  0
  -11.4303    9.5833  -19.7014 C   0  0  0  0  0  0  0  0  0  0  0  0
  -11.9052    9.8059  -20.9687 N   0  0  0  0  0  0  0  0  0  0  0  0
  2  1  1  1  0  0  0
  2  3  1  0  0  0  0
  2  5  1  0  0  0  0
  3  4  1  0  0  0  0
  3 16  1  0  0  0  0
  5  6  1  0  0  0  0
  6  7  1  0  0  0  0
  7  8  1  0  0  0  0
  9  8  1  1  0  0  0
  9 10  1  0  0  0  0
  9 11  1  0  0  0  0
 10 15  1  0  0  0  0
 11 12  1  6  0  0  0
 11 13  1  0  0  0  0
 13 14  1  6  0  0  0
 13 15  1  0  0  0  0
 15 26  1  1  0  0  0
 17 18  2  0  0  0  0
 17 22  1  0  0  0  0
 18 19  1  0  0  0  0
 19 20  2  0  0  0  0
 20 21  1  0  0  0  0
 20 26  1  0  0  0  0
 21 22  2  0  0  0  0
 21 24  1  0  0  0  0
 22 23  1  0  0  0  0
 24 25  2  0  0  0  0
 25 26  1  0  0  0  0
M  END
>  <CHROM.1>
-56.08310076,-68.05672116,-171.37613328,31.68255481,42.18311076,55.90229682
128.14411721,-11.09724979,12.01994814,-21.01405238,0.30148364,0.72010205
1.20020011

>  <Name>
ligand

>  <RI>
0

>  <Rbt.Current_Directory>
/home/itssahil/PROJECTS/Mol_Feturizer/New_Systems/rnas/3E5E

>  <Rbt.Executable>
rbdock ($Id: //depot/dev/client3/rdock/2013.1/src/exe/rbdock.cxx#4 $)

>  <Rbt.Library>
libRbt.so (2013.1, Build901 2013/11/27)

>  <Rbt.Parameter_File>
/export/apps/rDock/src/rDock_2013.1_src/data/scripts/dock_solv.prm

>  <Rbt.Receptor>
prm/pocket_docking_3.prm

>  <SCORE>
-16.6449

>  <SCORE.INTER>
-13.3456

>  <SCORE.INTER.CONST>
1

>  <SCORE.INTER.POLAR>
0

>  <SCORE.INTER.ROT>
7

>  <SCORE.INTER.SOLV>
14.4497

>  <SCORE.INTER.VDW>
-21.9803

>  <SCORE.INTER.norm>
-0.513293

>  <SCORE.INTRA>
-3.34485

>  <SCORE.INTRA.DIHEDRAL>
-5.30469

>  <SCORE.INTRA.DIHEDRAL.0>
10.1225

>  <SCORE.INTRA.POLAR>
0

>  <SCORE.INTRA.POLAR.0>
0

>  <SCORE.INTRA.REPUL>
0

>  <SCORE.INTRA.REPUL.0>
0

>  <SCORE.INTRA.SOLV>
0.149961

>  <SCORE.INTRA.SOLV.lig_0>
-49.9393

>  <SCORE.INTRA.VDW>
-0.767486

>  <SCORE.INTRA.VDW.0>
-1.75437

>  <SCORE.INTRA.norm>
-0.128648

>  <SCORE.RESTR>
0.045607

>  <SCORE.RESTR.CAVITY>
0.045607

>  <SCORE.RESTR.norm>
0.00175412

>  <SCORE.SYSTEM>
0

>  <SCORE.SYSTEM.CONST>
0

>  <SCORE.SYSTEM.DIHEDRAL>
0

>  <SCORE.SYSTEM.SOLV>
0

>  <SCORE.SYSTEM.norm>
0

>  <SCORE.heavy>
26

>  <SCORE.norm>
-0.640187

>  <RMSD>
8.236

$$$$
ligand
 OpenBabel11021811473D
libRbt.so/2013.1/901 2013/11/27
 26 28  0  0  0  0  0  0  0  0999 V2000
  -10.1305   14.0487  -23.5224 N   0  0  0  0  0  0  0  0  0  0  0  0
  -11.0331   12.8911  -23.5512 C   0  0  2  0  0  0  0  0  0  0  0  0
  -10.7368   12.0552  -24.7685 C   0  0  0  0  0  0  0  0  0  0  0  0
  -10.6616   10.8526  -24.6731 O   0  0  0  0  0  0  0  0  0  0  0  0
  -12.4825   13.3769  -23.6053 C   0  0  0  0  0  0  0  0  0  0  0  0
  -12.7788   14.2363  -22.3776 C   0  0  0  0  0  0  0  0  0  0  0  0
  -12.9503   13.5238  -20.8455 S   0  0  0  0  0  0  0  0  0  0  0  0
  -12.1011   12.2802  -19.8389 C   0  0  0  0  0  0  0  0  0  0  0  0
  -11.6882   11.0132  -20.5978 C   0  0  1  0  0  0  0  0  0  0  0  0
  -11.5513    9.8921  -19.7439 O   0  0  0  0  0  0  0  0  0  0  0  0
  -12.7471   10.5679  -21.5786 C   0  0  1  0  0  0  0  0  0  0  0  0
  -12.0542    9.7987  -22.5370 O   0  0  0  0  0  0  0  0  0  0  0  0
  -13.6484    9.6425  -20.7948 C   0  0  1  0  0  0  0  0  0  0  0  0
  -14.0106    8.5397  -21.5970 O   0  0  0  0  0  0  0  0  0  0  0  0
  -12.7665    9.1718  -19.6585 C   0  0  2  0  0  0  0  0  0  0  0  0
  -10.5533   12.6453  -25.9610 O   0  0  0  0  0  0  0  0  0  0  0  0
  -14.7977    6.9633  -15.3911 N   0  0  0  0  0  0  0  0  0  0  0  0
  -14.4156    6.3525  -16.5620 C   0  0  0  0  0  0  0  0  0  0  0  0
  -13.9086    7.1126  -17.5883 N   0  0  0  0  0  0  0  0  0  0  0  0
  -13.7809    8.4474  -17.4577 C   0  0  0  0  0  0  0  0  0  0  0  0
  -14.1580    9.0816  -16.2889 C   0  0  0  0  0  0  0  0  0  0  0  0
  -14.6752    8.3222  -15.2459 C   0  0  0  0  0  0  0  0  0  0  0  0
  -15.0535    8.8908  -14.1078 N   0  0  0  0  0  0  0  0  0  0  0  0
  -13.9246   10.4054  -16.4312 N   0  0  0  0  0  0  0  0  0  0  0  0
  -13.4056   10.6116  -17.6573 C   0  0  0  0  0  0  0  0  0  0  0  0
  -13.3196    9.4098  -18.3126 N   0  0  0  0  0  0  0  0  0  0  0  0
  2  1  1  6  0  0  0
  2  3  1  0  0  0  0
  2  5  1  0  0  0  0
  3  4  1  0  0  0  0
  3 16  1  0  0  0  0
  5  6  1  0  0  0  0
  6  7  1  0  0  0  0
  7  8  1  0  0  0  0
  9  8  1  1  0  0  0
  9 10  1  0  0  0  0
  9 11  1  0  0  0  0
 10 15  1  0  0  0  0
 11 12  1  6  0  0  0
 11 13  1  0  0  0  0
 13 14  1  6  0  0  0
 13 15  1  0  0  0  0
 15 26  1  1  0  0  0
 17 18  2  0  0  0  0
 17 22  1  0  0  0  0
 18 19  1  0  0  0  0
 19 20  2  0  0  0  0
 20 21  1  0  0  0  0
 20 26  1  0  0  0  0
 21 22  2  0  0  0  0
 21 24  1  0  0  0  0
 22 23  1  0  0  0  0
 24 25  2  0  0  0  0
 25 26  1  0  0  0  0
M  END
>  <CHROM.1>
135.08999940,-59.49042955,-72.84539302,45.02900280,-44.05909304,-155.58224572
-131.42864775,-12.78195126,10.57596639,-20.19156450,0.32056905,1.22422289
0.19159168

>  <Name>
ligand

>  <RI>
0

>  <Rbt.Current_Directory>
/home/itssahil/PROJECTS/Mol_Feturizer/New_Systems/rnas/3E5E

>  <Rbt.Executable>
rbdock ($Id: //depot/dev/client3/rdock/2013.1/src/exe/rbdock.cxx#4 $)

>  <Rbt.Library>
libRbt.so (2013.1, Build901 2013/11/27)

>  <Rbt.Parameter_File>
/export/apps/rDock/src/rDock_2013.1_src/data/scripts/dock_solv.prm

>  <Rbt.Receptor>
prm/pocket_docking_3.prm

>  <SCORE>
-21.9758

>  <SCORE.INTER>
-19.5957

>  <SCORE.INTER.CONST>
1

>  <SCORE.INTER.POLAR>
0

>  <SCORE.INTER.ROT>
7

>  <SCORE.INTER.SOLV>
12.7181

>  <SCORE.INTER.VDW>
-25.5698

>  <SCORE.INTER.norm>
-0.75368

>  <SCORE.INTRA>
-2.69493

>  <SCORE.INTRA.DIHEDRAL>
-4.13953

>  <SCORE.INTRA.DIHEDRAL.0>
10.1225

>  <SCORE.INTRA.POLAR>
0

>  <SCORE.INTRA.POLAR.0>
0

>  <SCORE.INTRA.REPUL>
0

>  <SCORE.INTRA.REPUL.0>
0

>  <SCORE.INTRA.SOLV>
1.56606

>  <SCORE.INTRA.SOLV.lig_0>
-49.9393

>  <SCORE.INTRA.VDW>
-1.40819

>  <SCORE.INTRA.VDW.0>
-1.75437

>  <SCORE.INTRA.norm>
-0.103651

>  <SCORE.RESTR>
0.31483

>  <SCORE.RESTR.CAVITY>
0.31483

>  <SCORE.RESTR.norm>
0.0121088

>  <SCORE.SYSTEM>
0

>  <SCORE.SYSTEM.CONST>
0

>  <SCORE.SYSTEM.DIHEDRAL>
0

>  <SCORE.SYSTEM.SOLV>
0

>  <SCORE.SYSTEM.norm>
0

>  <SCORE.heavy>
26

>  <SCORE.norm>
-0.845222

>  <RMSD>
8.239

$$$$
ligand
 OpenBabel11021811473D
libRbt.so/2013.1/901 2013/11/27
 26 28  0  0  0  0  0  0  0  0999 V2000
   -5.6555   16.7233  -20.8340 N   0  0  0  0  0  0  0  0  0  0  0  0
   -6.7057   15.7721  -20.4495 C   0  0  2  0  0  0  0  0  0  0  0  0
   -7.4888   15.3697  -21.6714 C   0  0  0  0  0  0  0  0  0  0  0  0
   -7.3114   14.2847  -22.1737 O   0  0  0  0  0  0  0  0  0  0  0  0
   -7.6430   16.4310  -19.4359 C   0  0  0  0  0  0  0  0  0  0  0  0
   -8.3942   15.3516  -18.6587 C   0  0  0  0  0  0  0  0  0  0  0  0
   -9.2098   14.1072  -19.4775 S   0  0  0  0  0  0  0  0  0  0  0  0
  -10.0905   13.8810  -21.0441 C   0  0  0  0  0  0  0  0  0  0  0  0
  -11.6195   13.9159  -20.9315 C   0  0  1  0  0  0  0  0  0  0  0  0
  -12.2558   13.8672  -22.1955 O   0  0  0  0  0  0  0  0  0  0  0  0
  -12.1653   12.6962  -20.2274 C   0  0  1  0  0  0  0  0  0  0  0  0
  -13.4192   13.0994  -19.7217 O   0  0  0  0  0  0  0  0  0  0  0  0
  -12.4035   11.6813  -21.3212 C   0  0  1  0  0  0  0  0  0  0  0  0
  -13.6156   10.9999  -21.0817 O   0  0  0  0  0  0  0  0  0  0  0  0
  -12.5399   12.5312  -22.5660 C   0  0  2  0  0  0  0  0  0  0  0  0
   -8.3834   16.2171  -22.2059 O   0  0  0  0  0  0  0  0  0  0  0  0
  -10.1683    8.6341  -25.0962 N   0  0  0  0  0  0  0  0  0  0  0  0
  -10.9944    8.5549  -24.0001 C   0  0  0  0  0  0  0  0  0  0  0  0
  -11.5184    9.7057  -23.4624 N   0  0  0  0  0  0  0  0  0  0  0  0
  -11.2325   10.9080  -23.9989 C   0  0  0  0  0  0  0  0  0  0  0  0
  -10.4050   11.0103  -25.1013 C   0  0  0  0  0  0  0  0  0  0  0  0
   -9.8671    9.8525  -25.6509 C   0  0  0  0  0  0  0  0  0  0  0  0
   -9.0647    9.9052  -26.7069 N   0  0  0  0  0  0  0  0  0  0  0  0
  -10.2906   12.3178  -25.4250 N   0  0  0  0  0  0  0  0  0  0  0  0
  -11.0311   13.0326  -24.5555 C   0  0  0  0  0  0  0  0  0  0  0  0
  -11.6137   12.1759  -23.6568 N   0  0  0  0  0  0  0  0  0  0  0  0
  2  1  1  6  0  0  0
  2  3  1  0  0  0  0
  2  5  1  0  0  0  0
  3  4  1  0  0  0  0
  3 16  1  0  0  0  0
  5  6  1  0  0  0  0
  6  7  1  0  0  0  0
  7  8  1  0  0  0  0
  9  8  1  6  0  0  0
  9 10  1  0  0  0  0
  9 11  1  0  0  0  0
 10 15  1  0  0  0  0
 11 12  1  6  0  0  0
 11 13  1  0  0  0  0
 13 14  1  1  0  0  0
 13 15  1  0  0  0  0
 15 26  1  6  0  0  0
 17 18  2  0  0  0  0
 17 22  1  0  0  0  0
 18 19  1  0  0  0  0
 19 20  2  0  0  0  0
 20 21  1  0  0  0  0
 20 26  1  0  0  0  0
 21 22  2  0  0  0  0
 21 24  1  0  0  0  0
 22 23  1  0  0  0  0
 24 25  2  0  0  0  0
 25 26  1  0  0  0  0
M  END
>  <CHROM.1>
104.27113834,-159.33323288,-50.99994550,-31.88435784,-101.00990723,174.15951955
156.70785520,-10.15836438,12.93150078,-22.16733157,-1.07034139,-0.47352371
-2.23074154

>  <Name>
ligand

>  <RI>
0

>  <Rbt.Current_Directory>
/home/itssahil/PROJECTS/Mol_Feturizer/New_Systems/rnas/3E5E

>  <Rbt.Executable>
rbdock ($Id: //depot/dev/client3/rdock/2013.1/src/exe/rbdock.cxx#4 $)

>  <Rbt.Library>
libRbt.so (2013.1, Build901 2013/11/27)

>  <Rbt.Parameter_File>
/export/apps/rDock/src/rDock_2013.1_src/data/scripts/dock_solv.prm

>  <Rbt.Receptor>
prm/pocket_docking_6.prm

>  <SCORE>
-20.1968

>  <SCORE.INTER>
-18.1116

>  <SCORE.INTER.CONST>
1

>  <SCORE.INTER.POLAR>
0

>  <SCORE.INTER.ROT>
7

>  <SCORE.INTER.SOLV>
11.8106

>  <SCORE.INTER.VDW>
-24.2779

>  <SCORE.INTER.norm>
-0.696598

>  <SCORE.INTRA>
-2.08519

>  <SCORE.INTRA.DIHEDRAL>
-2.63934

>  <SCORE.INTRA.DIHEDRAL.0>
10.1225

>  <SCORE.INTRA.POLAR>
0

>  <SCORE.INTRA.POLAR.0>
0

>  <SCORE.INTRA.REPUL>
0

>  <SCORE.INTRA.REPUL.0>
0

>  <SCORE.INTRA.SOLV>
-0.336645

>  <SCORE.INTRA.SOLV.lig_0>
-49.9393

>  <SCORE.INTRA.VDW>
-0.597198

>  <SCORE.INTRA.VDW.0>
-1.75437

>  <SCORE.INTRA.norm>
-0.0801997

>  <SCORE.RESTR>
0

>  <SCORE.RESTR.CAVITY>
0

>  <SCORE.RESTR.norm>
0

>  <SCORE.SYSTEM>
0

>  <SCORE.SYSTEM.CONST>
0

>  <SCORE.SYSTEM.DIHEDRAL>
0

>  <SCORE.SYSTEM.SOLV>
0

>  <SCORE.SYSTEM.norm>
0

>  <SCORE.heavy>
26

>  <SCORE.norm>
-0.776798

>  <RMSD>
8.246

$$$$
ligand
 OpenBabel11021811473D
libRbt.so/2013.1/901 2013/11/27
 26 28  0  0  0  0  0  0  0  0999 V2000
   -9.8955   13.2877  -23.3642 N   0  0  0  0  0  0  0  0  0  0  0  0
  -11.1286   12.9528  -22.6412 C   0  0  2  0  0  0  0  0  0  0  0  0
  -12.2543   12.7758  -23.6259 C   0  0  0  0  0  0  0  0  0  0  0  0
  -12.3633   13.5318  -24.5627 O   0  0  0  0  0  0  0  0  0  0  0  0
  -11.4723   14.0835  -21.6700 C   0  0  0  0  0  0  0  0  0  0  0  0
  -12.5608   13.6151  -20.7060 C   0  0  0  0  0  0  0  0  0  0  0  0
  -12.2290   12.4248  -19.5411 S   0  0  0  0  0  0  0  0  0  0  0  0
  -13.0571   10.9865  -18.8154 C   0  0  0  0  0  0  0  0  0  0  0  0
  -13.1269    9.7573  -19.7297 C   0  0  1  0  0  0  0  0  0  0  0  0
  -13.6851    8.6305  -19.0788 O   0  0  0  0  0  0  0  0  0  0  0  0
  -14.0580    9.9715  -20.8995 C   0  0  1  0  0  0  0  0  0  0  0  0
  -13.6191    9.0618  -21.8845 O   0  0  0  0  0  0  0  0  0  0  0  0
  -15.4153    9.5196  -20.4131 C   0  0  1  0  0  0  0  0  0  0  0  0
  -16.0753    8.8093  -21.4380 O   0  0  0  0  0  0  0  0  0  0  0  0
  -15.0853    8.5760  -19.2768 C   0  0  2  0  0  0  0  0  0  0  0  0
  -13.1399   11.7793  -23.4629 O   0  0  0  0  0  0  0  0  0  0  0  0
  -14.2767   10.0528  -14.3394 N   0  0  0  0  0  0  0  0  0  0  0  0
  -13.3391    9.7623  -15.3019 C   0  0  0  0  0  0  0  0  0  0  0  0
  -13.7516    9.3744  -16.5539 N   0  0  0  0  0  0  0  0  0  0  0  0
  -15.0631    9.2782  -16.8471 C   0  0  0  0  0  0  0  0  0  0  0  0
  -16.0223    9.5665  -15.8946 C   0  0  0  0  0  0  0  0  0  0  0  0
  -15.6156    9.9565  -14.6240 C   0  0  0  0  0  0  0  0  0  0  0  0
  -16.5029   10.2388  -13.6782 N   0  0  0  0  0  0  0  0  0  0  0  0
  -17.2404    9.3884  -16.4530 N   0  0  0  0  0  0  0  0  0  0  0  0
  -17.0645    9.0022  -17.7317 C   0  0  0  0  0  0  0  0  0  0  0  0
  -15.7203    8.9175  -17.9907 N   0  0  0  0  0  0  0  0  0  0  0  0
  2  1  1  6  0  0  0
  2  3  1  0  0  0  0
  2  5  1  0  0  0  0
  3  4  1  0  0  0  0
  3 16  1  0  0  0  0
  5  6  1  0  0  0  0
  6  7  1  0  0  0  0
  7  8  1  0  0  0  0
  9  8  1  1  0  0  0
  9 10  1  0  0  0  0
  9 11  1  0  0  0  0
 10 15  1  0  0  0  0
 11 12  1  6  0  0  0
 11 13  1  0  0  0  0
 13 14  1  6  0  0  0
 13 15  1  0  0  0  0
 15 26  1  1  0  0  0
 17 18  2  0  0  0  0
 17 22  1  0  0  0  0
 18 19  1  0  0  0  0
 19 20  2  0  0  0  0
 20 21  1  0  0  0  0
 20 26  1  0  0  0  0
 21 22  2  0  0  0  0
 21 24  1  0  0  0  0
 22 23  1  0  0  0  0
 24 25  2  0  0  0  0
 25 26  1  0  0  0  0
M  END
>  <CHROM.1>
-41.10658358,-167.58118552,68.57660627,-140.39179696,74.12653769,175.21498440
2.76276806,-13.87437311,10.69384596,-19.38372067,-0.89922262,0.81050118,1.49135495

>  <Name>
ligand

>  <RI>
0

>  <Rbt.Current_Directory>
/home/itssahil/PROJECTS/Mol_Feturizer/New_Systems/rnas/3E5E

>  <Rbt.Executable>
rbdock ($Id: //depot/dev/client3/rdock/2013.1/src/exe/rbdock.cxx#4 $)

>  <Rbt.Library>
libRbt.so (2013.1, Build901 2013/11/27)

>  <Rbt.Parameter_File>
/export/apps/rDock/src/rDock_2013.1_src/data/scripts/dock_solv.prm

>  <Rbt.Receptor>
prm/pocket_docking_6.prm

>  <SCORE>
-19.2186

>  <SCORE.INTER>
-15.7509

>  <SCORE.INTER.CONST>
1

>  <SCORE.INTER.POLAR>
0

>  <SCORE.INTER.ROT>
7

>  <SCORE.INTER.SOLV>
12.4287

>  <SCORE.INTER.VDW>
-22.9102

>  <SCORE.INTER.norm>
-0.605804

>  <SCORE.INTRA>
-3.46772

>  <SCORE.INTRA.DIHEDRAL>
-4.40378

>  <SCORE.INTRA.DIHEDRAL.0>
10.1225

>  <SCORE.INTRA.POLAR>
0

>  <SCORE.INTRA.POLAR.0>
0

>  <SCORE.INTRA.REPUL>
0

>  <SCORE.INTRA.REPUL.0>
0

>  <SCORE.INTRA.SOLV>
-0.342244

>  <SCORE.INTRA.SOLV.lig_0>
-49.9393

>  <SCORE.INTRA.VDW>
-1.09471

>  <SCORE.INTRA.VDW.0>
-1.75437

>  <SCORE.INTRA.norm>
-0.133374

>  <SCORE.RESTR>
0

>  <SCORE.RESTR.CAVITY>
0

>  <SCORE.RESTR.norm>
0

>  <SCORE.SYSTEM>
0

>  <SCORE.SYSTEM.CONST>
0

>  <SCORE.SYSTEM.DIHEDRAL>
0

>  <SCORE.SYSTEM.SOLV>
0

>  <SCORE.SYSTEM.norm>
0

>  <SCORE.heavy>
26

>  <SCORE.norm>
-0.739178

>  <RMSD>
8.250

$$$$
ligand
 OpenBabel11021811473D
libRbt.so/2013.1/901 2013/11/27
 26 28  0  0  0  0  0  0  0  0999 V2000
   -7.8347   10.7232  -26.0702 N   0  0  0  0  0  0  0  0  0  0  0  0
   -8.4596   11.8301  -25.3354 C   0  0  2  0  0  0  0  0  0  0  0  0
   -7.6558   12.1258  -24.0966 C   0  0  0  0  0  0  0  0  0  0  0  0
   -7.5830   13.2575  -23.6782 O   0  0  0  0  0  0  0  0  0  0  0  0
   -9.8839   11.4378  -24.9387 C   0  0  0  0  0  0  0  0  0  0  0  0
  -10.6711   12.6904  -24.5583 C   0  0  0  0  0  0  0  0  0  0  0  0
  -12.1718   12.5624  -23.7737 S   0  0  0  0  0  0  0  0  0  0  0  0
  -12.7978   12.1070  -22.1361 C   0  0  0  0  0  0  0  0  0  0  0  0
  -12.4875   13.1188  -21.0263 C   0  0  1  0  0  0  0  0  0  0  0  0
  -13.0412   12.7402  -19.7794 O   0  0  0  0  0  0  0  0  0  0  0  0
  -11.0085   13.2029  -20.7315 C   0  0  1  0  0  0  0  0  0  0  0  0
  -10.8254   14.4762  -20.1522 O   0  0  0  0  0  0  0  0  0  0  0  0
  -10.7573   12.1609  -19.6665 C   0  0  1  0  0  0  0  0  0  0  0  0
   -9.8537   12.6681  -18.7089 O   0  0  0  0  0  0  0  0  0  0  0  0
  -12.1171   11.9752  -19.0286 C   0  0  2  0  0  0  0  0  0  0  0  0
   -7.0166   11.1329  -23.4568 O   0  0  0  0  0  0  0  0  0  0  0  0
  -14.4055    8.2360  -16.2010 N   0  0  0  0  0  0  0  0  0  0  0  0
  -14.0386    9.4984  -15.7991 C   0  0  0  0  0  0  0  0  0  0  0  0
  -13.4297   10.3441  -16.6946 N   0  0  0  0  0  0  0  0  0  0  0  0
  -13.1910    9.9495  -17.9605 C   0  0  0  0  0  0  0  0  0  0  0  0
  -13.5525    8.6850  -18.3857 C   0  0  0  0  0  0  0  0  0  0  0  0
  -14.1661    7.8206  -17.4867 C   0  0  0  0  0  0  0  0  0  0  0  0
  -14.5259    6.5963  -17.8517 N   0  0  0  0  0  0  0  0  0  0  0  0
  -13.1986    8.5577  -19.6842 N   0  0  0  0  0  0  0  0  0  0  0  0
  -12.6311    9.7135  -20.0807 C   0  0  0  0  0  0  0  0  0  0  0  0
  -12.6075   10.5847  -19.0217 N   0  0  0  0  0  0  0  0  0  0  0  0
  2  1  1  1  0  0  0
  2  3  1  0  0  0  0
  2  5  1  0  0  0  0
  3  4  1  0  0  0  0
  3 16  1  0  0  0  0
  5  6  1  0  0  0  0
  6  7  1  0  0  0  0
  7  8  1  0  0  0  0
  9  8  1  6  0  0  0
  9 10  1  0  0  0  0
  9 11  1  0  0  0  0
 10 15  1  0  0  0  0
 11 12  1  1  0  0  0
 11 13  1  0  0  0  0
 13 14  1  1  0  0  0
 13 15  1  0  0  0  0
 15 26  1  6  0  0  0
 17 18  2  0  0  0  0
 17 22  1  0  0  0  0
 18 19  1  0  0  0  0
 19 20  2  0  0  0  0
 20 21  1  0  0  0  0
 20 26  1  0  0  0  0
 21 22  2  0  0  0  0
 21 24  1  0  0  0  0
 22 23  1  0  0  0  0
 24 25  2  0  0  0  0
 25 26  1  0  0  0  0
M  END
>  <CHROM.1>
147.29678502,-163.22675875,-167.41217367,71.79866960,70.35158425,177.77572004
-105.85051699,-11.49139725,11.23094539,-20.83887911,0.01487107,-1.00128621
-2.69391991

>  <Name>
ligand

>  <RI>
0

>  <Rbt.Current_Directory>
/home/itssahil/PROJECTS/Mol_Feturizer/New_Systems/rnas/3E5E

>  <Rbt.Executable>
rbdock ($Id: //depot/dev/client3/rdock/2013.1/src/exe/rbdock.cxx#4 $)

>  <Rbt.Library>
libRbt.so (2013.1, Build901 2013/11/27)

>  <Rbt.Parameter_File>
/export/apps/rDock/src/rDock_2013.1_src/data/scripts/dock_solv.prm

>  <Rbt.Receptor>
prm/pocket_docking_5.prm

>  <SCORE>
-20.7796

>  <SCORE.INTER>
-16.9147

>  <SCORE.INTER.CONST>
1

>  <SCORE.INTER.POLAR>
0

>  <SCORE.INTER.ROT>
7

>  <SCORE.INTER.SOLV>
8.96023

>  <SCORE.INTER.VDW>
-22.5299

>  <SCORE.INTER.norm>
-0.650567

>  <SCORE.INTRA>
-3.86482

>  <SCORE.INTRA.DIHEDRAL>
-5.44836

>  <SCORE.INTRA.DIHEDRAL.0>
10.1225

>  <SCORE.INTRA.POLAR>
0

>  <SCORE.INTRA.POLAR.0>
0

>  <SCORE.INTRA.REPUL>
0

>  <SCORE.INTRA.REPUL.0>
0

>  <SCORE.INTRA.SOLV>
-0.576111

>  <SCORE.INTRA.SOLV.lig_0>
-49.9393

>  <SCORE.INTRA.VDW>
-0.852586

>  <SCORE.INTRA.VDW.0>
-1.75437

>  <SCORE.INTRA.norm>
-0.148647

>  <SCORE.RESTR>
0

>  <SCORE.RESTR.CAVITY>
0

>  <SCORE.RESTR.norm>
0

>  <SCORE.SYSTEM>
0

>  <SCORE.SYSTEM.CONST>
0

>  <SCORE.SYSTEM.DIHEDRAL>
0

>  <SCORE.SYSTEM.SOLV>
0

>  <SCORE.SYSTEM.norm>
0

>  <SCORE.heavy>
26

>  <SCORE.norm>
-0.799213

>  <RMSD>
8.255

$$$$
ligand
 OpenBabel11021811473D
libRbt.so/2013.1/901 2013/11/27
 26 28  0  0  0  0  0  0  0  0999 V2000
   -9.1503   14.4627  -23.7407 N   0  0  0  0  0  0  0  0  0  0  0  0
  -10.2912   14.4766  -22.8167 C   0  0  2  0  0  0  0  0  0  0  0  0
   -9.8747   13.8809  -21.4977 C   0  0  0  0  0  0  0  0  0  0  0  0
   -9.9304   14.5450  -20.4892 O   0  0  0  0  0  0  0  0  0  0  0  0
  -11.4366   13.6545  -23.4098 C   0  0  0  0  0  0  0  0  0  0  0  0
  -12.7378   13.9956  -22.6859 C   0  0  0  0  0  0  0  0  0  0  0  0
  -12.9109   13.6808  -21.0261 S   0  0  0  0  0  0  0  0  0  0  0  0
  -12.5011   12.3574  -19.8591 C   0  0  0  0  0  0  0  0  0  0  0  0
  -11.9523   11.0794  -20.5051 C   0  0  1  0  0  0  0  0  0  0  0  0
  -11.7086   10.0563  -19.5571 O   0  0  0  0  0  0  0  0  0  0  0  0
  -12.9501   10.4439  -21.4442 C   0  0  1  0  0  0  0  0  0  0  0  0
  -12.1723    9.6710  -22.3319 O   0  0  0  0  0  0  0  0  0  0  0  0
  -13.7585    9.5010  -20.5838 C   0  0  1  0  0  0  0  0  0  0  0  0
  -13.9973    8.3017  -21.2876 O   0  0  0  0  0  0  0  0  0  0  0  0
  -12.8438    9.2240  -19.4103 C   0  0  2  0  0  0  0  0  0  0  0  0
   -9.4385   12.6119  -21.4408 O   0  0  0  0  0  0  0  0  0  0  0  0
  -14.9964    7.1977  -15.1121 N   0  0  0  0  0  0  0  0  0  0  0  0
  -14.5858    6.5384  -16.2465 C   0  0  0  0  0  0  0  0  0  0  0  0
  -14.0487    7.2544  -17.2891 N   0  0  0  0  0  0  0  0  0  0  0  0
  -13.9191    8.5931  -17.2097 C   0  0  0  0  0  0  0  0  0  0  0  0
  -14.3245    9.2756  -16.0782 C   0  0  0  0  0  0  0  0  0  0  0  0
  -14.8723    8.5611  -15.0192 C   0  0  0  0  0  0  0  0  0  0  0  0
  -15.2783    9.1769  -13.9158 N   0  0  0  0  0  0  0  0  0  0  0  0
  -14.0821   10.5919  -16.2681 N   0  0  0  0  0  0  0  0  0  0  0  0
  -13.5299   10.7462  -17.4873 C   0  0  0  0  0  0  0  0  0  0  0  0
  -13.4314    9.5184  -18.0905 N   0  0  0  0  0  0  0  0  0  0  0  0
  2  1  1  6  0  0  0
  2  3  1  0  0  0  0
  2  5  1  0  0  0  0
  3  4  1  0  0  0  0
  3 16  1  0  0  0  0
  5  6  1  0  0  0  0
  6  7  1  0  0  0  0
  7  8  1  0  0  0  0
  9  8  1  1  0  0  0
  9 10  1  0  0  0  0
  9 11  1  0  0  0  0
 10 15  1  0  0  0  0
 11 12  1  6  0  0  0
 11 13  1  0  0  0  0
 13 14  1  6  0  0  0
 13 15  1  0  0  0  0
 15 26  1  1  0  0  0
 17 18  2  0  0  0  0
 17 22  1  0  0  0  0
 18 19  1  0  0  0  0
 19 20  2  0  0  0  0
 20 21  1  0  0  0  0
 20 26  1  0  0  0  0
 21 22  2  0  0  0  0
 21 24  1  0  0  0  0
 22 23  1  0  0  0  0
 24 25  2  0  0  0  0
 25 26  1  0  0  0  0
M  END
>  <CHROM.1>
119.30379130,-163.24706291,-62.64005472,-42.15098512,-7.09416790,-177.18073654
-138.22322819,-12.67477294,10.92928672,-19.58465858,-0.22358415,1.13506216
0.96608253

>  <Name>
ligand

>  <RI>
0

>  <Rbt.Current_Directory>
/home/itssahil/PROJECTS/Mol_Feturizer/New_Systems/rnas/3E5E

>  <Rbt.Executable>
rbdock ($Id: //depot/dev/client3/rdock/2013.1/src/exe/rbdock.cxx#4 $)

>  <Rbt.Library>
libRbt.so (2013.1, Build901 2013/11/27)

>  <Rbt.Parameter_File>
/export/apps/rDock/src/rDock_2013.1_src/data/scripts/dock_solv.prm

>  <Rbt.Receptor>
prm/pocket_docking_8.prm

>  <SCORE>
-22.4223

>  <SCORE.INTER>
-18.803

>  <SCORE.INTER.CONST>
1

>  <SCORE.INTER.POLAR>
0

>  <SCORE.INTER.ROT>
7

>  <SCORE.INTER.SOLV>
11.8237

>  <SCORE.INTER.VDW>
-24.7433

>  <SCORE.INTER.norm>
-0.723194

>  <SCORE.INTRA>
-3.61925

>  <SCORE.INTRA.DIHEDRAL>
-3.41068

>  <SCORE.INTRA.DIHEDRAL.0>
10.1225

>  <SCORE.INTRA.POLAR>
0

>  <SCORE.INTRA.POLAR.0>
0

>  <SCORE.INTRA.REPUL>
0

>  <SCORE.INTRA.REPUL.0>
0

>  <SCORE.INTRA.SOLV>
-0.230235

>  <SCORE.INTRA.SOLV.lig_0>
-49.9393

>  <SCORE.INTRA.VDW>
-1.79879

>  <SCORE.INTRA.VDW.0>
-1.75437

>  <SCORE.INTRA.norm>
-0.139202

>  <SCORE.RESTR>
0

>  <SCORE.RESTR.CAVITY>
0

>  <SCORE.RESTR.norm>
0

>  <SCORE.SYSTEM>
0

>  <SCORE.SYSTEM.CONST>
0

>  <SCORE.SYSTEM.DIHEDRAL>
0

>  <SCORE.SYSTEM.SOLV>
0

>  <SCORE.SYSTEM.norm>
0

>  <SCORE.heavy>
26

>  <SCORE.norm>
-0.862396

>  <RMSD>
8.256

$$$$
ligand
 OpenBabel11021811473D
libRbt.so/2013.1/901 2013/11/27
 26 28  0  0  0  0  0  0  0  0999 V2000
   -7.9622   17.0866  -22.2086 N   0  0  0  0  0  0  0  0  0  0  0  0
   -7.2212   16.2859  -21.2262 C   0  0  2  0  0  0  0  0  0  0  0  0
   -5.8548   15.9632  -21.7713 C   0  0  0  0  0  0  0  0  0  0  0  0
   -4.8679   16.2237  -21.1238 O   0  0  0  0  0  0  0  0  0  0  0  0
   -7.9812   14.9873  -20.9507 C   0  0  0  0  0  0  0  0  0  0  0  0
   -8.8718   15.1679  -19.7228 C   0  0  0  0  0  0  0  0  0  0  0  0
  -10.1679   14.1096  -19.4327 S   0  0  0  0  0  0  0  0  0  0  0  0
  -10.5140   12.3374  -19.5758 C   0  0  0  0  0  0  0  0  0  0  0  0
  -11.9578   11.9371  -19.2487 C   0  0  1  0  0  0  0  0  0  0  0  0
  -12.8976   12.5498  -20.1125 O   0  0  0  0  0  0  0  0  0  0  0  0
  -12.2024   10.4629  -19.4689 C   0  0  1  0  0  0  0  0  0  0  0  0
  -13.3073   10.1516  -18.6486 O   0  0  0  0  0  0  0  0  0  0  0  0
  -12.6388   10.3452  -20.9107 C   0  0  1  0  0  0  0  0  0  0  0  0
  -13.6883    9.4078  -21.0146 O   0  0  0  0  0  0  0  0  0  0  0  0
  -13.1632   11.7277  -21.2334 C   0  0  2  0  0  0  0  0  0  0  0  0
   -5.7312   15.3879  -22.9786 O   0  0  0  0  0  0  0  0  0  0  0  0
  -10.1588   10.9964  -25.4350 N   0  0  0  0  0  0  0  0  0  0  0  0
  -10.5141   10.0774  -24.4761 C   0  0  0  0  0  0  0  0  0  0  0  0
  -11.3110   10.4671  -23.4268 N   0  0  0  0  0  0  0  0  0  0  0  0
  -11.7481   11.7378  -23.3297 C   0  0  0  0  0  0  0  0  0  0  0  0
  -11.4036   12.6774  -24.2831 C   0  0  0  0  0  0  0  0  0  0  0  0
  -10.5952   12.2943  -25.3468 C   0  0  0  0  0  0  0  0  0  0  0  0
  -10.2370   13.1652  -26.2823 N   0  0  0  0  0  0  0  0  0  0  0  0
  -11.9720   13.8554  -23.9413 N   0  0  0  0  0  0  0  0  0  0  0  0
  -12.6672   13.6719  -22.8019 C   0  0  0  0  0  0  0  0  0  0  0  0
  -12.5307   12.3672  -22.4017 N   0  0  0  0  0  0  0  0  0  0  0  0
  2  1  1  6  0  0  0
  2  3  1  0  0  0  0
  2  5  1  0  0  0  0
  3  4  1  0  0  0  0
  3 16  1  0  0  0  0
  5  6  1  0  0  0  0
  6  7  1  0  0  0  0
  7  8  1  0  0  0  0
  9  8  1  6  0  0  0
  9 10  1  0  0  0  0
  9 11  1  0  0  0  0
 10 15  1  0  0  0  0
 11 12  1  1  0  0  0
 11 13  1  0  0  0  0
 13 14  1  1  0  0  0
 13 15  1  0  0  0  0
 15 26  1  6  0  0  0
 17 18  2  0  0  0  0
 17 22  1  0  0  0  0
 18 19  1  0  0  0  0
 19 20  2  0  0  0  0
 20 21  1  0  0  0  0
 20 26  1  0  0  0  0
 21 22  2  0  0  0  0
 21 24  1  0  0  0  0
 22 23  1  0  0  0  0
 24 25  2  0  0  0  0
 25 26  1  0  0  0  0
M  END
>  <CHROM.1>
126.57268006,-94.38771085,161.39005993,39.52953467,-175.70802422,60.91342041
132.61345319,-10.43083150,12.97084341,-21.78714590,-0.06150421,-0.70177235
-1.73940101

>  <Name>
ligand

>  <RI>
0

>  <Rbt.Current_Directory>
/home/itssahil/PROJECTS/Mol_Feturizer/New_Systems/rnas/3E5E

>  <Rbt.Executable>
rbdock ($Id: //depot/dev/client3/rdock/2013.1/src/exe/rbdock.cxx#4 $)

>  <Rbt.Library>
libRbt.so (2013.1, Build901 2013/11/27)

>  <Rbt.Parameter_File>
/export/apps/rDock/src/rDock_2013.1_src/data/scripts/dock_solv.prm

>  <Rbt.Receptor>
prm/pocket_docking_8.prm

>  <SCORE>
-17.7322

>  <SCORE.INTER>
-15.7426

>  <SCORE.INTER.CONST>
1

>  <SCORE.INTER.POLAR>
0

>  <SCORE.INTER.ROT>
7

>  <SCORE.INTER.SOLV>
14.902

>  <SCORE.INTER.VDW>
-23.7291

>  <SCORE.INTER.norm>
-0.605486

>  <SCORE.INTRA>
-1.9896

>  <SCORE.INTRA.DIHEDRAL>
-2.01437

>  <SCORE.INTRA.DIHEDRAL.0>
10.1225

>  <SCORE.INTRA.POLAR>
0

>  <SCORE.INTRA.POLAR.0>
0

>  <SCORE.INTRA.REPUL>
0

>  <SCORE.INTRA.REPUL.0>
0

>  <SCORE.INTRA.SOLV>
-0.129818

>  <SCORE.INTRA.SOLV.lig_0>
-49.9393

>  <SCORE.INTRA.VDW>
-0.917505

>  <SCORE.INTRA.VDW.0>
-1.75437

>  <SCORE.INTRA.norm>
-0.076523

>  <SCORE.RESTR>
0

>  <SCORE.RESTR.CAVITY>
0

>  <SCORE.RESTR.norm>
0

>  <SCORE.SYSTEM>
0

>  <SCORE.SYSTEM.CONST>
0

>  <SCORE.SYSTEM.DIHEDRAL>
0

>  <SCORE.SYSTEM.SOLV>
0

>  <SCORE.SYSTEM.norm>
0

>  <SCORE.heavy>
26

>  <SCORE.norm>
-0.682009

>  <RMSD>
8.259

$$$$
ligand
 OpenBabel11021811473D
libRbt.so/2013.1/901 2013/11/27
 26 28  0  0  0  0  0  0  0  0999 V2000
   -7.1877   13.6751  -25.6869 N   0  0  0  0  0  0  0  0  0  0  0  0
   -8.3073   13.1563  -24.8914 C   0  0  2  0  0  0  0  0  0  0  0  0
   -7.8235   12.0235  -24.0249 C   0  0  0  0  0  0  0  0  0  0  0  0
   -6.9445   11.2931  -24.4186 O   0  0  0  0  0  0  0  0  0  0  0  0
   -9.4056   12.6501  -25.8280 C   0  0  0  0  0  0  0  0  0  0  0  0
  -10.5865   12.1426  -25.0024 C   0  0  0  0  0  0  0  0  0  0  0  0
  -11.4770   13.2071  -24.0237 S   0  0  0  0  0  0  0  0  0  0  0  0
  -12.5735   13.1114  -22.5850 C   0  0  0  0  0  0  0  0  0  0  0  0
  -12.0891   13.8907  -21.3562 C   0  0  1  0  0  0  0  0  0  0  0  0
  -12.8455   13.5954  -20.1962 O   0  0  0  0  0  0  0  0  0  0  0  0
  -10.6850   13.5042  -20.9556 C   0  0  1  0  0  0  0  0  0  0  0  0
  -10.1950   14.6130  -20.2340 O   0  0  0  0  0  0  0  0  0  0  0  0
  -10.8513   12.3521  -19.9922 C   0  0  1  0  0  0  0  0  0  0  0  0
   -9.9348   12.4864  -18.9278 O   0  0  0  0  0  0  0  0  0  0  0  0
  -12.2605   12.5307  -19.4702 C   0  0  2  0  0  0  0  0  0  0  0  0
   -8.3698   11.8220  -22.8146 O   0  0  0  0  0  0  0  0  0  0  0  0
  -14.6942    8.5906  -17.0687 N   0  0  0  0  0  0  0  0  0  0  0  0
  -13.8576    9.5324  -16.5180 C   0  0  0  0  0  0  0  0  0  0  0  0
  -13.2966   10.4938  -17.3235 N   0  0  0  0  0  0  0  0  0  0  0  0
  -13.5593   10.5236  -18.6446 C   0  0  0  0  0  0  0  0  0  0  0  0
  -14.3982    9.5870  -19.2186 C   0  0  0  0  0  0  0  0  0  0  0  0
  -14.9682    8.6081  -18.4132 C   0  0  0  0  0  0  0  0  0  0  0  0
  -15.7762    7.6871  -18.9236 N   0  0  0  0  0  0  0  0  0  0  0  0
  -14.4831    9.8493  -20.5420 N   0  0  0  0  0  0  0  0  0  0  0  0
  -13.7228   10.9298  -20.8062 C   0  0  0  0  0  0  0  0  0  0  0  0
  -13.1332   11.3550  -19.6431 N   0  0  0  0  0  0  0  0  0  0  0  0
  2  1  1  6  0  0  0
  2  3  1  0  0  0  0
  2  5  1  0  0  0  0
  3  4  1  0  0  0  0
  3 16  1  0  0  0  0
  5  6  1  0  0  0  0
  6  7  1  0  0  0  0
  7  8  1  0  0  0  0
  9  8  1  6  0  0  0
  9 10  1  0  0  0  0
  9 11  1  0  0  0  0
 10 15  1  0  0  0  0
 11 12  1  1  0  0  0
 11 13  1  0  0  0  0
 13 14  1  1  0  0  0
 13 15  1  0  0  0  0
 15 26  1  6  0  0  0
 17 18  2  0  0  0  0
 17 22  1  0  0  0  0
 18 19  1  0  0  0  0
 19 20  2  0  0  0  0
 20 21  1  0  0  0  0
 20 26  1  0  0  0  0
 21 22  2  0  0  0  0
 21 24  1  0  0  0  0
 22 23  1  0  0  0  0
 24 25  2  0  0  0  0
 25 26  1  0  0  0  0
M  END
>  <CHROM.1>
-33.08869384,-178.56478739,64.16230240,-158.57510360,119.97416730,-169.45951623
-133.18924445,-11.57415373,11.79349160,-21.25090863,0.54475300,-0.75590494
-1.94051915

>  <Name>
ligand

>  <RI>
0

>  <Rbt.Current_Directory>
/home/itssahil/PROJECTS/Mol_Feturizer/New_Systems/rnas/3E5E

>  <Rbt.Executable>
rbdock ($Id: //depot/dev/client3/rdock/2013.1/src/exe/rbdock.cxx#4 $)

>  <Rbt.Library>
libRbt.so (2013.1, Build901 2013/11/27)

>  <Rbt.Parameter_File>
/export/apps/rDock/src/rDock_2013.1_src/data/scripts/dock_solv.prm

>  <Rbt.Receptor>
prm/pocket_docking_6.prm

>  <SCORE>
-18.2937

>  <SCORE.INTER>
-15.5495

>  <SCORE.INTER.CONST>
1

>  <SCORE.INTER.POLAR>
0

>  <SCORE.INTER.ROT>
7

>  <SCORE.INTER.SOLV>
7.98399

>  <SCORE.INTER.VDW>
-21.2943

>  <SCORE.INTER.norm>
-0.598057

>  <SCORE.INTRA>
-2.74425

>  <SCORE.INTRA.DIHEDRAL>
-3.8062

>  <SCORE.INTRA.DIHEDRAL.0>
10.1225

>  <SCORE.INTRA.POLAR>
0

>  <SCORE.INTRA.POLAR.0>
0

>  <SCORE.INTRA.REPUL>
0

>  <SCORE.INTRA.REPUL.0>
0

>  <SCORE.INTRA.SOLV>
-0.452968

>  <SCORE.INTRA.SOLV.lig_0>
-49.9393

>  <SCORE.INTRA.VDW>
-0.614671

>  <SCORE.INTRA.VDW.0>
-1.75437

>  <SCORE.INTRA.norm>
-0.105548

>  <SCORE.RESTR>
0

>  <SCORE.RESTR.CAVITY>
0

>  <SCORE.RESTR.norm>
0

>  <SCORE.SYSTEM>
0

>  <SCORE.SYSTEM.CONST>
0

>  <SCORE.SYSTEM.DIHEDRAL>
0

>  <SCORE.SYSTEM.SOLV>
0

>  <SCORE.SYSTEM.norm>
0

>  <SCORE.heavy>
26

>  <SCORE.norm>
-0.703606

>  <RMSD>
8.280

$$$$
ligand
 OpenBabel11021811473D
libRbt.so/2013.1/901 2013/11/27
 26 28  0  0  0  0  0  0  0  0999 V2000
   -7.5487   14.6536  -25.1242 N   0  0  0  0  0  0  0  0  0  0  0  0
   -8.8486   14.4417  -24.4755 C   0  0  2  0  0  0  0  0  0  0  0  0
   -8.8020   14.9840  -23.0713 C   0  0  0  0  0  0  0  0  0  0  0  0
   -9.4985   15.9220  -22.7613 O   0  0  0  0  0  0  0  0  0  0  0  0
   -9.1592   12.9444  -24.4350 C   0  0  0  0  0  0  0  0  0  0  0  0
  -10.5642   12.6996  -24.9824 C   0  0  0  0  0  0  0  0  0  0  0  0
  -11.9271   13.2875  -24.1572 S   0  0  0  0  0  0  0  0  0  0  0  0
  -12.7524   13.0241  -22.5664 C   0  0  0  0  0  0  0  0  0  0  0  0
  -12.1791   13.8422  -21.4029 C   0  0  1  0  0  0  0  0  0  0  0  0
  -12.8719   13.6148  -20.1892 O   0  0  0  0  0  0  0  0  0  0  0  0
  -10.7627   13.4383  -21.0681 C   0  0  1  0  0  0  0  0  0  0  0  0
  -10.2062   14.5640  -20.4251 O   0  0  0  0  0  0  0  0  0  0  0  0
  -10.8972   12.3322  -20.0475 C   0  0  1  0  0  0  0  0  0  0  0  0
   -9.9167   12.4885  -19.0451 O   0  0  0  0  0  0  0  0  0  0  0  0
  -12.2689   12.5675  -19.4528 C   0  0  2  0  0  0  0  0  0  0  0  0
   -7.9843   14.4278  -22.1624 O   0  0  0  0  0  0  0  0  0  0  0  0
  -14.7701    8.8915  -16.7244 N   0  0  0  0  0  0  0  0  0  0  0  0
  -13.8991    9.8478  -16.2587 C   0  0  0  0  0  0  0  0  0  0  0  0
  -13.3252   10.7292  -17.1429 N   0  0  0  0  0  0  0  0  0  0  0  0
  -13.6086   10.6665  -18.4586 C   0  0  0  0  0  0  0  0  0  0  0  0
  -14.4821    9.7136  -18.9478 C   0  0  0  0  0  0  0  0  0  0  0  0
  -15.0656    8.8151  -18.0622 C   0  0  0  0  0  0  0  0  0  0  0  0
  -15.9067    7.8816  -18.4896 N   0  0  0  0  0  0  0  0  0  0  0  0
  -14.5814    9.8774  -20.2859 N   0  0  0  0  0  0  0  0  0  0  0  0
  -13.7962   10.9127  -20.6422 C   0  0  0  0  0  0  0  0  0  0  0  0
  -13.1762   11.4075  -19.5234 N   0  0  0  0  0  0  0  0  0  0  0  0
  2  1  1  1  0  0  0
  2  3  1  0  0  0  0
  2  5  1  0  0  0  0
  3  4  1  0  0  0  0
  3 16  1  0  0  0  0
  5  6  1  0  0  0  0
  6  7  1  0  0  0  0
  7  8  1  0  0  0  0
  9  8  1  6  0  0  0
  9 10  1  0  0  0  0
  9 11  1  0  0  0  0
 10 15  1  0  0  0  0
 11 12  1  1  0  0  0
 11 13  1  0  0  0  0
 13 14  1  1  0  0  0
 13 15  1  0  0  0  0
 15 26  1  6  0  0  0
 17 18  2  0  0  0  0
 17 22  1  0  0  0  0
 18 19  1  0  0  0  0
 19 20  2  0  0  0  0
 20 21  1  0  0  0  0
 20 26  1  0  0  0  0
 21 22  2  0  0  0  0
 21 24  1  0  0  0  0
 22 23  1  0  0  0  0
 24 25  2  0  0  0  0
 25 26  1  0  0  0  0
M  END
>  <CHROM.1>
114.99894362,-129.71685017,-65.78237170,-64.35975541,84.60121512,179.09565351
-130.05394838,-11.79886661,12.36365679,-20.97490399,0.74129230,-0.68529614
-1.48315948

>  <Name>
ligand

>  <RI>
0

>  <Rbt.Current_Directory>
/home/itssahil/PROJECTS/Mol_Feturizer/New_Systems/rnas/3E5E

>  <Rbt.Executable>
rbdock ($Id: //depot/dev/client3/rdock/2013.1/src/exe/rbdock.cxx#4 $)

>  <Rbt.Library>
libRbt.so (2013.1, Build901 2013/11/27)

>  <Rbt.Parameter_File>
/export/apps/rDock/src/rDock_2013.1_src/data/scripts/dock_solv.prm

>  <Rbt.Receptor>
prm/pocket_docking_5.prm

>  <SCORE>
-19.6094

>  <SCORE.INTER>
-16.9402

>  <SCORE.INTER.CONST>
1

>  <SCORE.INTER.POLAR>
0

>  <SCORE.INTER.ROT>
7

>  <SCORE.INTER.SOLV>
9.17443

>  <SCORE.INTER.VDW>
-22.6183

>  <SCORE.INTER.norm>
-0.651545

>  <SCORE.INTRA>
-2.66928

>  <SCORE.INTRA.DIHEDRAL>
-0.837419

>  <SCORE.INTRA.DIHEDRAL.0>
10.1225

>  <SCORE.INTRA.POLAR>
0

>  <SCORE.INTRA.POLAR.0>
0

>  <SCORE.INTRA.REPUL>
0

>  <SCORE.INTRA.REPUL.0>
0

>  <SCORE.INTRA.SOLV>
0.123798

>  <SCORE.INTRA.SOLV.lig_0>
-49.9393

>  <SCORE.INTRA.VDW>
-2.31247

>  <SCORE.INTRA.VDW.0>
-1.75437

>  <SCORE.INTRA.norm>
-0.102664

>  <SCORE.RESTR>
0

>  <SCORE.RESTR.CAVITY>
0

>  <SCORE.RESTR.norm>
0

>  <SCORE.SYSTEM>
0

>  <SCORE.SYSTEM.CONST>
0

>  <SCORE.SYSTEM.DIHEDRAL>
0

>  <SCORE.SYSTEM.SOLV>
0

>  <SCORE.SYSTEM.norm>
0

>  <SCORE.heavy>
26

>  <SCORE.norm>
-0.754209

>  <RMSD>
8.290

$$$$
ligand
 OpenBabel11021811473D
libRbt.so/2013.1/901 2013/11/27
 26 28  0  0  0  0  0  0  0  0999 V2000
   -6.8407   14.4116  -22.3522 N   0  0  0  0  0  0  0  0  0  0  0  0
   -8.2910   14.4575  -22.1288 C   0  0  2  0  0  0  0  0  0  0  0  0
   -8.9983   14.5771  -23.4530 C   0  0  0  0  0  0  0  0  0  0  0  0
  -10.1989   14.7125  -23.4878 O   0  0  0  0  0  0  0  0  0  0  0  0
   -8.6335   15.6658  -21.2556 C   0  0  0  0  0  0  0  0  0  0  0  0
   -8.5171   15.2800  -19.7821 C   0  0  0  0  0  0  0  0  0  0  0  0
   -9.7861   14.4671  -18.9992 S   0  0  0  0  0  0  0  0  0  0  0  0
  -10.5512   12.8255  -19.0283 C   0  0  0  0  0  0  0  0  0  0  0  0
  -10.4066   12.0736  -20.3570 C   0  0  1  0  0  0  0  0  0  0  0  0
  -10.8083   10.7195  -20.2583 O   0  0  0  0  0  0  0  0  0  0  0  0
  -11.3228   12.6245  -21.4241 C   0  0  1  0  0  0  0  0  0  0  0  0
  -10.7215   12.2544  -22.6455 O   0  0  0  0  0  0  0  0  0  0  0  0
  -12.6108   11.8478  -21.2794 C   0  0  1  0  0  0  0  0  0  0  0  0
  -13.1242   11.5365  -22.5562 O   0  0  0  0  0  0  0  0  0  0  0  0
  -12.1775   10.5745  -20.5855 C   0  0  2  0  0  0  0  0  0  0  0  0
   -8.2961   14.5309  -24.5970 O   0  0  0  0  0  0  0  0  0  0  0  0
  -14.2056    6.8417  -17.5578 N   0  0  0  0  0  0  0  0  0  0  0  0
  -13.6064    6.7038  -18.7874 C   0  0  0  0  0  0  0  0  0  0  0  0
  -13.1408    7.8182  -19.4427 N   0  0  0  0  0  0  0  0  0  0  0  0
  -13.2640    9.0417  -18.8922 C   0  0  0  0  0  0  0  0  0  0  0  0
  -13.8623    9.2028  -17.6566 C   0  0  0  0  0  0  0  0  0  0  0  0
  -14.3396    8.0822  -16.9869 C   0  0  0  0  0  0  0  0  0  0  0  0
  -14.9244    8.1918  -15.8004 N   0  0  0  0  0  0  0  0  0  0  0  0
  -13.8527   10.5193  -17.3499 N   0  0  0  0  0  0  0  0  0  0  0  0
  -13.2578   11.1822  -18.3607 C   0  0  0  0  0  0  0  0  0  0  0  0
  -12.8961   10.2833  -19.3314 N   0  0  0  0  0  0  0  0  0  0  0  0
  2  1  1  6  0  0  0
  2  3  1  0  0  0  0
  2  5  1  0  0  0  0
  3  4  1  0  0  0  0
  3 16  1  0  0  0  0
  5  6  1  0  0  0  0
  6  7  1  0  0  0  0
  7  8  1  0  0  0  0
  9  8  1  1  0  0  0
  9 10  1  0  0  0  0
  9 11  1  0  0  0  0
 10 15  1  0  0  0  0
 11 12  1  6  0  0  0
 11 13  1  0  0  0  0
 13 14  1  6  0  0  0
 13 15  1  0  0  0  0
 15 26  1  1  0  0  0
 17 18  2  0  0  0  0
 17 22  1  0  0  0  0
 18 19  1  0  0  0  0
 19 20  2  0  0  0  0
 20 21  1  0  0  0  0
 20 26  1  0  0  0  0
 21 22  2  0  0  0  0
 21 24  1  0  0  0  0
 22 23  1  0  0  0  0
 24 25  2  0  0  0  0
 25 26  1  0  0  0  0
M  END
>  <CHROM.1>
-175.49711294,-86.93463953,-81.66777374,70.13117800,-26.33985639,169.61764909
-97.91751149,-11.34324466,11.77318334,-20.20231970,-0.37222995,0.92703689
1.41317870

>  <Name>
ligand

>  <RI>
0

>  <Rbt.Current_Directory>
/home/itssahil/PROJECTS/Mol_Feturizer/New_Systems/rnas/3E5E

>  <Rbt.Executable>
rbdock ($Id: //depot/dev/client3/rdock/2013.1/src/exe/rbdock.cxx#4 $)

>  <Rbt.Library>
libRbt.so (2013.1, Build901 2013/11/27)

>  <Rbt.Parameter_File>
/export/apps/rDock/src/rDock_2013.1_src/data/scripts/dock_solv.prm

>  <Rbt.Receptor>
prm/pocket_docking_3.prm

>  <SCORE>
-18.0255

>  <SCORE.INTER>
-15.7231

>  <SCORE.INTER.CONST>
1

>  <SCORE.INTER.POLAR>
0

>  <SCORE.INTER.ROT>
7

>  <SCORE.INTER.SOLV>
9.78882

>  <SCORE.INTER.VDW>
-22.0117

>  <SCORE.INTER.norm>
-0.604734

>  <SCORE.INTRA>
-2.30245

>  <SCORE.INTRA.DIHEDRAL>
-1.51872

>  <SCORE.INTRA.DIHEDRAL.0>
10.1225

>  <SCORE.INTRA.POLAR>
0

>  <SCORE.INTRA.POLAR.0>
0

>  <SCORE.INTRA.REPUL>
0

>  <SCORE.INTRA.REPUL.0>
0

>  <SCORE.INTRA.SOLV>
0.621908

>  <SCORE.INTRA.SOLV.lig_0>
-49.9393

>  <SCORE.INTRA.VDW>
-1.85404

>  <SCORE.INTRA.VDW.0>
-1.75437

>  <SCORE.INTRA.norm>
-0.0885557

>  <SCORE.RESTR>
0

>  <SCORE.RESTR.CAVITY>
0

>  <SCORE.RESTR.norm>
0

>  <SCORE.SYSTEM>
0

>  <SCORE.SYSTEM.CONST>
0

>  <SCORE.SYSTEM.DIHEDRAL>
0

>  <SCORE.SYSTEM.SOLV>
0

>  <SCORE.SYSTEM.norm>
0

>  <SCORE.heavy>
26

>  <SCORE.norm>
-0.693289

>  <RMSD>
8.301

$$$$
ligand
 OpenBabel11021811473D
libRbt.so/2013.1/901 2013/11/27
 26 28  0  0  0  0  0  0  0  0999 V2000
  -10.3106   14.3124  -23.6016 N   0  0  0  0  0  0  0  0  0  0  0  0
  -11.0413   13.0424  -23.5076 C   0  0  2  0  0  0  0  0  0  0  0  0
  -10.6437   12.1498  -24.6536 C   0  0  0  0  0  0  0  0  0  0  0  0
  -10.3702   10.9900  -24.4506 O   0  0  0  0  0  0  0  0  0  0  0  0
  -12.5452   13.3147  -23.5698 C   0  0  0  0  0  0  0  0  0  0  0  0
  -12.9446   14.2382  -22.4205 C   0  0  0  0  0  0  0  0  0  0  0  0
  -12.5331   13.8517  -20.8189 S   0  0  0  0  0  0  0  0  0  0  0  0
  -12.4049   12.3704  -19.7841 C   0  0  0  0  0  0  0  0  0  0  0  0
  -11.8642   11.1293  -20.5045 C   0  0  1  0  0  0  0  0  0  0  0  0
  -11.6335   10.0483  -19.6196 O   0  0  0  0  0  0  0  0  0  0  0  0
  -12.8631   10.5609  -21.4845 C   0  0  1  0  0  0  0  0  0  0  0  0
  -12.0880    9.8365  -22.4144 O   0  0  0  0  0  0  0  0  0  0  0  0
  -13.6835    9.5745  -20.6862 C   0  0  1  0  0  0  0  0  0  0  0  0
  -13.9293    8.4224  -21.4626 O   0  0  0  0  0  0  0  0  0  0  0  0
  -12.7764    9.2186  -19.5282 C   0  0  2  0  0  0  0  0  0  0  0  0
  -10.5899   12.6420  -25.9021 O   0  0  0  0  0  0  0  0  0  0  0  0
  -14.9426    6.9513  -15.3592 N   0  0  0  0  0  0  0  0  0  0  0  0
  -14.5295    6.3578  -16.5285 C   0  0  0  0  0  0  0  0  0  0  0  0
  -13.9889    7.1319  -17.5267 N   0  0  0  0  0  0  0  0  0  0  0  0
  -13.8583    8.4637  -17.3703 C   0  0  0  0  0  0  0  0  0  0  0  0
  -14.2663    9.0805  -16.2026 C   0  0  0  0  0  0  0  0  0  0  0  0
  -14.8176    8.3070  -15.1879 C   0  0  0  0  0  0  0  0  0  0  0  0
  -15.2262    8.8588  -14.0520 N   0  0  0  0  0  0  0  0  0  0  0  0
  -14.0222   10.4053  -16.3160 N   0  0  0  0  0  0  0  0  0  0  0  0
  -13.4665   10.6287  -17.5228 C   0  0  0  0  0  0  0  0  0  0  0  0
  -13.3674    9.4375  -18.1952 N   0  0  0  0  0  0  0  0  0  0  0  0
  2  1  1  6  0  0  0
  2  3  1  0  0  0  0
  2  5  1  0  0  0  0
  3  4  1  0  0  0  0
  3 16  1  0  0  0  0
  5  6  1  0  0  0  0
  6  7  1  0  0  0  0
  7  8  1  0  0  0  0
  9  8  1  1  0  0  0
  9 10  1  0  0  0  0
  9 11  1  0  0  0  0
 10 15  1  0  0  0  0
 11 12  1  6  0  0  0
 11 13  1  0  0  0  0
 13 14  1  6  0  0  0
 13 15  1  0  0  0  0
 15 26  1  1  0  0  0
 17 18  2  0  0  0  0
 17 22  1  0  0  0  0
 18 19  1  0  0  0  0
 19 20  2  0  0  0  0
 20 21  1  0  0  0  0
 20 26  1  0  0  0  0
 21 22  2  0  0  0  0
 21 24  1  0  0  0  0
 22 23  1  0  0  0  0
 24 25  2  0  0  0  0
 25 26  1  0  0  0  0
M  END
>  <CHROM.1>
133.46758708,-59.14933995,-53.11605528,-37.07790536,37.38053094,172.94243544
-137.73110510,-12.80893123,10.63605667,-20.11521250,0.29736537,1.21435721
0.23292433

>  <Name>
ligand

>  <RI>
0

>  <Rbt.Current_Directory>
/home/itssahil/PROJECTS/Mol_Feturizer/New_Systems/rnas/3E5E

>  <Rbt.Executable>
rbdock ($Id: //depot/dev/client3/rdock/2013.1/src/exe/rbdock.cxx#4 $)

>  <Rbt.Library>
libRbt.so (2013.1, Build901 2013/11/27)

>  <Rbt.Parameter_File>
/export/apps/rDock/src/rDock_2013.1_src/data/scripts/dock_solv.prm

>  <Rbt.Receptor>
prm/pocket_docking_5.prm

>  <SCORE>
-23.1179

>  <SCORE.INTER>
-19.5698

>  <SCORE.INTER.CONST>
1

>  <SCORE.INTER.POLAR>
0

>  <SCORE.INTER.ROT>
7

>  <SCORE.INTER.SOLV>
13.1403

>  <SCORE.INTER.VDW>
-25.6933

>  <SCORE.INTER.norm>
-0.752684

>  <SCORE.INTRA>
-3.54814

>  <SCORE.INTRA.DIHEDRAL>
-5.4749

>  <SCORE.INTRA.DIHEDRAL.0>
10.1225

>  <SCORE.INTRA.POLAR>
0

>  <SCORE.INTRA.POLAR.0>
0

>  <SCORE.INTRA.REPUL>
0

>  <SCORE.INTRA.REPUL.0>
0

>  <SCORE.INTRA.SOLV>
1.49519

>  <SCORE.INTRA.SOLV.lig_0>
-49.9393

>  <SCORE.INTRA.VDW>
-1.55828

>  <SCORE.INTRA.VDW.0>
-1.75437

>  <SCORE.INTRA.norm>
-0.136467

>  <SCORE.RESTR>
0

>  <SCORE.RESTR.CAVITY>
0

>  <SCORE.RESTR.norm>
0

>  <SCORE.SYSTEM>
0

>  <SCORE.SYSTEM.CONST>
0

>  <SCORE.SYSTEM.DIHEDRAL>
0

>  <SCORE.SYSTEM.SOLV>
0

>  <SCORE.SYSTEM.norm>
0

>  <SCORE.heavy>
26

>  <SCORE.norm>
-0.889151

>  <RMSD>
8.302

$$$$
ligand
 OpenBabel11021811473D
libRbt.so/2013.1/901 2013/11/27
 26 28  0  0  0  0  0  0  0  0999 V2000
   -8.9056   16.2388  -23.4825 N   0  0  0  0  0  0  0  0  0  0  0  0
   -9.2782   15.3241  -22.3962 C   0  0  2  0  0  0  0  0  0  0  0  0
   -8.5185   15.6920  -21.1489 C   0  0  0  0  0  0  0  0  0  0  0  0
   -7.5478   16.4086  -21.2208 O   0  0  0  0  0  0  0  0  0  0  0  0
   -8.9348   13.8889  -22.7991 C   0  0  0  0  0  0  0  0  0  0  0  0
   -9.9031   13.4174  -23.8824 C   0  0  0  0  0  0  0  0  0  0  0  0
  -11.5243   13.0809  -23.5048 S   0  0  0  0  0  0  0  0  0  0  0  0
  -12.8918   13.8761  -22.6224 C   0  0  0  0  0  0  0  0  0  0  0  0
  -12.8657   13.6932  -21.1001 C   0  0  1  0  0  0  0  0  0  0  0  0
  -13.1536   12.3627  -20.7104 O   0  0  0  0  0  0  0  0  0  0  0  0
  -11.4896   13.9275  -20.5232 C   0  0  1  0  0  0  0  0  0  0  0  0
  -11.7149   14.2673  -19.1726 O   0  0  0  0  0  0  0  0  0  0  0  0
  -10.8093   12.5788  -20.5618 C   0  0  1  0  0  0  0  0  0  0  0  0
  -10.0657   12.3874  -19.3782 O   0  0  0  0  0  0  0  0  0  0  0  0
  -11.9654   11.6027  -20.5949 C   0  0  2  0  0  0  0  0  0  0  0  0
   -8.9173   15.2220  -19.9556 O   0  0  0  0  0  0  0  0  0  0  0  0
  -14.8419    8.7179  -23.8533 N   0  0  0  0  0  0  0  0  0  0  0  0
  -15.2721    9.4950  -22.8040 C   0  0  0  0  0  0  0  0  0  0  0  0
  -14.3522   10.1778  -22.0452 N   0  0  0  0  0  0  0  0  0  0  0  0
  -13.0359   10.0947  -22.3203 C   0  0  0  0  0  0  0  0  0  0  0  0
  -12.5820    9.3199  -23.3711 C   0  0  0  0  0  0  0  0  0  0  0  0
  -13.5040    8.6226  -24.1428 C   0  0  0  0  0  0  0  0  0  0  0  0
  -13.1114    7.8638  -25.1585 N   0  0  0  0  0  0  0  0  0  0  0  0
  -11.2345    9.4173  -23.4177 N   0  0  0  0  0  0  0  0  0  0  0  0
  -10.8376   10.2383  -22.4259 C   0  0  0  0  0  0  0  0  0  0  0  0
  -11.9405   10.6593  -21.7277 N   0  0  0  0  0  0  0  0  0  0  0  0
  2  1  1  6  0  0  0
  2  3  1  0  0  0  0
  2  5  1  0  0  0  0
  3  4  1  0  0  0  0
  3 16  1  0  0  0  0
  5  6  1  0  0  0  0
  6  7  1  0  0  0  0
  7  8  1  0  0  0  0
  9  8  1  6  0  0  0
  9 10  1  0  0  0  0
  9 11  1  0  0  0  0
 10 15  1  0  0  0  0
 11 12  1  1  0  0  0
 11 13  1  0  0  0  0
 13 14  1  1  0  0  0
 13 15  1  0  0  0  0
 15 26  1  6  0  0  0
 17 18  2  0  0  0  0
 17 22  1  0  0  0  0
 18 19  1  0  0  0  0
 19 20  2  0  0  0  0
 20 21  1  0  0  0  0
 20 26  1  0  0  0  0
 21 22  2  0  0  0  0
 21 24  1  0  0  0  0
 22 23  1  0  0  0  0
 24 25  2  0  0  0  0
 25 26  1  0  0  0  0
M  END
>  <CHROM.1>
-16.26945394,-71.45536104,-71.54811052,48.84879230,-82.22511456,-70.17800726
-31.93538073,-11.45362539,12.38081454,-22.09867073,-0.66190570,-0.76280475
-2.08820901

>  <Name>
ligand

>  <RI>
0

>  <Rbt.Current_Directory>
/home/itssahil/PROJECTS/Mol_Feturizer/New_Systems/rnas/3E5E

>  <Rbt.Executable>
rbdock ($Id: //depot/dev/client3/rdock/2013.1/src/exe/rbdock.cxx#4 $)

>  <Rbt.Library>
libRbt.so (2013.1, Build901 2013/11/27)

>  <Rbt.Parameter_File>
/export/apps/rDock/src/rDock_2013.1_src/data/scripts/dock_solv.prm

>  <Rbt.Receptor>
prm/pocket_docking_7.prm

>  <SCORE>
-22.216

>  <SCORE.INTER>
-17.7042

>  <SCORE.INTER.CONST>
1

>  <SCORE.INTER.POLAR>
0

>  <SCORE.INTER.ROT>
7

>  <SCORE.INTER.SOLV>
14.1935

>  <SCORE.INTER.VDW>
-24.8006

>  <SCORE.INTER.norm>
-0.680931

>  <SCORE.INTRA>
-4.52665

>  <SCORE.INTRA.DIHEDRAL>
-5.05456

>  <SCORE.INTRA.DIHEDRAL.0>
10.1225

>  <SCORE.INTRA.POLAR>
0

>  <SCORE.INTRA.POLAR.0>
0

>  <SCORE.INTRA.REPUL>
0

>  <SCORE.INTRA.REPUL.0>
0

>  <SCORE.INTRA.SOLV>
1.60069

>  <SCORE.INTRA.SOLV.lig_0>
-49.9393

>  <SCORE.INTRA.VDW>
-2.79971

>  <SCORE.INTRA.VDW.0>
-1.75437

>  <SCORE.INTRA.norm>
-0.174102

>  <SCORE.RESTR>
0.0148851

>  <SCORE.RESTR.CAVITY>
0.0148851

>  <SCORE.RESTR.norm>
0.000572503

>  <SCORE.SYSTEM>
0

>  <SCORE.SYSTEM.CONST>
0

>  <SCORE.SYSTEM.DIHEDRAL>
0

>  <SCORE.SYSTEM.SOLV>
0

>  <SCORE.SYSTEM.norm>
0

>  <SCORE.heavy>
26

>  <SCORE.norm>
-0.854461

>  <RMSD>
8.305

$$$$
ligand
 OpenBabel11021811473D
libRbt.so/2013.1/901 2013/11/27
 26 28  0  0  0  0  0  0  0  0999 V2000
   -7.4413   14.6347  -24.8576 N   0  0  0  0  0  0  0  0  0  0  0  0
   -8.8469   14.3553  -24.5384 C   0  0  2  0  0  0  0  0  0  0  0  0
   -9.0526   14.4585  -23.0501 C   0  0  0  0  0  0  0  0  0  0  0  0
   -9.8486   15.2505  -22.6026 O   0  0  0  0  0  0  0  0  0  0  0  0
   -9.2043   12.9437  -25.0070 C   0  0  0  0  0  0  0  0  0  0  0  0
  -10.7214   12.7665  -24.9820 C   0  0  0  0  0  0  0  0  0  0  0  0
  -11.5658   12.7581  -23.5086 S   0  0  0  0  0  0  0  0  0  0  0  0
  -12.8212   13.7615  -22.6731 C   0  0  0  0  0  0  0  0  0  0  0  0
  -12.8611   13.6007  -21.1485 C   0  0  1  0  0  0  0  0  0  0  0  0
  -13.1781   12.2787  -20.7526 O   0  0  0  0  0  0  0  0  0  0  0  0
  -11.5082   13.8307  -20.5175 C   0  0  1  0  0  0  0  0  0  0  0  0
  -11.7868   14.1922  -19.1825 O   0  0  0  0  0  0  0  0  0  0  0  0
  -10.8402   12.4754  -20.5082 C   0  0  1  0  0  0  0  0  0  0  0  0
  -10.1489   12.2944  -19.2916 O   0  0  0  0  0  0  0  0  0  0  0  0
  -12.0034   11.5096  -20.5762 C   0  0  2  0  0  0  0  0  0  0  0  0
   -8.3499   13.6724  -22.2180 O   0  0  0  0  0  0  0  0  0  0  0  0
  -14.7676    8.6824  -23.9792 N   0  0  0  0  0  0  0  0  0  0  0  0
  -15.2357    9.4895  -22.9695 C   0  0  0  0  0  0  0  0  0  0  0  0
  -14.3423   10.1499  -22.1610 N   0  0  0  0  0  0  0  0  0  0  0  0
  -13.0149   10.0159  -22.3490 C   0  0  0  0  0  0  0  0  0  0  0  0
  -12.5229    9.2103  -23.3587 C   0  0  0  0  0  0  0  0  0  0  0  0
  -13.4182    8.5352  -24.1800 C   0  0  0  0  0  0  0  0  0  0  0  0
  -12.9890    7.7482  -25.1588 N   0  0  0  0  0  0  0  0  0  0  0  0
  -11.1726    9.2588  -23.3188 N   0  0  0  0  0  0  0  0  0  0  0  0
  -10.8106   10.0794  -22.3134 C   0  0  0  0  0  0  0  0  0  0  0  0
  -11.9401   10.5495  -21.6934 N   0  0  0  0  0  0  0  0  0  0  0  0
  2  1  1  1  0  0  0
  2  3  1  0  0  0  0
  2  5  1  0  0  0  0
  3  4  1  0  0  0  0
  3 16  1  0  0  0  0
  5  6  1  0  0  0  0
  6  7  1  0  0  0  0
  7  8  1  0  0  0  0
  9  8  1  6  0  0  0
  9 10  1  0  0  0  0
  9 11  1  0  0  0  0
 10 15  1  0  0  0  0
 11 12  1  1  0  0  0
 11 13  1  0  0  0  0
 13 14  1  1  0  0  0
 13 15  1  0  0  0  0
 15 26  1  6  0  0  0
 17 18  2  0  0  0  0
 17 22  1  0  0  0  0
 18 19  1  0  0  0  0
 19 20  2  0  0  0  0
 20 21  1  0  0  0  0
 20 26  1  0  0  0  0
 21 22  2  0  0  0  0
 21 24  1  0  0  0  0
 22 23  1  0  0  0  0
 24 25  2  0  0  0  0
 25 26  1  0  0  0  0
M  END
>  <CHROM.1>
120.93652787,-166.76652192,-67.16526660,116.13364271,-158.24226965,-62.10569044
-29.93305862,-11.50970761,11.98603761,-22.57125591,-0.51930261,-0.75175090
-2.14954320

>  <Name>
ligand

>  <RI>
0

>  <Rbt.Current_Directory>
/home/itssahil/PROJECTS/Mol_Feturizer/New_Systems/rnas/3E5E

>  <Rbt.Executable>
rbdock ($Id: //depot/dev/client3/rdock/2013.1/src/exe/rbdock.cxx#4 $)

>  <Rbt.Library>
libRbt.so (2013.1, Build901 2013/11/27)

>  <Rbt.Parameter_File>
/export/apps/rDock/src/rDock_2013.1_src/data/scripts/dock_solv.prm

>  <Rbt.Receptor>
prm/pocket_docking_8.prm

>  <SCORE>
-20.974

>  <SCORE.INTER>
-16.656

>  <SCORE.INTER.CONST>
1

>  <SCORE.INTER.POLAR>
0

>  <SCORE.INTER.ROT>
7

>  <SCORE.INTER.SOLV>
10.2615

>  <SCORE.INTER.VDW>
-22.7912

>  <SCORE.INTER.norm>
-0.640615

>  <SCORE.INTRA>
-4.31796

>  <SCORE.INTRA.DIHEDRAL>
-3.36359

>  <SCORE.INTRA.DIHEDRAL.0>
10.1225

>  <SCORE.INTRA.POLAR>
0

>  <SCORE.INTRA.POLAR.0>
0

>  <SCORE.INTRA.REPUL>
0

>  <SCORE.INTRA.REPUL.0>
0

>  <SCORE.INTRA.SOLV>
0.188719

>  <SCORE.INTRA.SOLV.lig_0>
-49.9393

>  <SCORE.INTRA.VDW>
-2.73052

>  <SCORE.INTRA.VDW.0>
-1.75437

>  <SCORE.INTRA.norm>
-0.166075

>  <SCORE.RESTR>
0

>  <SCORE.RESTR.CAVITY>
0

>  <SCORE.RESTR.norm>
0

>  <SCORE.SYSTEM>
0

>  <SCORE.SYSTEM.CONST>
0

>  <SCORE.SYSTEM.DIHEDRAL>
0

>  <SCORE.SYSTEM.SOLV>
0

>  <SCORE.SYSTEM.norm>
0

>  <SCORE.heavy>
26

>  <SCORE.norm>
-0.806691

>  <RMSD>
8.305

$$$$
ligand
 OpenBabel11021811473D
libRbt.so/2013.1/901 2013/11/27
 26 28  0  0  0  0  0  0  0  0999 V2000
  -10.3382   13.2221  -21.3287 N   0  0  0  0  0  0  0  0  0  0  0  0
  -11.6976   12.6819  -21.2028 C   0  0  2  0  0  0  0  0  0  0  0  0
  -12.6899   13.8148  -21.2159 C   0  0  0  0  0  0  0  0  0  0  0  0
  -12.8858   14.4594  -20.2123 O   0  0  0  0  0  0  0  0  0  0  0  0
  -11.8192   11.9113  -19.8871 C   0  0  0  0  0  0  0  0  0  0  0  0
  -13.2258   11.3281  -19.7654 C   0  0  0  0  0  0  0  0  0  0  0  0
  -13.8033   10.2190  -20.9145 S   0  0  0  0  0  0  0  0  0  0  0  0
  -13.7708   10.0076  -22.7132 C   0  0  0  0  0  0  0  0  0  0  0  0
  -14.8502    9.0705  -23.2687 C   0  0  1  0  0  0  0  0  0  0  0  0
  -14.6248    8.7301  -24.6245 O   0  0  0  0  0  0  0  0  0  0  0  0
  -14.8494    7.7287  -22.5752 C   0  0  1  0  0  0  0  0  0  0  0  0
  -16.1514    7.2202  -22.7665 O   0  0  0  0  0  0  0  0  0  0  0  0
  -13.8891    6.8736  -23.3688 C   0  0  1  0  0  0  0  0  0  0  0  0
  -14.4097    5.5686  -23.4977 O   0  0  0  0  0  0  0  0  0  0  0  0
  -13.8619    7.5424  -24.7261 C   0  0  2  0  0  0  0  0  0  0  0  0
  -13.3603   14.1085  -22.3421 O   0  0  0  0  0  0  0  0  0  0  0  0
  -10.9735    8.9180  -28.8466 N   0  0  0  0  0  0  0  0  0  0  0  0
  -12.2998    8.5569  -28.8233 C   0  0  0  0  0  0  0  0  0  0  0  0
  -12.8869    8.2119  -27.6299 N   0  0  0  0  0  0  0  0  0  0  0  0
  -12.1774    8.2258  -26.4847 C   0  0  0  0  0  0  0  0  0  0  0  0
  -10.8431    8.5865  -26.4854 C   0  0  0  0  0  0  0  0  0  0  0  0
  -10.2387    8.9340  -27.6879 C   0  0  0  0  0  0  0  0  0  0  0  0
   -8.9589    9.2828  -27.7347 N   0  0  0  0  0  0  0  0  0  0  0  0
  -10.3839    8.5127  -25.2161 N   0  0  0  0  0  0  0  0  0  0  0  0
  -11.4003    8.1210  -24.4233 C   0  0  0  0  0  0  0  0  0  0  0  0
  -12.5179    7.9274  -25.1944 N   0  0  0  0  0  0  0  0  0  0  0  0
  2  1  1  1  0  0  0
  2  3  1  0  0  0  0
  2  5  1  0  0  0  0
  3  4  1  0  0  0  0
  3 16  1  0  0  0  0
  5  6  1  0  0  0  0
  6  7  1  0  0  0  0
  7  8  1  0  0  0  0
  9  8  1  1  0  0  0
  9 10  1  0  0  0  0
  9 11  1  0  0  0  0
 10 15  1  0  0  0  0
 11 12  1  6  0  0  0
 11 13  1  0  0  0  0
 13 14  1  6  0  0  0
 13 15  1  0  0  0  0
 15 26  1  1  0  0  0
 17 18  2  0  0  0  0
 17 22  1  0  0  0  0
 18 19  1  0  0  0  0
 19 20  2  0  0  0  0
 20 21  1  0  0  0  0
 20 26  1  0  0  0  0
 21 22  2  0  0  0  0
 21 24  1  0  0  0  0
 22 23  1  0  0  0  0
 24 25  2  0  0  0  0
 25 26  1  0  0  0  0
M  END
>  <CHROM.1>
-80.02474469,-179.03020980,60.80208105,-42.07084569,-160.25236750,-168.29327205
-78.60126803,-12.76696967,9.66523942,-23.73020097,-1.74768938,-0.78736511
-2.32420773

>  <Name>
ligand

>  <RI>
0

>  <Rbt.Current_Directory>
/home/itssahil/PROJECTS/Mol_Feturizer/New_Systems/rnas/3E5E

>  <Rbt.Executable>
rbdock ($Id: //depot/dev/client3/rdock/2013.1/src/exe/rbdock.cxx#4 $)

>  <Rbt.Library>
libRbt.so (2013.1, Build901 2013/11/27)

>  <Rbt.Parameter_File>
/export/apps/rDock/src/rDock_2013.1_src/data/scripts/dock_solv.prm

>  <Rbt.Receptor>
prm/pocket_docking_8.prm

>  <SCORE>
-18.5973

>  <SCORE.INTER>
-15.3862

>  <SCORE.INTER.CONST>
1

>  <SCORE.INTER.POLAR>
0

>  <SCORE.INTER.ROT>
7

>  <SCORE.INTER.SOLV>
5.44868

>  <SCORE.INTER.VDW>
-20.3404

>  <SCORE.INTER.norm>
-0.591779

>  <SCORE.INTRA>
-3.21109

>  <SCORE.INTRA.DIHEDRAL>
-5.95848

>  <SCORE.INTRA.DIHEDRAL.0>
10.1225

>  <SCORE.INTRA.POLAR>
0

>  <SCORE.INTRA.POLAR.0>
0

>  <SCORE.INTRA.REPUL>
0

>  <SCORE.INTRA.REPUL.0>
0

>  <SCORE.INTRA.SOLV>
-0.471984

>  <SCORE.INTRA.SOLV.lig_0>
-49.9393

>  <SCORE.INTRA.VDW>
0.00414145

>  <SCORE.INTRA.VDW.0>
-1.75437

>  <SCORE.INTRA.norm>
-0.123504

>  <SCORE.RESTR>
0

>  <SCORE.RESTR.CAVITY>
0

>  <SCORE.RESTR.norm>
0

>  <SCORE.SYSTEM>
0

>  <SCORE.SYSTEM.CONST>
0

>  <SCORE.SYSTEM.DIHEDRAL>
0

>  <SCORE.SYSTEM.SOLV>
0

>  <SCORE.SYSTEM.norm>
0

>  <SCORE.heavy>
26

>  <SCORE.norm>
-0.715282

>  <RMSD>
8.312

$$$$
ligand
 OpenBabel11021811473D
libRbt.so/2013.1/901 2013/11/27
 26 28  0  0  0  0  0  0  0  0999 V2000
   -7.9826   13.7897  -25.0773 N   0  0  0  0  0  0  0  0  0  0  0  0
   -8.2472   12.7318  -24.0943 C   0  0  2  0  0  0  0  0  0  0  0  0
   -6.9499   12.0719  -23.7071 C   0  0  0  0  0  0  0  0  0  0  0  0
   -6.9585   11.0732  -23.0264 O   0  0  0  0  0  0  0  0  0  0  0  0
   -9.1868   11.6915  -24.7065 C   0  0  0  0  0  0  0  0  0  0  0  0
  -10.4998   12.3623  -25.1060 C   0  0  0  0  0  0  0  0  0  0  0  0
  -11.5385   13.0004  -23.9237 S   0  0  0  0  0  0  0  0  0  0  0  0
  -12.2849   12.4680  -22.3615 C   0  0  0  0  0  0  0  0  0  0  0  0
  -12.0252   13.4036  -21.1745 C   0  0  1  0  0  0  0  0  0  0  0  0
  -12.7124   12.9969  -20.0052 O   0  0  0  0  0  0  0  0  0  0  0  0
  -10.5778   13.3858  -20.7432 C   0  0  1  0  0  0  0  0  0  0  0  0
  -10.3810   14.6159  -20.0809 O   0  0  0  0  0  0  0  0  0  0  0  0
  -10.4836   12.2794  -19.7185 C   0  0  1  0  0  0  0  0  0  0  0  0
   -9.6472   12.6845  -18.6569 O   0  0  0  0  0  0  0  0  0  0  0  0
  -11.9050   12.1426  -19.2171 C   0  0  2  0  0  0  0  0  0  0  0  0
   -5.7818   12.5940  -24.1156 O   0  0  0  0  0  0  0  0  0  0  0  0
  -14.4808    8.3351  -16.7509 N   0  0  0  0  0  0  0  0  0  0  0  0
  -14.0610    9.5418  -16.2432 C   0  0  0  0  0  0  0  0  0  0  0  0
  -13.3788   10.4170  -17.0535 N   0  0  0  0  0  0  0  0  0  0  0  0
  -13.1195   10.1054  -18.3384 C   0  0  0  0  0  0  0  0  0  0  0  0
  -13.5332    8.8981  -18.8692 C   0  0  0  0  0  0  0  0  0  0  0  0
  -14.2212    8.0043  -18.0570 C   0  0  0  0  0  0  0  0  0  0  0  0
  -14.6331    6.8324  -18.5247 N   0  0  0  0  0  0  0  0  0  0  0  0
  -13.1437    8.8487  -20.1627 N   0  0  0  0  0  0  0  0  0  0  0  0
  -12.5029    9.9977  -20.4532 C   0  0  0  0  0  0  0  0  0  0  0  0
  -12.4684   10.7848  -19.3305 N   0  0  0  0  0  0  0  0  0  0  0  0
  2  1  1  6  0  0  0
  2  3  1  0  0  0  0
  2  5  1  0  0  0  0
  3  4  1  0  0  0  0
  3 16  1  0  0  0  0
  5  6  1  0  0  0  0
  6  7  1  0  0  0  0
  7  8  1  0  0  0  0
  9  8  1  6  0  0  0
  9 10  1  0  0  0  0
  9 11  1  0  0  0  0
 10 15  1  0  0  0  0
 11 12  1  1  0  0  0
 11 13  1  0  0  0  0
 13 14  1  1  0  0  0
 13 15  1  0  0  0  0
 15 26  1  6  0  0  0
 17 18  2  0  0  0  0
 17 22  1  0  0  0  0
 18 19  1  0  0  0  0
 19 20  2  0  0  0  0
 20 21  1  0  0  0  0
 20 26  1  0  0  0  0
 21 22  2  0  0  0  0
 21 24  1  0  0  0  0
 22 23  1  0  0  0  0
 24 25  2  0  0  0  0
 25 26  1  0  0  0  0
M  END
>  <CHROM.1>
-171.43607205,-59.75021951,-66.13103666,-49.10675941,125.55869973,175.50858518
-109.58465242,-11.18554149,11.49770272,-20.95824215,0.18179331,-0.90577421
-2.37902791

>  <Name>
ligand

>  <RI>
0

>  <Rbt.Current_Directory>
/home/itssahil/PROJECTS/Mol_Feturizer/New_Systems/rnas/3E5E

>  <Rbt.Executable>
rbdock ($Id: //depot/dev/client3/rdock/2013.1/src/exe/rbdock.cxx#4 $)

>  <Rbt.Library>
libRbt.so (2013.1, Build901 2013/11/27)

>  <Rbt.Parameter_File>
/export/apps/rDock/src/rDock_2013.1_src/data/scripts/dock_solv.prm

>  <Rbt.Receptor>
prm/pocket_docking_6.prm

>  <SCORE>
-19.2762

>  <SCORE.INTER>
-17.0159

>  <SCORE.INTER.CONST>
1

>  <SCORE.INTER.POLAR>
0

>  <SCORE.INTER.ROT>
7

>  <SCORE.INTER.SOLV>
7.97179

>  <SCORE.INTER.VDW>
-22.2678

>  <SCORE.INTER.norm>
-0.654456

>  <SCORE.INTRA>
-2.26038

>  <SCORE.INTRA.DIHEDRAL>
-4.74025

>  <SCORE.INTRA.DIHEDRAL.0>
10.1225

>  <SCORE.INTRA.POLAR>
0

>  <SCORE.INTRA.POLAR.0>
0

>  <SCORE.INTRA.REPUL>
0

>  <SCORE.INTRA.REPUL.0>
0

>  <SCORE.INTRA.SOLV>
0.81862

>  <SCORE.INTRA.SOLV.lig_0>
-49.9393

>  <SCORE.INTRA.VDW>
-0.299563

>  <SCORE.INTRA.VDW.0>
-1.75437

>  <SCORE.INTRA.norm>
-0.0869377

>  <SCORE.RESTR>
0

>  <SCORE.RESTR.CAVITY>
0

>  <SCORE.RESTR.norm>
0

>  <SCORE.SYSTEM>
0

>  <SCORE.SYSTEM.CONST>
0

>  <SCORE.SYSTEM.DIHEDRAL>
0

>  <SCORE.SYSTEM.SOLV>
0

>  <SCORE.SYSTEM.norm>
0

>  <SCORE.heavy>
26

>  <SCORE.norm>
-0.741394

>  <RMSD>
8.314

$$$$
ligand
 OpenBabel11021811473D
libRbt.so/2013.1/901 2013/11/27
 26 28  0  0  0  0  0  0  0  0999 V2000
   -9.2530   14.3484  -24.7093 N   0  0  0  0  0  0  0  0  0  0  0  0
   -9.7101   13.7224  -23.4624 C   0  0  2  0  0  0  0  0  0  0  0  0
  -11.1427   13.2846  -23.6177 C   0  0  0  0  0  0  0  0  0  0  0  0
  -12.0339   14.0993  -23.5621 O   0  0  0  0  0  0  0  0  0  0  0  0
   -9.6054   14.7318  -22.3180 C   0  0  0  0  0  0  0  0  0  0  0  0
   -9.6390   13.9931  -20.9813 C   0  0  0  0  0  0  0  0  0  0  0  0
  -11.0351   13.1607  -20.4893 S   0  0  0  0  0  0  0  0  0  0  0  0
  -11.4546   11.7301  -19.4605 C   0  0  0  0  0  0  0  0  0  0  0  0
  -12.9564   11.5263  -19.2265 C   0  0  1  0  0  0  0  0  0  0  0  0
  -13.6529   11.2203  -20.4207 O   0  0  0  0  0  0  0  0  0  0  0  0
  -13.2376   10.3281  -18.3509 C   0  0  1  0  0  0  0  0  0  0  0  0
  -14.5079   10.5778  -17.7904 O   0  0  0  0  0  0  0  0  0  0  0  0
  -13.3647    9.1625  -19.3040 C   0  0  1  0  0  0  0  0  0  0  0  0
  -14.4230    8.3251  -18.8924 O   0  0  0  0  0  0  0  0  0  0  0  0
  -13.7242    9.8208  -20.6185 C   0  0  2  0  0  0  0  0  0  0  0  0
  -11.4320   11.9879  -23.8153 O   0  0  0  0  0  0  0  0  0  0  0  0
  -13.3723    7.7791  -25.4062 N   0  0  0  0  0  0  0  0  0  0  0  0
  -14.4838    7.8688  -24.6022 C   0  0  0  0  0  0  0  0  0  0  0  0
  -14.3736    8.4344  -23.3548 N   0  0  0  0  0  0  0  0  0  0  0  0
  -13.1897    8.9026  -22.9139 C   0  0  0  0  0  0  0  0  0  0  0  0
  -12.0599    8.8233  -23.7063 C   0  0  0  0  0  0  0  0  0  0  0  0
  -12.1600    8.2498  -24.9685 C   0  0  0  0  0  0  0  0  0  0  0  0
  -11.0997    8.1498  -25.7605 N   0  0  0  0  0  0  0  0  0  0  0  0
  -11.0249    9.3609  -23.0229 N   0  0  0  0  0  0  0  0  0  0  0  0
  -11.4826    9.7791  -21.8267 C   0  0  0  0  0  0  0  0  0  0  0  0
  -12.8209    9.4929  -21.7368 N   0  0  0  0  0  0  0  0  0  0  0  0
  2  1  1  6  0  0  0
  2  3  1  0  0  0  0
  2  5  1  0  0  0  0
  3  4  1  0  0  0  0
  3 16  1  0  0  0  0
  5  6  1  0  0  0  0
  6  7  1  0  0  0  0
  7  8  1  0  0  0  0
  9  8  1  6  0  0  0
  9 10  1  0  0  0  0
  9 11  1  0  0  0  0
 10 15  1  0  0  0  0
 11 12  1  6  0  0  0
 11 13  1  0  0  0  0
 13 14  1  1  0  0  0
 13 15  1  0  0  0  0
 15 26  1  6  0  0  0
 17 18  2  0  0  0  0
 17 22  1  0  0  0  0
 18 19  1  0  0  0  0
 19 20  2  0  0  0  0
 20 21  1  0  0  0  0
 20 26  1  0  0  0  0
 21 22  2  0  0  0  0
 21 24  1  0  0  0  0
 22 23  1  0  0  0  0
 24 25  2  0  0  0  0
 25 26  1  0  0  0  0
M  END
>  <CHROM.1>
-76.87725203,-161.93415155,-65.78110788,151.36939381,172.71644564,65.04790585
-120.05466135,-12.15971103,10.89379362,-21.95691710,-0.29483391,-0.96952139
-2.07812618

>  <Name>
ligand

>  <RI>
0

>  <Rbt.Current_Directory>
/home/itssahil/PROJECTS/Mol_Feturizer/New_Systems/rnas/3E5E

>  <Rbt.Executable>
rbdock ($Id: //depot/dev/client3/rdock/2013.1/src/exe/rbdock.cxx#4 $)

>  <Rbt.Library>
libRbt.so (2013.1, Build901 2013/11/27)

>  <Rbt.Parameter_File>
/export/apps/rDock/src/rDock_2013.1_src/data/scripts/dock_solv.prm

>  <Rbt.Receptor>
prm/blind_docking_40.prm

>  <SCORE>
-17.5508

>  <SCORE.INTER>
-13.3366

>  <SCORE.INTER.CONST>
1

>  <SCORE.INTER.POLAR>
0

>  <SCORE.INTER.ROT>
7

>  <SCORE.INTER.SOLV>
8.95317

>  <SCORE.INTER.VDW>
-20.1421

>  <SCORE.INTER.norm>
-0.512946

>  <SCORE.INTRA>
-4.21422

>  <SCORE.INTRA.DIHEDRAL>
-4.77552

>  <SCORE.INTRA.DIHEDRAL.0>
10.1225

>  <SCORE.INTRA.POLAR>
0

>  <SCORE.INTRA.POLAR.0>
0

>  <SCORE.INTRA.REPUL>
0

>  <SCORE.INTRA.REPUL.0>
0

>  <SCORE.INTRA.SOLV>
-0.427135

>  <SCORE.INTRA.SOLV.lig_0>
-49.9393

>  <SCORE.INTRA.VDW>
-1.61289

>  <SCORE.INTRA.VDW.0>
-1.75437

>  <SCORE.INTRA.norm>
-0.162085

>  <SCORE.RESTR>
0

>  <SCORE.RESTR.CAVITY>
0

>  <SCORE.RESTR.norm>
0

>  <SCORE.SYSTEM>
0

>  <SCORE.SYSTEM.CONST>
0

>  <SCORE.SYSTEM.DIHEDRAL>
0

>  <SCORE.SYSTEM.SOLV>
0

>  <SCORE.SYSTEM.norm>
0

>  <SCORE.heavy>
26

>  <SCORE.norm>
-0.675032

>  <RMSD>
8.315

$$$$
ligand
 OpenBabel11021811473D
libRbt.so/2013.1/901 2013/11/27
 26 28  0  0  0  0  0  0  0  0999 V2000
   -9.8990    8.7944  -27.4232 N   0  0  0  0  0  0  0  0  0  0  0  0
   -9.3601    8.8311  -26.0580 C   0  0  2  0  0  0  0  0  0  0  0  0
   -7.8551    8.8294  -26.1135 C   0  0  0  0  0  0  0  0  0  0  0  0
   -7.2322    9.7668  -25.6726 O   0  0  0  0  0  0  0  0  0  0  0  0
   -9.8444    7.6023  -25.2864 C   0  0  0  0  0  0  0  0  0  0  0  0
  -11.2462    7.8637  -24.7384 C   0  0  0  0  0  0  0  0  0  0  0  0
  -11.5264    9.1438  -23.6582 S   0  0  0  0  0  0  0  0  0  0  0  0
  -12.7515    9.6011  -22.4047 C   0  0  0  0  0  0  0  0  0  0  0  0
  -12.6747   11.0586  -21.9341 C   0  0  1  0  0  0  0  0  0  0  0  0
  -13.4025   11.2801  -20.7399 O   0  0  0  0  0  0  0  0  0  0  0  0
  -11.2686   11.4603  -21.5563 C   0  0  1  0  0  0  0  0  0  0  0  0
  -11.2448   12.8650  -21.6860 O   0  0  0  0  0  0  0  0  0  0  0  0
  -11.1406   11.1210  -20.0895 C   0  0  1  0  0  0  0  0  0  0  0  0
  -10.4295   12.1428  -19.4255 O   0  0  0  0  0  0  0  0  0  0  0  0
  -12.5744   11.1075  -19.6053 C   0  0  2  0  0  0  0  0  0  0  0  0
   -7.2033    7.7875  -26.6553 O   0  0  0  0  0  0  0  0  0  0  0  0
  -14.3581    8.9373  -15.2095 N   0  0  0  0  0  0  0  0  0  0  0  0
  -14.0158   10.2507  -15.4286 C   0  0  0  0  0  0  0  0  0  0  0  0
  -13.5487   10.6319  -16.6633 N   0  0  0  0  0  0  0  0  0  0  0  0
  -13.4249    9.7334  -17.6596 C   0  0  0  0  0  0  0  0  0  0  0  0
  -13.7642    8.4082  -17.4611 C   0  0  0  0  0  0  0  0  0  0  0  0
  -14.2346    8.0115  -16.2148 C   0  0  0  0  0  0  0  0  0  0  0  0
  -14.5679    6.7485  -15.9796 N   0  0  0  0  0  0  0  0  0  0  0  0
  -13.5430    7.7374  -18.6137 N   0  0  0  0  0  0  0  0  0  0  0  0
  -13.0802    8.6126  -19.5275 C   0  0  0  0  0  0  0  0  0  0  0  0
  -12.9897    9.8535  -18.9503 N   0  0  0  0  0  0  0  0  0  0  0  0
  2  1  1  6  0  0  0
  2  3  1  0  0  0  0
  2  5  1  0  0  0  0
  3  4  1  0  0  0  0
  3 16  1  0  0  0  0
  5  6  1  0  0  0  0
  6  7  1  0  0  0  0
  7  8  1  0  0  0  0
  9  8  1  1  0  0  0
  9 10  1  0  0  0  0
  9 11  1  0  0  0  0
 10 15  1  0  0  0  0
 11 12  1  1  0  0  0
 11 13  1  0  0  0  0
 13 14  1  1  0  0  0
 13 15  1  0  0  0  0
 15 26  1  6  0  0  0
 17 18  2  0  0  0  0
 17 22  1  0  0  0  0
 18 19  1  0  0  0  0
 19 20  2  0  0  0  0
 20 21  1  0  0  0  0
 20 26  1  0  0  0  0
 21 22  2  0  0  0  0
 21 24  1  0  0  0  0
 22 23  1  0  0  0  0
 24 25  2  0  0  0  0
 25 26  1  0  0  0  0
M  END
>  <CHROM.1>
117.83751399,-82.88440215,-60.27780308,-157.86984296,-166.84433706,-165.04104936
-121.81945048,-11.72614945,9.56118928,-21.19176691,0.38465799,-1.03932810
-2.75158638

>  <Name>
ligand

>  <RI>
0

>  <Rbt.Current_Directory>
/home/itssahil/PROJECTS/Mol_Feturizer/New_Systems/rnas/3E5E

>  <Rbt.Executable>
rbdock ($Id: //depot/dev/client3/rdock/2013.1/src/exe/rbdock.cxx#4 $)

>  <Rbt.Library>
libRbt.so (2013.1, Build901 2013/11/27)

>  <Rbt.Parameter_File>
/export/apps/rDock/src/rDock_2013.1_src/data/scripts/dock_solv.prm

>  <Rbt.Receptor>
prm/pocket_docking_8.prm

>  <SCORE>
-17.6311

>  <SCORE.INTER>
-15.6029

>  <SCORE.INTER.CONST>
1

>  <SCORE.INTER.POLAR>
0

>  <SCORE.INTER.ROT>
7

>  <SCORE.INTER.SOLV>
7.21789

>  <SCORE.INTER.VDW>
-21.0746

>  <SCORE.INTER.norm>
-0.600111

>  <SCORE.INTRA>
-2.02821

>  <SCORE.INTRA.DIHEDRAL>
-3.77568

>  <SCORE.INTRA.DIHEDRAL.0>
10.1225

>  <SCORE.INTRA.POLAR>
0

>  <SCORE.INTRA.POLAR.0>
0

>  <SCORE.INTRA.REPUL>
0

>  <SCORE.INTRA.REPUL.0>
0

>  <SCORE.INTRA.SOLV>
0.388245

>  <SCORE.INTRA.SOLV.lig_0>
-49.9393

>  <SCORE.INTRA.VDW>
-0.334488

>  <SCORE.INTRA.VDW.0>
-1.75437

>  <SCORE.INTRA.norm>
-0.0780079

>  <SCORE.RESTR>
0

>  <SCORE.RESTR.CAVITY>
0

>  <SCORE.RESTR.norm>
0

>  <SCORE.SYSTEM>
0

>  <SCORE.SYSTEM.CONST>
0

>  <SCORE.SYSTEM.DIHEDRAL>
0

>  <SCORE.SYSTEM.SOLV>
0

>  <SCORE.SYSTEM.norm>
0

>  <SCORE.heavy>
26

>  <SCORE.norm>
-0.678119

>  <RMSD>
8.321

$$$$
ligand
 OpenBabel11021811473D
libRbt.so/2013.1/901 2013/11/27
 26 28  0  0  0  0  0  0  0  0999 V2000
   -5.8052   16.5650  -21.0945 N   0  0  0  0  0  0  0  0  0  0  0  0
   -6.7730   15.6716  -20.4458 C   0  0  2  0  0  0  0  0  0  0  0  0
   -7.9023   15.3800  -21.3986 C   0  0  0  0  0  0  0  0  0  0  0  0
   -7.9124   14.3478  -22.0275 O   0  0  0  0  0  0  0  0  0  0  0  0
   -7.3259   16.3463  -19.1893 C   0  0  0  0  0  0  0  0  0  0  0  0
   -7.9919   15.2990  -18.2987 C   0  0  0  0  0  0  0  0  0  0  0  0
   -9.4839   14.6160  -18.7362 S   0  0  0  0  0  0  0  0  0  0  0  0
  -10.0995   13.0532  -19.4143 C   0  0  0  0  0  0  0  0  0  0  0  0
  -10.1935   13.0104  -20.9443 C   0  0  1  0  0  0  0  0  0  0  0  0
  -10.6452   11.7569  -21.4233 O   0  0  0  0  0  0  0  0  0  0  0  0
  -11.2289   13.9725  -21.4770 C   0  0  1  0  0  0  0  0  0  0  0  0
  -10.8362   14.2286  -22.8077 O   0  0  0  0  0  0  0  0  0  0  0  0
  -12.5192   13.1870  -21.5101 C   0  0  1  0  0  0  0  0  0  0  0  0
  -13.2325   13.4939  -22.6881 O   0  0  0  0  0  0  0  0  0  0  0  0
  -12.0535   11.7479  -21.5626 C   0  0  2  0  0  0  0  0  0  0  0  0
   -8.8983   16.2679  -21.5528 O   0  0  0  0  0  0  0  0  0  0  0  0
  -14.4583    7.2533  -20.4539 N   0  0  0  0  0  0  0  0  0  0  0  0
  -14.1466    7.7656  -21.6910 C   0  0  0  0  0  0  0  0  0  0  0  0
  -13.5170    8.9836  -21.7806 N   0  0  0  0  0  0  0  0  0  0  0  0
  -13.2014    9.6783  -20.6702 C   0  0  0  0  0  0  0  0  0  0  0  0
  -13.5048    9.1813  -19.4167 C   0  0  0  0  0  0  0  0  0  0  0  0
  -14.1446    7.9516  -19.3151 C   0  0  0  0  0  0  0  0  0  0  0  0
  -14.4581    7.4391  -18.1315 N   0  0  0  0  0  0  0  0  0  0  0  0
  -13.0812   10.0735  -18.4936 N   0  0  0  0  0  0  0  0  0  0  0  0
  -12.5157   11.1114  -19.1404 C   0  0  0  0  0  0  0  0  0  0  0  0
  -12.5912   10.8890  -20.4916 N   0  0  0  0  0  0  0  0  0  0  0  0
  2  1  1  6  0  0  0
  2  3  1  0  0  0  0
  2  5  1  0  0  0  0
  3  4  1  0  0  0  0
  3 16  1  0  0  0  0
  5  6  1  0  0  0  0
  6  7  1  0  0  0  0
  7  8  1  0  0  0  0
  9  8  1  1  0  0  0
  9 10  1  0  0  0  0
  9 11  1  0  0  0  0
 10 15  1  0  0  0  0
 11 12  1  6  0  0  0
 11 13  1  0  0  0  0
 13 14  1  6  0  0  0
 13 15  1  0  0  0  0
 15 26  1  1  0  0  0
 17 18  2  0  0  0  0
 17 22  1  0  0  0  0
 18 19  1  0  0  0  0
 19 20  2  0  0  0  0
 20 21  1  0  0  0  0
 20 26  1  0  0  0  0
 21 22  2  0  0  0  0
 21 24  1  0  0  0  0
 22 23  1  0  0  0  0
 24 25  2  0  0  0  0
 25 26  1  0  0  0  0
M  END
>  <CHROM.1>
99.07735092,-163.21960213,-72.69404549,104.44515370,-91.09236704,178.41178555
-111.97245781,-10.95808114,12.48937377,-20.49873292,-0.35109925,0.80310339
1.99002418

>  <Name>
ligand

>  <RI>
0

>  <Rbt.Current_Directory>
/home/itssahil/PROJECTS/Mol_Feturizer/New_Systems/rnas/3E5E

>  <Rbt.Executable>
rbdock ($Id: //depot/dev/client3/rdock/2013.1/src/exe/rbdock.cxx#4 $)

>  <Rbt.Library>
libRbt.so (2013.1, Build901 2013/11/27)

>  <Rbt.Parameter_File>
/export/apps/rDock/src/rDock_2013.1_src/data/scripts/dock_solv.prm

>  <Rbt.Receptor>
prm/pocket_docking_7.prm

>  <SCORE>
-21.3403

>  <SCORE.INTER>
-18.0647

>  <SCORE.INTER.CONST>
1

>  <SCORE.INTER.POLAR>
0

>  <SCORE.INTER.ROT>
7

>  <SCORE.INTER.SOLV>
10.9647

>  <SCORE.INTER.VDW>
-23.9647

>  <SCORE.INTER.norm>
-0.694795

>  <SCORE.INTRA>
-3.27562

>  <SCORE.INTRA.DIHEDRAL>
-2.52461

>  <SCORE.INTRA.DIHEDRAL.0>
10.1225

>  <SCORE.INTRA.POLAR>
0

>  <SCORE.INTRA.POLAR.0>
0

>  <SCORE.INTRA.REPUL>
0

>  <SCORE.INTRA.REPUL.0>
0

>  <SCORE.INTRA.SOLV>
-0.130206

>  <SCORE.INTRA.SOLV.lig_0>
-49.9393

>  <SCORE.INTRA.VDW>
-1.94822

>  <SCORE.INTRA.VDW.0>
-1.75437

>  <SCORE.INTRA.norm>
-0.125985

>  <SCORE.RESTR>
0

>  <SCORE.RESTR.CAVITY>
0

>  <SCORE.RESTR.norm>
0

>  <SCORE.SYSTEM>
0

>  <SCORE.SYSTEM.CONST>
0

>  <SCORE.SYSTEM.DIHEDRAL>
0

>  <SCORE.SYSTEM.SOLV>
0

>  <SCORE.SYSTEM.norm>
0

>  <SCORE.heavy>
26

>  <SCORE.norm>
-0.820781

>  <RMSD>
8.322

$$$$
ligand
 OpenBabel11021811473D
libRbt.so/2013.1/901 2013/11/27
 26 28  0  0  0  0  0  0  0  0999 V2000
   -9.0384   13.9338  -25.5428 N   0  0  0  0  0  0  0  0  0  0  0  0
   -9.3916   13.9865  -24.1187 C   0  0  2  0  0  0  0  0  0  0  0  0
   -9.0702   15.3530  -23.5732 C   0  0  0  0  0  0  0  0  0  0  0  0
   -8.6771   16.2234  -24.3142 O   0  0  0  0  0  0  0  0  0  0  0  0
   -8.5901   12.9303  -23.3561 C   0  0  0  0  0  0  0  0  0  0  0  0
   -9.0286   11.5366  -23.8018 C   0  0  0  0  0  0  0  0  0  0  0  0
  -10.6209   11.0072  -23.5400 S   0  0  0  0  0  0  0  0  0  0  0  0
  -11.8182   10.9685  -22.1814 C   0  0  0  0  0  0  0  0  0  0  0  0
  -12.0142   12.3078  -21.4605 C   0  0  1  0  0  0  0  0  0  0  0  0
  -12.9768   12.2286  -20.4251 O   0  0  0  0  0  0  0  0  0  0  0  0
  -10.7662   12.7495  -20.7332 C   0  0  1  0  0  0  0  0  0  0  0  0
  -10.8935   14.1491  -20.6103 O   0  0  0  0  0  0  0  0  0  0  0  0
  -10.8771   12.1440  -19.3533 C   0  0  1  0  0  0  0  0  0  0  0  0
  -10.4375   13.0752  -18.3888 O   0  0  0  0  0  0  0  0  0  0  0  0
  -12.3636   11.9116  -19.1896 C   0  0  2  0  0  0  0  0  0  0  0  0
   -9.2173   15.6054  -22.2622 O   0  0  0  0  0  0  0  0  0  0  0  0
  -14.3812    8.7367  -15.5753 N   0  0  0  0  0  0  0  0  0  0  0  0
  -14.1286   10.0843  -15.4745 C   0  0  0  0  0  0  0  0  0  0  0  0
  -13.5767   10.7516  -16.5413 N   0  0  0  0  0  0  0  0  0  0  0  0
  -13.2830   10.0998  -17.6833 C   0  0  0  0  0  0  0  0  0  0  0  0
  -13.5296    8.7453  -17.8062 C   0  0  0  0  0  0  0  0  0  0  0  0
  -14.0847    8.0602  -16.7317 C   0  0  0  0  0  0  0  0  0  0  0  0
  -14.3341    6.7587  -16.8053 N   0  0  0  0  0  0  0  0  0  0  0  0
  -13.1430    8.3550  -19.0414 N   0  0  0  0  0  0  0  0  0  0  0  0
  -12.6673    9.4337  -19.6936 C   0  0  0  0  0  0  0  0  0  0  0  0
  -12.7358   10.5228  -18.8628 N   0  0  0  0  0  0  0  0  0  0  0  0
  2  1  1  6  0  0  0
  2  3  1  0  0  0  0
  2  5  1  0  0  0  0
  3  4  1  0  0  0  0
  3 16  1  0  0  0  0
  5  6  1  0  0  0  0
  6  7  1  0  0  0  0
  7  8  1  0  0  0  0
  9  8  1  1  0  0  0
  9 10  1  0  0  0  0
  9 11  1  0  0  0  0
 10 15  1  0  0  0  0
 11 12  1  1  0  0  0
 11 13  1  0  0  0  0
 13 14  1  1  0  0  0
 13 15  1  0  0  0  0
 15 26  1  6  0  0  0
 17 18  2  0  0  0  0
 17 22  1  0  0  0  0
 18 19  1  0  0  0  0
 19 20  2  0  0  0  0
 20 21  1  0  0  0  0
 20 26  1  0  0  0  0
 21 22  2  0  0  0  0
 21 24  1  0  0  0  0
 22 23  1  0  0  0  0
 24 25  2  0  0  0  0
 25 26  1  0  0  0  0
M  END
>  <CHROM.1>
4.80428001,-66.25554485,-62.94440053,-47.89106577,50.11383351,178.90945265
-127.91797557,-11.49225074,11.67241857,-20.50160940,0.09318738,-1.07884123
-2.38894611

>  <Name>
ligand

>  <RI>
0

>  <Rbt.Current_Directory>
/home/itssahil/PROJECTS/Mol_Feturizer/New_Systems/rnas/3E5E

>  <Rbt.Executable>
rbdock ($Id: //depot/dev/client3/rdock/2013.1/src/exe/rbdock.cxx#4 $)

>  <Rbt.Library>
libRbt.so (2013.1, Build901 2013/11/27)

>  <Rbt.Parameter_File>
/export/apps/rDock/src/rDock_2013.1_src/data/scripts/dock_solv.prm

>  <Rbt.Receptor>
prm/pocket_docking_5.prm

>  <SCORE>
-18.6817

>  <SCORE.INTER>
-14.6729

>  <SCORE.INTER.CONST>
1

>  <SCORE.INTER.POLAR>
0

>  <SCORE.INTER.ROT>
7

>  <SCORE.INTER.SOLV>
9.62874

>  <SCORE.INTER.VDW>
-21.2582

>  <SCORE.INTER.norm>
-0.564343

>  <SCORE.INTRA>
-4.00883

>  <SCORE.INTRA.DIHEDRAL>
-6.79509

>  <SCORE.INTRA.DIHEDRAL.0>
10.1225

>  <SCORE.INTRA.POLAR>
0

>  <SCORE.INTRA.POLAR.0>
0

>  <SCORE.INTRA.REPUL>
0

>  <SCORE.INTRA.REPUL.0>
0

>  <SCORE.INTRA.SOLV>
1.12326

>  <SCORE.INTRA.SOLV.lig_0>
-49.9393

>  <SCORE.INTRA.VDW>
-1.17292

>  <SCORE.INTRA.VDW.0>
-1.75437

>  <SCORE.INTRA.norm>
-0.154186

>  <SCORE.RESTR>
0

>  <SCORE.RESTR.CAVITY>
0

>  <SCORE.RESTR.norm>
0

>  <SCORE.SYSTEM>
0

>  <SCORE.SYSTEM.CONST>
0

>  <SCORE.SYSTEM.DIHEDRAL>
0

>  <SCORE.SYSTEM.SOLV>
0

>  <SCORE.SYSTEM.norm>
0

>  <SCORE.heavy>
26

>  <SCORE.norm>
-0.718529

>  <RMSD>
8.326

$$$$
ligand
 OpenBabel11021811473D
libRbt.so/2013.1/901 2013/11/27
 26 28  0  0  0  0  0  0  0  0999 V2000
   -6.7809   15.5682  -21.6184 N   0  0  0  0  0  0  0  0  0  0  0  0
   -8.0885   15.1059  -21.1367 C   0  0  2  0  0  0  0  0  0  0  0  0
   -9.1671   15.5981  -22.0655 C   0  0  0  0  0  0  0  0  0  0  0  0
  -10.0425   14.8476  -22.4280 O   0  0  0  0  0  0  0  0  0  0  0  0
   -8.3357   15.6542  -19.7303 C   0  0  0  0  0  0  0  0  0  0  0  0
   -8.8673   14.5377  -18.8334 C   0  0  0  0  0  0  0  0  0  0  0  0
  -10.3766   13.8243  -19.1450 S   0  0  0  0  0  0  0  0  0  0  0  0
  -11.1890   12.9339  -20.4971 C   0  0  0  0  0  0  0  0  0  0  0  0
  -12.5378   12.3028  -20.1308 C   0  0  1  0  0  0  0  0  0  0  0  0
  -13.1545   11.6663  -21.2351 O   0  0  0  0  0  0  0  0  0  0  0  0
  -12.3872   11.1810  -19.1307 C   0  0  1  0  0  0  0  0  0  0  0  0
  -13.6453   11.0860  -18.4992 O   0  0  0  0  0  0  0  0  0  0  0  0
  -12.1824    9.9353  -19.9610 C   0  0  1  0  0  0  0  0  0  0  0  0
  -12.9030    8.8626  -19.3947 O   0  0  0  0  0  0  0  0  0  0  0  0
  -12.7892   10.3005  -21.2985 C   0  0  2  0  0  0  0  0  0  0  0  0
   -9.1560   16.8709  -22.4942 O   0  0  0  0  0  0  0  0  0  0  0  0
  -12.0823    8.0526  -25.9527 N   0  0  0  0  0  0  0  0  0  0  0  0
  -13.1382    7.8951  -25.0864 C   0  0  0  0  0  0  0  0  0  0  0  0
  -13.1383    8.5692  -23.8891 N   0  0  0  0  0  0  0  0  0  0  0  0
  -12.1168    9.3827  -23.5574 C   0  0  0  0  0  0  0  0  0  0  0  0
  -11.0460    9.5561  -24.4139 C   0  0  0  0  0  0  0  0  0  0  0  0
  -11.0345    8.8762  -25.6262 C   0  0  0  0  0  0  0  0  0  0  0  0
  -10.0242    9.0106  -26.4765 N   0  0  0  0  0  0  0  0  0  0  0  0
  -10.1763   10.4146  -23.8359 N   0  0  0  0  0  0  0  0  0  0  0  0
  -10.6813   10.7853  -22.6431 C   0  0  0  0  0  0  0  0  0  0  0  0
  -11.8793   10.1465  -22.4484 N   0  0  0  0  0  0  0  0  0  0  0  0
  2  1  1  6  0  0  0
  2  3  1  0  0  0  0
  2  5  1  0  0  0  0
  3  4  1  0  0  0  0
  3 16  1  0  0  0  0
  5  6  1  0  0  0  0
  6  7  1  0  0  0  0
  7  8  1  0  0  0  0
  9  8  1  6  0  0  0
  9 10  1  0  0  0  0
  9 11  1  0  0  0  0
 10 15  1  0  0  0  0
 11 12  1  6  0  0  0
 11 13  1  0  0  0  0
 13 14  1  1  0  0  0
 13 15  1  0  0  0  0
 15 26  1  6  0  0  0
 17 18  2  0  0  0  0
 17 22  1  0  0  0  0
 18 19  1  0  0  0  0
 19 20  2  0  0  0  0
 20 21  1  0  0  0  0
 20 26  1  0  0  0  0
 21 22  2  0  0  0  0
 21 24  1  0  0  0  0
 22 23  1  0  0  0  0
 24 25  2  0  0  0  0
 25 26  1  0  0  0  0
M  END
>  <CHROM.1>
134.83844233,-134.36922907,-64.80084937,58.64325679,170.35796782,177.61923187
-117.51135179,-11.01067140,11.82439990,-21.77450084,-0.93775402,-0.86103969
-2.11803961

>  <Name>
ligand

>  <RI>
0

>  <Rbt.Current_Directory>
/home/itssahil/PROJECTS/Mol_Feturizer/New_Systems/rnas/3E5E

>  <Rbt.Executable>
rbdock ($Id: //depot/dev/client3/rdock/2013.1/src/exe/rbdock.cxx#4 $)

>  <Rbt.Library>
libRbt.so (2013.1, Build901 2013/11/27)

>  <Rbt.Parameter_File>
/export/apps/rDock/src/rDock_2013.1_src/data/scripts/dock_solv.prm

>  <Rbt.Receptor>
prm/pocket_docking_6.prm

>  <SCORE>
-20.081

>  <SCORE.INTER>
-17.6119

>  <SCORE.INTER.CONST>
1

>  <SCORE.INTER.POLAR>
0

>  <SCORE.INTER.ROT>
7

>  <SCORE.INTER.SOLV>
9.68696

>  <SCORE.INTER.VDW>
-23.2369

>  <SCORE.INTER.norm>
-0.677381

>  <SCORE.INTRA>
-2.4691

>  <SCORE.INTRA.DIHEDRAL>
-2.09163

>  <SCORE.INTRA.DIHEDRAL.0>
10.1225

>  <SCORE.INTRA.POLAR>
0

>  <SCORE.INTRA.POLAR.0>
0

>  <SCORE.INTRA.REPUL>
0

>  <SCORE.INTRA.REPUL.0>
0

>  <SCORE.INTRA.SOLV>
-0.345195

>  <SCORE.INTRA.SOLV.lig_0>
-49.9393

>  <SCORE.INTRA.VDW>
-1.25069

>  <SCORE.INTRA.VDW.0>
-1.75437

>  <SCORE.INTRA.norm>
-0.0949655

>  <SCORE.RESTR>
0

>  <SCORE.RESTR.CAVITY>
0

>  <SCORE.RESTR.norm>
0

>  <SCORE.SYSTEM>
0

>  <SCORE.SYSTEM.CONST>
0

>  <SCORE.SYSTEM.DIHEDRAL>
0

>  <SCORE.SYSTEM.SOLV>
0

>  <SCORE.SYSTEM.norm>
0

>  <SCORE.heavy>
26

>  <SCORE.norm>
-0.772346

>  <RMSD>
8.372

$$$$
ligand
 OpenBabel11021811473D
libRbt.so/2013.1/901 2013/11/27
 26 28  0  0  0  0  0  0  0  0999 V2000
   -9.1104   16.4307  -23.0545 N   0  0  0  0  0  0  0  0  0  0  0  0
   -8.6918   15.1359  -22.5035 C   0  0  2  0  0  0  0  0  0  0  0  0
   -7.4706   15.3288  -21.6434 C   0  0  0  0  0  0  0  0  0  0  0  0
   -6.4355   15.7087  -22.1386 O   0  0  0  0  0  0  0  0  0  0  0  0
   -8.3634   14.1774  -23.6494 C   0  0  0  0  0  0  0  0  0  0  0  0
   -9.6588   13.7076  -24.3089 C   0  0  0  0  0  0  0  0  0  0  0  0
  -10.5860   12.4701  -23.6069 S   0  0  0  0  0  0  0  0  0  0  0  0
  -11.8092   12.2933  -22.2826 C   0  0  0  0  0  0  0  0  0  0  0  0
  -11.7113   13.3480  -21.1737 C   0  0  1  0  0  0  0  0  0  0  0  0
  -12.5532   13.0554  -20.0735 O   0  0  0  0  0  0  0  0  0  0  0  0
  -10.3365   13.3903  -20.5496 C   0  0  1  0  0  0  0  0  0  0  0  0
  -10.2282   14.6836  -19.9965 O   0  0  0  0  0  0  0  0  0  0  0  0
  -10.3868   12.3954  -19.4135 C   0  0  1  0  0  0  0  0  0  0  0  0
   -9.7021   12.9159  -18.2951 O   0  0  0  0  0  0  0  0  0  0  0  0
  -11.8638   12.2949  -19.0992 C   0  0  2  0  0  0  0  0  0  0  0  0
   -7.5297   15.0764  -20.3255 O   0  0  0  0  0  0  0  0  0  0  0  0
  -14.5167    8.6277  -16.5055 N   0  0  0  0  0  0  0  0  0  0  0  0
  -14.1299    9.8694  -16.0598 C   0  0  0  0  0  0  0  0  0  0  0  0
  -13.4191   10.6975  -16.8947 N   0  0  0  0  0  0  0  0  0  0  0  0
  -13.1000   10.3060  -18.1437 C   0  0  0  0  0  0  0  0  0  0  0  0
  -13.4798    9.0623  -18.6122 C   0  0  0  0  0  0  0  0  0  0  0  0
  -14.1962    8.2156  -17.7745 C   0  0  0  0  0  0  0  0  0  0  0  0
  -14.5773    7.0114  -18.1823 N   0  0  0  0  0  0  0  0  0  0  0  0
  -13.0323    8.9332  -19.8812 N   0  0  0  0  0  0  0  0  0  0  0  0
  -12.3884   10.0678  -20.2176 C   0  0  0  0  0  0  0  0  0  0  0  0
  -12.4105   10.9265  -19.1484 N   0  0  0  0  0  0  0  0  0  0  0  0
  2  1  1  6  0  0  0
  2  3  1  0  0  0  0
  2  5  1  0  0  0  0
  3  4  1  0  0  0  0
  3 16  1  0  0  0  0
  5  6  1  0  0  0  0
  6  7  1  0  0  0  0
  7  8  1  0  0  0  0
  9  8  1  6  0  0  0
  9 10  1  0  0  0  0
  9 11  1  0  0  0  0
 10 15  1  0  0  0  0
 11 12  1  1  0  0  0
 11 13  1  0  0  0  0
 13 14  1  1  0  0  0
 13 15  1  0  0  0  0
 15 26  1  6  0  0  0
 17 18  2  0  0  0  0
 17 22  1  0  0  0  0
 18 19  1  0  0  0  0
 19 20  2  0  0  0  0
 20 21  1  0  0  0  0
 20 26  1  0  0  0  0
 21 22  2  0  0  0  0
 21 24  1  0  0  0  0
 22 23  1  0  0  0  0
 24 25  2  0  0  0  0
 25 26  1  0  0  0  0
M  END
>  <CHROM.1>
-64.36186102,-74.07943075,-80.05369424,80.99215292,-25.92542117,-171.38785379
-115.32277325,-11.10542954,12.26907983,-20.34326360,-0.49277233,0.85040024
1.50723558

>  <Name>
ligand

>  <RI>
0

>  <Rbt.Current_Directory>
/home/itssahil/PROJECTS/Mol_Feturizer/New_Systems/rnas/3E5E

>  <Rbt.Executable>
rbdock ($Id: //depot/dev/client3/rdock/2013.1/src/exe/rbdock.cxx#4 $)

>  <Rbt.Library>
libRbt.so (2013.1, Build901 2013/11/27)

>  <Rbt.Parameter_File>
/export/apps/rDock/src/rDock_2013.1_src/data/scripts/dock_solv.prm

>  <Rbt.Receptor>
prm/blind_docking_80.prm

>  <SCORE>
-15.0011

>  <SCORE.INTER>
-12.8402

>  <SCORE.INTER.CONST>
1

>  <SCORE.INTER.POLAR>
0

>  <SCORE.INTER.ROT>
7

>  <SCORE.INTER.SOLV>
11.506

>  <SCORE.INTER.VDW>
-20.6621

>  <SCORE.INTER.norm>
-0.493854

>  <SCORE.INTRA>
-2.16088

>  <SCORE.INTRA.DIHEDRAL>
-2.92024

>  <SCORE.INTRA.DIHEDRAL.0>
10.1225

>  <SCORE.INTRA.POLAR>
0

>  <SCORE.INTRA.POLAR.0>
0

>  <SCORE.INTRA.REPUL>
0

>  <SCORE.INTRA.REPUL.0>
0

>  <SCORE.INTRA.SOLV>
1.87139

>  <SCORE.INTRA.SOLV.lig_0>
-49.9393

>  <SCORE.INTRA.VDW>
-1.63645

>  <SCORE.INTRA.VDW.0>
-1.75437

>  <SCORE.INTRA.norm>
-0.0831106

>  <SCORE.RESTR>
0

>  <SCORE.RESTR.CAVITY>
0

>  <SCORE.RESTR.norm>
0

>  <SCORE.SYSTEM>
0

>  <SCORE.SYSTEM.CONST>
0

>  <SCORE.SYSTEM.DIHEDRAL>
0

>  <SCORE.SYSTEM.SOLV>
0

>  <SCORE.SYSTEM.norm>
0

>  <SCORE.heavy>
26

>  <SCORE.norm>
-0.576965

>  <RMSD>
8.386

$$$$
ligand
 OpenBabel11021811473D
libRbt.so/2013.1/901 2013/11/27
 26 28  0  0  0  0  0  0  0  0999 V2000
   -6.3246   15.0627  -22.1809 N   0  0  0  0  0  0  0  0  0  0  0  0
   -7.4703   15.4323  -21.3405 C   0  0  2  0  0  0  0  0  0  0  0  0
   -8.0572   16.7280  -21.8353 C   0  0  0  0  0  0  0  0  0  0  0  0
   -9.1918   16.7587  -22.2511 O   0  0  0  0  0  0  0  0  0  0  0  0
   -7.0061   15.6014  -19.8929 C   0  0  0  0  0  0  0  0  0  0  0  0
   -8.2205   15.7971  -18.9871 C   0  0  0  0  0  0  0  0  0  0  0  0
   -9.5075   14.6895  -19.0167 S   0  0  0  0  0  0  0  0  0  0  0  0
   -9.8936   13.0980  -19.7907 C   0  0  0  0  0  0  0  0  0  0  0  0
   -9.9108   13.1175  -21.3240 C   0  0  1  0  0  0  0  0  0  0  0  0
  -10.1648   11.8394  -21.8780 O   0  0  0  0  0  0  0  0  0  0  0  0
  -11.0425   13.9565  -21.8688 C   0  0  1  0  0  0  0  0  0  0  0  0
  -10.6281   14.3276  -23.1653 O   0  0  0  0  0  0  0  0  0  0  0  0
  -12.2106   13.0073  -22.0018 C   0  0  1  0  0  0  0  0  0  0  0  0
  -12.9045   13.2726  -23.2013 O   0  0  0  0  0  0  0  0  0  0  0  0
  -11.5508   11.6481  -22.0904 C   0  0  2  0  0  0  0  0  0  0  0  0
   -7.3197   17.8504  -21.8177 O   0  0  0  0  0  0  0  0  0  0  0  0
  -15.5035    8.6143  -20.5458 N   0  0  0  0  0  0  0  0  0  0  0  0
  -15.4731    9.4960  -21.6002 C   0  0  0  0  0  0  0  0  0  0  0  0
  -14.3323   10.2225  -21.8429 N   0  0  0  0  0  0  0  0  0  0  0  0
  -13.2452   10.0781  -21.0603 C   0  0  0  0  0  0  0  0  0  0  0  0
  -13.2539    9.1966  -19.9957 C   0  0  0  0  0  0  0  0  0  0  0  0
  -14.4040    8.4593  -19.7396 C   0  0  0  0  0  0  0  0  0  0  0  0
  -14.4572    7.6047  -18.7254 N   0  0  0  0  0  0  0  0  0  0  0  0
  -12.0472    9.2533  -19.3892 N   0  0  0  0  0  0  0  0  0  0  0  0
  -11.2843   10.1436  -20.0529 C   0  0  0  0  0  0  0  0  0  0  0  0
  -12.0145   10.6736  -21.0859 N   0  0  0  0  0  0  0  0  0  0  0  0
  2  1  1  6  0  0  0
  2  3  1  0  0  0  0
  2  5  1  0  0  0  0
  3  4  1  0  0  0  0
  3 16  1  0  0  0  0
  5  6  1  0  0  0  0
  6  7  1  0  0  0  0
  7  8  1  0  0  0  0
  9  8  1  1  0  0  0
  9 10  1  0  0  0  0
  9 11  1  0  0  0  0
 10 15  1  0  0  0  0
 11 12  1  6  0  0  0
 11 13  1  0  0  0  0
 13 14  1  6  0  0  0
 13 15  1  0  0  0  0
 15 26  1  1  0  0  0
 17 18  2  0  0  0  0
 17 22  1  0  0  0  0
 18 19  1  0  0  0  0
 19 20  2  0  0  0  0
 20 21  1  0  0  0  0
 20 26  1  0  0  0  0
 21 22  2  0  0  0  0
 21 24  1  0  0  0  0
 22 23  1  0  0  0  0
 24 25  2  0  0  0  0
 25 26  1  0  0  0  0
M  END
>  <CHROM.1>
117.38402536,-172.32774900,52.98553728,6.17421039,-61.25441359,177.64906508
-170.52574791,-10.91102186,12.74736115,-20.96818105,-0.53856592,0.69450842
2.22600005

>  <Name>
ligand

>  <RI>
0

>  <Rbt.Current_Directory>
/home/itssahil/PROJECTS/Mol_Feturizer/New_Systems/rnas/3E5E

>  <Rbt.Executable>
rbdock ($Id: //depot/dev/client3/rdock/2013.1/src/exe/rbdock.cxx#4 $)

>  <Rbt.Library>
libRbt.so (2013.1, Build901 2013/11/27)

>  <Rbt.Parameter_File>
/export/apps/rDock/src/rDock_2013.1_src/data/scripts/dock_solv.prm

>  <Rbt.Receptor>
prm/pocket_docking_3.prm

>  <SCORE>
-21.9287

>  <SCORE.INTER>
-18.0217

>  <SCORE.INTER.CONST>
1

>  <SCORE.INTER.POLAR>
0

>  <SCORE.INTER.ROT>
7

>  <SCORE.INTER.SOLV>
10.0492

>  <SCORE.INTER.VDW>
-23.6309

>  <SCORE.INTER.norm>
-0.693143

>  <SCORE.INTRA>
-3.90763

>  <SCORE.INTRA.DIHEDRAL>
-4.61523

>  <SCORE.INTRA.DIHEDRAL.0>
10.1225

>  <SCORE.INTRA.POLAR>
0

>  <SCORE.INTRA.POLAR.0>
0

>  <SCORE.INTRA.REPUL>
0

>  <SCORE.INTRA.REPUL.0>
0

>  <SCORE.INTRA.SOLV>
0.29436

>  <SCORE.INTRA.SOLV.lig_0>
-49.9393

>  <SCORE.INTRA.VDW>
-1.7472

>  <SCORE.INTRA.VDW.0>
-1.75437

>  <SCORE.INTRA.norm>
-0.150294

>  <SCORE.RESTR>
0.000605702

>  <SCORE.RESTR.CAVITY>
0.000605702

>  <SCORE.RESTR.norm>
2.32962e-05

>  <SCORE.SYSTEM>
0

>  <SCORE.SYSTEM.CONST>
0

>  <SCORE.SYSTEM.DIHEDRAL>
0

>  <SCORE.SYSTEM.SOLV>
0

>  <SCORE.SYSTEM.norm>
0

>  <SCORE.heavy>
26

>  <SCORE.norm>
-0.843413

>  <RMSD>
8.416

$$$$
ligand
 OpenBabel11021811473D
libRbt.so/2013.1/901 2013/11/27
 26 28  0  0  0  0  0  0  0  0999 V2000
   -7.2371   11.9347  -25.3041 N   0  0  0  0  0  0  0  0  0  0  0  0
   -7.7555   12.6362  -24.1231 C   0  0  2  0  0  0  0  0  0  0  0  0
   -6.6097   13.0131  -23.2213 C   0  0  0  0  0  0  0  0  0  0  0  0
   -6.6636   14.0274  -22.5660 O   0  0  0  0  0  0  0  0  0  0  0  0
   -8.7193   11.7188  -23.3685 C   0  0  0  0  0  0  0  0  0  0  0  0
   -9.9446   11.4406  -24.2372 C   0  0  0  0  0  0  0  0  0  0  0  0
  -11.2535   10.5488  -23.6243 S   0  0  0  0  0  0  0  0  0  0  0  0
  -12.3469   10.5863  -22.1806 C   0  0  0  0  0  0  0  0  0  0  0  0
  -12.4482   11.9505  -21.4876 C   0  0  1  0  0  0  0  0  0  0  0  0
  -13.2885   11.9171  -20.3485 O   0  0  0  0  0  0  0  0  0  0  0  0
  -11.1222   12.3995  -20.9204 C   0  0  1  0  0  0  0  0  0  0  0  0
  -11.2222   13.8039  -20.8310 O   0  0  0  0  0  0  0  0  0  0  0  0
  -11.0823   11.8403  -19.5173 C   0  0  1  0  0  0  0  0  0  0  0  0
  -10.5283   12.7966  -18.6401 O   0  0  0  0  0  0  0  0  0  0  0  0
  -12.5428   11.6323  -19.1799 C   0  0  2  0  0  0  0  0  0  0  0  0
   -5.5254   12.2241  -23.1462 O   0  0  0  0  0  0  0  0  0  0  0  0
  -14.4089    8.6384  -15.3369 N   0  0  0  0  0  0  0  0  0  0  0  0
  -14.1691    9.9920  -15.3171 C   0  0  0  0  0  0  0  0  0  0  0  0
  -13.6587   10.6058  -16.4354 N   0  0  0  0  0  0  0  0  0  0  0  0
  -13.3934    9.8959  -17.5494 C   0  0  0  0  0  0  0  0  0  0  0  0
  -13.6279    8.5344  -17.5912 C   0  0  0  0  0  0  0  0  0  0  0  0
  -14.1409    7.9032  -16.4641 C   0  0  0  0  0  0  0  0  0  0  0  0
  -14.3773    6.5971  -16.4594 N   0  0  0  0  0  0  0  0  0  0  0  0
  -13.2757    8.0815  -18.8152 N   0  0  0  0  0  0  0  0  0  0  0  0
  -12.8332    9.1279  -19.5395 C   0  0  0  0  0  0  0  0  0  0  0  0
  -12.8884   10.2598  -18.7669 N   0  0  0  0  0  0  0  0  0  0  0  0
  2  1  1  6  0  0  0
  2  3  1  0  0  0  0
  2  5  1  0  0  0  0
  3  4  1  0  0  0  0
  3 16  1  0  0  0  0
  5  6  1  0  0  0  0
  6  7  1  0  0  0  0
  7  8  1  0  0  0  0
  9  8  1  1  0  0  0
  9 10  1  0  0  0  0
  9 11  1  0  0  0  0
 10 15  1  0  0  0  0
 11 12  1  1  0  0  0
 11 13  1  0  0  0  0
 13 14  1  1  0  0  0
 13 15  1  0  0  0  0
 15 26  1  6  0  0  0
 17 18  2  0  0  0  0
 17 22  1  0  0  0  0
 18 19  1  0  0  0  0
 19 20  2  0  0  0  0
 20 21  1  0  0  0  0
 20 26  1  0  0  0  0
 21 22  2  0  0  0  0
 21 24  1  0  0  0  0
 22 23  1  0  0  0  0
 24 25  2  0  0  0  0
 25 26  1  0  0  0  0
M  END
>  <CHROM.1>
147.20538400,-65.23612236,-175.16753821,52.65432893,22.22288751,-178.57259744
-122.95188991,-11.26253211,10.98522636,-20.43083013,0.54097777,-0.75925930
-1.94882188

>  <Name>
ligand

>  <RI>
0

>  <Rbt.Current_Directory>
/home/itssahil/PROJECTS/Mol_Feturizer/New_Systems/rnas/3E5E

>  <Rbt.Executable>
rbdock ($Id: //depot/dev/client3/rdock/2013.1/src/exe/rbdock.cxx#4 $)

>  <Rbt.Library>
libRbt.so (2013.1, Build901 2013/11/27)

>  <Rbt.Parameter_File>
/export/apps/rDock/src/rDock_2013.1_src/data/scripts/dock_solv.prm

>  <Rbt.Receptor>
prm/pocket_docking_7.prm

>  <SCORE>
-17.9893

>  <SCORE.INTER>
-14.5934

>  <SCORE.INTER.CONST>
1

>  <SCORE.INTER.POLAR>
0

>  <SCORE.INTER.ROT>
7

>  <SCORE.INTER.SOLV>
8.50108

>  <SCORE.INTER.VDW>
-20.8293

>  <SCORE.INTER.norm>
-0.561285

>  <SCORE.INTRA>
-3.39736

>  <SCORE.INTRA.DIHEDRAL>
-5.43106

>  <SCORE.INTRA.DIHEDRAL.0>
10.1225

>  <SCORE.INTRA.POLAR>
0

>  <SCORE.INTRA.POLAR.0>
0

>  <SCORE.INTRA.REPUL>
0

>  <SCORE.INTRA.REPUL.0>
0

>  <SCORE.INTRA.SOLV>
0.259309

>  <SCORE.INTRA.SOLV.lig_0>
-49.9393

>  <SCORE.INTRA.VDW>
-0.81148

>  <SCORE.INTRA.VDW.0>
-1.75437

>  <SCORE.INTRA.norm>
-0.130668

>  <SCORE.RESTR>
0.00150636

>  <SCORE.RESTR.CAVITY>
0.00150636

>  <SCORE.RESTR.norm>
5.7937e-05

>  <SCORE.SYSTEM>
0

>  <SCORE.SYSTEM.CONST>
0

>  <SCORE.SYSTEM.DIHEDRAL>
0

>  <SCORE.SYSTEM.SOLV>
0

>  <SCORE.SYSTEM.norm>
0

>  <SCORE.heavy>
26

>  <SCORE.norm>
-0.691894

>  <RMSD>
8.420

$$$$
ligand
 OpenBabel11021811473D
libRbt.so/2013.1/901 2013/11/27
 26 28  0  0  0  0  0  0  0  0999 V2000
   -6.5034   15.0179  -22.4430 N   0  0  0  0  0  0  0  0  0  0  0  0
   -7.5085   15.4703  -21.4731 C   0  0  2  0  0  0  0  0  0  0  0  0
   -8.0664   16.7984  -21.9125 C   0  0  0  0  0  0  0  0  0  0  0  0
   -9.1913   16.8676  -22.3494 O   0  0  0  0  0  0  0  0  0  0  0  0
   -6.8569   15.6198  -20.0973 C   0  0  0  0  0  0  0  0  0  0  0  0
   -7.9283   15.9433  -19.0576 C   0  0  0  0  0  0  0  0  0  0  0  0
   -9.2930   14.9474  -18.8850 S   0  0  0  0  0  0  0  0  0  0  0  0
   -9.8320   13.3019  -19.4167 C   0  0  0  0  0  0  0  0  0  0  0  0
   -9.9828   13.1351  -20.9337 C   0  0  1  0  0  0  0  0  0  0  0  0
  -10.5212   11.8744  -21.2880 O   0  0  0  0  0  0  0  0  0  0  0  0
  -10.9807   14.1081  -21.5158 C   0  0  1  0  0  0  0  0  0  0  0  0
  -10.6220   14.2267  -22.8751 O   0  0  0  0  0  0  0  0  0  0  0  0
  -12.3136   13.4003  -21.4409 C   0  0  1  0  0  0  0  0  0  0  0  0
  -13.0501   13.6479  -22.6186 O   0  0  0  0  0  0  0  0  0  0  0  0
  -11.9319   11.9370  -21.3826 C   0  0  2  0  0  0  0  0  0  0  0  0
   -7.3137   17.9071  -21.8220 O   0  0  0  0  0  0  0  0  0  0  0  0
  -14.3548    7.6004  -19.7898 N   0  0  0  0  0  0  0  0  0  0  0  0
  -14.0339    7.9692  -21.0747 C   0  0  0  0  0  0  0  0  0  0  0  0
  -13.4008    9.1683  -21.2970 N   0  0  0  0  0  0  0  0  0  0  0  0
  -13.0905    9.9833  -20.2701 C   0  0  0  0  0  0  0  0  0  0  0  0
  -13.4032    9.6315  -18.9705 C   0  0  0  0  0  0  0  0  0  0  0  0
  -14.0467    8.4222  -18.7350 C   0  0  0  0  0  0  0  0  0  0  0  0
  -14.3689    8.0471  -17.5033 N   0  0  0  0  0  0  0  0  0  0  0  0
  -12.9833   10.6214  -18.1512 N   0  0  0  0  0  0  0  0  0  0  0  0
  -12.4111   11.5786  -18.9071 C   0  0  0  0  0  0  0  0  0  0  0  0
  -12.4785   11.2053  -20.2252 N   0  0  0  0  0  0  0  0  0  0  0  0
  2  1  1  6  0  0  0
  2  3  1  0  0  0  0
  2  5  1  0  0  0  0
  3  4  1  0  0  0  0
  3 16  1  0  0  0  0
  5  6  1  0  0  0  0
  6  7  1  0  0  0  0
  7  8  1  0  0  0  0
  9  8  1  1  0  0  0
  9 10  1  0  0  0  0
  9 11  1  0  0  0  0
 10 15  1  0  0  0  0
 11 12  1  6  0  0  0
 11 13  1  0  0  0  0
 13 14  1  6  0  0  0
 13 15  1  0  0  0  0
 15 26  1  1  0  0  0
 17 18  2  0  0  0  0
 17 22  1  0  0  0  0
 18 19  1  0  0  0  0
 19 20  2  0  0  0  0
 20 21  1  0  0  0  0
 20 26  1  0  0  0  0
 21 22  2  0  0  0  0
 21 24  1  0  0  0  0
 22 23  1  0  0  0  0
 24 25  2  0  0  0  0
 25 26  1  0  0  0  0
M  END
>  <CHROM.1>
107.78729794,-173.93008906,53.90296944,13.65364387,-63.86387198,-174.60346154
-107.75314337,-10.86993502,12.85180983,-20.52607978,0.47708440,-0.80020108
-1.17521769

>  <Name>
ligand

>  <RI>
0

>  <Rbt.Current_Directory>
/home/itssahil/PROJECTS/Mol_Feturizer/New_Systems/rnas/3E5E

>  <Rbt.Executable>
rbdock ($Id: //depot/dev/client3/rdock/2013.1/src/exe/rbdock.cxx#4 $)

>  <Rbt.Library>
libRbt.so (2013.1, Build901 2013/11/27)

>  <Rbt.Parameter_File>
/export/apps/rDock/src/rDock_2013.1_src/data/scripts/dock_solv.prm

>  <Rbt.Receptor>
prm/pocket_docking_4.prm

>  <SCORE>
-20.7946

>  <SCORE.INTER>
-16.8634

>  <SCORE.INTER.CONST>
1

>  <SCORE.INTER.POLAR>
0

>  <SCORE.INTER.ROT>
7

>  <SCORE.INTER.SOLV>
9.88222

>  <SCORE.INTER.VDW>
-22.803

>  <SCORE.INTER.norm>
-0.648591

>  <SCORE.INTRA>
-3.93127

>  <SCORE.INTRA.DIHEDRAL>
-4.96831

>  <SCORE.INTRA.DIHEDRAL.0>
10.1225

>  <SCORE.INTRA.POLAR>
0

>  <SCORE.INTRA.POLAR.0>
0

>  <SCORE.INTRA.REPUL>
0

>  <SCORE.INTRA.REPUL.0>
0

>  <SCORE.INTRA.SOLV>
0.299168

>  <SCORE.INTRA.SOLV.lig_0>
-49.9393

>  <SCORE.INTRA.VDW>
-1.5967

>  <SCORE.INTRA.VDW.0>
-1.75437

>  <SCORE.INTRA.norm>
-0.151203

>  <SCORE.RESTR>
0

>  <SCORE.RESTR.CAVITY>
0

>  <SCORE.RESTR.norm>
0

>  <SCORE.SYSTEM>
0

>  <SCORE.SYSTEM.CONST>
0

>  <SCORE.SYSTEM.DIHEDRAL>
0

>  <SCORE.SYSTEM.SOLV>
0

>  <SCORE.SYSTEM.norm>
0

>  <SCORE.heavy>
26

>  <SCORE.norm>
-0.799794

>  <RMSD>
8.424

$$$$
ligand
 OpenBabel11021811473D
libRbt.so/2013.1/901 2013/11/27
 26 28  0  0  0  0  0  0  0  0999 V2000
   -8.4861   15.5345  -24.9382 N   0  0  0  0  0  0  0  0  0  0  0  0
   -9.0166   15.0187  -23.6701 C   0  0  2  0  0  0  0  0  0  0  0  0
   -8.1216   15.4527  -22.5393 C   0  0  0  0  0  0  0  0  0  0  0  0
   -8.5403   16.2043  -21.6903 O   0  0  0  0  0  0  0  0  0  0  0  0
   -9.0678   13.4909  -23.7237 C   0  0  0  0  0  0  0  0  0  0  0  0
  -10.2754   13.0494  -24.5486 C   0  0  0  0  0  0  0  0  0  0  0  0
  -11.8536   13.3236  -23.9845 S   0  0  0  0  0  0  0  0  0  0  0  0
  -12.7794   13.1390  -22.4386 C   0  0  0  0  0  0  0  0  0  0  0  0
  -12.1971   13.9076  -21.2462 C   0  0  1  0  0  0  0  0  0  0  0  0
  -12.8815   13.6303  -20.0380 O   0  0  0  0  0  0  0  0  0  0  0  0
  -10.7787   13.4892  -20.9386 C   0  0  1  0  0  0  0  0  0  0  0  0
  -10.2167   14.5869  -20.2533 O   0  0  0  0  0  0  0  0  0  0  0  0
  -10.9069   12.3418  -19.9639 C   0  0  1  0  0  0  0  0  0  0  0  0
   -9.9191   12.4556  -18.9630 O   0  0  0  0  0  0  0  0  0  0  0  0
  -12.2741   12.5529  -19.3501 C   0  0  2  0  0  0  0  0  0  0  0  0
   -6.8562   15.0072  -22.4743 O   0  0  0  0  0  0  0  0  0  0  0  0
  -14.9078    8.8831  -16.7405 N   0  0  0  0  0  0  0  0  0  0  0  0
  -14.0532    9.8343  -16.2356 C   0  0  0  0  0  0  0  0  0  0  0  0
  -13.4376   10.7148  -17.0922 N   0  0  0  0  0  0  0  0  0  0  0  0
  -13.6643   10.6562  -18.4190 C   0  0  0  0  0  0  0  0  0  0  0  0
  -14.5203    9.7084  -18.9476 C   0  0  0  0  0  0  0  0  0  0  0  0
  -15.1456    8.8109  -18.0900 C   0  0  0  0  0  0  0  0  0  0  0  0
  -15.9719    7.8823  -18.5554 N   0  0  0  0  0  0  0  0  0  0  0  0
  -14.5610    9.8756  -20.2884 N   0  0  0  0  0  0  0  0  0  0  0  0
  -13.7564   10.9078  -20.6081 C   0  0  0  0  0  0  0  0  0  0  0  0
  -13.1829   11.3973  -19.4624 N   0  0  0  0  0  0  0  0  0  0  0  0
  2  1  1  6  0  0  0
  2  3  1  0  0  0  0
  2  5  1  0  0  0  0
  3  4  1  0  0  0  0
  3 16  1  0  0  0  0
  5  6  1  0  0  0  0
  6  7  1  0  0  0  0
  7  8  1  0  0  0  0
  9  8  1  6  0  0  0
  9 10  1  0  0  0  0
  9 11  1  0  0  0  0
 10 15  1  0  0  0  0
 11 12  1  1  0  0  0
 11 13  1  0  0  0  0
 13 14  1  1  0  0  0
 13 15  1  0  0  0  0
 15 26  1  6  0  0  0
 17 18  2  0  0  0  0
 17 22  1  0  0  0  0
 18 19  1  0  0  0  0
 19 20  2  0  0  0  0
 20 21  1  0  0  0  0
 20 26  1  0  0  0  0
 21 22  2  0  0  0  0
 21 24  1  0  0  0  0
 22 23  1  0  0  0  0
 24 25  2  0  0  0  0
 25 26  1  0  0  0  0
M  END
>  <CHROM.1>
115.14277105,-77.63051666,-67.41543432,-45.47472659,57.82958328,-174.40861950
-126.38532184,-11.73261492,12.51074569,-20.79142104,0.70001152,-0.66189297
-1.41010670

>  <Name>
ligand

>  <RI>
0

>  <Rbt.Current_Directory>
/home/itssahil/PROJECTS/Mol_Feturizer/New_Systems/rnas/3E5E

>  <Rbt.Executable>
rbdock ($Id: //depot/dev/client3/rdock/2013.1/src/exe/rbdock.cxx#4 $)

>  <Rbt.Library>
libRbt.so (2013.1, Build901 2013/11/27)

>  <Rbt.Parameter_File>
/export/apps/rDock/src/rDock_2013.1_src/data/scripts/dock_solv.prm

>  <Rbt.Receptor>
prm/pocket_docking_4.prm

>  <SCORE>
-19.6995

>  <SCORE.INTER>
-15.6504

>  <SCORE.INTER.CONST>
1

>  <SCORE.INTER.POLAR>
0

>  <SCORE.INTER.ROT>
7

>  <SCORE.INTER.SOLV>
11.0995

>  <SCORE.INTER.VDW>
-22.4001

>  <SCORE.INTER.norm>
-0.601939

>  <SCORE.INTRA>
-4.04904

>  <SCORE.INTRA.DIHEDRAL>
-5.55981

>  <SCORE.INTRA.DIHEDRAL.0>
10.1225

>  <SCORE.INTRA.POLAR>
0

>  <SCORE.INTRA.POLAR.0>
0

>  <SCORE.INTRA.REPUL>
0

>  <SCORE.INTRA.REPUL.0>
0

>  <SCORE.INTRA.SOLV>
0.941087

>  <SCORE.INTRA.SOLV.lig_0>
-49.9393

>  <SCORE.INTRA.VDW>
-1.73968

>  <SCORE.INTRA.VDW.0>
-1.75437

>  <SCORE.INTRA.norm>
-0.155732

>  <SCORE.RESTR>
0

>  <SCORE.RESTR.CAVITY>
0

>  <SCORE.RESTR.norm>
0

>  <SCORE.SYSTEM>
0

>  <SCORE.SYSTEM.CONST>
0

>  <SCORE.SYSTEM.DIHEDRAL>
0

>  <SCORE.SYSTEM.SOLV>
0

>  <SCORE.SYSTEM.norm>
0

>  <SCORE.heavy>
26

>  <SCORE.norm>
-0.757672

>  <RMSD>
8.427

$$$$
ligand
 OpenBabel11021811473D
libRbt.so/2013.1/901 2013/11/27
 26 28  0  0  0  0  0  0  0  0999 V2000
   -5.3569   15.8481  -21.1543 N   0  0  0  0  0  0  0  0  0  0  0  0
   -6.7600   15.7077  -20.7457 C   0  0  2  0  0  0  0  0  0  0  0  0
   -7.5690   16.8315  -21.3380 C   0  0  0  0  0  0  0  0  0  0  0  0
   -8.6877   16.6226  -21.7454 O   0  0  0  0  0  0  0  0  0  0  0  0
   -6.8534   15.7598  -19.2198 C   0  0  0  0  0  0  0  0  0  0  0  0
   -8.2944   15.4950  -18.7874 C   0  0  0  0  0  0  0  0  0  0  0  0
   -9.1802   14.2171  -19.4704 S   0  0  0  0  0  0  0  0  0  0  0  0
  -10.0494   13.8611  -21.0192 C   0  0  0  0  0  0  0  0  0  0  0  0
  -11.5770   13.9682  -20.9369 C   0  0  1  0  0  0  0  0  0  0  0  0
  -12.1904   13.9389  -22.2127 O   0  0  0  0  0  0  0  0  0  0  0  0
  -12.1928   12.7810  -20.2348 C   0  0  1  0  0  0  0  0  0  0  0  0
  -13.4359   13.2463  -19.7567 O   0  0  0  0  0  0  0  0  0  0  0  0
  -12.4570   11.7694  -21.3257 C   0  0  1  0  0  0  0  0  0  0  0  0
  -13.7040   11.1472  -21.1051 O   0  0  0  0  0  0  0  0  0  0  0  0
  -12.5294   12.6146  -22.5790 C   0  0  2  0  0  0  0  0  0  0  0  0
   -7.0474   18.0667  -21.4167 O   0  0  0  0  0  0  0  0  0  0  0  0
  -10.2309    8.5939  -24.9800 N   0  0  0  0  0  0  0  0  0  0  0  0
  -11.0716    8.5642  -23.8927 C   0  0  0  0  0  0  0  0  0  0  0  0
  -11.5717    9.7415  -23.3908 N   0  0  0  0  0  0  0  0  0  0  0  0
  -11.2481   10.9220  -23.9539 C   0  0  0  0  0  0  0  0  0  0  0  0
  -10.4053   10.9745  -25.0482 C   0  0  0  0  0  0  0  0  0  0  0  0
   -9.8914    9.7895  -25.5616 C   0  0  0  0  0  0  0  0  0  0  0  0
   -9.0755    9.7943  -26.6084 N   0  0  0  0  0  0  0  0  0  0  0  0
  -10.2529   12.2699  -25.4034 N   0  0  0  0  0  0  0  0  0  0  0  0
  -10.9846   13.0257  -24.5616 C   0  0  0  0  0  0  0  0  0  0  0  0
  -11.6000   12.2076  -23.6488 N   0  0  0  0  0  0  0  0  0  0  0  0
  2  1  1  1  0  0  0
  2  3  1  0  0  0  0
  2  5  1  0  0  0  0
  3  4  1  0  0  0  0
  3 16  1  0  0  0  0
  5  6  1  0  0  0  0
  6  7  1  0  0  0  0
  7  8  1  0  0  0  0
  9  8  1  6  0  0  0
  9 10  1  0  0  0  0
  9 11  1  0  0  0  0
 10 15  1  0  0  0  0
 11 12  1  6  0  0  0
 11 13  1  0  0  0  0
 13 14  1  1  0  0  0
 13 15  1  0  0  0  0
 15 26  1  6  0  0  0
 17 18  2  0  0  0  0
 17 22  1  0  0  0  0
 18 19  1  0  0  0  0
 19 20  2  0  0  0  0
 20 21  1  0  0  0  0
 20 26  1  0  0  0  0
 21 22  2  0  0  0  0
 21 24  1  0  0  0  0
 22 23  1  0  0  0  0
 24 25  2  0  0  0  0
 25 26  1  0  0  0  0
M  END
>  <CHROM.1>
141.70829767,-175.20727504,45.89070776,-76.71147642,-102.80132640,168.51555840
155.09024487,-10.12382482,13.12957275,-22.10543289,-1.02947308,-0.49589033
-2.27237878

>  <Name>
ligand

>  <RI>
0

>  <Rbt.Current_Directory>
/home/itssahil/PROJECTS/Mol_Feturizer/New_Systems/rnas/3E5E

>  <Rbt.Executable>
rbdock ($Id: //depot/dev/client3/rdock/2013.1/src/exe/rbdock.cxx#4 $)

>  <Rbt.Library>
libRbt.so (2013.1, Build901 2013/11/27)

>  <Rbt.Parameter_File>
/export/apps/rDock/src/rDock_2013.1_src/data/scripts/dock_solv.prm

>  <Rbt.Receptor>
prm/blind_docking_60.prm

>  <SCORE>
-21.835

>  <SCORE.INTER>
-18.9609

>  <SCORE.INTER.CONST>
1

>  <SCORE.INTER.POLAR>
0

>  <SCORE.INTER.ROT>
7

>  <SCORE.INTER.SOLV>
12.1854

>  <SCORE.INTER.VDW>
-24.9691

>  <SCORE.INTER.norm>
-0.729267

>  <SCORE.INTRA>
-2.88244

>  <SCORE.INTRA.DIHEDRAL>
-3.91505

>  <SCORE.INTRA.DIHEDRAL.0>
10.1225

>  <SCORE.INTRA.POLAR>
0

>  <SCORE.INTRA.POLAR.0>
0

>  <SCORE.INTRA.REPUL>
0

>  <SCORE.INTRA.REPUL.0>
0

>  <SCORE.INTRA.SOLV>
-0.297

>  <SCORE.INTRA.SOLV.lig_0>
-49.9393

>  <SCORE.INTRA.VDW>
-0.776413

>  <SCORE.INTRA.VDW.0>
-1.75437

>  <SCORE.INTRA.norm>
-0.110863

>  <SCORE.RESTR>
0.00841751

>  <SCORE.RESTR.CAVITY>
0.00841751

>  <SCORE.RESTR.norm>
0.00032375

>  <SCORE.SYSTEM>
0

>  <SCORE.SYSTEM.CONST>
0

>  <SCORE.SYSTEM.DIHEDRAL>
0

>  <SCORE.SYSTEM.SOLV>
0

>  <SCORE.SYSTEM.norm>
0

>  <SCORE.heavy>
26

>  <SCORE.norm>
-0.839806

>  <RMSD>
8.436

$$$$
ligand
 OpenBabel11021811473D
libRbt.so/2013.1/901 2013/11/27
 26 28  0  0  0  0  0  0  0  0999 V2000
   -8.1946   12.2549  -27.4066 N   0  0  0  0  0  0  0  0  0  0  0  0
   -8.4928   12.3366  -25.9713 C   0  0  2  0  0  0  0  0  0  0  0  0
   -7.8458   11.1784  -25.2586 C   0  0  0  0  0  0  0  0  0  0  0  0
   -7.8215   10.0864  -25.7763 O   0  0  0  0  0  0  0  0  0  0  0  0
  -10.0072   12.2836  -25.7624 C   0  0  0  0  0  0  0  0  0  0  0  0
  -10.3236   12.4493  -24.2771 C   0  0  0  0  0  0  0  0  0  0  0  0
  -11.9236   12.3435  -23.7178 S   0  0  0  0  0  0  0  0  0  0  0  0
  -12.7829   12.0466  -22.1511 C   0  0  0  0  0  0  0  0  0  0  0  0
  -12.4799   13.0693  -21.0493 C   0  0  1  0  0  0  0  0  0  0  0  0
  -13.0496   12.7076  -19.8045 O   0  0  0  0  0  0  0  0  0  0  0  0
  -11.0039   13.1493  -20.7386 C   0  0  1  0  0  0  0  0  0  0  0  0
  -10.8208   14.4281  -20.1716 O   0  0  0  0  0  0  0  0  0  0  0  0
  -10.7702   12.1181  -19.6592 C   0  0  1  0  0  0  0  0  0  0  0  0
   -9.8749   12.6316  -18.6972 O   0  0  0  0  0  0  0  0  0  0  0  0
  -12.1381   11.9465  -19.0348 C   0  0  2  0  0  0  0  0  0  0  0  0
   -7.2973   11.3569  -24.0456 O   0  0  0  0  0  0  0  0  0  0  0  0
  -14.3946    8.2216  -16.1630 N   0  0  0  0  0  0  0  0  0  0  0  0
  -14.0137    9.4823  -15.7688 C   0  0  0  0  0  0  0  0  0  0  0  0
  -13.4166   10.3241  -16.6760 N   0  0  0  0  0  0  0  0  0  0  0  0
  -13.2031    9.9274  -17.9457 C   0  0  0  0  0  0  0  0  0  0  0  0
  -13.5791    8.6645  -18.3633 C   0  0  0  0  0  0  0  0  0  0  0  0
  -14.1808    7.8040  -17.4526 C   0  0  0  0  0  0  0  0  0  0  0  0
  -14.5538    6.5814  -17.8100 N   0  0  0  0  0  0  0  0  0  0  0  0
  -13.2496    8.5344  -19.6678 N   0  0  0  0  0  0  0  0  0  0  0  0
  -12.6832    9.6869  -20.0755 C   0  0  0  0  0  0  0  0  0  0  0  0
  -12.6357   10.5587  -19.0178 N   0  0  0  0  0  0  0  0  0  0  0  0
  2  1  1  6  0  0  0
  2  3  1  0  0  0  0
  2  5  1  0  0  0  0
  3  4  1  0  0  0  0
  3 16  1  0  0  0  0
  5  6  1  0  0  0  0
  6  7  1  0  0  0  0
  7  8  1  0  0  0  0
  9  8  1  6  0  0  0
  9 10  1  0  0  0  0
  9 11  1  0  0  0  0
 10 15  1  0  0  0  0
 11 12  1  1  0  0  0
 11 13  1  0  0  0  0
 13 14  1  1  0  0  0
 13 15  1  0  0  0  0
 15 26  1  6  0  0  0
 17 18  2  0  0  0  0
 17 22  1  0  0  0  0
 18 19  1  0  0  0  0
 19 20  2  0  0  0  0
 20 21  1  0  0  0  0
 20 26  1  0  0  0  0
 21 22  2  0  0  0  0
 21 24  1  0  0  0  0
 22 23  1  0  0  0  0
 24 25  2  0  0  0  0
 25 26  1  0  0  0  0
M  END
>  <CHROM.1>
-38.42261537,-176.76580642,-176.45001788,160.48663780,60.31524483,-173.09469334
-107.64833463,-11.51154722,11.13338515,-21.07315656,0.01751487,-1.05052130
-2.78121042

>  <Name>
ligand

>  <RI>
0

>  <Rbt.Current_Directory>
/home/itssahil/PROJECTS/Mol_Feturizer/New_Systems/rnas/3E5E

>  <Rbt.Executable>
rbdock ($Id: //depot/dev/client3/rdock/2013.1/src/exe/rbdock.cxx#4 $)

>  <Rbt.Library>
libRbt.so (2013.1, Build901 2013/11/27)

>  <Rbt.Parameter_File>
/export/apps/rDock/src/rDock_2013.1_src/data/scripts/dock_solv.prm

>  <Rbt.Receptor>
prm/pocket_docking_8.prm

>  <SCORE>
-19.4323

>  <SCORE.INTER>
-15.544

>  <SCORE.INTER.CONST>
1

>  <SCORE.INTER.POLAR>
0

>  <SCORE.INTER.ROT>
7

>  <SCORE.INTER.SOLV>
7.5591

>  <SCORE.INTER.VDW>
-21.1491

>  <SCORE.INTER.norm>
-0.597848

>  <SCORE.INTRA>
-3.88822

>  <SCORE.INTRA.DIHEDRAL>
-6.65749

>  <SCORE.INTRA.DIHEDRAL.0>
10.1225

>  <SCORE.INTRA.POLAR>
0

>  <SCORE.INTRA.POLAR.0>
0

>  <SCORE.INTRA.REPUL>
0

>  <SCORE.INTRA.REPUL.0>
0

>  <SCORE.INTRA.SOLV>
-0.591387

>  <SCORE.INTRA.SOLV.lig_0>
-49.9393

>  <SCORE.INTRA.VDW>
-0.263778

>  <SCORE.INTRA.VDW.0>
-1.75437

>  <SCORE.INTRA.norm>
-0.149547

>  <SCORE.RESTR>
0

>  <SCORE.RESTR.CAVITY>
0

>  <SCORE.RESTR.norm>
0

>  <SCORE.SYSTEM>
0

>  <SCORE.SYSTEM.CONST>
0

>  <SCORE.SYSTEM.DIHEDRAL>
0

>  <SCORE.SYSTEM.SOLV>
0

>  <SCORE.SYSTEM.norm>
0

>  <SCORE.heavy>
26

>  <SCORE.norm>
-0.747395

>  <RMSD>
8.441

$$$$
ligand
 OpenBabel11021811473D
libRbt.so/2013.1/901 2013/11/27
 26 28  0  0  0  0  0  0  0  0999 V2000
   -5.6837   17.9814  -22.0391 N   0  0  0  0  0  0  0  0  0  0  0  0
   -5.1665   16.8373  -21.2781 C   0  0  2  0  0  0  0  0  0  0  0  0
   -4.0887   16.1513  -22.0755 C   0  0  0  0  0  0  0  0  0  0  0  0
   -3.5438   16.7343  -22.9834 O   0  0  0  0  0  0  0  0  0  0  0  0
   -6.3043   15.8524  -21.0036 C   0  0  0  0  0  0  0  0  0  0  0  0
   -7.1852   16.3912  -19.8779 C   0  0  0  0  0  0  0  0  0  0  0  0
   -8.6268   15.5994  -19.4549 S   0  0  0  0  0  0  0  0  0  0  0  0
   -9.1385   13.9687  -18.8547 C   0  0  0  0  0  0  0  0  0  0  0  0
  -10.6078   13.6191  -19.1207 C   0  0  1  0  0  0  0  0  0  0  0  0
  -11.0894   14.1881  -20.3245 O   0  0  0  0  0  0  0  0  0  0  0  0
  -10.8088   12.1381  -19.3389 C   0  0  1  0  0  0  0  0  0  0  0  0
  -12.1638   11.9049  -19.0224 O   0  0  0  0  0  0  0  0  0  0  0  0
  -10.6300   11.9290  -20.8246 C   0  0  1  0  0  0  0  0  0  0  0  0
  -11.5890   11.0065  -21.2937 O   0  0  0  0  0  0  0  0  0  0  0  0
  -10.9161   13.2954  -21.4090 C   0  0  2  0  0  0  0  0  0  0  0  0
   -3.7336   14.8900  -21.7806 O   0  0  0  0  0  0  0  0  0  0  0  0
   -6.5975   12.1868  -24.1171 N   0  0  0  0  0  0  0  0  0  0  0  0
   -7.3625   11.3357  -23.3552 C   0  0  0  0  0  0  0  0  0  0  0  0
   -8.4680   11.8221  -22.6999 N   0  0  0  0  0  0  0  0  0  0  0  0
   -8.8097   13.1216  -22.7982 C   0  0  0  0  0  0  0  0  0  0  0  0
   -8.0551   13.9942  -23.5596 C   0  0  0  0  0  0  0  0  0  0  0  0
   -6.9330   13.5130  -24.2238 C   0  0  0  0  0  0  0  0  0  0  0  0
   -6.1780   14.3169  -24.9623 N   0  0  0  0  0  0  0  0  0  0  0  0
   -8.6186   15.2204  -23.4812 N   0  0  0  0  0  0  0  0  0  0  0  0
   -9.7091   15.1327  -22.6950 C   0  0  0  0  0  0  0  0  0  0  0  0
   -9.8371   13.8406  -22.2531 N   0  0  0  0  0  0  0  0  0  0  0  0
  2  1  1  6  0  0  0
  2  3  1  0  0  0  0
  2  5  1  0  0  0  0
  3  4  1  0  0  0  0
  3 16  1  0  0  0  0
  5  6  1  0  0  0  0
  6  7  1  0  0  0  0
  7  8  1  0  0  0  0
  9  8  1  6  0  0  0
  9 10  1  0  0  0  0
  9 11  1  0  0  0  0
 10 15  1  0  0  0  0
 11 12  1  6  0  0  0
 11 13  1  0  0  0  0
 13 14  1  6  0  0  0
 13 15  1  0  0  0  0
 15 26  1  6  0  0  0
 17 18  2  0  0  0  0
 17 22  1  0  0  0  0
 18 19  1  0  0  0  0
 19 20  2  0  0  0  0
 20 21  1  0  0  0  0
 20 26  1  0  0  0  0
 21 22  2  0  0  0  0
 21 24  1  0  0  0  0
 22 23  1  0  0  0  0
 24 25  2  0  0  0  0
 25 26  1  0  0  0  0
M  END
>  <CHROM.1>
18.78773084,-76.52572509,173.53379600,60.09149933,-158.35741473,32.61587993
135.87934825,-8.17957578,14.19097890,-21.57064815,0.06876030,0.59095139,0.87438740

>  <Name>
ligand

>  <RI>
0

>  <Rbt.Current_Directory>
/home/itssahil/PROJECTS/Mol_Feturizer/New_Systems/rnas/3E5E

>  <Rbt.Executable>
rbdock ($Id: //depot/dev/client3/rdock/2013.1/src/exe/rbdock.cxx#4 $)

>  <Rbt.Library>
libRbt.so (2013.1, Build901 2013/11/27)

>  <Rbt.Parameter_File>
/export/apps/rDock/src/rDock_2013.1_src/data/scripts/dock_solv.prm

>  <Rbt.Receptor>
prm/blind_docking_60.prm

>  <SCORE>
-20.5979

>  <SCORE.INTER>
-17.3303

>  <SCORE.INTER.CONST>
1

>  <SCORE.INTER.POLAR>
0

>  <SCORE.INTER.ROT>
7

>  <SCORE.INTER.SOLV>
9.33315

>  <SCORE.INTER.VDW>
-22.9312

>  <SCORE.INTER.norm>
-0.666549

>  <SCORE.INTRA>
-3.26764

>  <SCORE.INTRA.DIHEDRAL>
-3.41472

>  <SCORE.INTRA.DIHEDRAL.0>
10.1225

>  <SCORE.INTRA.POLAR>
0

>  <SCORE.INTRA.POLAR.0>
0

>  <SCORE.INTRA.REPUL>
0

>  <SCORE.INTRA.REPUL.0>
0

>  <SCORE.INTRA.SOLV>
0.715328

>  <SCORE.INTRA.SOLV.lig_0>
-49.9393

>  <SCORE.INTRA.VDW>
-1.91794

>  <SCORE.INTRA.VDW.0>
-1.75437

>  <SCORE.INTRA.norm>
-0.125678

>  <SCORE.RESTR>
0

>  <SCORE.RESTR.CAVITY>
0

>  <SCORE.RESTR.norm>
0

>  <SCORE.SYSTEM>
0

>  <SCORE.SYSTEM.CONST>
0

>  <SCORE.SYSTEM.DIHEDRAL>
0

>  <SCORE.SYSTEM.SOLV>
0

>  <SCORE.SYSTEM.norm>
0

>  <SCORE.heavy>
26

>  <SCORE.norm>
-0.792227

>  <RMSD>
8.444

$$$$
ligand
 OpenBabel11021811473D
libRbt.so/2013.1/901 2013/11/27
 26 28  0  0  0  0  0  0  0  0999 V2000
   -6.9825   16.0135  -17.8762 N   0  0  0  0  0  0  0  0  0  0  0  0
   -7.5694   15.1677  -18.9229 C   0  0  2  0  0  0  0  0  0  0  0  0
   -7.3892   15.8312  -20.2628 C   0  0  0  0  0  0  0  0  0  0  0  0
   -7.3009   15.1595  -21.2638 O   0  0  0  0  0  0  0  0  0  0  0  0
   -9.0612   14.9751  -18.6446 C   0  0  0  0  0  0  0  0  0  0  0  0
   -9.6418   13.9756  -19.6434 C   0  0  0  0  0  0  0  0  0  0  0  0
  -11.2991   13.6052  -19.6303 S   0  0  0  0  0  0  0  0  0  0  0  0
  -12.4833   12.7049  -20.6638 C   0  0  0  0  0  0  0  0  0  0  0  0
  -11.9016   11.4897  -21.3964 C   0  0  1  0  0  0  0  0  0  0  0  0
  -11.5444   10.4445  -20.5104 O   0  0  0  0  0  0  0  0  0  0  0  0
  -12.9153   10.8353  -22.3051 C   0  0  1  0  0  0  0  0  0  0  0  0
  -12.1484   10.1474  -23.2690 O   0  0  0  0  0  0  0  0  0  0  0  0
  -13.6164    9.8111  -21.4433 C   0  0  1  0  0  0  0  0  0  0  0  0
  -13.8275    8.6299  -22.1855 O   0  0  0  0  0  0  0  0  0  0  0  0
  -12.6196    9.5407  -20.3371 C   0  0  2  0  0  0  0  0  0  0  0  0
   -7.3235   17.1701  -20.3467 O   0  0  0  0  0  0  0  0  0  0  0  0
  -14.3469    7.2123  -16.0002 N   0  0  0  0  0  0  0  0  0  0  0  0
  -13.9604    6.6250  -17.1816 C   0  0  0  0  0  0  0  0  0  0  0  0
  -13.5429    7.4147  -18.2257 N   0  0  0  0  0  0  0  0  0  0  0  0
  -13.5070    8.7558  -18.1025 C   0  0  0  0  0  0  0  0  0  0  0  0
  -13.8903    9.3668  -16.9234 C   0  0  0  0  0  0  0  0  0  0  0  0
  -14.3174    8.5772  -15.8622 C   0  0  0  0  0  0  0  0  0  0  0  0
  -14.6981    9.1225  -14.7135 N   0  0  0  0  0  0  0  0  0  0  0  0
  -13.7571   10.7033  -17.0763 N   0  0  0  0  0  0  0  0  0  0  0  0
  -13.2946   10.9403  -18.3193 C   0  0  0  0  0  0  0  0  0  0  0  0
  -13.1441    9.7448  -18.9743 N   0  0  0  0  0  0  0  0  0  0  0  0
  2  1  1  1  0  0  0
  2  3  1  0  0  0  0
  2  5  1  0  0  0  0
  3  4  1  0  0  0  0
  3 16  1  0  0  0  0
  5  6  1  0  0  0  0
  6  7  1  0  0  0  0
  7  8  1  0  0  0  0
  9  8  1  1  0  0  0
  9 10  1  0  0  0  0
  9 11  1  0  0  0  0
 10 15  1  0  0  0  0
 11 12  1  6  0  0  0
 11 13  1  0  0  0  0
 13 14  1  6  0  0  0
 13 15  1  0  0  0  0
 15 26  1  1  0  0  0
 17 18  2  0  0  0  0
 17 22  1  0  0  0  0
 18 19  1  0  0  0  0
 19 20  2  0  0  0  0
 20 21  1  0  0  0  0
 20 26  1  0  0  0  0
 21 22  2  0  0  0  0
 21 24  1  0  0  0  0
 22 23  1  0  0  0  0
 24 25  2  0  0  0  0
 25 26  1  0  0  0  0
M  END
>  <CHROM.1>
151.12519552,-173.92400460,-177.33125866,170.53149155,32.85263704,67.97864964
-137.21082620,-11.68394675,11.48429207,-19.33841818,-0.18775346,0.87941289
1.53750073

>  <Name>
ligand

>  <RI>
0

>  <Rbt.Current_Directory>
/home/itssahil/PROJECTS/Mol_Feturizer/New_Systems/rnas/3E5E

>  <Rbt.Executable>
rbdock ($Id: //depot/dev/client3/rdock/2013.1/src/exe/rbdock.cxx#4 $)

>  <Rbt.Library>
libRbt.so (2013.1, Build901 2013/11/27)

>  <Rbt.Parameter_File>
/export/apps/rDock/src/rDock_2013.1_src/data/scripts/dock_solv.prm

>  <Rbt.Receptor>
prm/pocket_docking_5.prm

>  <SCORE>
-20.841

>  <SCORE.INTER>
-17.2661

>  <SCORE.INTER.CONST>
1

>  <SCORE.INTER.POLAR>
0

>  <SCORE.INTER.ROT>
7

>  <SCORE.INTER.SOLV>
17.4864

>  <SCORE.INTER.VDW>
-25.6062

>  <SCORE.INTER.norm>
-0.66408

>  <SCORE.INTRA>
-3.57495

>  <SCORE.INTRA.DIHEDRAL>
-5.7586

>  <SCORE.INTRA.DIHEDRAL.0>
10.1225

>  <SCORE.INTRA.POLAR>
0

>  <SCORE.INTRA.POLAR.0>
0

>  <SCORE.INTRA.REPUL>
0

>  <SCORE.INTRA.REPUL.0>
0

>  <SCORE.INTRA.SOLV>
-0.545969

>  <SCORE.INTRA.SOLV.lig_0>
-49.9393

>  <SCORE.INTRA.VDW>
-0.422663

>  <SCORE.INTRA.VDW.0>
-1.75437

>  <SCORE.INTRA.norm>
-0.137498

>  <SCORE.RESTR>
0

>  <SCORE.RESTR.CAVITY>
0

>  <SCORE.RESTR.norm>
0

>  <SCORE.SYSTEM>
0

>  <SCORE.SYSTEM.CONST>
0

>  <SCORE.SYSTEM.DIHEDRAL>
0

>  <SCORE.SYSTEM.SOLV>
0

>  <SCORE.SYSTEM.norm>
0

>  <SCORE.heavy>
26

>  <SCORE.norm>
-0.801578

>  <RMSD>
8.448

$$$$
ligand
 OpenBabel11021811473D
libRbt.so/2013.1/901 2013/11/27
 26 28  0  0  0  0  0  0  0  0999 V2000
   -6.1795   15.5061  -21.3156 N   0  0  0  0  0  0  0  0  0  0  0  0
   -7.2183   16.3398  -20.6982 C   0  0  2  0  0  0  0  0  0  0  0  0
   -7.3828   15.9469  -19.2536 C   0  0  0  0  0  0  0  0  0  0  0  0
   -8.2946   16.4011  -18.6029 O   0  0  0  0  0  0  0  0  0  0  0  0
   -8.5417   16.1346  -21.4374 C   0  0  0  0  0  0  0  0  0  0  0  0
   -8.9154   14.6536  -21.4133 C   0  0  0  0  0  0  0  0  0  0  0  0
   -9.7456   13.9938  -20.0869 S   0  0  0  0  0  0  0  0  0  0  0  0
  -10.5751   12.4419  -19.6571 C   0  0  0  0  0  0  0  0  0  0  0  0
  -10.5049   11.3561  -20.7379 C   0  0  1  0  0  0  0  0  0  0  0  0
  -10.9260   10.0911  -20.2614 O   0  0  0  0  0  0  0  0  0  0  0  0
  -11.4588   11.6264  -21.8774 C   0  0  1  0  0  0  0  0  0  0  0  0
  -10.9207   10.9236  -22.9760 O   0  0  0  0  0  0  0  0  0  0  0  0
  -12.7526   10.9558  -21.4780 C   0  0  1  0  0  0  0  0  0  0  0  0
  -13.3294   10.3278  -22.6021 O   0  0  0  0  0  0  0  0  0  0  0  0
  -12.3111    9.9040  -20.4834 C   0  0  2  0  0  0  0  0  0  0  0  0
   -6.5149   15.0935  -18.6858 O   0  0  0  0  0  0  0  0  0  0  0  0
  -14.0581    7.2001  -16.3784 N   0  0  0  0  0  0  0  0  0  0  0  0
  -13.4892    6.7162  -17.5327 C   0  0  0  0  0  0  0  0  0  0  0  0
  -13.1000    7.5941  -18.5155 N   0  0  0  0  0  0  0  0  0  0  0  0
  -13.2685    8.9215  -18.3584 C   0  0  0  0  0  0  0  0  0  0  0  0
  -13.8374    9.4293  -17.2056 C   0  0  0  0  0  0  0  0  0  0  0  0
  -14.2376    8.5496  -16.2067 C   0  0  0  0  0  0  0  0  0  0  0  0
  -14.7920    8.9939  -15.0855 N   0  0  0  0  0  0  0  0  0  0  0  0
  -13.8852   10.7758  -17.3147 N   0  0  0  0  0  0  0  0  0  0  0  0
  -13.3546   11.1205  -18.5042 C   0  0  0  0  0  0  0  0  0  0  0  0
  -12.9768    9.9826  -19.1701 N   0  0  0  0  0  0  0  0  0  0  0  0
  2  1  1  6  0  0  0
  2  3  1  0  0  0  0
  2  5  1  0  0  0  0
  3  4  1  0  0  0  0
  3 16  1  0  0  0  0
  5  6  1  0  0  0  0
  6  7  1  0  0  0  0
  7  8  1  0  0  0  0
  9  8  1  1  0  0  0
  9 10  1  0  0  0  0
  9 11  1  0  0  0  0
 10 15  1  0  0  0  0
 11 12  1  6  0  0  0
 11 13  1  0  0  0  0
 13 14  1  6  0  0  0
 13 15  1  0  0  0  0
 15 26  1  1  0  0  0
 17 18  2  0  0  0  0
 17 22  1  0  0  0  0
 18 19  1  0  0  0  0
 19 20  2  0  0  0  0
 20 21  1  0  0  0  0
 20 26  1  0  0  0  0
 21 22  2  0  0  0  0
 21 24  1  0  0  0  0
 22 23  1  0  0  0  0
 24 25  2  0  0  0  0
 25 26  1  0  0  0  0
M  END
>  <CHROM.1>
-171.32704150,57.16609335,84.88885597,170.33088459,2.60665314,168.21785687
-93.39747280,-11.10908190,11.75977827,-19.54737418,0.21347146,-0.87136998
-1.66605564

>  <Name>
ligand

>  <RI>
0

>  <Rbt.Current_Directory>
/home/itssahil/PROJECTS/Mol_Feturizer/New_Systems/rnas/3E5E

>  <Rbt.Executable>
rbdock ($Id: //depot/dev/client3/rdock/2013.1/src/exe/rbdock.cxx#4 $)

>  <Rbt.Library>
libRbt.so (2013.1, Build901 2013/11/27)

>  <Rbt.Parameter_File>
/export/apps/rDock/src/rDock_2013.1_src/data/scripts/dock_solv.prm

>  <Rbt.Receptor>
prm/pocket_docking_4.prm

>  <SCORE>
-19.9285

>  <SCORE.INTER>
-18.9064

>  <SCORE.INTER.CONST>
1

>  <SCORE.INTER.POLAR>
0

>  <SCORE.INTER.ROT>
7

>  <SCORE.INTER.SOLV>
11.7974

>  <SCORE.INTER.VDW>
-24.8034

>  <SCORE.INTER.norm>
-0.727169

>  <SCORE.INTRA>
-1.02214

>  <SCORE.INTRA.DIHEDRAL>
-2.48271

>  <SCORE.INTRA.DIHEDRAL.0>
10.1225

>  <SCORE.INTRA.POLAR>
0

>  <SCORE.INTRA.POLAR.0>
0

>  <SCORE.INTRA.REPUL>
0

>  <SCORE.INTRA.REPUL.0>
0

>  <SCORE.INTRA.SOLV>
0.720276

>  <SCORE.INTRA.SOLV.lig_0>
-49.9393

>  <SCORE.INTRA.VDW>
-0.14092

>  <SCORE.INTRA.VDW.0>
-1.75437

>  <SCORE.INTRA.norm>
-0.039313

>  <SCORE.RESTR>
0

>  <SCORE.RESTR.CAVITY>
0

>  <SCORE.RESTR.norm>
0

>  <SCORE.SYSTEM>
0

>  <SCORE.SYSTEM.CONST>
0

>  <SCORE.SYSTEM.DIHEDRAL>
0

>  <SCORE.SYSTEM.SOLV>
0

>  <SCORE.SYSTEM.norm>
0

>  <SCORE.heavy>
26

>  <SCORE.norm>
-0.766482

>  <RMSD>
8.454

$$$$
ligand
 OpenBabel11021811473D
libRbt.so/2013.1/901 2013/11/27
 26 28  0  0  0  0  0  0  0  0999 V2000
   -6.1097   15.6419  -20.9587 N   0  0  0  0  0  0  0  0  0  0  0  0
   -7.4938   15.2032  -21.1761 C   0  0  2  0  0  0  0  0  0  0  0  0
   -7.8658   15.4162  -22.6199 C   0  0  0  0  0  0  0  0  0  0  0  0
   -7.9885   14.4680  -23.3594 O   0  0  0  0  0  0  0  0  0  0  0  0
   -8.4316   16.0156  -20.2816 C   0  0  0  0  0  0  0  0  0  0  0  0
   -8.4467   15.4134  -18.8778 C   0  0  0  0  0  0  0  0  0  0  0  0
   -9.0979   13.8684  -18.6077 S   0  0  0  0  0  0  0  0  0  0  0  0
  -10.3683   12.7998  -19.3324 C   0  0  0  0  0  0  0  0  0  0  0  0
  -10.4214   12.8146  -20.8649 C   0  0  1  0  0  0  0  0  0  0  0  0
  -11.1394   11.7137  -21.3915 O   0  0  0  0  0  0  0  0  0  0  0  0
  -11.1846   14.0051  -21.3955 C   0  0  1  0  0  0  0  0  0  0  0  0
  -10.7010   14.1912  -22.7077 O   0  0  0  0  0  0  0  0  0  0  0  0
  -12.6216   13.5465  -21.4842 C   0  0  1  0  0  0  0  0  0  0  0  0
  -13.2054   14.0390  -22.6705 O   0  0  0  0  0  0  0  0  0  0  0  0
  -12.5054   12.0398  -21.5668 C   0  0  2  0  0  0  0  0  0  0  0  0
   -8.0590   16.6602  -23.0881 O   0  0  0  0  0  0  0  0  0  0  0  0
  -16.1143    8.3822  -20.6659 N   0  0  0  0  0  0  0  0  0  0  0  0
  -15.6754    8.8601  -21.8779 C   0  0  0  0  0  0  0  0  0  0  0  0
  -14.7170    9.8441  -21.9111 N   0  0  0  0  0  0  0  0  0  0  0  0
  -14.2030   10.3427  -20.7698 C   0  0  0  0  0  0  0  0  0  0  0  0
  -14.6293    9.8759  -19.5407 C   0  0  0  0  0  0  0  0  0  0  0  0
  -15.6009    8.8829  -19.4960 C   0  0  0  0  0  0  0  0  0  0  0  0
  -16.0419    8.4088  -18.3374 N   0  0  0  0  0  0  0  0  0  0  0  0
  -13.9556   10.5434  -18.5774 N   0  0  0  0  0  0  0  0  0  0  0  0
  -13.1155   11.4104  -19.1756 C   0  0  0  0  0  0  0  0  0  0  0  0
  -13.2632   11.3079  -20.5353 N   0  0  0  0  0  0  0  0  0  0  0  0
  2  1  1  6  0  0  0
  2  3  1  0  0  0  0
  2  5  1  0  0  0  0
  3  4  1  0  0  0  0
  3 16  1  0  0  0  0
  5  6  1  0  0  0  0
  6  7  1  0  0  0  0
  7  8  1  0  0  0  0
  9  8  1  1  0  0  0
  9 10  1  0  0  0  0
  9 11  1  0  0  0  0
 10 15  1  0  0  0  0
 11 12  1  6  0  0  0
 11 13  1  0  0  0  0
 13 14  1  6  0  0  0
 13 15  1  0  0  0  0
 15 26  1  1  0  0  0
 17 18  2  0  0  0  0
 17 22  1  0  0  0  0
 18 19  1  0  0  0  0
 19 20  2  0  0  0  0
 20 21  1  0  0  0  0
 20 26  1  0  0  0  0
 21 22  2  0  0  0  0
 21 24  1  0  0  0  0
 22 23  1  0  0  0  0
 24 25  2  0  0  0  0
 25 26  1  0  0  0  0
M  END
>  <CHROM.1>
108.14193674,-82.23017427,-66.39686302,-28.84426544,40.21444020,163.15258562
-116.79302265,-11.44202037,12.67848570,-20.76128871,-0.30069592,0.64457167
1.85731916

>  <Name>
ligand

>  <RI>
0

>  <Rbt.Current_Directory>
/home/itssahil/PROJECTS/Mol_Feturizer/New_Systems/rnas/3E5E

>  <Rbt.Executable>
rbdock ($Id: //depot/dev/client3/rdock/2013.1/src/exe/rbdock.cxx#4 $)

>  <Rbt.Library>
libRbt.so (2013.1, Build901 2013/11/27)

>  <Rbt.Parameter_File>
/export/apps/rDock/src/rDock_2013.1_src/data/scripts/dock_solv.prm

>  <Rbt.Receptor>
prm/pocket_docking_8.prm

>  <SCORE>
-19.6441

>  <SCORE.INTER>
-16.7031

>  <SCORE.INTER.CONST>
1

>  <SCORE.INTER.POLAR>
0

>  <SCORE.INTER.ROT>
7

>  <SCORE.INTER.SOLV>
11.6366

>  <SCORE.INTER.VDW>
-23.2809

>  <SCORE.INTER.norm>
-0.642428

>  <SCORE.INTRA>
-2.94096

>  <SCORE.INTRA.DIHEDRAL>
-2.73144

>  <SCORE.INTRA.DIHEDRAL.0>
10.1225

>  <SCORE.INTRA.POLAR>
0

>  <SCORE.INTRA.POLAR.0>
0

>  <SCORE.INTRA.REPUL>
0

>  <SCORE.INTRA.REPUL.0>
0

>  <SCORE.INTRA.SOLV>
0.798638

>  <SCORE.INTRA.SOLV.lig_0>
-49.9393

>  <SCORE.INTRA.VDW>
-1.97456

>  <SCORE.INTRA.VDW.0>
-1.75437

>  <SCORE.INTRA.norm>
-0.113114

>  <SCORE.RESTR>
0

>  <SCORE.RESTR.CAVITY>
0

>  <SCORE.RESTR.norm>
0

>  <SCORE.SYSTEM>
0

>  <SCORE.SYSTEM.CONST>
0

>  <SCORE.SYSTEM.DIHEDRAL>
0

>  <SCORE.SYSTEM.SOLV>
0

>  <SCORE.SYSTEM.norm>
0

>  <SCORE.heavy>
26

>  <SCORE.norm>
-0.755541

>  <RMSD>
8.456

$$$$
ligand
 OpenBabel11021811473D
libRbt.so/2013.1/901 2013/11/27
 26 28  0  0  0  0  0  0  0  0999 V2000
   -6.6890   17.7664  -21.8733 N   0  0  0  0  0  0  0  0  0  0  0  0
   -7.5612   16.6364  -22.2167 C   0  0  2  0  0  0  0  0  0  0  0  0
   -8.6132   17.0942  -23.1925 C   0  0  0  0  0  0  0  0  0  0  0  0
   -9.0832   18.2039  -23.0992 O   0  0  0  0  0  0  0  0  0  0  0  0
   -8.2351   16.1099  -20.9485 C   0  0  0  0  0  0  0  0  0  0  0  0
   -8.9707   14.8088  -21.2640 C   0  0  0  0  0  0  0  0  0  0  0  0
   -9.8863   14.0226  -20.0692 S   0  0  0  0  0  0  0  0  0  0  0  0
  -10.5628   12.3702  -19.7644 C   0  0  0  0  0  0  0  0  0  0  0  0
  -12.0913   12.3127  -19.6554 C   0  0  1  0  0  0  0  0  0  0  0  0
  -12.7339   12.7048  -20.8547 O   0  0  0  0  0  0  0  0  0  0  0  0
  -12.5932   10.9038  -19.4443 C   0  0  1  0  0  0  0  0  0  0  0  0
  -13.8561   11.0557  -18.8339 O   0  0  0  0  0  0  0  0  0  0  0  0
  -12.8057   10.3470  -20.8328 C   0  0  1  0  0  0  0  0  0  0  0  0
  -13.9937    9.5865  -20.8634 O   0  0  0  0  0  0  0  0  0  0  0  0
  -12.9773   11.5854  -21.6858 C   0  0  2  0  0  0  0  0  0  0  0  0
   -9.0322   16.2690  -24.1658 O   0  0  0  0  0  0  0  0  0  0  0  0
  -10.1223    8.9138  -25.1392 N   0  0  0  0  0  0  0  0  0  0  0  0
  -10.8859    8.4205  -24.1078 C   0  0  0  0  0  0  0  0  0  0  0  0
  -11.5625    9.2922  -23.2890 N   0  0  0  0  0  0  0  0  0  0  0  0
  -11.4863   10.6226  -23.4878 C   0  0  0  0  0  0  0  0  0  0  0  0
  -10.7252   11.1397  -24.5192 C   0  0  0  0  0  0  0  0  0  0  0  0
  -10.0342   10.2667  -25.3512 C   0  0  0  0  0  0  0  0  0  0  0  0
   -9.2885   10.7204  -26.3510 N   0  0  0  0  0  0  0  0  0  0  0  0
  -10.8270   12.4873  -24.4860 N   0  0  0  0  0  0  0  0  0  0  0  0
  -11.6375   12.8228  -23.4635 C   0  0  0  0  0  0  0  0  0  0  0  0
  -12.0472   11.6796  -22.8259 N   0  0  0  0  0  0  0  0  0  0  0  0
  2  1  1  1  0  0  0
  2  3  1  0  0  0  0
  2  5  1  0  0  0  0
  3  4  1  0  0  0  0
  3 16  1  0  0  0  0
  5  6  1  0  0  0  0
  6  7  1  0  0  0  0
  7  8  1  0  0  0  0
  9  8  1  6  0  0  0
  9 10  1  0  0  0  0
  9 11  1  0  0  0  0
 10 15  1  0  0  0  0
 11 12  1  1  0  0  0
 11 13  1  0  0  0  0
 13 14  1  1  0  0  0
 13 15  1  0  0  0  0
 15 26  1  6  0  0  0
 17 18  2  0  0  0  0
 17 22  1  0  0  0  0
 18 19  1  0  0  0  0
 19 20  2  0  0  0  0
 20 21  1  0  0  0  0
 20 26  1  0  0  0  0
 21 22  2  0  0  0  0
 21 24  1  0  0  0  0
 22 23  1  0  0  0  0
 24 25  2  0  0  0  0
 25 26  1  0  0  0  0
M  END
>  <CHROM.1>
-36.04278944,-171.36147790,-176.84212524,-160.68555980,-118.90087923,62.67053868
147.29734295,-10.68445449,12.74560139,-22.21223433,-0.59820286,-0.91336079
-2.28778629

>  <Name>
ligand

>  <RI>
0

>  <Rbt.Current_Directory>
/home/itssahil/PROJECTS/Mol_Feturizer/New_Systems/rnas/3E5E

>  <Rbt.Executable>
rbdock ($Id: //depot/dev/client3/rdock/2013.1/src/exe/rbdock.cxx#4 $)

>  <Rbt.Library>
libRbt.so (2013.1, Build901 2013/11/27)

>  <Rbt.Parameter_File>
/export/apps/rDock/src/rDock_2013.1_src/data/scripts/dock_solv.prm

>  <Rbt.Receptor>
prm/pocket_docking_5.prm

>  <SCORE>
-17.8751

>  <SCORE.INTER>
-14.6577

>  <SCORE.INTER.CONST>
1

>  <SCORE.INTER.POLAR>
0

>  <SCORE.INTER.ROT>
7

>  <SCORE.INTER.SOLV>
9.19252

>  <SCORE.INTER.VDW>
-21.1027

>  <SCORE.INTER.norm>
-0.563758

>  <SCORE.INTRA>
-3.21742

>  <SCORE.INTRA.DIHEDRAL>
-4.22604

>  <SCORE.INTRA.DIHEDRAL.0>
10.1225

>  <SCORE.INTRA.POLAR>
0

>  <SCORE.INTRA.POLAR.0>
0

>  <SCORE.INTRA.REPUL>
0

>  <SCORE.INTRA.REPUL.0>
0

>  <SCORE.INTRA.SOLV>
-0.538323

>  <SCORE.INTRA.SOLV.lig_0>
-49.9393

>  <SCORE.INTRA.VDW>
-0.835242

>  <SCORE.INTRA.VDW.0>
-1.75437

>  <SCORE.INTRA.norm>
-0.123747

>  <SCORE.RESTR>
0

>  <SCORE.RESTR.CAVITY>
0

>  <SCORE.RESTR.norm>
0

>  <SCORE.SYSTEM>
0

>  <SCORE.SYSTEM.CONST>
0

>  <SCORE.SYSTEM.DIHEDRAL>
0

>  <SCORE.SYSTEM.SOLV>
0

>  <SCORE.SYSTEM.norm>
0

>  <SCORE.heavy>
26

>  <SCORE.norm>
-0.687505

>  <RMSD>
8.457

$$$$
ligand
 OpenBabel11021811473D
libRbt.so/2013.1/901 2013/11/27
 26 28  0  0  0  0  0  0  0  0999 V2000
   -9.1846    9.4928  -26.8159 N   0  0  0  0  0  0  0  0  0  0  0  0
   -9.7775   10.8340  -26.7432 C   0  0  2  0  0  0  0  0  0  0  0  0
   -8.8528   11.8265  -27.3973 C   0  0  0  0  0  0  0  0  0  0  0  0
   -7.6554   11.6969  -27.2947 O   0  0  0  0  0  0  0  0  0  0  0  0
   -9.9866   11.2192  -25.2777 C   0  0  0  0  0  0  0  0  0  0  0  0
  -10.7589   12.5350  -25.2012 C   0  0  0  0  0  0  0  0  0  0  0  0
  -11.1419   13.2255  -23.6977 S   0  0  0  0  0  0  0  0  0  0  0  0
  -11.9950   12.7419  -22.1747 C   0  0  0  0  0  0  0  0  0  0  0  0
  -11.7415   13.6648  -20.9765 C   0  0  1  0  0  0  0  0  0  0  0  0
  -12.4656   13.2684  -19.8261 O   0  0  0  0  0  0  0  0  0  0  0  0
  -10.3055   13.6103  -20.5113 C   0  0  1  0  0  0  0  0  0  0  0  0
  -10.0954   14.8318  -19.8373 O   0  0  0  0  0  0  0  0  0  0  0  0
  -10.2619   12.4965  -19.4911 C   0  0  1  0  0  0  0  0  0  0  0  0
   -9.4415   12.8760  -18.4078 O   0  0  0  0  0  0  0  0  0  0  0  0
  -11.6976   12.3909  -19.0242 C   0  0  2  0  0  0  0  0  0  0  0  0
   -9.3575   12.8585  -28.0933 O   0  0  0  0  0  0  0  0  0  0  0  0
  -14.5313    8.6862  -16.6877 N   0  0  0  0  0  0  0  0  0  0  0  0
  -14.1116    9.8875  -16.1673 C   0  0  0  0  0  0  0  0  0  0  0  0
  -13.3547   10.7335  -16.9415 N   0  0  0  0  0  0  0  0  0  0  0  0
  -13.0222   10.3987  -18.2034 C   0  0  0  0  0  0  0  0  0  0  0  0
  -13.4344    9.1964  -18.7466 C   0  0  0  0  0  0  0  0  0  0  0  0
  -14.1976    8.3319  -17.9707 C   0  0  0  0  0  0  0  0  0  0  0  0
  -14.6111    7.1657  -18.4511 N   0  0  0  0  0  0  0  0  0  0  0  0
  -12.9641    9.1200  -20.0116 N   0  0  0  0  0  0  0  0  0  0  0  0
  -12.2743   10.2474  -20.2727 C   0  0  0  0  0  0  0  0  0  0  0  0
  -12.2900   11.0475  -19.1589 N   0  0  0  0  0  0  0  0  0  0  0  0
  2  1  1  1  0  0  0
  2  3  1  0  0  0  0
  2  5  1  0  0  0  0
  3  4  1  0  0  0  0
  3 16  1  0  0  0  0
  5  6  1  0  0  0  0
  6  7  1  0  0  0  0
  7  8  1  0  0  0  0
  9  8  1  6  0  0  0
  9 10  1  0  0  0  0
  9 11  1  0  0  0  0
 10 15  1  0  0  0  0
 11 12  1  1  0  0  0
 11 13  1  0  0  0  0
 13 14  1  1  0  0  0
 13 15  1  0  0  0  0
 15 26  1  6  0  0  0
 17 18  2  0  0  0  0
 17 22  1  0  0  0  0
 18 19  1  0  0  0  0
 19 20  2  0  0  0  0
 20 21  1  0  0  0  0
 20 26  1  0  0  0  0
 21 22  2  0  0  0  0
 21 24  1  0  0  0  0
 22 23  1  0  0  0  0
 24 25  2  0  0  0  0
 25 26  1  0  0  0  0
M  END
>  <CHROM.1>
-36.01432195,-173.04976444,-179.82911601,-55.47516299,165.20802865,178.01203479
-107.03610583,-11.42980779,11.48747308,-21.48455567,0.63030857,-1.04207624
-2.21400197

>  <Name>
ligand

>  <RI>
0

>  <Rbt.Current_Directory>
/home/itssahil/PROJECTS/Mol_Feturizer/New_Systems/rnas/3E5E

>  <Rbt.Executable>
rbdock ($Id: //depot/dev/client3/rdock/2013.1/src/exe/rbdock.cxx#4 $)

>  <Rbt.Library>
libRbt.so (2013.1, Build901 2013/11/27)

>  <Rbt.Parameter_File>
/export/apps/rDock/src/rDock_2013.1_src/data/scripts/dock_solv.prm

>  <Rbt.Receptor>
prm/pocket_docking_7.prm

>  <SCORE>
-17.6457

>  <SCORE.INTER>
-13.5558

>  <SCORE.INTER.CONST>
1

>  <SCORE.INTER.POLAR>
0

>  <SCORE.INTER.ROT>
7

>  <SCORE.INTER.SOLV>
9.10711

>  <SCORE.INTER.VDW>
-20.3396

>  <SCORE.INTER.norm>
-0.521377

>  <SCORE.INTRA>
-4.08996

>  <SCORE.INTRA.DIHEDRAL>
-6.92193

>  <SCORE.INTRA.DIHEDRAL.0>
10.1225

>  <SCORE.INTRA.POLAR>
0

>  <SCORE.INTRA.POLAR.0>
0

>  <SCORE.INTRA.REPUL>
0

>  <SCORE.INTRA.REPUL.0>
0

>  <SCORE.INTRA.SOLV>
-0.65909

>  <SCORE.INTRA.SOLV.lig_0>
-49.9393

>  <SCORE.INTRA.VDW>
-0.299447

>  <SCORE.INTRA.VDW.0>
-1.75437

>  <SCORE.INTRA.norm>
-0.157306

>  <SCORE.RESTR>
0

>  <SCORE.RESTR.CAVITY>
0

>  <SCORE.RESTR.norm>
0

>  <SCORE.SYSTEM>
0

>  <SCORE.SYSTEM.CONST>
0

>  <SCORE.SYSTEM.DIHEDRAL>
0

>  <SCORE.SYSTEM.SOLV>
0

>  <SCORE.SYSTEM.norm>
0

>  <SCORE.heavy>
26

>  <SCORE.norm>
-0.678683

>  <RMSD>
8.461

$$$$
ligand
 OpenBabel11021811473D
libRbt.so/2013.1/901 2013/11/27
 26 28  0  0  0  0  0  0  0  0999 V2000
   -5.8087   15.5044  -21.8331 N   0  0  0  0  0  0  0  0  0  0  0  0
   -7.0935   15.7083  -21.1525 C   0  0  2  0  0  0  0  0  0  0  0  0
   -7.7868   16.9090  -21.7405 C   0  0  0  0  0  0  0  0  0  0  0  0
   -7.2140   17.9721  -21.7951 O   0  0  0  0  0  0  0  0  0  0  0  0
   -6.8479   15.9398  -19.6605 C   0  0  0  0  0  0  0  0  0  0  0  0
   -8.1726   15.8485  -18.9052 C   0  0  0  0  0  0  0  0  0  0  0  0
   -9.0337   14.3860  -18.8453 S   0  0  0  0  0  0  0  0  0  0  0  0
  -10.0910   13.4030  -19.9394 C   0  0  0  0  0  0  0  0  0  0  0  0
   -9.6105   13.3222  -21.3935 C   0  0  1  0  0  0  0  0  0  0  0  0
   -9.7276   12.0170  -21.9297 O   0  0  0  0  0  0  0  0  0  0  0  0
  -10.4671   14.1505  -22.3217 C   0  0  1  0  0  0  0  0  0  0  0  0
   -9.6397   14.4256  -23.4309 O   0  0  0  0  0  0  0  0  0  0  0  0
  -11.5699   13.2229  -22.7759 C   0  0  1  0  0  0  0  0  0  0  0  0
  -11.8262   13.4254  -24.1485 O   0  0  0  0  0  0  0  0  0  0  0  0
  -10.9774   11.8454  -22.5711 C   0  0  2  0  0  0  0  0  0  0  0  0
   -9.0433   16.8007  -22.2025 O   0  0  0  0  0  0  0  0  0  0  0  0
  -15.3062    8.9503  -22.2647 N   0  0  0  0  0  0  0  0  0  0  0  0
  -14.8931    9.7508  -23.3033 C   0  0  0  0  0  0  0  0  0  0  0  0
  -13.7173   10.4528  -23.1911 N   0  0  0  0  0  0  0  0  0  0  0  0
  -12.9661   10.3631  -22.0762 C   0  0  0  0  0  0  0  0  0  0  0  0
  -13.3624    9.5635  -21.0206 C   0  0  0  0  0  0  0  0  0  0  0  0
  -14.5519    8.8518  -21.1227 C   0  0  0  0  0  0  0  0  0  0  0  0
  -14.9719    8.0755  -20.1315 N   0  0  0  0  0  0  0  0  0  0  0  0
  -12.4330    9.6608  -20.0438 N   0  0  0  0  0  0  0  0  0  0  0  0
  -11.4642   10.4961  -20.4666 C   0  0  0  0  0  0  0  0  0  0  0  0
  -11.7835   10.9503  -21.7208 N   0  0  0  0  0  0  0  0  0  0  0  0
  2  1  1  6  0  0  0
  2  3  1  0  0  0  0
  2  5  1  0  0  0  0
  3  4  1  0  0  0  0
  3 16  1  0  0  0  0
  5  6  1  0  0  0  0
  6  7  1  0  0  0  0
  7  8  1  0  0  0  0
  9  8  1  1  0  0  0
  9 10  1  0  0  0  0
  9 11  1  0  0  0  0
 10 15  1  0  0  0  0
 11 12  1  6  0  0  0
 11 13  1  0  0  0  0
 13 14  1  6  0  0  0
 13 15  1  0  0  0  0
 15 26  1  1  0  0  0
 17 18  2  0  0  0  0
 17 22  1  0  0  0  0
 18 19  1  0  0  0  0
 19 20  2  0  0  0  0
 20 21  1  0  0  0  0
 20 26  1  0  0  0  0
 21 22  2  0  0  0  0
 21 24  1  0  0  0  0
 22 23  1  0  0  0  0
 24 25  2  0  0  0  0
 25 26  1  0  0  0  0
M  END
>  <CHROM.1>
-53.99172704,-167.74904446,64.66584190,-76.21865828,41.30400350,137.35704079
-168.93587958,-10.62034502,12.94972772,-21.42968994,0.23584068,-0.78751361
-1.12961390

>  <Name>
ligand

>  <RI>
0

>  <Rbt.Current_Directory>
/home/itssahil/PROJECTS/Mol_Feturizer/New_Systems/rnas/3E5E

>  <Rbt.Executable>
rbdock ($Id: //depot/dev/client3/rdock/2013.1/src/exe/rbdock.cxx#4 $)

>  <Rbt.Library>
libRbt.so (2013.1, Build901 2013/11/27)

>  <Rbt.Parameter_File>
/export/apps/rDock/src/rDock_2013.1_src/data/scripts/dock_solv.prm

>  <Rbt.Receptor>
prm/pocket_docking_5.prm

>  <SCORE>
-23.081

>  <SCORE.INTER>
-20.5412

>  <SCORE.INTER.CONST>
1

>  <SCORE.INTER.POLAR>
0

>  <SCORE.INTER.ROT>
7

>  <SCORE.INTER.SOLV>
9.92554

>  <SCORE.INTER.VDW>
-25.2693

>  <SCORE.INTER.norm>
-0.790046

>  <SCORE.INTRA>
-2.5398

>  <SCORE.INTRA.DIHEDRAL>
-1.61526

>  <SCORE.INTRA.DIHEDRAL.0>
10.1225

>  <SCORE.INTRA.POLAR>
0

>  <SCORE.INTRA.POLAR.0>
0

>  <SCORE.INTRA.REPUL>
0

>  <SCORE.INTRA.REPUL.0>
0

>  <SCORE.INTRA.SOLV>
0.0463523

>  <SCORE.INTRA.SOLV.lig_0>
-49.9393

>  <SCORE.INTRA.VDW>
-1.75535

>  <SCORE.INTRA.VDW.0>
-1.75437

>  <SCORE.INTRA.norm>
-0.0976846

>  <SCORE.RESTR>
0

>  <SCORE.RESTR.CAVITY>
0

>  <SCORE.RESTR.norm>
0

>  <SCORE.SYSTEM>
0

>  <SCORE.SYSTEM.CONST>
0

>  <SCORE.SYSTEM.DIHEDRAL>
0

>  <SCORE.SYSTEM.SOLV>
0

>  <SCORE.SYSTEM.norm>
0

>  <SCORE.heavy>
26

>  <SCORE.norm>
-0.887731

>  <RMSD>
8.465

$$$$
ligand
 OpenBabel11021811473D
libRbt.so/2013.1/901 2013/11/27
 26 28  0  0  0  0  0  0  0  0999 V2000
   -4.6152   15.9298  -21.8267 N   0  0  0  0  0  0  0  0  0  0  0  0
   -5.6601   16.9067  -22.1576 C   0  0  2  0  0  0  0  0  0  0  0  0
   -5.0491   18.2796  -22.2565 C   0  0  0  0  0  0  0  0  0  0  0  0
   -4.1865   18.6155  -21.4792 O   0  0  0  0  0  0  0  0  0  0  0  0
   -6.7280   16.9003  -21.0625 C   0  0  0  0  0  0  0  0  0  0  0  0
   -7.4433   15.5505  -21.0550 C   0  0  0  0  0  0  0  0  0  0  0  0
   -8.5236   15.1523  -19.8066 S   0  0  0  0  0  0  0  0  0  0  0  0
   -9.5871   13.7616  -19.3420 C   0  0  0  0  0  0  0  0  0  0  0  0
  -11.0297   13.8583  -19.8532 C   0  0  1  0  0  0  0  0  0  0  0  0
  -11.0942   14.1079  -21.2455 O   0  0  0  0  0  0  0  0  0  0  0  0
  -11.7734   12.5520  -19.7059 C   0  0  1  0  0  0  0  0  0  0  0  0
  -13.1374   12.9116  -19.6780 O   0  0  0  0  0  0  0  0  0  0  0  0
  -11.5112   11.8002  -20.9901 C   0  0  1  0  0  0  0  0  0  0  0  0
  -12.6920   11.1532  -21.4118 O   0  0  0  0  0  0  0  0  0  0  0  0
  -11.1575   12.8955  -21.9728 C   0  0  2  0  0  0  0  0  0  0  0  0
   -5.4637   19.1334  -23.2068 O   0  0  0  0  0  0  0  0  0  0  0  0
   -7.3401   15.2578  -24.6301 N   0  0  0  0  0  0  0  0  0  0  0  0
   -8.5206   15.7996  -24.1795 C   0  0  0  0  0  0  0  0  0  0  0  0
   -9.4150   15.0062  -23.5023 N   0  0  0  0  0  0  0  0  0  0  0  0
   -9.1461   13.7058  -23.2746 C   0  0  0  0  0  0  0  0  0  0  0  0
   -7.9650   13.1411  -23.7181 C   0  0  0  0  0  0  0  0  0  0  0  0
   -7.0549   13.9342  -24.4070 C   0  0  0  0  0  0  0  0  0  0  0  0
   -5.9106   13.4319  -24.8540 N   0  0  0  0  0  0  0  0  0  0  0  0
   -7.9570   11.8383  -23.3575 N   0  0  0  0  0  0  0  0  0  0  0  0
   -9.1010   11.5783  -22.6950 C   0  0  0  0  0  0  0  0  0  0  0  0
   -9.8560   12.7221  -22.6436 N   0  0  0  0  0  0  0  0  0  0  0  0
  2  1  1  1  0  0  0
  2  3  1  0  0  0  0
  2  5  1  0  0  0  0
  3  4  1  0  0  0  0
  3 16  1  0  0  0  0
  5  6  1  0  0  0  0
  6  7  1  0  0  0  0
  7  8  1  0  0  0  0
  9  8  1  6  0  0  0
  9 10  1  0  0  0  0
  9 11  1  0  0  0  0
 10 15  1  0  0  0  0
 11 12  1  6  0  0  0
 11 13  1  0  0  0  0
 13 14  1  6  0  0  0
 13 15  1  0  0  0  0
 15 26  1  1  0  0  0
 17 18  2  0  0  0  0
 17 22  1  0  0  0  0
 18 19  1  0  0  0  0
 19 20  2  0  0  0  0
 20 21  1  0  0  0  0
 20 26  1  0  0  0  0
 21 22  2  0  0  0  0
 21 24  1  0  0  0  0
 22 23  1  0  0  0  0
 24 25  2  0  0  0  0
 25 26  1  0  0  0  0
M  END
>  <CHROM.1>
-39.00260000,-65.62070151,170.96587217,179.72013346,-92.64076274,51.68133637
-42.22470602,-8.55636285,14.52431654,-21.93335922,0.20608512,0.66733751,0.91845117

>  <Name>
ligand

>  <RI>
0

>  <Rbt.Current_Directory>
/home/itssahil/PROJECTS/Mol_Feturizer/New_Systems/rnas/3E5E

>  <Rbt.Executable>
rbdock ($Id: //depot/dev/client3/rdock/2013.1/src/exe/rbdock.cxx#4 $)

>  <Rbt.Library>
libRbt.so (2013.1, Build901 2013/11/27)

>  <Rbt.Parameter_File>
/export/apps/rDock/src/rDock_2013.1_src/data/scripts/dock_solv.prm

>  <Rbt.Receptor>
prm/blind_docking_60.prm

>  <SCORE>
-17.3196

>  <SCORE.INTER>
-12.3542

>  <SCORE.INTER.CONST>
1

>  <SCORE.INTER.POLAR>
0

>  <SCORE.INTER.ROT>
7

>  <SCORE.INTER.SOLV>
8.8318

>  <SCORE.INTER.VDW>
-19.4467

>  <SCORE.INTER.norm>
-0.47516

>  <SCORE.INTRA>
-4.96545

>  <SCORE.INTRA.DIHEDRAL>
-5.3287

>  <SCORE.INTRA.DIHEDRAL.0>
10.1225

>  <SCORE.INTRA.POLAR>
0

>  <SCORE.INTRA.POLAR.0>
0

>  <SCORE.INTRA.REPUL>
0

>  <SCORE.INTRA.REPUL.0>
0

>  <SCORE.INTRA.SOLV>
1.11033

>  <SCORE.INTRA.SOLV.lig_0>
-49.9393

>  <SCORE.INTRA.VDW>
-2.85626

>  <SCORE.INTRA.VDW.0>
-1.75437

>  <SCORE.INTRA.norm>
-0.190979

>  <SCORE.RESTR>
0

>  <SCORE.RESTR.CAVITY>
0

>  <SCORE.RESTR.norm>
0

>  <SCORE.SYSTEM>
0

>  <SCORE.SYSTEM.CONST>
0

>  <SCORE.SYSTEM.DIHEDRAL>
0

>  <SCORE.SYSTEM.SOLV>
0

>  <SCORE.SYSTEM.norm>
0

>  <SCORE.heavy>
26

>  <SCORE.norm>
-0.666139

>  <RMSD>
8.477

$$$$
ligand
 OpenBabel11021811473D
libRbt.so/2013.1/901 2013/11/27
 26 28  0  0  0  0  0  0  0  0999 V2000
   -5.1452   14.4043  -23.6249 N   0  0  0  0  0  0  0  0  0  0  0  0
   -6.2992   13.6271  -23.1561 C   0  0  2  0  0  0  0  0  0  0  0  0
   -6.1779   12.2071  -23.6429 C   0  0  0  0  0  0  0  0  0  0  0  0
   -6.6430   11.3019  -22.9907 O   0  0  0  0  0  0  0  0  0  0  0  0
   -7.5863   14.2467  -23.7031 C   0  0  0  0  0  0  0  0  0  0  0  0
   -8.7930   13.5861  -23.0391 C   0  0  0  0  0  0  0  0  0  0  0  0
  -10.3663   13.9071  -23.5921 S   0  0  0  0  0  0  0  0  0  0  0  0
  -11.9757   13.0763  -23.6234 C   0  0  0  0  0  0  0  0  0  0  0  0
  -12.6061   12.8466  -22.2445 C   0  0  1  0  0  0  0  0  0  0  0  0
  -13.3028   11.6164  -22.1668 O   0  0  0  0  0  0  0  0  0  0  0  0
  -11.5648   12.7183  -21.1579 C   0  0  1  0  0  0  0  0  0  0  0  0
  -12.2383   13.0620  -19.9668 O   0  0  0  0  0  0  0  0  0  0  0  0
  -11.2310   11.2457  -21.1016 C   0  0  1  0  0  0  0  0  0  0  0  0
  -11.0880   10.8418  -19.7573 O   0  0  0  0  0  0  0  0  0  0  0  0
  -12.4540   10.5848  -21.6997 C   0  0  2  0  0  0  0  0  0  0  0  0
   -5.5505   11.9446  -24.8011 O   0  0  0  0  0  0  0  0  0  0  0  0
   -9.2084    9.5580  -25.6526 N   0  0  0  0  0  0  0  0  0  0  0  0
   -9.1476   10.5960  -24.7533 C   0  0  0  0  0  0  0  0  0  0  0  0
  -10.1115   10.7064  -23.7803 N   0  0  0  0  0  0  0  0  0  0  0  0
  -11.1123    9.8081  -23.6982 C   0  0  0  0  0  0  0  0  0  0  0  0
  -11.1918    8.7564  -24.5916 C   0  0  0  0  0  0  0  0  0  0  0  0
  -10.2237    8.6376  -25.5818 C   0  0  0  0  0  0  0  0  0  0  0  0
  -10.2640    7.6455  -26.4626 N   0  0  0  0  0  0  0  0  0  0  0  0
  -12.2819    8.0193  -24.2819 N   0  0  0  0  0  0  0  0  0  0  0  0
  -12.8803    8.5818  -23.2139 C   0  0  0  0  0  0  0  0  0  0  0  0
  -12.1752    9.6989  -22.8449 N   0  0  0  0  0  0  0  0  0  0  0  0
  2  1  1  6  0  0  0
  2  3  1  0  0  0  0
  2  5  1  0  0  0  0
  3  4  1  0  0  0  0
  3 16  1  0  0  0  0
  5  6  1  0  0  0  0
  6  7  1  0  0  0  0
  7  8  1  0  0  0  0
  9  8  1  6  0  0  0
  9 10  1  0  0  0  0
  9 11  1  0  0  0  0
 10 15  1  0  0  0  0
 11 12  1  1  0  0  0
 11 13  1  0  0  0  0
 13 14  1  1  0  0  0
 13 15  1  0  0  0  0
 15 26  1  6  0  0  0
 17 18  2  0  0  0  0
 17 22  1  0  0  0  0
 18 19  1  0  0  0  0
 19 20  2  0  0  0  0
 20 21  1  0  0  0  0
 20 26  1  0  0  0  0
 21 22  2  0  0  0  0
 21 24  1  0  0  0  0
 22 23  1  0  0  0  0
 24 25  2  0  0  0  0
 25 26  1  0  0  0  0
M  END
>  <CHROM.1>
149.67237693,-170.83675525,-171.49617220,153.22464312,65.68253120,-143.51500642
92.20120592,-10.05685736,11.45342333,-23.24141595,0.29836737,0.42300513,0.61400884

>  <Name>
ligand

>  <RI>
0

>  <Rbt.Current_Directory>
/home/itssahil/PROJECTS/Mol_Feturizer/New_Systems/rnas/3E5E

>  <Rbt.Executable>
rbdock ($Id: //depot/dev/client3/rdock/2013.1/src/exe/rbdock.cxx#4 $)

>  <Rbt.Library>
libRbt.so (2013.1, Build901 2013/11/27)

>  <Rbt.Parameter_File>
/export/apps/rDock/src/rDock_2013.1_src/data/scripts/dock_solv.prm

>  <Rbt.Receptor>
prm/pocket_docking_8.prm

>  <SCORE>
-16.0998

>  <SCORE.INTER>
-13.1244

>  <SCORE.INTER.CONST>
1

>  <SCORE.INTER.POLAR>
0

>  <SCORE.INTER.ROT>
7

>  <SCORE.INTER.SOLV>
6.19583

>  <SCORE.INTER.VDW>
-19.0815

>  <SCORE.INTER.norm>
-0.504784

>  <SCORE.INTRA>
-2.97539

>  <SCORE.INTRA.DIHEDRAL>
-2.18171

>  <SCORE.INTRA.DIHEDRAL.0>
10.1225

>  <SCORE.INTRA.POLAR>
0

>  <SCORE.INTRA.POLAR.0>
0

>  <SCORE.INTRA.REPUL>
0

>  <SCORE.INTRA.REPUL.0>
0

>  <SCORE.INTRA.SOLV>
-0.32152

>  <SCORE.INTRA.SOLV.lig_0>
-49.9393

>  <SCORE.INTRA.VDW>
-1.72377

>  <SCORE.INTRA.VDW.0>
-1.75437

>  <SCORE.INTRA.norm>
-0.114438

>  <SCORE.RESTR>
0

>  <SCORE.RESTR.CAVITY>
0

>  <SCORE.RESTR.norm>
0

>  <SCORE.SYSTEM>
0

>  <SCORE.SYSTEM.CONST>
0

>  <SCORE.SYSTEM.DIHEDRAL>
0

>  <SCORE.SYSTEM.SOLV>
0

>  <SCORE.SYSTEM.norm>
0

>  <SCORE.heavy>
26

>  <SCORE.norm>
-0.619222

>  <RMSD>
8.479

$$$$
ligand
 OpenBabel11021811473D
libRbt.so/2013.1/901 2013/11/27
 26 28  0  0  0  0  0  0  0  0999 V2000
   -5.8890   16.5438  -20.9247 N   0  0  0  0  0  0  0  0  0  0  0  0
   -7.1203   15.8420  -20.5416 C   0  0  2  0  0  0  0  0  0  0  0  0
   -8.2318   16.2321  -21.4800 C   0  0  0  0  0  0  0  0  0  0  0  0
   -9.2031   15.5220  -21.5961 O   0  0  0  0  0  0  0  0  0  0  0  0
   -7.5010   16.2262  -19.1108 C   0  0  0  0  0  0  0  0  0  0  0  0
   -8.1447   15.0283  -18.4148 C   0  0  0  0  0  0  0  0  0  0  0  0
   -9.6720   14.4659  -18.8995 S   0  0  0  0  0  0  0  0  0  0  0  0
  -10.4300   12.8997  -19.4029 C   0  0  0  0  0  0  0  0  0  0  0  0
  -10.2514   12.5475  -20.8848 C   0  0  1  0  0  0  0  0  0  0  0  0
  -10.7074   11.2419  -21.1888 O   0  0  0  0  0  0  0  0  0  0  0  0
  -11.0956   13.4214  -21.7821 C   0  0  1  0  0  0  0  0  0  0  0  0
  -10.4519   13.3824  -23.0370 O   0  0  0  0  0  0  0  0  0  0  0  0
  -12.4169   12.6994  -21.9085 C   0  0  1  0  0  0  0  0  0  0  0  0
  -12.8812   12.7869  -23.2379 O   0  0  0  0  0  0  0  0  0  0  0  0
  -12.0643   11.2624  -21.5906 C   0  0  2  0  0  0  0  0  0  0  0  0
   -8.1439   17.3682  -22.1910 O   0  0  0  0  0  0  0  0  0  0  0  0
  -16.4438    8.7225  -20.3325 N   0  0  0  0  0  0  0  0  0  0  0  0
  -16.0606    9.1922  -21.5664 C   0  0  0  0  0  0  0  0  0  0  0  0
  -14.8638    9.8546  -21.6972 N   0  0  0  0  0  0  0  0  0  0  0  0
  -14.0633   10.0461  -20.6306 C   0  0  0  0  0  0  0  0  0  0  0  0
  -14.4288    9.5812  -19.3812 C   0  0  0  0  0  0  0  0  0  0  0  0
  -15.6390    8.9128  -19.2375 C   0  0  0  0  0  0  0  0  0  0  0  0
  -16.0307    8.4535  -18.0555 N   0  0  0  0  0  0  0  0  0  0  0  0
  -13.4523    9.9081  -18.5055 N   0  0  0  0  0  0  0  0  0  0  0  0
  -12.4842   10.5597  -19.1790 C   0  0  0  0  0  0  0  0  0  0  0  0
  -12.8511   10.6645  -20.4964 N   0  0  0  0  0  0  0  0  0  0  0  0
  2  1  1  6  0  0  0
  2  3  1  0  0  0  0
  2  5  1  0  0  0  0
  3  4  1  0  0  0  0
  3 16  1  0  0  0  0
  5  6  1  0  0  0  0
  6  7  1  0  0  0  0
  7  8  1  0  0  0  0
  9  8  1  1  0  0  0
  9 10  1  0  0  0  0
  9 11  1  0  0  0  0
 10 15  1  0  0  0  0
 11 12  1  6  0  0  0
 11 13  1  0  0  0  0
 13 14  1  6  0  0  0
 13 15  1  0  0  0  0
 15 26  1  1  0  0  0
 17 18  2  0  0  0  0
 17 22  1  0  0  0  0
 18 19  1  0  0  0  0
 19 20  2  0  0  0  0
 20 21  1  0  0  0  0
 20 26  1  0  0  0  0
 21 22  2  0  0  0  0
 21 24  1  0  0  0  0
 22 23  1  0  0  0  0
 24 25  2  0  0  0  0
 25 26  1  0  0  0  0
M  END
>  <CHROM.1>
159.20470902,-145.89016639,-68.59019185,127.36731788,-84.02851907,172.33994229
-154.28140302,-11.38463556,12.62241248,-20.55109106,-0.23927638,0.71323441
1.84461294

>  <Name>
ligand

>  <RI>
0

>  <Rbt.Current_Directory>
/home/itssahil/PROJECTS/Mol_Feturizer/New_Systems/rnas/3E5E

>  <Rbt.Executable>
rbdock ($Id: //depot/dev/client3/rdock/2013.1/src/exe/rbdock.cxx#4 $)

>  <Rbt.Library>
libRbt.so (2013.1, Build901 2013/11/27)

>  <Rbt.Parameter_File>
/export/apps/rDock/src/rDock_2013.1_src/data/scripts/dock_solv.prm

>  <Rbt.Receptor>
prm/pocket_docking_4.prm

>  <SCORE>
-20.522

>  <SCORE.INTER>
-19.0724

>  <SCORE.INTER.CONST>
1

>  <SCORE.INTER.POLAR>
0

>  <SCORE.INTER.ROT>
7

>  <SCORE.INTER.SOLV>
10.7297

>  <SCORE.INTER.VDW>
-24.5582

>  <SCORE.INTER.norm>
-0.733555

>  <SCORE.INTRA>
-1.44961

>  <SCORE.INTRA.DIHEDRAL>
-0.140883

>  <SCORE.INTRA.DIHEDRAL.0>
10.1225

>  <SCORE.INTRA.POLAR>
0

>  <SCORE.INTRA.POLAR.0>
0

>  <SCORE.INTRA.REPUL>
0

>  <SCORE.INTRA.REPUL.0>
0

>  <SCORE.INTRA.SOLV>
-0.215131

>  <SCORE.INTRA.SOLV.lig_0>
-49.9393

>  <SCORE.INTRA.VDW>
-1.2716

>  <SCORE.INTRA.VDW.0>
-1.75437

>  <SCORE.INTRA.norm>
-0.0557542

>  <SCORE.RESTR>
0

>  <SCORE.RESTR.CAVITY>
0

>  <SCORE.RESTR.norm>
0

>  <SCORE.SYSTEM>
0

>  <SCORE.SYSTEM.CONST>
0

>  <SCORE.SYSTEM.DIHEDRAL>
0

>  <SCORE.SYSTEM.SOLV>
0

>  <SCORE.SYSTEM.norm>
0

>  <SCORE.heavy>
26

>  <SCORE.norm>
-0.789309

>  <RMSD>
8.480

$$$$
ligand
 OpenBabel11021811473D
libRbt.so/2013.1/901 2013/11/27
 26 28  0  0  0  0  0  0  0  0999 V2000
   -5.6029   15.5352  -21.3253 N   0  0  0  0  0  0  0  0  0  0  0  0
   -6.9781   15.6165  -20.8175 C   0  0  2  0  0  0  0  0  0  0  0  0
   -7.6773   16.7906  -21.4506 C   0  0  0  0  0  0  0  0  0  0  0  0
   -8.8025   16.6681  -21.8747 O   0  0  0  0  0  0  0  0  0  0  0  0
   -6.9499   15.7968  -19.2988 C   0  0  0  0  0  0  0  0  0  0  0  0
   -8.3691   15.6834  -18.7450 C   0  0  0  0  0  0  0  0  0  0  0  0
   -9.1517   14.1777  -18.6764 S   0  0  0  0  0  0  0  0  0  0  0  0
  -10.0548   13.0799  -19.7990 C   0  0  0  0  0  0  0  0  0  0  0  0
   -9.6624   13.2087  -21.2759 C   0  0  1  0  0  0  0  0  0  0  0  0
   -9.8251   11.9947  -21.9862 O   0  0  0  0  0  0  0  0  0  0  0  0
  -10.5637   14.1640  -22.0219 C   0  0  1  0  0  0  0  0  0  0  0  0
   -9.8008   14.5945  -23.1279 O   0  0  0  0  0  0  0  0  0  0  0  0
  -11.7015   13.3138  -22.5375 C   0  0  1  0  0  0  0  0  0  0  0  0
  -12.0367   13.7127  -23.8487 O   0  0  0  0  0  0  0  0  0  0  0  0
  -11.1126   11.9200  -22.5690 C   0  0  2  0  0  0  0  0  0  0  0  0
   -7.0503   17.9744  -21.5473 O   0  0  0  0  0  0  0  0  0  0  0  0
  -15.3342    8.8555  -22.5265 N   0  0  0  0  0  0  0  0  0  0  0  0
  -14.9623    9.7736  -23.4799 C   0  0  0  0  0  0  0  0  0  0  0  0
  -13.8102   10.5019  -23.3058 N   0  0  0  0  0  0  0  0  0  0  0  0
  -13.0423   10.3241  -22.2132 C   0  0  0  0  0  0  0  0  0  0  0  0
  -13.3971    9.4057  -21.2430 C   0  0  0  0  0  0  0  0  0  0  0  0
  -14.5624    8.6663  -21.4078 C   0  0  0  0  0  0  0  0  0  0  0  0
  -14.9427    7.7768  -20.4990 N   0  0  0  0  0  0  0  0  0  0  0  0
  -12.4594    9.4344  -20.2697 N   0  0  0  0  0  0  0  0  0  0  0  0
  -11.5256   10.3433  -20.6120 C   0  0  0  0  0  0  0  0  0  0  0  0
  -11.8763   10.9133  -21.8092 N   0  0  0  0  0  0  0  0  0  0  0  0
  2  1  1  6  0  0  0
  2  3  1  0  0  0  0
  2  5  1  0  0  0  0
  3  4  1  0  0  0  0
  3 16  1  0  0  0  0
  5  6  1  0  0  0  0
  6  7  1  0  0  0  0
  7  8  1  0  0  0  0
  9  8  1  1  0  0  0
  9 10  1  0  0  0  0
  9 11  1  0  0  0  0
 10 15  1  0  0  0  0
 11 12  1  6  0  0  0
 11 13  1  0  0  0  0
 13 14  1  6  0  0  0
 13 15  1  0  0  0  0
 15 26  1  1  0  0  0
 17 18  2  0  0  0  0
 17 22  1  0  0  0  0
 18 19  1  0  0  0  0
 19 20  2  0  0  0  0
 20 21  1  0  0  0  0
 20 26  1  0  0  0  0
 21 22  2  0  0  0  0
 21 24  1  0  0  0  0
 22 23  1  0  0  0  0
 24 25  2  0  0  0  0
 25 26  1  0  0  0  0
M  END
>  <CHROM.1>
135.12047618,-172.03807239,72.59257854,-80.63989498,27.15756055,150.15123004
-164.56787247,-10.65812461,12.87867612,-21.35042828,-0.26270330,0.78034348
2.12304040

>  <Name>
ligand

>  <RI>
0

>  <Rbt.Current_Directory>
/home/itssahil/PROJECTS/Mol_Feturizer/New_Systems/rnas/3E5E

>  <Rbt.Executable>
rbdock ($Id: //depot/dev/client3/rdock/2013.1/src/exe/rbdock.cxx#4 $)

>  <Rbt.Library>
libRbt.so (2013.1, Build901 2013/11/27)

>  <Rbt.Parameter_File>
/export/apps/rDock/src/rDock_2013.1_src/data/scripts/dock_solv.prm

>  <Rbt.Receptor>
prm/pocket_docking_8.prm

>  <SCORE>
-23.1391

>  <SCORE.INTER>
-20.5205

>  <SCORE.INTER.CONST>
1

>  <SCORE.INTER.POLAR>
0

>  <SCORE.INTER.ROT>
7

>  <SCORE.INTER.SOLV>
11.8897

>  <SCORE.INTER.VDW>
-25.9102

>  <SCORE.INTER.norm>
-0.789251

>  <SCORE.INTRA>
-2.61857

>  <SCORE.INTRA.DIHEDRAL>
-1.9688

>  <SCORE.INTRA.DIHEDRAL.0>
10.1225

>  <SCORE.INTRA.POLAR>
0

>  <SCORE.INTRA.POLAR.0>
0

>  <SCORE.INTRA.REPUL>
0

>  <SCORE.INTRA.REPUL.0>
0

>  <SCORE.INTRA.SOLV>
-0.163085

>  <SCORE.INTRA.SOLV.lig_0>
-49.9393

>  <SCORE.INTRA.VDW>
-1.55263

>  <SCORE.INTRA.VDW.0>
-1.75437

>  <SCORE.INTRA.norm>
-0.100714

>  <SCORE.RESTR>
0

>  <SCORE.RESTR.CAVITY>
0

>  <SCORE.RESTR.norm>
0

>  <SCORE.SYSTEM>
0

>  <SCORE.SYSTEM.CONST>
0

>  <SCORE.SYSTEM.DIHEDRAL>
0

>  <SCORE.SYSTEM.SOLV>
0

>  <SCORE.SYSTEM.norm>
0

>  <SCORE.heavy>
26

>  <SCORE.norm>
-0.889965

>  <RMSD>
8.484

$$$$
ligand
 OpenBabel11021811473D
libRbt.so/2013.1/901 2013/11/27
 26 28  0  0  0  0  0  0  0  0999 V2000
   -7.6114   15.1911  -20.4394 N   0  0  0  0  0  0  0  0  0  0  0  0
   -8.4173   15.5650  -19.2705 C   0  0  2  0  0  0  0  0  0  0  0  0
   -7.5055   15.8953  -18.1183 C   0  0  0  0  0  0  0  0  0  0  0  0
   -7.9254   16.5240  -17.1752 O   0  0  0  0  0  0  0  0  0  0  0  0
   -9.3262   14.3969  -18.8843 C   0  0  0  0  0  0  0  0  0  0  0  0
  -10.2796   14.0891  -20.0375 C   0  0  0  0  0  0  0  0  0  0  0  0
  -11.7243   13.2404  -19.7607 S   0  0  0  0  0  0  0  0  0  0  0  0
  -12.9407   12.3069  -20.7250 C   0  0  0  0  0  0  0  0  0  0  0  0
  -12.4041   11.0177  -21.3590 C   0  0  1  0  0  0  0  0  0  0  0  0
  -11.9518   10.0874  -20.3921 O   0  0  0  0  0  0  0  0  0  0  0  0
  -13.4820   10.2529  -22.0903 C   0  0  1  0  0  0  0  0  0  0  0  0
  -12.7907    9.4613  -23.0316 O   0  0  0  0  0  0  0  0  0  0  0  0
  -14.0862    9.3329  -21.0551 C   0  0  1  0  0  0  0  0  0  0  0  0
  -14.3407    8.0706  -21.6317 O   0  0  0  0  0  0  0  0  0  0  0  0
  -12.9914    9.2027  -20.0184 C   0  0  2  0  0  0  0  0  0  0  0  0
   -6.2238   15.4942  -18.1386 O   0  0  0  0  0  0  0  0  0  0  0  0
  -14.7075    7.4098  -15.4300 N   0  0  0  0  0  0  0  0  0  0  0  0
  -14.4734    6.7000  -16.5839 C   0  0  0  0  0  0  0  0  0  0  0  0
  -14.0305    7.3582  -17.7058 N   0  0  0  0  0  0  0  0  0  0  0  0
  -13.8221    8.6891  -17.6854 C   0  0  0  0  0  0  0  0  0  0  0  0
  -14.0503    9.4217  -16.5357 C   0  0  0  0  0  0  0  0  0  0  0  0
  -14.5016    8.7660  -15.3963 C   0  0  0  0  0  0  0  0  0  0  0  0
  -14.7373    9.4312  -14.2722 N   0  0  0  0  0  0  0  0  0  0  0  0
  -13.7640   10.7170  -16.7953 N   0  0  0  0  0  0  0  0  0  0  0  0
  -13.3572   10.8093  -18.0764 C   0  0  0  0  0  0  0  0  0  0  0  0
  -13.3975    9.5630  -18.6476 N   0  0  0  0  0  0  0  0  0  0  0  0
  2  1  1  6  0  0  0
  2  3  1  0  0  0  0
  2  5  1  0  0  0  0
  3  4  1  0  0  0  0
  3 16  1  0  0  0  0
  5  6  1  0  0  0  0
  6  7  1  0  0  0  0
  7  8  1  0  0  0  0
  9  8  1  1  0  0  0
  9 10  1  0  0  0  0
  9 11  1  0  0  0  0
 10 15  1  0  0  0  0
 11 12  1  6  0  0  0
 11 13  1  0  0  0  0
 13 14  1  6  0  0  0
 13 15  1  0  0  0  0
 15 26  1  1  0  0  0
 17 18  2  0  0  0  0
 17 22  1  0  0  0  0
 18 19  1  0  0  0  0
 19 20  2  0  0  0  0
 20 21  1  0  0  0  0
 20 26  1  0  0  0  0
 21 22  2  0  0  0  0
 21 24  1  0  0  0  0
 22 23  1  0  0  0  0
 24 25  2  0  0  0  0
 25 26  1  0  0  0  0
M  END
>  <CHROM.1>
162.32828569,-61.73991902,-159.13935290,-161.53050968,65.19640113,61.60792145
-145.72633779,-12.02270064,11.27394537,-18.92677812,0.09814194,-0.85606847
-1.58369448

>  <Name>
ligand

>  <RI>
0

>  <Rbt.Current_Directory>
/home/itssahil/PROJECTS/Mol_Feturizer/New_Systems/rnas/3E5E

>  <Rbt.Executable>
rbdock ($Id: //depot/dev/client3/rdock/2013.1/src/exe/rbdock.cxx#4 $)

>  <Rbt.Library>
libRbt.so (2013.1, Build901 2013/11/27)

>  <Rbt.Parameter_File>
/export/apps/rDock/src/rDock_2013.1_src/data/scripts/dock_solv.prm

>  <Rbt.Receptor>
prm/pocket_docking_7.prm

>  <SCORE>
-23.3804

>  <SCORE.INTER>
-20.5133

>  <SCORE.INTER.CONST>
1

>  <SCORE.INTER.POLAR>
0

>  <SCORE.INTER.ROT>
7

>  <SCORE.INTER.SOLV>
14.1

>  <SCORE.INTER.VDW>
-26.6422

>  <SCORE.INTER.norm>
-0.788974

>  <SCORE.INTRA>
-2.96852

>  <SCORE.INTRA.DIHEDRAL>
-5.24122

>  <SCORE.INTRA.DIHEDRAL.0>
10.1225

>  <SCORE.INTRA.POLAR>
0

>  <SCORE.INTRA.POLAR.0>
0

>  <SCORE.INTRA.REPUL>
0

>  <SCORE.INTRA.REPUL.0>
0

>  <SCORE.INTRA.SOLV>
0.187641

>  <SCORE.INTRA.SOLV.lig_0>
-49.9393

>  <SCORE.INTRA.VDW>
-0.441733

>  <SCORE.INTRA.VDW.0>
-1.75437

>  <SCORE.INTRA.norm>
-0.114174

>  <SCORE.RESTR>
0.101485

>  <SCORE.RESTR.CAVITY>
0.101485

>  <SCORE.RESTR.norm>
0.00390328

>  <SCORE.SYSTEM>
0

>  <SCORE.SYSTEM.CONST>
0

>  <SCORE.SYSTEM.DIHEDRAL>
0

>  <SCORE.SYSTEM.SOLV>
0

>  <SCORE.SYSTEM.norm>
0

>  <SCORE.heavy>
26

>  <SCORE.norm>
-0.899245

>  <RMSD>
8.486

$$$$
ligand
 OpenBabel11021811473D
libRbt.so/2013.1/901 2013/11/27
 26 28  0  0  0  0  0  0  0  0999 V2000
   -5.8254   15.6428  -20.8304 N   0  0  0  0  0  0  0  0  0  0  0  0
   -7.2035   15.3667  -21.2549 C   0  0  2  0  0  0  0  0  0  0  0  0
   -7.3495   15.6846  -22.7197 C   0  0  0  0  0  0  0  0  0  0  0  0
   -7.9189   14.9106  -23.4531 O   0  0  0  0  0  0  0  0  0  0  0  0
   -8.1689   16.2338  -20.4450 C   0  0  0  0  0  0  0  0  0  0  0  0
   -8.2762   15.6865  -19.0229 C   0  0  0  0  0  0  0  0  0  0  0  0
   -8.9352   14.1476  -18.7371 S   0  0  0  0  0  0  0  0  0  0  0  0
  -10.0497   12.9871  -19.5691 C   0  0  0  0  0  0  0  0  0  0  0  0
  -10.0842   13.1141  -21.0970 C   0  0  1  0  0  0  0  0  0  0  0  0
  -10.5960   11.9525  -21.7246 O   0  0  0  0  0  0  0  0  0  0  0  0
  -11.0331   14.1960  -21.5558 C   0  0  1  0  0  0  0  0  0  0  0  0
  -10.5713   14.5650  -22.8368 O   0  0  0  0  0  0  0  0  0  0  0  0
  -12.3689   13.5085  -21.7173 C   0  0  1  0  0  0  0  0  0  0  0  0
  -13.0128   13.9872  -22.8779 O   0  0  0  0  0  0  0  0  0  0  0  0
  -11.9952   12.0548  -21.9108 C   0  0  2  0  0  0  0  0  0  0  0  0
   -6.8450   16.8272  -23.2134 O   0  0  0  0  0  0  0  0  0  0  0  0
  -14.2364    7.3832  -21.3054 N   0  0  0  0  0  0  0  0  0  0  0  0
  -13.7765    7.9591  -22.4659 C   0  0  0  0  0  0  0  0  0  0  0  0
  -13.2228    9.2159  -22.4251 N   0  0  0  0  0  0  0  0  0  0  0  0
  -13.1247    9.8871  -21.2610 C   0  0  0  0  0  0  0  0  0  0  0  0
  -13.5799    9.3263  -20.0825 C   0  0  0  0  0  0  0  0  0  0  0  0
  -14.1448    8.0567  -20.1134 C   0  0  0  0  0  0  0  0  0  0  0  0
  -14.5983    7.4825  -19.0060 N   0  0  0  0  0  0  0  0  0  0  0  0
  -13.3602   10.2079  -19.0816 N   0  0  0  0  0  0  0  0  0  0  0  0
  -12.7737   11.3018  -19.6058 C   0  0  0  0  0  0  0  0  0  0  0  0
  -12.6299   11.1254  -20.9583 N   0  0  0  0  0  0  0  0  0  0  0  0
  2  1  1  1  0  0  0
  2  3  1  0  0  0  0
  2  5  1  0  0  0  0
  3  4  1  0  0  0  0
  3 16  1  0  0  0  0
  5  6  1  0  0  0  0
  6  7  1  0  0  0  0
  7  8  1  0  0  0  0
  9  8  1  1  0  0  0
  9 10  1  0  0  0  0
  9 11  1  0  0  0  0
 10 15  1  0  0  0  0
 11 12  1  6  0  0  0
 11 13  1  0  0  0  0
 13 14  1  6  0  0  0
 13 15  1  0  0  0  0
 15 26  1  1  0  0  0
 17 18  2  0  0  0  0
 17 22  1  0  0  0  0
 18 19  1  0  0  0  0
 19 20  2  0  0  0  0
 20 21  1  0  0  0  0
 20 26  1  0  0  0  0
 21 22  2  0  0  0  0
 21 24  1  0  0  0  0
 22 23  1  0  0  0  0
 24 25  2  0  0  0  0
 25 26  1  0  0  0  0
M  END
>  <CHROM.1>
134.42755537,-73.86466687,-64.48558381,-22.76716442,26.59355907,160.59723843
-101.08840655,-10.81584961,12.60255016,-21.05337111,-0.28010276,0.80397917
1.85089336

>  <Name>
ligand

>  <RI>
0

>  <Rbt.Current_Directory>
/home/itssahil/PROJECTS/Mol_Feturizer/New_Systems/rnas/3E5E

>  <Rbt.Executable>
rbdock ($Id: //depot/dev/client3/rdock/2013.1/src/exe/rbdock.cxx#4 $)

>  <Rbt.Library>
libRbt.so (2013.1, Build901 2013/11/27)

>  <Rbt.Parameter_File>
/export/apps/rDock/src/rDock_2013.1_src/data/scripts/dock_solv.prm

>  <Rbt.Receptor>
prm/blind_docking_100.prm

>  <SCORE>
-16.0959

>  <SCORE.INTER>
-13.2214

>  <SCORE.INTER.CONST>
1

>  <SCORE.INTER.POLAR>
0

>  <SCORE.INTER.ROT>
7

>  <SCORE.INTER.SOLV>
11.4337

>  <SCORE.INTER.VDW>
-20.8922

>  <SCORE.INTER.norm>
-0.508516

>  <SCORE.INTRA>
-2.8883

>  <SCORE.INTRA.DIHEDRAL>
-2.44362

>  <SCORE.INTRA.DIHEDRAL.0>
10.1225

>  <SCORE.INTRA.POLAR>
0

>  <SCORE.INTRA.POLAR.0>
0

>  <SCORE.INTRA.REPUL>
0

>  <SCORE.INTRA.REPUL.0>
0

>  <SCORE.INTRA.SOLV>
0.950859

>  <SCORE.INTRA.SOLV.lig_0>
-49.9393

>  <SCORE.INTRA.VDW>
-2.14192

>  <SCORE.INTRA.VDW.0>
-1.75437

>  <SCORE.INTRA.norm>
-0.111088

>  <SCORE.RESTR>
0.0137892

>  <SCORE.RESTR.CAVITY>
0.0137892

>  <SCORE.RESTR.norm>
0.000530353

>  <SCORE.SYSTEM>
0

>  <SCORE.SYSTEM.CONST>
0

>  <SCORE.SYSTEM.DIHEDRAL>
0

>  <SCORE.SYSTEM.SOLV>
0

>  <SCORE.SYSTEM.norm>
0

>  <SCORE.heavy>
26

>  <SCORE.norm>
-0.619074

>  <RMSD>
8.489

$$$$
ligand
 OpenBabel11021811473D
libRbt.so/2013.1/901 2013/11/27
 26 28  0  0  0  0  0  0  0  0999 V2000
   -6.1971   15.9066  -19.4551 N   0  0  0  0  0  0  0  0  0  0  0  0
   -7.6207   16.0570  -19.7811 C   0  0  2  0  0  0  0  0  0  0  0  0
   -8.4486   15.7600  -18.5586 C   0  0  0  0  0  0  0  0  0  0  0  0
   -8.1313   16.2195  -17.4865 O   0  0  0  0  0  0  0  0  0  0  0  0
   -7.9926   15.0819  -20.8994 C   0  0  0  0  0  0  0  0  0  0  0  0
   -8.8808   15.7908  -21.9202 C   0  0  0  0  0  0  0  0  0  0  0  0
   -9.6171   14.9186  -23.1777 S   0  0  0  0  0  0  0  0  0  0  0  0
  -10.8439   13.5983  -23.3589 C   0  0  0  0  0  0  0  0  0  0  0  0
  -12.1235   13.7941  -22.5367 C   0  0  1  0  0  0  0  0  0  0  0  0
  -13.0817   12.7801  -22.7783 O   0  0  0  0  0  0  0  0  0  0  0  0
  -11.8688   13.6763  -21.0525 C   0  0  1  0  0  0  0  0  0  0  0  0
  -12.9229   14.3907  -20.4452 O   0  0  0  0  0  0  0  0  0  0  0  0
  -12.0498   12.2102  -20.7351 C   0  0  1  0  0  0  0  0  0  0  0  0
  -12.7343   12.0702  -19.5093 O   0  0  0  0  0  0  0  0  0  0  0  0
  -12.9273   11.7119  -21.8629 C   0  0  2  0  0  0  0  0  0  0  0  0
   -9.5389   14.9820  -18.6575 O   0  0  0  0  0  0  0  0  0  0  0  0
  -14.0348    7.5999  -24.8760 N   0  0  0  0  0  0  0  0  0  0  0  0
  -14.9118    8.4722  -24.2760 C   0  0  0  0  0  0  0  0  0  0  0  0
  -14.4242    9.4969  -23.5013 N   0  0  0  0  0  0  0  0  0  0  0  0
  -13.0978    9.6558  -23.3259 C   0  0  0  0  0  0  0  0  0  0  0  0
  -12.1986    8.7907  -23.9207 C   0  0  0  0  0  0  0  0  0  0  0  0
  -12.6817    7.7488  -24.7037 C   0  0  0  0  0  0  0  0  0  0  0  0
  -11.8539    6.8928  -25.2899 N   0  0  0  0  0  0  0  0  0  0  0  0
  -10.9493    9.1785  -23.5799 N   0  0  0  0  0  0  0  0  0  0  0  0
  -11.0470   10.2674  -22.7925 C   0  0  0  0  0  0  0  0  0  0  0  0
  -12.3726   10.5713  -22.6148 N   0  0  0  0  0  0  0  0  0  0  0  0
  2  1  1  1  0  0  0
  2  3  1  0  0  0  0
  2  5  1  0  0  0  0
  3  4  1  0  0  0  0
  3 16  1  0  0  0  0
  5  6  1  0  0  0  0
  6  7  1  0  0  0  0
  7  8  1  0  0  0  0
  9  8  1  6  0  0  0
  9 10  1  0  0  0  0
  9 11  1  0  0  0  0
 10 15  1  0  0  0  0
 11 12  1  1  0  0  0
 11 13  1  0  0  0  0
 13 14  1  1  0  0  0
 13 15  1  0  0  0  0
 15 26  1  6  0  0  0
 17 18  2  0  0  0  0
 17 22  1  0  0  0  0
 18 19  1  0  0  0  0
 19 20  2  0  0  0  0
 20 21  1  0  0  0  0
 20 26  1  0  0  0  0
 21 22  2  0  0  0  0
 21 24  1  0  0  0  0
 22 23  1  0  0  0  0
 24 25  2  0  0  0  0
 25 26  1  0  0  0  0
M  END
>  <CHROM.1>
44.82973908,-136.86173672,-172.30738756,63.78596223,47.50283789,176.27637389
-85.48802229,-11.14700942,12.44660905,-21.94479406,-0.99421587,-0.44366305
-2.31441241

>  <Name>
ligand

>  <RI>
0

>  <Rbt.Current_Directory>
/home/itssahil/PROJECTS/Mol_Feturizer/New_Systems/rnas/3E5E

>  <Rbt.Executable>
rbdock ($Id: //depot/dev/client3/rdock/2013.1/src/exe/rbdock.cxx#4 $)

>  <Rbt.Library>
libRbt.so (2013.1, Build901 2013/11/27)

>  <Rbt.Parameter_File>
/export/apps/rDock/src/rDock_2013.1_src/data/scripts/dock_solv.prm

>  <Rbt.Receptor>
prm/blind_docking_100.prm

>  <SCORE>
-22.4472

>  <SCORE.INTER>
-20.5406

>  <SCORE.INTER.CONST>
1

>  <SCORE.INTER.POLAR>
0

>  <SCORE.INTER.ROT>
7

>  <SCORE.INTER.SOLV>
14.3801

>  <SCORE.INTER.VDW>
-26.7538

>  <SCORE.INTER.norm>
-0.790025

>  <SCORE.INTRA>
-1.90651

>  <SCORE.INTRA.DIHEDRAL>
-2.20047

>  <SCORE.INTRA.DIHEDRAL.0>
10.1225

>  <SCORE.INTRA.POLAR>
0

>  <SCORE.INTRA.POLAR.0>
0

>  <SCORE.INTRA.REPUL>
0

>  <SCORE.INTRA.REPUL.0>
0

>  <SCORE.INTRA.SOLV>
-0.473429

>  <SCORE.INTRA.SOLV.lig_0>
-49.9393

>  <SCORE.INTRA.VDW>
-0.569554

>  <SCORE.INTRA.VDW.0>
-1.75437

>  <SCORE.INTRA.norm>
-0.0733272

>  <SCORE.RESTR>
0

>  <SCORE.RESTR.CAVITY>
0

>  <SCORE.RESTR.norm>
0

>  <SCORE.SYSTEM>
0

>  <SCORE.SYSTEM.CONST>
0

>  <SCORE.SYSTEM.DIHEDRAL>
0

>  <SCORE.SYSTEM.SOLV>
0

>  <SCORE.SYSTEM.norm>
0

>  <SCORE.heavy>
26

>  <SCORE.norm>
-0.863352

>  <RMSD>
8.492

$$$$
ligand
 OpenBabel11021811473D
libRbt.so/2013.1/901 2013/11/27
 26 28  0  0  0  0  0  0  0  0999 V2000
   -7.7937   15.7614  -23.1029 N   0  0  0  0  0  0  0  0  0  0  0  0
   -8.2714   14.7235  -22.1808 C   0  0  2  0  0  0  0  0  0  0  0  0
   -9.3530   13.9176  -22.8508 C   0  0  0  0  0  0  0  0  0  0  0  0
  -10.2226   14.4754  -23.4783 O   0  0  0  0  0  0  0  0  0  0  0  0
   -8.8322   15.3824  -20.9194 C   0  0  0  0  0  0  0  0  0  0  0  0
   -9.1790   14.3059  -19.8925 C   0  0  0  0  0  0  0  0  0  0  0  0
  -10.5474   13.3221  -20.1011 S   0  0  0  0  0  0  0  0  0  0  0  0
  -11.1571   11.7237  -19.5055 C   0  0  0  0  0  0  0  0  0  0  0  0
  -12.6745   11.6541  -19.2943 C   0  0  1  0  0  0  0  0  0  0  0  0
  -13.3796   11.4448  -20.5041 O   0  0  0  0  0  0  0  0  0  0  0  0
  -13.0771   10.4649  -18.4545 C   0  0  1  0  0  0  0  0  0  0  0  0
  -14.3266   10.8168  -17.9019 O   0  0  0  0  0  0  0  0  0  0  0  0
  -13.2982    9.3411  -19.4400 C   0  0  1  0  0  0  0  0  0  0  0  0
  -14.4350    8.5951  -19.0631 O   0  0  0  0  0  0  0  0  0  0  0  0
  -13.5771   10.0635  -20.7403 C   0  0  2  0  0  0  0  0  0  0  0  0
   -9.3541   12.5783  -22.7496 O   0  0  0  0  0  0  0  0  0  0  0  0
  -13.3105    7.8258  -25.4452 N   0  0  0  0  0  0  0  0  0  0  0  0
  -14.4097    7.9583  -24.6303 C   0  0  0  0  0  0  0  0  0  0  0  0
  -14.2770    8.5731  -23.4086 N   0  0  0  0  0  0  0  0  0  0  0  0
  -13.0830    9.0479  -23.0035 C   0  0  0  0  0  0  0  0  0  0  0  0
  -11.9653    8.9261  -23.8075 C   0  0  0  0  0  0  0  0  0  0  0  0
  -12.0881    8.3028  -25.0438 C   0  0  0  0  0  0  0  0  0  0  0  0
  -11.0400    8.1610  -25.8456 N   0  0  0  0  0  0  0  0  0  0  0  0
  -10.9161    9.4816  -23.1609 N   0  0  0  0  0  0  0  0  0  0  0  0
  -11.3532    9.9522  -21.9766 C   0  0  0  0  0  0  0  0  0  0  0  0
  -12.6926    9.6822  -21.8567 N   0  0  0  0  0  0  0  0  0  0  0  0
  2  1  1  6  0  0  0
  2  3  1  0  0  0  0
  2  5  1  0  0  0  0
  3  4  1  0  0  0  0
  3 16  1  0  0  0  0
  5  6  1  0  0  0  0
  6  7  1  0  0  0  0
  7  8  1  0  0  0  0
  9  8  1  6  0  0  0
  9 10  1  0  0  0  0
  9 11  1  0  0  0  0
 10 15  1  0  0  0  0
 11 12  1  6  0  0  0
 11 13  1  0  0  0  0
 13 14  1  1  0  0  0
 13 15  1  0  0  0  0
 15 26  1  6  0  0  0
 17 18  2  0  0  0  0
 17 22  1  0  0  0  0
 18 19  1  0  0  0  0
 19 20  2  0  0  0  0
 20 21  1  0  0  0  0
 20 26  1  0  0  0  0
 21 22  2  0  0  0  0
 21 24  1  0  0  0  0
 22 23  1  0  0  0  0
 24 25  2  0  0  0  0
 25 26  1  0  0  0  0
M  END
>  <CHROM.1>
-44.26369864,-173.44129097,-73.88141335,159.84151681,144.58192630,80.22122171
-126.38958216,-11.65955835,11.18426140,-21.71549309,-0.56282436,-0.82655518
-2.06906463

>  <Name>
ligand

>  <RI>
0

>  <Rbt.Current_Directory>
/home/itssahil/PROJECTS/Mol_Feturizer/New_Systems/rnas/3E5E

>  <Rbt.Executable>
rbdock ($Id: //depot/dev/client3/rdock/2013.1/src/exe/rbdock.cxx#4 $)

>  <Rbt.Library>
libRbt.so (2013.1, Build901 2013/11/27)

>  <Rbt.Parameter_File>
/export/apps/rDock/src/rDock_2013.1_src/data/scripts/dock_solv.prm

>  <Rbt.Receptor>
prm/pocket_docking_7.prm

>  <SCORE>
-16.8627

>  <SCORE.INTER>
-14.2887

>  <SCORE.INTER.CONST>
1

>  <SCORE.INTER.POLAR>
0

>  <SCORE.INTER.ROT>
7

>  <SCORE.INTER.SOLV>
6.34165

>  <SCORE.INTER.VDW>
-19.9063

>  <SCORE.INTER.norm>
-0.549564

>  <SCORE.INTRA>
-2.57405

>  <SCORE.INTRA.DIHEDRAL>
-3.03033

>  <SCORE.INTRA.DIHEDRAL.0>
10.1225

>  <SCORE.INTRA.POLAR>
0

>  <SCORE.INTRA.POLAR.0>
0

>  <SCORE.INTRA.REPUL>
0

>  <SCORE.INTRA.REPUL.0>
0

>  <SCORE.INTRA.SOLV>
-0.482429

>  <SCORE.INTRA.SOLV.lig_0>
-49.9393

>  <SCORE.INTRA.VDW>
-0.817673

>  <SCORE.INTRA.VDW.0>
-1.75437

>  <SCORE.INTRA.norm>
-0.0990019

>  <SCORE.RESTR>
0

>  <SCORE.RESTR.CAVITY>
0

>  <SCORE.RESTR.norm>
0

>  <SCORE.SYSTEM>
0

>  <SCORE.SYSTEM.CONST>
0

>  <SCORE.SYSTEM.DIHEDRAL>
0

>  <SCORE.SYSTEM.SOLV>
0

>  <SCORE.SYSTEM.norm>
0

>  <SCORE.heavy>
26

>  <SCORE.norm>
-0.648566

>  <RMSD>
8.496

$$$$
ligand
 OpenBabel11021811473D
libRbt.so/2013.1/901 2013/11/27
 26 28  0  0  0  0  0  0  0  0999 V2000
   -6.6516   16.7779  -21.0421 N   0  0  0  0  0  0  0  0  0  0  0  0
   -7.3550   15.6084  -20.5009 C   0  0  2  0  0  0  0  0  0  0  0  0
   -8.4721   15.2200  -21.4333 C   0  0  0  0  0  0  0  0  0  0  0  0
   -9.1691   16.0729  -21.9311 O   0  0  0  0  0  0  0  0  0  0  0  0
   -7.9326   15.9527  -19.1270 C   0  0  0  0  0  0  0  0  0  0  0  0
   -8.5335   14.6975  -18.4969 C   0  0  0  0  0  0  0  0  0  0  0  0
  -10.0494   14.1199  -18.9993 S   0  0  0  0  0  0  0  0  0  0  0  0
  -10.9391   12.5427  -19.0447 C   0  0  0  0  0  0  0  0  0  0  0  0
  -10.6909   11.7020  -20.3030 C   0  0  1  0  0  0  0  0  0  0  0  0
  -11.2122   10.3905  -20.1884 O   0  0  0  0  0  0  0  0  0  0  0  0
  -11.4170   12.2537  -21.5072 C   0  0  1  0  0  0  0  0  0  0  0  0
  -10.6993   11.7653  -22.6193 O   0  0  0  0  0  0  0  0  0  0  0  0
  -12.7726   11.5864  -21.4921 C   0  0  1  0  0  0  0  0  0  0  0  0
  -13.1451   11.2369  -22.8073 O   0  0  0  0  0  0  0  0  0  0  0  0
  -12.5366   10.3291  -20.6834 C   0  0  2  0  0  0  0  0  0  0  0  0
   -8.6969   13.9252  -21.7108 O   0  0  0  0  0  0  0  0  0  0  0  0
  -17.2565    8.8132  -19.0591 N   0  0  0  0  0  0  0  0  0  0  0  0
  -16.7775    8.8600  -20.3468 C   0  0  0  0  0  0  0  0  0  0  0  0
  -15.4981    9.3049  -20.5778 N   0  0  0  0  0  0  0  0  0  0  0  0
  -14.7098    9.6933  -19.5565 C   0  0  0  0  0  0  0  0  0  0  0  0
  -15.1712    9.6535  -18.2542 C   0  0  0  0  0  0  0  0  0  0  0  0
  -16.4650    9.2081  -18.0100 C   0  0  0  0  0  0  0  0  0  0  0  0
  -16.9496    9.1576  -16.7754 N   0  0  0  0  0  0  0  0  0  0  0  0
  -14.1847   10.0943  -17.4419 N   0  0  0  0  0  0  0  0  0  0  0  0
  -13.1177   10.4021  -18.2049 C   0  0  0  0  0  0  0  0  0  0  0  0
  -13.4289   10.1703  -19.5204 N   0  0  0  0  0  0  0  0  0  0  0  0
  2  1  1  6  0  0  0
  2  3  1  0  0  0  0
  2  5  1  0  0  0  0
  3  4  1  0  0  0  0
  3 16  1  0  0  0  0
  5  6  1  0  0  0  0
  6  7  1  0  0  0  0
  7  8  1  0  0  0  0
  9  8  1  1  0  0  0
  9 10  1  0  0  0  0
  9 11  1  0  0  0  0
 10 15  1  0  0  0  0
 11 12  1  6  0  0  0
 11 13  1  0  0  0  0
 13 14  1  6  0  0  0
 13 15  1  0  0  0  0
 15 26  1  1  0  0  0
 17 18  2  0  0  0  0
 17 22  1  0  0  0  0
 18 19  1  0  0  0  0
 19 20  2  0  0  0  0
 20 21  1  0  0  0  0
 20 26  1  0  0  0  0
 21 22  2  0  0  0  0
 21 24  1  0  0  0  0
 22 23  1  0  0  0  0
 24 25  2  0  0  0  0
 25 26  1  0  0  0  0
M  END
>  <CHROM.1>
-42.26214664,-173.95053483,-77.53421103,154.48557553,-87.58393408,169.54496650
-159.95120979,-11.88266253,12.07225441,-19.99767118,-0.06686331,0.68977004
1.40967418

>  <Name>
ligand

>  <RI>
0

>  <Rbt.Current_Directory>
/home/itssahil/PROJECTS/Mol_Feturizer/New_Systems/rnas/3E5E

>  <Rbt.Executable>
rbdock ($Id: //depot/dev/client3/rdock/2013.1/src/exe/rbdock.cxx#4 $)

>  <Rbt.Library>
libRbt.so (2013.1, Build901 2013/11/27)

>  <Rbt.Parameter_File>
/export/apps/rDock/src/rDock_2013.1_src/data/scripts/dock_solv.prm

>  <Rbt.Receptor>
prm/pocket_docking_4.prm

>  <SCORE>
-20.0454

>  <SCORE.INTER>
-16.7835

>  <SCORE.INTER.CONST>
1

>  <SCORE.INTER.POLAR>
0

>  <SCORE.INTER.ROT>
7

>  <SCORE.INTER.SOLV>
12.0742

>  <SCORE.INTER.VDW>
-23.4804

>  <SCORE.INTER.norm>
-0.645521

>  <SCORE.INTRA>
-3.26189

>  <SCORE.INTRA.DIHEDRAL>
-3.78109

>  <SCORE.INTRA.DIHEDRAL.0>
10.1225

>  <SCORE.INTRA.POLAR>
0

>  <SCORE.INTRA.POLAR.0>
0

>  <SCORE.INTRA.REPUL>
0

>  <SCORE.INTRA.REPUL.0>
0

>  <SCORE.INTRA.SOLV>
-0.357247

>  <SCORE.INTRA.SOLV.lig_0>
-49.9393

>  <SCORE.INTRA.VDW>
-1.19272

>  <SCORE.INTRA.VDW.0>
-1.75437

>  <SCORE.INTRA.norm>
-0.125457

>  <SCORE.RESTR>
0

>  <SCORE.RESTR.CAVITY>
0

>  <SCORE.RESTR.norm>
0

>  <SCORE.SYSTEM>
0

>  <SCORE.SYSTEM.CONST>
0

>  <SCORE.SYSTEM.DIHEDRAL>
0

>  <SCORE.SYSTEM.SOLV>
0

>  <SCORE.SYSTEM.norm>
0

>  <SCORE.heavy>
26

>  <SCORE.norm>
-0.770979

>  <RMSD>
8.498

$$$$
ligand
 OpenBabel11021811473D
libRbt.so/2013.1/901 2013/11/27
 26 28  0  0  0  0  0  0  0  0999 V2000
   -7.7792   17.1709  -22.7693 N   0  0  0  0  0  0  0  0  0  0  0  0
   -8.6205   16.2995  -21.9395 C   0  0  2  0  0  0  0  0  0  0  0  0
   -7.8802   15.9424  -20.6776 C   0  0  0  0  0  0  0  0  0  0  0  0
   -6.7245   15.5924  -20.7324 O   0  0  0  0  0  0  0  0  0  0  0  0
   -8.9527   15.0238  -22.7155 C   0  0  0  0  0  0  0  0  0  0  0  0
  -10.1510   14.3309  -22.0693 C   0  0  0  0  0  0  0  0  0  0  0  0
  -10.0074   13.6032  -20.5416 S   0  0  0  0  0  0  0  0  0  0  0  0
  -10.6402   12.1372  -19.6862 C   0  0  0  0  0  0  0  0  0  0  0  0
  -12.1692   12.0504  -19.6074 C   0  0  1  0  0  0  0  0  0  0  0  0
  -12.7746   12.0024  -20.8865 O   0  0  0  0  0  0  0  0  0  0  0  0
  -12.6328   10.7658  -18.9621 C   0  0  1  0  0  0  0  0  0  0  0  0
  -13.9239   11.0516  -18.4704 O   0  0  0  0  0  0  0  0  0  0  0  0
  -12.7697    9.7791  -20.0982 C   0  0  1  0  0  0  0  0  0  0  0  0
  -13.9298    8.9979  -19.9121 O   0  0  0  0  0  0  0  0  0  0  0  0
  -12.9468   10.6640  -21.3131 C   0  0  2  0  0  0  0  0  0  0  0  0
   -8.5040   16.0098  -19.4900 O   0  0  0  0  0  0  0  0  0  0  0  0
  -11.9671    8.0314  -25.7089 N   0  0  0  0  0  0  0  0  0  0  0  0
  -13.0669    7.9347  -24.8898 C   0  0  0  0  0  0  0  0  0  0  0  0
  -13.1384    8.7099  -23.7576 N   0  0  0  0  0  0  0  0  0  0  0  0
  -12.1441    9.5634  -23.4441 C   0  0  0  0  0  0  0  0  0  0  0  0
  -11.0299    9.6770  -24.2542 C   0  0  0  0  0  0  0  0  0  0  0  0
  -10.9462    8.8948  -25.4001 C   0  0  0  0  0  0  0  0  0  0  0  0
   -9.8926    8.9691  -26.2038 N   0  0  0  0  0  0  0  0  0  0  0  0
  -10.2010   10.5944  -23.7077 N   0  0  0  0  0  0  0  0  0  0  0  0
  -10.7735   11.0600  -22.5805 C   0  0  0  0  0  0  0  0  0  0  0  0
  -11.9743   10.4237  -22.3950 N   0  0  0  0  0  0  0  0  0  0  0  0
  2  1  1  6  0  0  0
  2  3  1  0  0  0  0
  2  5  1  0  0  0  0
  3  4  1  0  0  0  0
  3 16  1  0  0  0  0
  5  6  1  0  0  0  0
  6  7  1  0  0  0  0
  7  8  1  0  0  0  0
  9  8  1  6  0  0  0
  9 10  1  0  0  0  0
  9 11  1  0  0  0  0
 10 15  1  0  0  0  0
 11 12  1  6  0  0  0
 11 13  1  0  0  0  0
 13 14  1  1  0  0  0
 13 15  1  0  0  0  0
 15 26  1  6  0  0  0
 17 18  2  0  0  0  0
 17 22  1  0  0  0  0
 18 19  1  0  0  0  0
 19 20  2  0  0  0  0
 20 21  1  0  0  0  0
 20 26  1  0  0  0  0
 21 22  2  0  0  0  0
 21 24  1  0  0  0  0
 22 23  1  0  0  0  0
 24 25  2  0  0  0  0
 25 26  1  0  0  0  0
M  END
>  <CHROM.1>
-45.89425954,-162.27074901,-69.27067780,-143.42111307,-57.81826112,60.80108719
-149.59908921,-10.92944006,11.89464060,-21.85400840,-0.77494181,-0.81071966
-2.16878655

>  <Name>
ligand

>  <RI>
0

>  <Rbt.Current_Directory>
/home/itssahil/PROJECTS/Mol_Feturizer/New_Systems/rnas/3E5E

>  <Rbt.Executable>
rbdock ($Id: //depot/dev/client3/rdock/2013.1/src/exe/rbdock.cxx#4 $)

>  <Rbt.Library>
libRbt.so (2013.1, Build901 2013/11/27)

>  <Rbt.Parameter_File>
/export/apps/rDock/src/rDock_2013.1_src/data/scripts/dock_solv.prm

>  <Rbt.Receptor>
prm/blind_docking_60.prm

>  <SCORE>
-16.6129

>  <SCORE.INTER>
-12.9249

>  <SCORE.INTER.CONST>
1

>  <SCORE.INTER.POLAR>
0

>  <SCORE.INTER.ROT>
7

>  <SCORE.INTER.SOLV>
7.54664

>  <SCORE.INTER.VDW>
-19.3988

>  <SCORE.INTER.norm>
-0.49711

>  <SCORE.INTRA>
-3.68807

>  <SCORE.INTRA.DIHEDRAL>
-4.2095

>  <SCORE.INTRA.DIHEDRAL.0>
10.1225

>  <SCORE.INTRA.POLAR>
0

>  <SCORE.INTRA.POLAR.0>
0

>  <SCORE.INTRA.REPUL>
0

>  <SCORE.INTRA.REPUL.0>
0

>  <SCORE.INTRA.SOLV>
-0.338311

>  <SCORE.INTRA.SOLV.lig_0>
-49.9393

>  <SCORE.INTRA.VDW>
-1.41416

>  <SCORE.INTRA.VDW.0>
-1.75437

>  <SCORE.INTRA.norm>
-0.141849

>  <SCORE.RESTR>
0

>  <SCORE.RESTR.CAVITY>
0

>  <SCORE.RESTR.norm>
0

>  <SCORE.SYSTEM>
0

>  <SCORE.SYSTEM.CONST>
0

>  <SCORE.SYSTEM.DIHEDRAL>
0

>  <SCORE.SYSTEM.SOLV>
0

>  <SCORE.SYSTEM.norm>
0

>  <SCORE.heavy>
26

>  <SCORE.norm>
-0.638958

>  <RMSD>
8.509

$$$$
ligand
 OpenBabel11021811473D
libRbt.so/2013.1/901 2013/11/27
 26 28  0  0  0  0  0  0  0  0999 V2000
   -6.7863   16.3133  -18.2656 N   0  0  0  0  0  0  0  0  0  0  0  0
   -6.9126   15.4673  -19.4588 C   0  0  2  0  0  0  0  0  0  0  0  0
   -6.3895   16.2122  -20.6587 C   0  0  0  0  0  0  0  0  0  0  0  0
   -5.2805   15.9795  -21.0793 O   0  0  0  0  0  0  0  0  0  0  0  0
   -8.3845   15.1138  -19.6786 C   0  0  0  0  0  0  0  0  0  0  0  0
   -8.8938   14.2914  -18.4963 C   0  0  0  0  0  0  0  0  0  0  0  0
  -10.4057   13.5211  -18.5674 S   0  0  0  0  0  0  0  0  0  0  0  0
  -11.7237   13.2567  -19.7815 C   0  0  0  0  0  0  0  0  0  0  0  0
  -11.2354   12.9200  -21.1957 C   0  0  1  0  0  0  0  0  0  0  0  0
  -10.8649   11.5601  -21.3301 O   0  0  0  0  0  0  0  0  0  0  0  0
  -12.3274   13.0797  -22.2269 C   0  0  1  0  0  0  0  0  0  0  0  0
  -11.6483   13.2832  -23.4466 O   0  0  0  0  0  0  0  0  0  0  0  0
  -13.0131   11.7347  -22.2888 C   0  0  1  0  0  0  0  0  0  0  0  0
  -13.3147   11.4162  -23.6298 O   0  0  0  0  0  0  0  0  0  0  0  0
  -11.9613   10.7795  -21.7675 C   0  0  2  0  0  0  0  0  0  0  0  0
   -7.1538   17.1378  -21.2612 O   0  0  0  0  0  0  0  0  0  0  0  0
  -16.0083    8.4999  -19.3928 N   0  0  0  0  0  0  0  0  0  0  0  0
  -16.0213    9.2959  -20.5136 C   0  0  0  0  0  0  0  0  0  0  0  0
  -14.8421    9.8201  -20.9857 N   0  0  0  0  0  0  0  0  0  0  0  0
  -13.6758    9.5605  -20.3633 C   0  0  0  0  0  0  0  0  0  0  0  0
  -13.6400    8.7620  -19.2356 C   0  0  0  0  0  0  0  0  0  0  0  0
  -14.8277    8.2295  -18.7479 C   0  0  0  0  0  0  0  0  0  0  0  0
  -14.8395    7.4612  -17.6657 N   0  0  0  0  0  0  0  0  0  0  0  0
  -12.3563    8.6708  -18.8220 N   0  0  0  0  0  0  0  0  0  0  0  0
  -11.5901    9.3874  -19.6674 C   0  0  0  0  0  0  0  0  0  0  0  0
  -12.3928    9.9557  -20.6233 N   0  0  0  0  0  0  0  0  0  0  0  0
  2  1  1  1  0  0  0
  2  3  1  0  0  0  0
  2  5  1  0  0  0  0
  3  4  1  0  0  0  0
  3 16  1  0  0  0  0
  5  6  1  0  0  0  0
  6  7  1  0  0  0  0
  7  8  1  0  0  0  0
  9  8  1  1  0  0  0
  9 10  1  0  0  0  0
  9 11  1  0  0  0  0
 10 15  1  0  0  0  0
 11 12  1  6  0  0  0
 11 13  1  0  0  0  0
 13 14  1  6  0  0  0
 13 15  1  0  0  0  0
 15 26  1  1  0  0  0
 17 18  2  0  0  0  0
 17 22  1  0  0  0  0
 18 19  1  0  0  0  0
 19 20  2  0  0  0  0
 20 21  1  0  0  0  0
 20 26  1  0  0  0  0
 21 22  2  0  0  0  0
 21 24  1  0  0  0  0
 22 23  1  0  0  0  0
 24 25  2  0  0  0  0
 25 26  1  0  0  0  0
M  END
>  <CHROM.1>
100.46238089,-63.16607982,-169.35632879,5.03486131,41.53064841,79.96310152
147.63608735,-11.27173354,12.15809622,-20.31557143,-0.28849325,0.71112004
1.97441399

>  <Name>
ligand

>  <RI>
0

>  <Rbt.Current_Directory>
/home/itssahil/PROJECTS/Mol_Feturizer/New_Systems/rnas/3E5E

>  <Rbt.Executable>
rbdock ($Id: //depot/dev/client3/rdock/2013.1/src/exe/rbdock.cxx#4 $)

>  <Rbt.Library>
libRbt.so (2013.1, Build901 2013/11/27)

>  <Rbt.Parameter_File>
/export/apps/rDock/src/rDock_2013.1_src/data/scripts/dock_solv.prm

>  <Rbt.Receptor>
prm/pocket_docking_2.prm

>  <SCORE>
-13.5136

>  <SCORE.INTER>
-14.6156

>  <SCORE.INTER.CONST>
1

>  <SCORE.INTER.POLAR>
0

>  <SCORE.INTER.ROT>
7

>  <SCORE.INTER.SOLV>
15.4146

>  <SCORE.INTER.VDW>
-23.1486

>  <SCORE.INTER.norm>
-0.562138

>  <SCORE.INTRA>
-1.76491

>  <SCORE.INTRA.DIHEDRAL>
-2.89926

>  <SCORE.INTRA.DIHEDRAL.0>
10.1225

>  <SCORE.INTRA.POLAR>
0

>  <SCORE.INTRA.POLAR.0>
0

>  <SCORE.INTRA.REPUL>
0

>  <SCORE.INTRA.REPUL.0>
0

>  <SCORE.INTRA.SOLV>
0.136581

>  <SCORE.INTRA.SOLV.lig_0>
-49.9393

>  <SCORE.INTRA.VDW>
-0.383575

>  <SCORE.INTRA.VDW.0>
-1.75437

>  <SCORE.INTRA.norm>
-0.0678812

>  <SCORE.RESTR>
2.86693

>  <SCORE.RESTR.CAVITY>
2.86693

>  <SCORE.RESTR.norm>
0.110267

>  <SCORE.SYSTEM>
0

>  <SCORE.SYSTEM.CONST>
0

>  <SCORE.SYSTEM.DIHEDRAL>
0

>  <SCORE.SYSTEM.SOLV>
0

>  <SCORE.SYSTEM.norm>
0

>  <SCORE.heavy>
26

>  <SCORE.norm>
-0.519753

>  <RMSD>
8.514

$$$$
ligand
 OpenBabel11021811473D
libRbt.so/2013.1/901 2013/11/27
 26 28  0  0  0  0  0  0  0  0999 V2000
   -8.0778   15.0175  -21.4290 N   0  0  0  0  0  0  0  0  0  0  0  0
   -7.7129   16.1599  -20.5820 C   0  0  2  0  0  0  0  0  0  0  0  0
   -6.5414   16.8825  -21.1932 C   0  0  0  0  0  0  0  0  0  0  0  0
   -5.4725   16.3271  -21.2924 O   0  0  0  0  0  0  0  0  0  0  0  0
   -7.3332   15.6588  -19.1876 C   0  0  0  0  0  0  0  0  0  0  0  0
   -8.5961   15.2541  -18.4293 C   0  0  0  0  0  0  0  0  0  0  0  0
   -9.5210   13.9243  -18.9394 S   0  0  0  0  0  0  0  0  0  0  0  0
  -10.4640   13.4251  -20.4032 C   0  0  0  0  0  0  0  0  0  0  0  0
  -11.8447   12.8285  -20.1042 C   0  0  1  0  0  0  0  0  0  0  0  0
  -12.5508   12.4828  -21.2819 O   0  0  0  0  0  0  0  0  0  0  0  0
  -11.7480   11.5141  -19.3662 C   0  0  1  0  0  0  0  0  0  0  0  0
  -12.9855   11.3782  -18.7025 O   0  0  0  0  0  0  0  0  0  0  0  0
  -11.6744   10.4589  -20.4452 C   0  0  1  0  0  0  0  0  0  0  0  0
  -12.4574    9.3451  -20.0750 O   0  0  0  0  0  0  0  0  0  0  0  0
  -12.2988   11.1383  -21.6448 C   0  0  2  0  0  0  0  0  0  0  0  0
   -6.6824   18.1460  -21.6264 O   0  0  0  0  0  0  0  0  0  0  0  0
   -9.9372    8.2693  -25.3061 N   0  0  0  0  0  0  0  0  0  0  0  0
  -10.6657    7.8322  -24.2252 C   0  0  0  0  0  0  0  0  0  0  0  0
  -11.2046    8.7497  -23.3559 N   0  0  0  0  0  0  0  0  0  0  0  0
  -11.0280   10.0707  -23.5533 C   0  0  0  0  0  0  0  0  0  0  0  0
  -10.3000   10.5318  -24.6340 C   0  0  0  0  0  0  0  0  0  0  0  0
   -9.7477    9.6118  -25.5175 C   0  0  0  0  0  0  0  0  0  0  0  0
   -9.0382   10.0107  -26.5658 N   0  0  0  0  0  0  0  0  0  0  0  0
  -10.2823   11.8827  -24.5873 N   0  0  0  0  0  0  0  0  0  0  0  0
  -10.9864   12.2754  -23.5078 C   0  0  0  0  0  0  0  0  0  0  0  0
  -11.4471   11.1647  -22.8480 N   0  0  0  0  0  0  0  0  0  0  0  0
  2  1  1  6  0  0  0
  2  3  1  0  0  0  0
  2  5  1  0  0  0  0
  3  4  1  0  0  0  0
  3 16  1  0  0  0  0
  5  6  1  0  0  0  0
  6  7  1  0  0  0  0
  7  8  1  0  0  0  0
  9  8  1  6  0  0  0
  9 10  1  0  0  0  0
  9 11  1  0  0  0  0
 10 15  1  0  0  0  0
 11 12  1  1  0  0  0
 11 13  1  0  0  0  0
 13 14  1  1  0  0  0
 13 15  1  0  0  0  0
 15 26  1  6  0  0  0
 17 18  2  0  0  0  0
 17 22  1  0  0  0  0
 18 19  1  0  0  0  0
 19 20  2  0  0  0  0
 20 21  1  0  0  0  0
 20 26  1  0  0  0  0
 21 22  2  0  0  0  0
 21 24  1  0  0  0  0
 22 23  1  0  0  0  0
 24 25  2  0  0  0  0
 25 26  1  0  0  0  0
M  END
>  <CHROM.1>
-64.48970169,-74.57753806,66.59374315,-61.53336688,-134.39966650,178.69888082
-176.79066119,-9.98986725,12.46498284,-21.65993317,-0.92606108,-0.76201906
-2.18580152

>  <Name>
ligand

>  <RI>
0

>  <Rbt.Current_Directory>
/home/itssahil/PROJECTS/Mol_Feturizer/New_Systems/rnas/3E5E

>  <Rbt.Executable>
rbdock ($Id: //depot/dev/client3/rdock/2013.1/src/exe/rbdock.cxx#4 $)

>  <Rbt.Library>
libRbt.so (2013.1, Build901 2013/11/27)

>  <Rbt.Parameter_File>
/export/apps/rDock/src/rDock_2013.1_src/data/scripts/dock_solv.prm

>  <Rbt.Receptor>
prm/blind_docking_40.prm

>  <SCORE>
-19.7874

>  <SCORE.INTER>
-18.2826

>  <SCORE.INTER.CONST>
1

>  <SCORE.INTER.POLAR>
0

>  <SCORE.INTER.ROT>
7

>  <SCORE.INTER.SOLV>
9.63843

>  <SCORE.INTER.VDW>
-23.6679

>  <SCORE.INTER.norm>
-0.703177

>  <SCORE.INTRA>
-1.50477

>  <SCORE.INTRA.DIHEDRAL>
-4.36368

>  <SCORE.INTRA.DIHEDRAL.0>
10.1225

>  <SCORE.INTRA.POLAR>
0

>  <SCORE.INTRA.POLAR.0>
0

>  <SCORE.INTRA.REPUL>
0

>  <SCORE.INTRA.REPUL.0>
0

>  <SCORE.INTRA.SOLV>
2.38626

>  <SCORE.INTRA.SOLV.lig_0>
-49.9393

>  <SCORE.INTRA.VDW>
-0.516065

>  <SCORE.INTRA.VDW.0>
-1.75437

>  <SCORE.INTRA.norm>
-0.0578759

>  <SCORE.RESTR>
0

>  <SCORE.RESTR.CAVITY>
0

>  <SCORE.RESTR.norm>
0

>  <SCORE.SYSTEM>
0

>  <SCORE.SYSTEM.CONST>
0

>  <SCORE.SYSTEM.DIHEDRAL>
0

>  <SCORE.SYSTEM.SOLV>
0

>  <SCORE.SYSTEM.norm>
0

>  <SCORE.heavy>
26

>  <SCORE.norm>
-0.761053

>  <RMSD>
8.519

$$$$
ligand
 OpenBabel11021811473D
libRbt.so/2013.1/901 2013/11/27
 26 28  0  0  0  0  0  0  0  0999 V2000
   -5.7732   15.6384  -20.7597 N   0  0  0  0  0  0  0  0  0  0  0  0
   -7.1767   16.0642  -20.8281 C   0  0  2  0  0  0  0  0  0  0  0  0
   -7.2839   17.3007  -21.6812 C   0  0  0  0  0  0  0  0  0  0  0  0
   -6.4139   18.1390  -21.6438 O   0  0  0  0  0  0  0  0  0  0  0  0
   -7.6849   16.3704  -19.4182 C   0  0  0  0  0  0  0  0  0  0  0  0
   -8.0989   15.0703  -18.7314 C   0  0  0  0  0  0  0  0  0  0  0  0
   -9.3181   14.0926  -19.3961 S   0  0  0  0  0  0  0  0  0  0  0  0
  -10.1781   13.9067  -20.9794 C   0  0  0  0  0  0  0  0  0  0  0  0
  -11.7086   13.9274  -20.8845 C   0  0  1  0  0  0  0  0  0  0  0  0
  -12.3298   13.8641  -22.1553 O   0  0  0  0  0  0  0  0  0  0  0  0
  -12.2506   12.7071  -20.1786 C   0  0  1  0  0  0  0  0  0  0  0  0
  -13.5140   13.1013  -19.6899 O   0  0  0  0  0  0  0  0  0  0  0  0
  -12.4663   11.6827  -21.2681 C   0  0  1  0  0  0  0  0  0  0  0  0
  -13.6743   10.9910  -21.0380 O   0  0  0  0  0  0  0  0  0  0  0  0
  -12.5966   12.5230  -22.5201 C   0  0  2  0  0  0  0  0  0  0  0  0
   -8.3476   17.4746  -22.4825 O   0  0  0  0  0  0  0  0  0  0  0  0
  -10.1425    8.6342  -24.9835 N   0  0  0  0  0  0  0  0  0  0  0  0
  -10.9781    8.5547  -23.8947 C   0  0  0  0  0  0  0  0  0  0  0  0
  -11.5244    9.7034  -23.3750 N   0  0  0  0  0  0  0  0  0  0  0  0
  -11.2511   10.9039  -23.9220 C   0  0  0  0  0  0  0  0  0  0  0  0
  -10.4145   11.0064  -25.0175 C   0  0  0  0  0  0  0  0  0  0  0  0
   -9.8539    9.8508  -25.5489 C   0  0  0  0  0  0  0  0  0  0  0  0
   -9.0421    9.9039  -26.5975 N   0  0  0  0  0  0  0  0  0  0  0  0
  -10.3163   12.3118  -25.3546 N   0  0  0  0  0  0  0  0  0  0  0  0
  -11.0759   13.0250  -24.5004 C   0  0  0  0  0  0  0  0  0  0  0  0
  -11.6545   12.1696  -23.5978 N   0  0  0  0  0  0  0  0  0  0  0  0
  2  1  1  1  0  0  0
  2  3  1  0  0  0  0
  2  5  1  0  0  0  0
  3  4  1  0  0  0  0
  3 16  1  0  0  0  0
  5  6  1  0  0  0  0
  6  7  1  0  0  0  0
  7  8  1  0  0  0  0
  9  8  1  6  0  0  0
  9 10  1  0  0  0  0
  9 11  1  0  0  0  0
 10 15  1  0  0  0  0
 11 12  1  6  0  0  0
 11 13  1  0  0  0  0
 13 14  1  1  0  0  0
 13 15  1  0  0  0  0
 15 26  1  6  0  0  0
 17 18  2  0  0  0  0
 17 22  1  0  0  0  0
 18 19  1  0  0  0  0
 19 20  2  0  0  0  0
 20 21  1  0  0  0  0
 20 26  1  0  0  0  0
 21 22  2  0  0  0  0
 21 24  1  0  0  0  0
 22 23  1  0  0  0  0
 24 25  2  0  0  0  0
 25 26  1  0  0  0  0
M  END
>  <CHROM.1>
-36.67022230,-82.24822031,-59.86944778,16.15689925,-127.89672090,176.24655877
156.30627974,-10.15798786,13.16674253,-22.11827715,-0.98509690,-0.59389908
-2.25525043

>  <Name>
ligand

>  <RI>
0

>  <Rbt.Current_Directory>
/home/itssahil/PROJECTS/Mol_Feturizer/New_Systems/rnas/3E5E

>  <Rbt.Executable>
rbdock ($Id: //depot/dev/client3/rdock/2013.1/src/exe/rbdock.cxx#4 $)

>  <Rbt.Library>
libRbt.so (2013.1, Build901 2013/11/27)

>  <Rbt.Parameter_File>
/export/apps/rDock/src/rDock_2013.1_src/data/scripts/dock_solv.prm

>  <Rbt.Receptor>
prm/blind_docking_60.prm

>  <SCORE>
-19.4742

>  <SCORE.INTER>
-18.1071

>  <SCORE.INTER.CONST>
1

>  <SCORE.INTER.POLAR>
0

>  <SCORE.INTER.ROT>
7

>  <SCORE.INTER.SOLV>
12.3803

>  <SCORE.INTER.VDW>
-24.4648

>  <SCORE.INTER.norm>
-0.696425

>  <SCORE.INTRA>
-1.36712

>  <SCORE.INTRA.DIHEDRAL>
-1.43201

>  <SCORE.INTRA.DIHEDRAL.0>
10.1225

>  <SCORE.INTRA.POLAR>
0

>  <SCORE.INTRA.POLAR.0>
0

>  <SCORE.INTRA.REPUL>
0

>  <SCORE.INTRA.REPUL.0>
0

>  <SCORE.INTRA.SOLV>
0.425848

>  <SCORE.INTRA.SOLV.lig_0>
-49.9393

>  <SCORE.INTRA.VDW>
-0.864035

>  <SCORE.INTRA.VDW.0>
-1.75437

>  <SCORE.INTRA.norm>
-0.0525815

>  <SCORE.RESTR>
0

>  <SCORE.RESTR.CAVITY>
0

>  <SCORE.RESTR.norm>
0

>  <SCORE.SYSTEM>
0

>  <SCORE.SYSTEM.CONST>
0

>  <SCORE.SYSTEM.DIHEDRAL>
0

>  <SCORE.SYSTEM.SOLV>
0

>  <SCORE.SYSTEM.norm>
0

>  <SCORE.heavy>
26

>  <SCORE.norm>
-0.749007

>  <RMSD>
8.521

$$$$
ligand
 OpenBabel11021811473D
libRbt.so/2013.1/901 2013/11/27
 26 28  0  0  0  0  0  0  0  0999 V2000
  -10.4756   10.7304  -25.5712 N   0  0  0  0  0  0  0  0  0  0  0  0
  -10.2901   12.1862  -25.6139 C   0  0  2  0  0  0  0  0  0  0  0  0
   -9.5517   12.5604  -26.8721 C   0  0  0  0  0  0  0  0  0  0  0  0
   -9.8431   13.5715  -27.4669 O   0  0  0  0  0  0  0  0  0  0  0  0
   -9.4811   12.6322  -24.3948 C   0  0  0  0  0  0  0  0  0  0  0  0
  -10.3838   12.6515  -23.1625 C   0  0  0  0  0  0  0  0  0  0  0  0
  -11.6345   13.7922  -23.0259 S   0  0  0  0  0  0  0  0  0  0  0  0
  -13.0863   14.0762  -21.9806 C   0  0  0  0  0  0  0  0  0  0  0  0
  -12.8079   14.0427  -20.4729 C   0  0  1  0  0  0  0  0  0  0  0  0
  -13.3843   12.9139  -19.8417 O   0  0  0  0  0  0  0  0  0  0  0  0
  -11.3361   13.8885  -20.1702 C   0  0  1  0  0  0  0  0  0  0  0  0
  -11.1761   14.4110  -18.8695 O   0  0  0  0  0  0  0  0  0  0  0  0
  -11.0983   12.3975  -20.1109 C   0  0  1  0  0  0  0  0  0  0  0  0
  -10.2193   12.0982  -19.0486 O   0  0  0  0  0  0  0  0  0  0  0  0
  -12.4695   11.8346  -19.8052 C   0  0  2  0  0  0  0  0  0  0  0  0
   -8.5703   11.7696  -27.3362 O   0  0  0  0  0  0  0  0  0  0  0  0
  -14.1076    6.9213  -20.4293 N   0  0  0  0  0  0  0  0  0  0  0  0
  -13.6630    7.5272  -19.2781 C   0  0  0  0  0  0  0  0  0  0  0  0
  -13.2576    8.8395  -19.3166 N   0  0  0  0  0  0  0  0  0  0  0  0
  -13.2933    9.5372  -20.4686 C   0  0  0  0  0  0  0  0  0  0  0  0
  -13.7376    8.9477  -21.6372 C   0  0  0  0  0  0  0  0  0  0  0  0
  -14.1468    7.6197  -21.6099 C   0  0  0  0  0  0  0  0  0  0  0  0
  -14.5767    7.0134  -22.7095 N   0  0  0  0  0  0  0  0  0  0  0  0
  -13.6675    9.8653  -22.6274 N   0  0  0  0  0  0  0  0  0  0  0  0
  -13.1964   11.0139  -22.1039 C   0  0  0  0  0  0  0  0  0  0  0  0
  -12.9481   10.8259  -20.7682 N   0  0  0  0  0  0  0  0  0  0  0  0
  2  1  1  1  0  0  0
  2  3  1  0  0  0  0
  2  5  1  0  0  0  0
  3  4  1  0  0  0  0
  3 16  1  0  0  0  0
  5  6  1  0  0  0  0
  6  7  1  0  0  0  0
  7  8  1  0  0  0  0
  9  8  1  6  0  0  0
  9 10  1  0  0  0  0
  9 11  1  0  0  0  0
 10 15  1  0  0  0  0
 11 12  1  1  0  0  0
 11 13  1  0  0  0  0
 13 14  1  1  0  0  0
 13 15  1  0  0  0  0
 15 26  1  6  0  0  0
 17 18  2  0  0  0  0
 17 22  1  0  0  0  0
 18 19  1  0  0  0  0
 19 20  2  0  0  0  0
 20 21  1  0  0  0  0
 20 26  1  0  0  0  0
 21 22  2  0  0  0  0
 21 24  1  0  0  0  0
 22 23  1  0  0  0  0
 24 25  2  0  0  0  0
 25 26  1  0  0  0  0
M  END
>  <CHROM.1>
142.39938737,-77.21272418,-68.34654766,167.58578127,51.41673014,-110.84784242
-120.08862264,-11.93667895,11.49476635,-22.17382144,0.26593515,-1.04995760
-2.26616603

>  <Name>
ligand

>  <RI>
0

>  <Rbt.Current_Directory>
/home/itssahil/PROJECTS/Mol_Feturizer/New_Systems/rnas/3E5E

>  <Rbt.Executable>
rbdock ($Id: //depot/dev/client3/rdock/2013.1/src/exe/rbdock.cxx#4 $)

>  <Rbt.Library>
libRbt.so (2013.1, Build901 2013/11/27)

>  <Rbt.Parameter_File>
/export/apps/rDock/src/rDock_2013.1_src/data/scripts/dock_solv.prm

>  <Rbt.Receptor>
prm/pocket_docking_6.prm

>  <SCORE>
-14.9314

>  <SCORE.INTER>
-14.7292

>  <SCORE.INTER.CONST>
1

>  <SCORE.INTER.POLAR>
0

>  <SCORE.INTER.ROT>
7

>  <SCORE.INTER.SOLV>
12.167

>  <SCORE.INTER.VDW>
-22.1418

>  <SCORE.INTER.norm>
-0.566507

>  <SCORE.INTRA>
-0.202181

>  <SCORE.INTRA.DIHEDRAL>
-0.801262

>  <SCORE.INTRA.DIHEDRAL.0>
10.1225

>  <SCORE.INTRA.POLAR>
0

>  <SCORE.INTRA.POLAR.0>
0

>  <SCORE.INTRA.REPUL>
0

>  <SCORE.INTRA.REPUL.0>
0

>  <SCORE.INTRA.SOLV>
0.788305

>  <SCORE.INTRA.SOLV.lig_0>
-49.9393

>  <SCORE.INTRA.VDW>
-0.195702

>  <SCORE.INTRA.VDW.0>
-1.75437

>  <SCORE.INTRA.norm>
-0.00777618

>  <SCORE.RESTR>
0

>  <SCORE.RESTR.CAVITY>
0

>  <SCORE.RESTR.norm>
0

>  <SCORE.SYSTEM>
0

>  <SCORE.SYSTEM.CONST>
0

>  <SCORE.SYSTEM.DIHEDRAL>
0

>  <SCORE.SYSTEM.SOLV>
0

>  <SCORE.SYSTEM.norm>
0

>  <SCORE.heavy>
26

>  <SCORE.norm>
-0.574283

>  <RMSD>
8.524

$$$$
ligand
 OpenBabel11021811473D
libRbt.so/2013.1/901 2013/11/27
 26 28  0  0  0  0  0  0  0  0999 V2000
   -6.2741   15.4334  -21.3856 N   0  0  0  0  0  0  0  0  0  0  0  0
   -7.6350   15.9153  -21.1189 C   0  0  2  0  0  0  0  0  0  0  0  0
   -7.9844   16.9997  -22.1039 C   0  0  0  0  0  0  0  0  0  0  0  0
   -9.1038   17.0703  -22.5545 O   0  0  0  0  0  0  0  0  0  0  0  0
   -7.7076   16.4740  -19.6968 C   0  0  0  0  0  0  0  0  0  0  0  0
   -7.9598   15.3332  -18.7126 C   0  0  0  0  0  0  0  0  0  0  0  0
   -9.3856   14.4149  -18.8017 S   0  0  0  0  0  0  0  0  0  0  0  0
  -10.0492   13.0563  -19.7992 C   0  0  0  0  0  0  0  0  0  0  0  0
   -9.7831   13.1762  -21.3047 C   0  0  1  0  0  0  0  0  0  0  0  0
  -10.1481   12.0057  -22.0130 O   0  0  0  0  0  0  0  0  0  0  0  0
  -10.6349   14.2444  -21.9489 C   0  0  1  0  0  0  0  0  0  0  0  0
   -9.9336   14.6133  -23.1161 O   0  0  0  0  0  0  0  0  0  0  0  0
  -11.9049   13.5399  -22.3659 C   0  0  1  0  0  0  0  0  0  0  0  0
  -12.3124   14.0056  -23.6339 O   0  0  0  0  0  0  0  0  0  0  0  0
  -11.4841   12.0900  -22.4721 C   0  0  2  0  0  0  0  0  0  0  0  0
   -7.0518   17.8880  -22.4848 O   0  0  0  0  0  0  0  0  0  0  0  0
  -15.5586    8.8327  -22.4183 N   0  0  0  0  0  0  0  0  0  0  0  0
  -15.1236    9.6297  -23.4506 C   0  0  0  0  0  0  0  0  0  0  0  0
  -14.0273   10.4374  -23.2671 N   0  0  0  0  0  0  0  0  0  0  0  0
  -13.3749   10.4545  -22.0884 C   0  0  0  0  0  0  0  0  0  0  0  0
  -13.7947    9.6605  -21.0377 C   0  0  0  0  0  0  0  0  0  0  0  0
  -14.9047    8.8423  -21.2119 C   0  0  0  0  0  0  0  0  0  0  0  0
  -15.3444    8.0671  -20.2284 N   0  0  0  0  0  0  0  0  0  0  0  0
  -12.9691    9.8747  -19.9890 N   0  0  0  0  0  0  0  0  0  0  0  0
  -12.0414   10.7778  -20.3617 C   0  0  0  0  0  0  0  0  0  0  0  0
  -12.2839   11.1571  -21.6572 N   0  0  0  0  0  0  0  0  0  0  0  0
  2  1  1  6  0  0  0
  2  3  1  0  0  0  0
  2  5  1  0  0  0  0
  3  4  1  0  0  0  0
  3 16  1  0  0  0  0
  5  6  1  0  0  0  0
  6  7  1  0  0  0  0
  7  8  1  0  0  0  0
  9  8  1  1  0  0  0
  9 10  1  0  0  0  0
  9 11  1  0  0  0  0
 10 15  1  0  0  0  0
 11 12  1  6  0  0  0
 11 13  1  0  0  0  0
 13 14  1  6  0  0  0
 13 15  1  0  0  0  0
 15 26  1  1  0  0  0
 17 18  2  0  0  0  0
 17 22  1  0  0  0  0
 18 19  1  0  0  0  0
 19 20  2  0  0  0  0
 20 21  1  0  0  0  0
 20 26  1  0  0  0  0
 21 22  2  0  0  0  0
 21 24  1  0  0  0  0
 22 23  1  0  0  0  0
 24 25  2  0  0  0  0
 25 26  1  0  0  0  0
M  END
>  <CHROM.1>
142.00930977,-84.43411253,-62.37007039,78.85449391,-42.78001314,171.46255352
-147.26373381,-10.94094988,13.02649836,-21.40050254,-0.28395694,0.76930844
2.06453992

>  <Name>
ligand

>  <RI>
0

>  <Rbt.Current_Directory>
/home/itssahil/PROJECTS/Mol_Feturizer/New_Systems/rnas/3E5E

>  <Rbt.Executable>
rbdock ($Id: //depot/dev/client3/rdock/2013.1/src/exe/rbdock.cxx#4 $)

>  <Rbt.Library>
libRbt.so (2013.1, Build901 2013/11/27)

>  <Rbt.Parameter_File>
/export/apps/rDock/src/rDock_2013.1_src/data/scripts/dock_solv.prm

>  <Rbt.Receptor>
prm/pocket_docking_5.prm

>  <SCORE>
-23.1413

>  <SCORE.INTER>
-19.9044

>  <SCORE.INTER.CONST>
1

>  <SCORE.INTER.POLAR>
0

>  <SCORE.INTER.ROT>
7

>  <SCORE.INTER.SOLV>
10.5281

>  <SCORE.INTER.VDW>
-25.0456

>  <SCORE.INTER.norm>
-0.765555

>  <SCORE.INTRA>
-3.23686

>  <SCORE.INTRA.DIHEDRAL>
-3.9623

>  <SCORE.INTRA.DIHEDRAL.0>
10.1225

>  <SCORE.INTRA.POLAR>
0

>  <SCORE.INTRA.POLAR.0>
0

>  <SCORE.INTRA.REPUL>
0

>  <SCORE.INTRA.REPUL.0>
0

>  <SCORE.INTRA.SOLV>
1.2878

>  <SCORE.INTRA.SOLV.lig_0>
-49.9393

>  <SCORE.INTRA.VDW>
-1.89961

>  <SCORE.INTRA.VDW.0>
-1.75437

>  <SCORE.INTRA.norm>
-0.124495

>  <SCORE.RESTR>
0

>  <SCORE.RESTR.CAVITY>
0

>  <SCORE.RESTR.norm>
0

>  <SCORE.SYSTEM>
0

>  <SCORE.SYSTEM.CONST>
0

>  <SCORE.SYSTEM.DIHEDRAL>
0

>  <SCORE.SYSTEM.SOLV>
0

>  <SCORE.SYSTEM.norm>
0

>  <SCORE.heavy>
26

>  <SCORE.norm>
-0.89005

>  <RMSD>
8.531

$$$$
ligand
 OpenBabel11021811473D
libRbt.so/2013.1/901 2013/11/27
 26 28  0  0  0  0  0  0  0  0999 V2000
   -7.1049   16.2849  -18.1948 N   0  0  0  0  0  0  0  0  0  0  0  0
   -7.6265   15.2228  -19.0641 C   0  0  2  0  0  0  0  0  0  0  0  0
   -7.5209   15.6560  -20.5026 C   0  0  0  0  0  0  0  0  0  0  0  0
   -7.3005   16.8136  -20.7714 O   0  0  0  0  0  0  0  0  0  0  0  0
   -9.0921   14.9552  -18.7173 C   0  0  0  0  0  0  0  0  0  0  0  0
   -9.5116   13.6004  -19.2849 C   0  0  0  0  0  0  0  0  0  0  0  0
  -11.1241   13.0792  -19.1736 S   0  0  0  0  0  0  0  0  0  0  0  0
  -12.0389   11.5169  -19.2333 C   0  0  0  0  0  0  0  0  0  0  0  0
  -11.5831   10.5481  -20.3312 C   0  0  1  0  0  0  0  0  0  0  0  0
  -12.2572    9.3045  -20.2686 O   0  0  0  0  0  0  0  0  0  0  0  0
  -11.9262   11.0530  -21.7128 C   0  0  1  0  0  0  0  0  0  0  0  0
  -11.0155   10.4044  -22.5732 O   0  0  0  0  0  0  0  0  0  0  0  0
  -13.3088   10.5148  -21.9989 C   0  0  1  0  0  0  0  0  0  0  0  0
  -13.3830   10.0840  -23.3404 O   0  0  0  0  0  0  0  0  0  0  0  0
  -13.4180    9.3187  -21.0781 C   0  0  2  0  0  0  0  0  0  0  0  0
   -7.6741   14.7569  -21.4886 O   0  0  0  0  0  0  0  0  0  0  0  0
  -15.0069    9.0902  -16.1145 N   0  0  0  0  0  0  0  0  0  0  0  0
  -13.7272    8.9676  -16.6017 C   0  0  0  0  0  0  0  0  0  0  0  0
  -13.5079    9.0442  -17.9560 N   0  0  0  0  0  0  0  0  0  0  0  0
  -14.5324    9.2397  -18.8089 C   0  0  0  0  0  0  0  0  0  0  0  0
  -15.8265    9.3665  -18.3403 C   0  0  0  0  0  0  0  0  0  0  0  0
  -16.0596    9.2872  -16.9723 C   0  0  0  0  0  0  0  0  0  0  0  0
  -17.2870    9.3996  -16.4797 N   0  0  0  0  0  0  0  0  0  0  0  0
  -16.6445    9.5514  -19.4005 N   0  0  0  0  0  0  0  0  0  0  0  0
  -15.8917    9.5491  -20.5179 C   0  0  0  0  0  0  0  0  0  0  0  0
  -14.5804    9.3458  -20.1714 N   0  0  0  0  0  0  0  0  0  0  0  0
  2  1  1  1  0  0  0
  2  3  1  0  0  0  0
  2  5  1  0  0  0  0
  3  4  1  0  0  0  0
  3 16  1  0  0  0  0
  5  6  1  0  0  0  0
  6  7  1  0  0  0  0
  7  8  1  0  0  0  0
  9  8  1  1  0  0  0
  9 10  1  0  0  0  0
  9 11  1  0  0  0  0
 10 15  1  0  0  0  0
 11 12  1  6  0  0  0
 11 13  1  0  0  0  0
 13 14  1  6  0  0  0
 13 15  1  0  0  0  0
 15 26  1  1  0  0  0
 17 18  2  0  0  0  0
 17 22  1  0  0  0  0
 18 19  1  0  0  0  0
 19 20  2  0  0  0  0
 20 21  1  0  0  0  0
 20 26  1  0  0  0  0
 21 22  2  0  0  0  0
 21 24  1  0  0  0  0
 22 23  1  0  0  0  0
 24 25  2  0  0  0  0
 25 26  1  0  0  0  0
M  END
>  <CHROM.1>
-13.91402916,-162.54518016,-174.92820770,-158.88987446,-42.94868197,175.38583314
-5.96496018,-12.11664858,11.52221612,-19.63094388,0.04480058,0.70497045,1.28601793

>  <Name>
ligand

>  <RI>
0

>  <Rbt.Current_Directory>
/home/itssahil/PROJECTS/Mol_Feturizer/New_Systems/rnas/3E5E

>  <Rbt.Executable>
rbdock ($Id: //depot/dev/client3/rdock/2013.1/src/exe/rbdock.cxx#4 $)

>  <Rbt.Library>
libRbt.so (2013.1, Build901 2013/11/27)

>  <Rbt.Parameter_File>
/export/apps/rDock/src/rDock_2013.1_src/data/scripts/dock_solv.prm

>  <Rbt.Receptor>
prm/pocket_docking_7.prm

>  <SCORE>
-17.6059

>  <SCORE.INTER>
-14.4354

>  <SCORE.INTER.CONST>
1

>  <SCORE.INTER.POLAR>
0

>  <SCORE.INTER.ROT>
7

>  <SCORE.INTER.SOLV>
17.3223

>  <SCORE.INTER.VDW>
-23.6644

>  <SCORE.INTER.norm>
-0.555208

>  <SCORE.INTRA>
-3.17045

>  <SCORE.INTRA.DIHEDRAL>
-4.97287

>  <SCORE.INTRA.DIHEDRAL.0>
10.1225

>  <SCORE.INTRA.POLAR>
0

>  <SCORE.INTRA.POLAR.0>
0

>  <SCORE.INTRA.REPUL>
0

>  <SCORE.INTRA.REPUL.0>
0

>  <SCORE.INTRA.SOLV>
-0.541367

>  <SCORE.INTRA.SOLV.lig_0>
-49.9393

>  <SCORE.INTRA.VDW>
-0.413331

>  <SCORE.INTRA.VDW.0>
-1.75437

>  <SCORE.INTRA.norm>
-0.12194

>  <SCORE.RESTR>
0

>  <SCORE.RESTR.CAVITY>
0

>  <SCORE.RESTR.norm>
0

>  <SCORE.SYSTEM>
0

>  <SCORE.SYSTEM.CONST>
0

>  <SCORE.SYSTEM.DIHEDRAL>
0

>  <SCORE.SYSTEM.SOLV>
0

>  <SCORE.SYSTEM.norm>
0

>  <SCORE.heavy>
26

>  <SCORE.norm>
-0.677148

>  <RMSD>
8.531

$$$$
ligand
 OpenBabel11021811473D
libRbt.so/2013.1/901 2013/11/27
 26 28  0  0  0  0  0  0  0  0999 V2000
   -6.3854   15.3273  -21.5934 N   0  0  0  0  0  0  0  0  0  0  0  0
   -7.6947   15.8849  -21.2322 C   0  0  2  0  0  0  0  0  0  0  0  0
   -8.0368   17.0099  -22.1733 C   0  0  0  0  0  0  0  0  0  0  0  0
   -7.2243   17.8747  -22.4034 O   0  0  0  0  0  0  0  0  0  0  0  0
   -7.6438   16.4157  -19.7985 C   0  0  0  0  0  0  0  0  0  0  0  0
   -7.9284   15.2759  -18.8220 C   0  0  0  0  0  0  0  0  0  0  0  0
   -9.4400   14.5020  -18.8148 S   0  0  0  0  0  0  0  0  0  0  0  0
  -10.2500   13.1266  -19.6711 C   0  0  0  0  0  0  0  0  0  0  0  0
   -9.9760   13.0587  -21.1785 C   0  0  1  0  0  0  0  0  0  0  0  0
  -10.5209   11.8959  -21.7751 O   0  0  0  0  0  0  0  0  0  0  0  0
  -10.6558   14.1785  -21.9305 C   0  0  1  0  0  0  0  0  0  0  0  0
   -9.9116   14.3210  -23.1206 O   0  0  0  0  0  0  0  0  0  0  0  0
  -12.0213   13.6415  -22.2909 C   0  0  1  0  0  0  0  0  0  0  0  0
  -12.3583   14.0403  -23.6016 O   0  0  0  0  0  0  0  0  0  0  0  0
  -11.8301   12.1407  -22.2535 C   0  0  2  0  0  0  0  0  0  0  0  0
   -9.2461   17.0549  -22.7559 O   0  0  0  0  0  0  0  0  0  0  0  0
  -15.6440    8.5929  -21.9688 N   0  0  0  0  0  0  0  0  0  0  0  0
  -15.0085    9.0664  -23.0921 C   0  0  0  0  0  0  0  0  0  0  0  0
  -14.0271   10.0196  -22.9640 N   0  0  0  0  0  0  0  0  0  0  0  0
  -13.6812   10.4922  -21.7506 C   0  0  0  0  0  0  0  0  0  0  0  0
  -14.3067   10.0292  -20.6083 C   0  0  0  0  0  0  0  0  0  0  0  0
  -15.3031    9.0675  -20.7272 C   0  0  0  0  0  0  0  0  0  0  0  0
  -15.9323    8.5982  -19.6569 N   0  0  0  0  0  0  0  0  0  0  0  0
  -13.7704   10.6671  -19.5439 N   0  0  0  0  0  0  0  0  0  0  0  0
  -12.8219   11.5116  -19.9938 C   0  0  0  0  0  0  0  0  0  0  0  0
  -12.7603   11.4249  -21.3611 N   0  0  0  0  0  0  0  0  0  0  0  0
  2  1  1  6  0  0  0
  2  3  1  0  0  0  0
  2  5  1  0  0  0  0
  3  4  1  0  0  0  0
  3 16  1  0  0  0  0
  5  6  1  0  0  0  0
  6  7  1  0  0  0  0
  7  8  1  0  0  0  0
  9  8  1  1  0  0  0
  9 10  1  0  0  0  0
  9 11  1  0  0  0  0
 10 15  1  0  0  0  0
 11 12  1  6  0  0  0
 11 13  1  0  0  0  0
 13 14  1  6  0  0  0
 13 15  1  0  0  0  0
 15 26  1  1  0  0  0
 17 18  2  0  0  0  0
 17 22  1  0  0  0  0
 18 19  1  0  0  0  0
 19 20  2  0  0  0  0
 20 21  1  0  0  0  0
 20 26  1  0  0  0  0
 21 22  2  0  0  0  0
 21 24  1  0  0  0  0
 22 23  1  0  0  0  0
 24 25  2  0  0  0  0
 25 26  1  0  0  0  0
M  END
>  <CHROM.1>
-48.49547817,-85.40956370,-64.16598727,87.04408737,-41.85126868,174.14045286
-123.58062346,-11.14425815,13.07010837,-21.25683868,0.20810874,-0.75358701
-1.25026627

>  <Name>
ligand

>  <RI>
0

>  <Rbt.Current_Directory>
/home/itssahil/PROJECTS/Mol_Feturizer/New_Systems/rnas/3E5E

>  <Rbt.Executable>
rbdock ($Id: //depot/dev/client3/rdock/2013.1/src/exe/rbdock.cxx#4 $)

>  <Rbt.Library>
libRbt.so (2013.1, Build901 2013/11/27)

>  <Rbt.Parameter_File>
/export/apps/rDock/src/rDock_2013.1_src/data/scripts/dock_solv.prm

>  <Rbt.Receptor>
prm/pocket_docking_4.prm

>  <SCORE>
-22.511

>  <SCORE.INTER>
-19.474

>  <SCORE.INTER.CONST>
1

>  <SCORE.INTER.POLAR>
0

>  <SCORE.INTER.ROT>
7

>  <SCORE.INTER.SOLV>
11.4537

>  <SCORE.INTER.VDW>
-25.0672

>  <SCORE.INTER.norm>
-0.749001

>  <SCORE.INTRA>
-3.03697

>  <SCORE.INTRA.DIHEDRAL>
-3.47005

>  <SCORE.INTRA.DIHEDRAL.0>
10.1225

>  <SCORE.INTRA.POLAR>
0

>  <SCORE.INTRA.POLAR.0>
0

>  <SCORE.INTRA.REPUL>
0

>  <SCORE.INTRA.REPUL.0>
0

>  <SCORE.INTRA.SOLV>
1.30177

>  <SCORE.INTRA.SOLV.lig_0>
-49.9393

>  <SCORE.INTRA.VDW>
-1.95283

>  <SCORE.INTRA.VDW.0>
-1.75437

>  <SCORE.INTRA.norm>
-0.116806

>  <SCORE.RESTR>
0

>  <SCORE.RESTR.CAVITY>
0

>  <SCORE.RESTR.norm>
0

>  <SCORE.SYSTEM>
0

>  <SCORE.SYSTEM.CONST>
0

>  <SCORE.SYSTEM.DIHEDRAL>
0

>  <SCORE.SYSTEM.SOLV>
0

>  <SCORE.SYSTEM.norm>
0

>  <SCORE.heavy>
26

>  <SCORE.norm>
-0.865807

>  <RMSD>
8.543

$$$$
ligand
 OpenBabel11021811473D
libRbt.so/2013.1/901 2013/11/27
 26 28  0  0  0  0  0  0  0  0999 V2000
   -5.0809   14.5643  -23.5183 N   0  0  0  0  0  0  0  0  0  0  0  0
   -6.2127   13.7112  -23.1354 C   0  0  2  0  0  0  0  0  0  0  0  0
   -5.9965   12.3210  -23.6728 C   0  0  0  0  0  0  0  0  0  0  0  0
   -5.2535   12.1431  -24.6095 O   0  0  0  0  0  0  0  0  0  0  0  0
   -7.5046   14.2885  -23.7165 C   0  0  0  0  0  0  0  0  0  0  0  0
   -8.7017   13.5146  -23.1673 C   0  0  0  0  0  0  0  0  0  0  0  0
  -10.2751   13.8639  -23.7024 S   0  0  0  0  0  0  0  0  0  0  0  0
  -11.9060   13.0757  -23.6874 C   0  0  0  0  0  0  0  0  0  0  0  0
  -12.4932   12.8429  -22.2900 C   0  0  1  0  0  0  0  0  0  0  0  0
  -13.2077   11.6237  -22.2002 O   0  0  0  0  0  0  0  0  0  0  0  0
  -11.4181   12.6865  -21.2407 C   0  0  1  0  0  0  0  0  0  0  0  0
  -12.0450   13.0295  -20.0243 O   0  0  0  0  0  0  0  0  0  0  0  0
  -11.1076   11.2081  -21.2095 C   0  0  1  0  0  0  0  0  0  0  0  0
  -10.9261   10.7885  -19.8746 O   0  0  0  0  0  0  0  0  0  0  0  0
  -12.3612   10.5735  -21.7719 C   0  0  2  0  0  0  0  0  0  0  0  0
   -6.6309   11.2776  -23.1136 O   0  0  0  0  0  0  0  0  0  0  0  0
   -9.2457    9.5054  -25.8174 N   0  0  0  0  0  0  0  0  0  0  0  0
   -9.1330   10.5300  -24.9078 C   0  0  0  0  0  0  0  0  0  0  0  0
  -10.0688   10.6553  -23.9095 N   0  0  0  0  0  0  0  0  0  0  0  0
  -11.0924    9.7845  -23.8127 C   0  0  0  0  0  0  0  0  0  0  0  0
  -11.2239    8.7467  -24.7161 C   0  0  0  0  0  0  0  0  0  0  0  0
  -10.2845    8.6130  -25.7317 C   0  0  0  0  0  0  0  0  0  0  0  0
  -10.3750    7.6336  -26.6229 N   0  0  0  0  0  0  0  0  0  0  0  0
  -12.3264    8.0367  -24.3876 N   0  0  0  0  0  0  0  0  0  0  0  0
  -12.8818    8.6024  -23.2982 C   0  0  0  0  0  0  0  0  0  0  0  0
  -12.1363    9.6945  -22.9341 N   0  0  0  0  0  0  0  0  0  0  0  0
  2  1  1  6  0  0  0
  2  3  1  0  0  0  0
  2  5  1  0  0  0  0
  3  4  1  0  0  0  0
  3 16  1  0  0  0  0
  5  6  1  0  0  0  0
  6  7  1  0  0  0  0
  7  8  1  0  0  0  0
  9  8  1  6  0  0  0
  9 10  1  0  0  0  0
  9 11  1  0  0  0  0
 10 15  1  0  0  0  0
 11 12  1  1  0  0  0
 11 13  1  0  0  0  0
 13 14  1  1  0  0  0
 13 15  1  0  0  0  0
 15 26  1  6  0  0  0
 17 18  2  0  0  0  0
 17 22  1  0  0  0  0
 18 19  1  0  0  0  0
 19 20  2  0  0  0  0
 20 21  1  0  0  0  0
 20 26  1  0  0  0  0
 21 22  2  0  0  0  0
 21 24  1  0  0  0  0
 22 23  1  0  0  0  0
 24 25  2  0  0  0  0
 25 26  1  0  0  0  0
M  END
>  <CHROM.1>
-21.99495994,-172.44437390,-176.34803156,162.87148090,63.25543732,-142.91975847
93.03960806,-9.98598108,11.45515938,-23.31573512,0.36783602,0.41675673,0.64569687

>  <Name>
ligand

>  <RI>
0

>  <Rbt.Current_Directory>
/home/itssahil/PROJECTS/Mol_Feturizer/New_Systems/rnas/3E5E

>  <Rbt.Executable>
rbdock ($Id: //depot/dev/client3/rdock/2013.1/src/exe/rbdock.cxx#4 $)

>  <Rbt.Library>
libRbt.so (2013.1, Build901 2013/11/27)

>  <Rbt.Parameter_File>
/export/apps/rDock/src/rDock_2013.1_src/data/scripts/dock_solv.prm

>  <Rbt.Receptor>
prm/blind_docking_60.prm

>  <SCORE>
-16.2135

>  <SCORE.INTER>
-13.1237

>  <SCORE.INTER.CONST>
1

>  <SCORE.INTER.POLAR>
0

>  <SCORE.INTER.ROT>
7

>  <SCORE.INTER.SOLV>
5.77085

>  <SCORE.INTER.VDW>
-18.9394

>  <SCORE.INTER.norm>
-0.504758

>  <SCORE.INTRA>
-3.08974

>  <SCORE.INTRA.DIHEDRAL>
-3.02235

>  <SCORE.INTRA.DIHEDRAL.0>
10.1225

>  <SCORE.INTRA.POLAR>
0

>  <SCORE.INTRA.POLAR.0>
0

>  <SCORE.INTRA.REPUL>
0

>  <SCORE.INTRA.REPUL.0>
0

>  <SCORE.INTRA.SOLV>
-0.360855

>  <SCORE.INTRA.SOLV.lig_0>
-49.9393

>  <SCORE.INTRA.VDW>
-1.39814

>  <SCORE.INTRA.VDW.0>
-1.75437

>  <SCORE.INTRA.norm>
-0.118836

>  <SCORE.RESTR>
0

>  <SCORE.RESTR.CAVITY>
0

>  <SCORE.RESTR.norm>
0

>  <SCORE.SYSTEM>
0

>  <SCORE.SYSTEM.CONST>
0

>  <SCORE.SYSTEM.DIHEDRAL>
0

>  <SCORE.SYSTEM.SOLV>
0

>  <SCORE.SYSTEM.norm>
0

>  <SCORE.heavy>
26

>  <SCORE.norm>
-0.623594

>  <RMSD>
8.555

$$$$
ligand
 OpenBabel11021811473D
libRbt.so/2013.1/901 2013/11/27
 26 28  0  0  0  0  0  0  0  0999 V2000
   -7.8386   16.2013  -22.0329 N   0  0  0  0  0  0  0  0  0  0  0  0
   -8.1697   15.9673  -20.6218 C   0  0  2  0  0  0  0  0  0  0  0  0
   -6.8990   15.8165  -19.8275 C   0  0  0  0  0  0  0  0  0  0  0  0
   -5.8592   15.5665  -20.3909 O   0  0  0  0  0  0  0  0  0  0  0  0
   -9.0032   14.6906  -20.4996 C   0  0  0  0  0  0  0  0  0  0  0  0
   -9.3900   14.4716  -19.0381 C   0  0  0  0  0  0  0  0  0  0  0  0
  -10.7693   13.5661  -18.6360 S   0  0  0  0  0  0  0  0  0  0  0  0
  -11.6018   12.0610  -19.2042 C   0  0  0  0  0  0  0  0  0  0  0  0
  -10.8080   11.2344  -20.2231 C   0  0  1  0  0  0  0  0  0  0  0  0
  -11.2712    9.8994  -20.3144 O   0  0  0  0  0  0  0  0  0  0  0  0
  -10.9792   11.7521  -21.6317 C   0  0  1  0  0  0  0  0  0  0  0  0
   -9.8377   11.2995  -22.3263 O   0  0  0  0  0  0  0  0  0  0  0  0
  -12.1832   11.0211  -22.1784 C   0  0  1  0  0  0  0  0  0  0  0  0
  -11.9483   10.6556  -23.5208 O   0  0  0  0  0  0  0  0  0  0  0  0
  -12.2574    9.7756  -21.3219 C   0  0  2  0  0  0  0  0  0  0  0  0
   -6.9202   15.9570  -18.4919 O   0  0  0  0  0  0  0  0  0  0  0  0
  -14.6732    7.6411  -17.2204 N   0  0  0  0  0  0  0  0  0  0  0  0
  -13.3432    7.5586  -17.5586 C   0  0  0  0  0  0  0  0  0  0  0  0
  -12.8934    8.1847  -18.6960 N   0  0  0  0  0  0  0  0  0  0  0  0
  -13.7411    8.8787  -19.4803 C   0  0  0  0  0  0  0  0  0  0  0  0
  -15.0818    8.9752  -19.1584 C   0  0  0  0  0  0  0  0  0  0  0  0
  -15.5476    8.3427  -18.0117 C   0  0  0  0  0  0  0  0  0  0  0  0
  -16.8279    8.4062  -17.6674 N   0  0  0  0  0  0  0  0  0  0  0  0
  -15.6924    9.7200  -20.1069 N   0  0  0  0  0  0  0  0  0  0  0  0
  -14.7645   10.0954  -21.0088 C   0  0  0  0  0  0  0  0  0  0  0  0
  -13.5503    9.5735  -20.6425 N   0  0  0  0  0  0  0  0  0  0  0  0
  2  1  1  6  0  0  0
  2  3  1  0  0  0  0
  2  5  1  0  0  0  0
  3  4  1  0  0  0  0
  3 16  1  0  0  0  0
  5  6  1  0  0  0  0
  6  7  1  0  0  0  0
  7  8  1  0  0  0  0
  9  8  1  1  0  0  0
  9 10  1  0  0  0  0
  9 11  1  0  0  0  0
 10 15  1  0  0  0  0
 11 12  1  6  0  0  0
 11 13  1  0  0  0  0
 13 14  1  6  0  0  0
 13 15  1  0  0  0  0
 15 26  1  1  0  0  0
 17 18  2  0  0  0  0
 17 22  1  0  0  0  0
 18 19  1  0  0  0  0
 19 20  2  0  0  0  0
 20 21  1  0  0  0  0
 20 26  1  0  0  0  0
 21 22  2  0  0  0  0
 21 24  1  0  0  0  0
 22 23  1  0  0  0  0
 24 25  2  0  0  0  0
 25 26  1  0  0  0  0
M  END
>  <CHROM.1>
-18.20675217,-178.03968942,155.19199378,40.01980753,9.34424488,161.09757875
-34.99889227,-11.46207869,11.61165613,-19.96465590,0.00660540,-0.77671460
-1.73757466

>  <Name>
ligand

>  <RI>
0

>  <Rbt.Current_Directory>
/home/itssahil/PROJECTS/Mol_Feturizer/New_Systems/rnas/3E5E

>  <Rbt.Executable>
rbdock ($Id: //depot/dev/client3/rdock/2013.1/src/exe/rbdock.cxx#4 $)

>  <Rbt.Library>
libRbt.so (2013.1, Build901 2013/11/27)

>  <Rbt.Parameter_File>
/export/apps/rDock/src/rDock_2013.1_src/data/scripts/dock_solv.prm

>  <Rbt.Receptor>
prm/pocket_docking_3.prm

>  <SCORE>
-18.1025

>  <SCORE.INTER>
-16.8927

>  <SCORE.INTER.CONST>
1

>  <SCORE.INTER.POLAR>
0

>  <SCORE.INTER.ROT>
7

>  <SCORE.INTER.SOLV>
8.69515

>  <SCORE.INTER.VDW>
-22.4268

>  <SCORE.INTER.norm>
-0.649718

>  <SCORE.INTRA>
-1.21642

>  <SCORE.INTRA.DIHEDRAL>
-1.29268

>  <SCORE.INTRA.DIHEDRAL.0>
10.1225

>  <SCORE.INTRA.POLAR>
0

>  <SCORE.INTRA.POLAR.0>
0

>  <SCORE.INTRA.REPUL>
0

>  <SCORE.INTRA.REPUL.0>
0

>  <SCORE.INTRA.SOLV>
-0.505636

>  <SCORE.INTRA.SOLV.lig_0>
-49.9393

>  <SCORE.INTRA.VDW>
-0.317262

>  <SCORE.INTRA.VDW.0>
-1.75437

>  <SCORE.INTRA.norm>
-0.0467854

>  <SCORE.RESTR>
0.00655223

>  <SCORE.RESTR.CAVITY>
0.00655223

>  <SCORE.RESTR.norm>
0.000252009

>  <SCORE.SYSTEM>
0

>  <SCORE.SYSTEM.CONST>
0

>  <SCORE.SYSTEM.DIHEDRAL>
0

>  <SCORE.SYSTEM.SOLV>
0

>  <SCORE.SYSTEM.norm>
0

>  <SCORE.heavy>
26

>  <SCORE.norm>
-0.696252

>  <RMSD>
8.587

$$$$
ligand
 OpenBabel11021811473D
libRbt.so/2013.1/901 2013/11/27
 26 28  0  0  0  0  0  0  0  0999 V2000
   -7.9292   13.0536  -26.0019 N   0  0  0  0  0  0  0  0  0  0  0  0
   -8.8984   13.9296  -25.3318 C   0  0  2  0  0  0  0  0  0  0  0  0
   -8.1938   15.1596  -24.8231 C   0  0  0  0  0  0  0  0  0  0  0  0
   -8.6977   16.2488  -24.9670 O   0  0  0  0  0  0  0  0  0  0  0  0
   -9.5333   13.1821  -24.1579 C   0  0  0  0  0  0  0  0  0  0  0  0
  -10.3165   11.9799  -24.6820 C   0  0  0  0  0  0  0  0  0  0  0  0
  -11.0794   10.9103  -23.6058 S   0  0  0  0  0  0  0  0  0  0  0  0
  -12.3006   10.9909  -22.2704 C   0  0  0  0  0  0  0  0  0  0  0  0
  -12.3273   12.3193  -21.5046 C   0  0  1  0  0  0  0  0  0  0  0  0
  -13.1329   12.2569  -20.3419 O   0  0  0  0  0  0  0  0  0  0  0  0
  -10.9681   12.6878  -20.9586 C   0  0  1  0  0  0  0  0  0  0  0  0
  -11.0105   14.0883  -20.7933 O   0  0  0  0  0  0  0  0  0  0  0  0
  -10.9068   12.0539  -19.5884 C   0  0  1  0  0  0  0  0  0  0  0  0
  -10.2893   12.9410  -18.6814 O   0  0  0  0  0  0  0  0  0  0  0  0
  -12.3633   11.8829  -19.2146 C   0  0  2  0  0  0  0  0  0  0  0  0
   -7.0033   15.0480  -24.2114 O   0  0  0  0  0  0  0  0  0  0  0  0
  -14.4179    8.7965  -15.5449 N   0  0  0  0  0  0  0  0  0  0  0  0
  -14.1529   10.1434  -15.4692 C   0  0  0  0  0  0  0  0  0  0  0  0
  -13.5926   10.7850  -16.5474 N   0  0  0  0  0  0  0  0  0  0  0  0
  -13.3027   10.1088  -17.6760 C   0  0  0  0  0  0  0  0  0  0  0  0
  -13.5618    8.7546  -17.7737 C   0  0  0  0  0  0  0  0  0  0  0  0
  -14.1254    8.0954  -16.6876 C   0  0  0  0  0  0  0  0  0  0  0  0
  -14.3869    6.7951  -16.7370 N   0  0  0  0  0  0  0  0  0  0  0  0
  -13.1764    8.3373  -19.0004 N   0  0  0  0  0  0  0  0  0  0  0  0
  -12.6892    9.3988  -19.6719 C   0  0  0  0  0  0  0  0  0  0  0  0
  -12.7492   10.5042  -18.8623 N   0  0  0  0  0  0  0  0  0  0  0  0
  2  1  1  1  0  0  0
  2  3  1  0  0  0  0
  2  5  1  0  0  0  0
  3  4  1  0  0  0  0
  3 16  1  0  0  0  0
  5  6  1  0  0  0  0
  6  7  1  0  0  0  0
  7  8  1  0  0  0  0
  9  8  1  1  0  0  0
  9 10  1  0  0  0  0
  9 11  1  0  0  0  0
 10 15  1  0  0  0  0
 11 12  1  1  0  0  0
 11 13  1  0  0  0  0
 13 14  1  1  0  0  0
 13 15  1  0  0  0  0
 15 26  1  6  0  0  0
 17 18  2  0  0  0  0
 17 22  1  0  0  0  0
 18 19  1  0  0  0  0
 19 20  2  0  0  0  0
 20 21  1  0  0  0  0
 20 26  1  0  0  0  0
 21 22  2  0  0  0  0
 21 24  1  0  0  0  0
 22 23  1  0  0  0  0
 24 25  2  0  0  0  0
 25 26  1  0  0  0  0
M  END
>  <CHROM.1>
136.48099450,-63.33798392,177.24156685,56.36459580,-29.14233782,-170.22933708
-118.90848593,-11.48711026,11.62026514,-20.81008439,0.35439589,-1.03312613
-2.15868441

>  <Name>
ligand

>  <RI>
0

>  <Rbt.Current_Directory>
/home/itssahil/PROJECTS/Mol_Feturizer/New_Systems/rnas/3E5E

>  <Rbt.Executable>
rbdock ($Id: //depot/dev/client3/rdock/2013.1/src/exe/rbdock.cxx#4 $)

>  <Rbt.Library>
libRbt.so (2013.1, Build901 2013/11/27)

>  <Rbt.Parameter_File>
/export/apps/rDock/src/rDock_2013.1_src/data/scripts/dock_solv.prm

>  <Rbt.Receptor>
prm/pocket_docking_5.prm

>  <SCORE>
-17.318

>  <SCORE.INTER>
-13.8866

>  <SCORE.INTER.CONST>
1

>  <SCORE.INTER.POLAR>
0

>  <SCORE.INTER.ROT>
7

>  <SCORE.INTER.SOLV>
8.20373

>  <SCORE.INTER.VDW>
-20.259

>  <SCORE.INTER.norm>
-0.5341

>  <SCORE.INTRA>
-3.43145

>  <SCORE.INTRA.DIHEDRAL>
-5.73153

>  <SCORE.INTRA.DIHEDRAL.0>
10.1225

>  <SCORE.INTRA.POLAR>
0

>  <SCORE.INTRA.POLAR.0>
0

>  <SCORE.INTRA.REPUL>
0

>  <SCORE.INTRA.REPUL.0>
0

>  <SCORE.INTRA.SOLV>
0.36153

>  <SCORE.INTRA.SOLV.lig_0>
-49.9393

>  <SCORE.INTRA.VDW>
-0.746447

>  <SCORE.INTRA.VDW.0>
-1.75437

>  <SCORE.INTRA.norm>
-0.131979

>  <SCORE.RESTR>
0

>  <SCORE.RESTR.CAVITY>
0

>  <SCORE.RESTR.norm>
0

>  <SCORE.SYSTEM>
0

>  <SCORE.SYSTEM.CONST>
0

>  <SCORE.SYSTEM.DIHEDRAL>
0

>  <SCORE.SYSTEM.SOLV>
0

>  <SCORE.SYSTEM.norm>
0

>  <SCORE.heavy>
26

>  <SCORE.norm>
-0.666079

>  <RMSD>
8.599

$$$$
ligand
 OpenBabel11021811473D
libRbt.so/2013.1/901 2013/11/27
 26 28  0  0  0  0  0  0  0  0999 V2000
   -6.2573   15.3767  -21.5138 N   0  0  0  0  0  0  0  0  0  0  0  0
   -7.4004   16.2517  -21.2252 C   0  0  2  0  0  0  0  0  0  0  0  0
   -7.1851   17.5898  -21.8820 C   0  0  0  0  0  0  0  0  0  0  0  0
   -8.0578   18.0781  -22.5610 O   0  0  0  0  0  0  0  0  0  0  0  0
   -7.5283   16.4397  -19.7126 C   0  0  0  0  0  0  0  0  0  0  0  0
   -7.9860   15.1303  -19.0725 C   0  0  0  0  0  0  0  0  0  0  0  0
   -9.4645   14.4225  -19.5164 S   0  0  0  0  0  0  0  0  0  0  0  0
  -10.3344   13.9697  -21.0394 C   0  0  0  0  0  0  0  0  0  0  0  0
  -11.8464   13.7698  -20.8795 C   0  0  1  0  0  0  0  0  0  0  0  0
  -12.5110   13.6543  -22.1244 O   0  0  0  0  0  0  0  0  0  0  0  0
  -12.1777   12.4655  -20.1935 C   0  0  1  0  0  0  0  0  0  0  0  0
  -13.4599   12.6621  -19.6388 O   0  0  0  0  0  0  0  0  0  0  0  0
  -12.2974   11.4517  -21.3075 C   0  0  1  0  0  0  0  0  0  0  0  0
  -13.3838   10.5890  -21.0504 O   0  0  0  0  0  0  0  0  0  0  0  0
  -12.6029   12.2995  -22.5233 C   0  0  2  0  0  0  0  0  0  0  0  0
   -6.0221   18.2410  -21.7163 O   0  0  0  0  0  0  0  0  0  0  0  0
   -9.9101    8.8421  -25.3533 N   0  0  0  0  0  0  0  0  0  0  0  0
  -10.6978    8.6063  -24.2515 C   0  0  0  0  0  0  0  0  0  0  0  0
  -11.3225    9.6592  -23.6277 N   0  0  0  0  0  0  0  0  0  0  0  0
  -11.1724   10.9174  -24.0855 C   0  0  0  0  0  0  0  0  0  0  0  0
  -10.3859   11.1767  -25.1921 C   0  0  0  0  0  0  0  0  0  0  0  0
   -9.7468   10.1190  -25.8285 C   0  0  0  0  0  0  0  0  0  0  0  0
   -8.9792   10.3235  -26.8918 N   0  0  0  0  0  0  0  0  0  0  0  0
  -10.4119   12.5075  -25.4276 N   0  0  0  0  0  0  0  0  0  0  0  0
  -11.2001   13.0836  -24.4990 C   0  0  0  0  0  0  0  0  0  0  0  0
  -11.6716   12.1141  -23.6512 N   0  0  0  0  0  0  0  0  0  0  0  0
  2  1  1  1  0  0  0
  2  3  1  0  0  0  0
  2  5  1  0  0  0  0
  3  4  1  0  0  0  0
  3 16  1  0  0  0  0
  5  6  1  0  0  0  0
  6  7  1  0  0  0  0
  7  8  1  0  0  0  0
  9  8  1  6  0  0  0
  9 10  1  0  0  0  0
  9 11  1  0  0  0  0
 10 15  1  0  0  0  0
 11 12  1  6  0  0  0
 11 13  1  0  0  0  0
 13 14  1  1  0  0  0
 13 15  1  0  0  0  0
 15 26  1  6  0  0  0
 17 18  2  0  0  0  0
 17 22  1  0  0  0  0
 18 19  1  0  0  0  0
 19 20  2  0  0  0  0
 20 21  1  0  0  0  0
 20 26  1  0  0  0  0
 21 22  2  0  0  0  0
 21 24  1  0  0  0  0
 22 23  1  0  0  0  0
 24 25  2  0  0  0  0
 25 26  1  0  0  0  0
M  END
>  <CHROM.1>
130.10934311,-69.83245409,-59.92003477,49.93522877,-160.80174184,169.45506240
160.49806404,-10.12331838,13.20873576,-22.27825823,-0.94404327,-0.66580134
-2.23665777

>  <Name>
ligand

>  <RI>
0

>  <Rbt.Current_Directory>
/home/itssahil/PROJECTS/Mol_Feturizer/New_Systems/rnas/3E5E

>  <Rbt.Executable>
rbdock ($Id: //depot/dev/client3/rdock/2013.1/src/exe/rbdock.cxx#4 $)

>  <Rbt.Library>
libRbt.so (2013.1, Build901 2013/11/27)

>  <Rbt.Parameter_File>
/export/apps/rDock/src/rDock_2013.1_src/data/scripts/dock_solv.prm

>  <Rbt.Receptor>
prm/pocket_docking_6.prm

>  <SCORE>
-20.5443

>  <SCORE.INTER>
-17.1633

>  <SCORE.INTER.CONST>
1

>  <SCORE.INTER.POLAR>
0

>  <SCORE.INTER.ROT>
7

>  <SCORE.INTER.SOLV>
9.81777

>  <SCORE.INTER.VDW>
-22.9814

>  <SCORE.INTER.norm>
-0.660125

>  <SCORE.INTRA>
-3.38108

>  <SCORE.INTRA.DIHEDRAL>
-6.0629

>  <SCORE.INTRA.DIHEDRAL.0>
10.1225

>  <SCORE.INTRA.POLAR>
0

>  <SCORE.INTRA.POLAR.0>
0

>  <SCORE.INTRA.REPUL>
0

>  <SCORE.INTRA.REPUL.0>
0

>  <SCORE.INTRA.SOLV>
0.938011

>  <SCORE.INTRA.SOLV.lig_0>
-49.9393

>  <SCORE.INTRA.VDW>
-0.818637

>  <SCORE.INTRA.VDW.0>
-1.75437

>  <SCORE.INTRA.norm>
-0.130042

>  <SCORE.RESTR>
0

>  <SCORE.RESTR.CAVITY>
0

>  <SCORE.RESTR.norm>
0

>  <SCORE.SYSTEM>
0

>  <SCORE.SYSTEM.CONST>
0

>  <SCORE.SYSTEM.DIHEDRAL>
0

>  <SCORE.SYSTEM.SOLV>
0

>  <SCORE.SYSTEM.norm>
0

>  <SCORE.heavy>
26

>  <SCORE.norm>
-0.790167

>  <RMSD>
8.618

$$$$
ligand
 OpenBabel11021811473D
libRbt.so/2013.1/901 2013/11/27
 26 28  0  0  0  0  0  0  0  0999 V2000
   -6.5077   16.5050  -20.8557 N   0  0  0  0  0  0  0  0  0  0  0  0
   -7.7751   16.3117  -20.1401 C   0  0  2  0  0  0  0  0  0  0  0  0
   -7.4904   15.9487  -18.7065 C   0  0  0  0  0  0  0  0  0  0  0  0
   -6.4076   15.5097  -18.3969 O   0  0  0  0  0  0  0  0  0  0  0  0
   -8.5681   15.1852  -20.8047 C   0  0  0  0  0  0  0  0  0  0  0  0
   -8.9742   15.6100  -22.2148 C   0  0  0  0  0  0  0  0  0  0  0  0
   -9.6611   14.4895  -23.2903 S   0  0  0  0  0  0  0  0  0  0  0  0
  -11.2134   13.5727  -23.4660 C   0  0  0  0  0  0  0  0  0  0  0  0
  -12.1857   13.7258  -22.2901 C   0  0  1  0  0  0  0  0  0  0  0  0
  -13.1225   12.6662  -22.2217 O   0  0  0  0  0  0  0  0  0  0  0  0
  -11.4814   13.6451  -20.9563 C   0  0  1  0  0  0  0  0  0  0  0  0
  -12.3302   14.3225  -20.0557 O   0  0  0  0  0  0  0  0  0  0  0  0
  -11.4860   12.1782  -20.5943 C   0  0  1  0  0  0  0  0  0  0  0  0
  -11.7527   12.0292  -19.2169 O   0  0  0  0  0  0  0  0  0  0  0  0
  -12.6433   11.6219  -21.3954 C   0  0  2  0  0  0  0  0  0  0  0  0
   -8.4403   16.1098  -17.7707 O   0  0  0  0  0  0  0  0  0  0  0  0
  -14.4266    8.1747  -24.8812 N   0  0  0  0  0  0  0  0  0  0  0  0
  -15.1395    9.1192  -24.1814 C   0  0  0  0  0  0  0  0  0  0  0  0
  -14.4878    9.9357  -23.2889 N   0  0  0  0  0  0  0  0  0  0  0  0
  -13.1595    9.8212  -23.0948 C   0  0  0  0  0  0  0  0  0  0  0  0
  -12.4235    8.8790  -23.7885 C   0  0  0  0  0  0  0  0  0  0  0  0
  -13.0737    8.0458  -24.6913 C   0  0  0  0  0  0  0  0  0  0  0  0
  -12.4064    7.1249  -25.3754 N   0  0  0  0  0  0  0  0  0  0  0  0
  -11.1321    8.9827  -23.4027 N   0  0  0  0  0  0  0  0  0  0  0  0
  -11.0437    9.9701  -22.4904 C   0  0  0  0  0  0  0  0  0  0  0  0
  -12.2933   10.4942  -22.2784 N   0  0  0  0  0  0  0  0  0  0  0  0
  2  1  1  6  0  0  0
  2  3  1  0  0  0  0
  2  5  1  0  0  0  0
  3  4  1  0  0  0  0
  3 16  1  0  0  0  0
  5  6  1  0  0  0  0
  6  7  1  0  0  0  0
  7  8  1  0  0  0  0
  9  8  1  6  0  0  0
  9 10  1  0  0  0  0
  9 11  1  0  0  0  0
 10 15  1  0  0  0  0
 11 12  1  1  0  0  0
 11 13  1  0  0  0  0
 13 14  1  1  0  0  0
 13 15  1  0  0  0  0
 15 26  1  6  0  0  0
 17 18  2  0  0  0  0
 17 22  1  0  0  0  0
 18 19  1  0  0  0  0
 19 20  2  0  0  0  0
 20 21  1  0  0  0  0
 20 26  1  0  0  0  0
 21 22  2  0  0  0  0
 21 24  1  0  0  0  0
 22 23  1  0  0  0  0
 24 25  2  0  0  0  0
 25 26  1  0  0  0  0
M  END
>  <CHROM.1>
-20.00163936,-65.52686174,170.70994740,69.64016252,-6.00028322,-158.54625896
-61.34266058,-11.01987346,12.50905599,-21.90214289,-0.82575469,-0.61932769
-2.10601247

>  <Name>
ligand

>  <RI>
0

>  <Rbt.Current_Directory>
/home/itssahil/PROJECTS/Mol_Feturizer/New_Systems/rnas/3E5E

>  <Rbt.Executable>
rbdock ($Id: //depot/dev/client3/rdock/2013.1/src/exe/rbdock.cxx#4 $)

>  <Rbt.Library>
libRbt.so (2013.1, Build901 2013/11/27)

>  <Rbt.Parameter_File>
/export/apps/rDock/src/rDock_2013.1_src/data/scripts/dock_solv.prm

>  <Rbt.Receptor>
prm/blind_docking_100.prm

>  <SCORE>
-23.4229

>  <SCORE.INTER>
-21.5496

>  <SCORE.INTER.CONST>
1

>  <SCORE.INTER.POLAR>
0

>  <SCORE.INTER.ROT>
7

>  <SCORE.INTER.SOLV>
11.4481

>  <SCORE.INTER.VDW>
-26.4491

>  <SCORE.INTER.norm>
-0.828829

>  <SCORE.INTRA>
-1.87334

>  <SCORE.INTRA.DIHEDRAL>
-3.02891

>  <SCORE.INTRA.DIHEDRAL.0>
10.1225

>  <SCORE.INTRA.POLAR>
0

>  <SCORE.INTRA.POLAR.0>
0

>  <SCORE.INTRA.REPUL>
0

>  <SCORE.INTRA.REPUL.0>
0

>  <SCORE.INTRA.SOLV>
0.464659

>  <SCORE.INTRA.SOLV.lig_0>
-49.9393

>  <SCORE.INTRA.VDW>
-0.591212

>  <SCORE.INTRA.VDW.0>
-1.75437

>  <SCORE.INTRA.norm>
-0.0720515

>  <SCORE.RESTR>
0

>  <SCORE.RESTR.CAVITY>
0

>  <SCORE.RESTR.norm>
0

>  <SCORE.SYSTEM>
0

>  <SCORE.SYSTEM.CONST>
0

>  <SCORE.SYSTEM.DIHEDRAL>
0

>  <SCORE.SYSTEM.SOLV>
0

>  <SCORE.SYSTEM.norm>
0

>  <SCORE.heavy>
26

>  <SCORE.norm>
-0.900881

>  <RMSD>
8.628

$$$$
ligand
 OpenBabel11021811473D
libRbt.so/2013.1/901 2013/11/27
 26 28  0  0  0  0  0  0  0  0999 V2000
   -7.7478   16.7185  -23.3122 N   0  0  0  0  0  0  0  0  0  0  0  0
   -8.2218   15.8720  -22.2102 C   0  0  2  0  0  0  0  0  0  0  0  0
   -7.5775   16.3172  -20.9238 C   0  0  0  0  0  0  0  0  0  0  0  0
   -8.2070   16.2948  -19.8922 O   0  0  0  0  0  0  0  0  0  0  0  0
   -7.8492   14.4153  -22.4909 C   0  0  0  0  0  0  0  0  0  0  0  0
   -8.5606   13.9414  -23.7570 C   0  0  0  0  0  0  0  0  0  0  0  0
  -10.2566   13.8836  -23.8245 S   0  0  0  0  0  0  0  0  0  0  0  0
  -11.6274   13.3694  -22.7581 C   0  0  0  0  0  0  0  0  0  0  0  0
  -11.6034   13.9706  -21.3475 C   0  0  1  0  0  0  0  0  0  0  0  0
  -12.6302   13.4524  -20.5215 O   0  0  0  0  0  0  0  0  0  0  0  0
  -10.3447   13.6067  -20.5961 C   0  0  1  0  0  0  0  0  0  0  0  0
  -10.2014   14.6134  -19.6182 O   0  0  0  0  0  0  0  0  0  0  0  0
  -10.6654   12.3089  -19.8918 C   0  0  1  0  0  0  0  0  0  0  0  0
  -10.1167   12.3252  -18.5921 O   0  0  0  0  0  0  0  0  0  0  0  0
  -12.1761   12.3215  -19.8020 C   0  0  2  0  0  0  0  0  0  0  0  0
   -6.3034   16.7422  -20.9218 O   0  0  0  0  0  0  0  0  0  0  0  0
  -14.0592    7.5463  -18.8720 N   0  0  0  0  0  0  0  0  0  0  0  0
  -13.4164    8.3896  -17.9970 C   0  0  0  0  0  0  0  0  0  0  0  0
  -12.9779    9.6154  -18.4364 N   0  0  0  0  0  0  0  0  0  0  0  0
  -13.1729    9.9987  -19.7133 C   0  0  0  0  0  0  0  0  0  0  0  0
  -13.8175    9.1667  -20.6093 C   0  0  0  0  0  0  0  0  0  0  0  0
  -14.2621    7.9232  -20.1757 C   0  0  0  0  0  0  0  0  0  0  0  0
  -14.8821    7.0915  -21.0036 N   0  0  0  0  0  0  0  0  0  0  0  0
  -13.8748    9.7953  -21.8047 N   0  0  0  0  0  0  0  0  0  0  0  0
  -13.2875   11.0008  -21.6746 C   0  0  0  0  0  0  0  0  0  0  0  0
  -12.8361   11.1399  -20.3870 N   0  0  0  0  0  0  0  0  0  0  0  0
  2  1  1  6  0  0  0
  2  3  1  0  0  0  0
  2  5  1  0  0  0  0
  3  4  1  0  0  0  0
  3 16  1  0  0  0  0
  5  6  1  0  0  0  0
  6  7  1  0  0  0  0
  7  8  1  0  0  0  0
  9  8  1  6  0  0  0
  9 10  1  0  0  0  0
  9 11  1  0  0  0  0
 10 15  1  0  0  0  0
 11 12  1  1  0  0  0
 11 13  1  0  0  0  0
 13 14  1  1  0  0  0
 13 15  1  0  0  0  0
 15 26  1  6  0  0  0
 17 18  2  0  0  0  0
 17 22  1  0  0  0  0
 18 19  1  0  0  0  0
 19 20  2  0  0  0  0
 20 21  1  0  0  0  0
 20 26  1  0  0  0  0
 21 22  2  0  0  0  0
 21 24  1  0  0  0  0
 22 23  1  0  0  0  0
 24 25  2  0  0  0  0
 25 26  1  0  0  0  0
M  END
>  <CHROM.1>
143.10776983,-62.96214829,-62.60726206,-42.60080960,51.85793658,-175.08662391
-149.16673409,-11.05295980,12.55636500,-20.95473448,0.34866065,-0.84934549
-1.40767901

>  <Name>
ligand

>  <RI>
0

>  <Rbt.Current_Directory>
/home/itssahil/PROJECTS/Mol_Feturizer/New_Systems/rnas/3E5E

>  <Rbt.Executable>
rbdock ($Id: //depot/dev/client3/rdock/2013.1/src/exe/rbdock.cxx#4 $)

>  <Rbt.Library>
libRbt.so (2013.1, Build901 2013/11/27)

>  <Rbt.Parameter_File>
/export/apps/rDock/src/rDock_2013.1_src/data/scripts/dock_solv.prm

>  <Rbt.Receptor>
prm/blind_docking_40.prm

>  <SCORE>
-17.678

>  <SCORE.INTER>
-13.6704

>  <SCORE.INTER.CONST>
1

>  <SCORE.INTER.POLAR>
0

>  <SCORE.INTER.ROT>
7

>  <SCORE.INTER.SOLV>
7.59965

>  <SCORE.INTER.VDW>
-19.9135

>  <SCORE.INTER.norm>
-0.525785

>  <SCORE.INTRA>
-4.00754

>  <SCORE.INTRA.DIHEDRAL>
-6.59024

>  <SCORE.INTRA.DIHEDRAL.0>
10.1225

>  <SCORE.INTRA.POLAR>
0

>  <SCORE.INTRA.POLAR.0>
0

>  <SCORE.INTRA.REPUL>
0

>  <SCORE.INTRA.REPUL.0>
0

>  <SCORE.INTRA.SOLV>
1.38174

>  <SCORE.INTRA.SOLV.lig_0>
-49.9393

>  <SCORE.INTRA.VDW>
-1.40329

>  <SCORE.INTRA.VDW.0>
-1.75437

>  <SCORE.INTRA.norm>
-0.154136

>  <SCORE.RESTR>
0

>  <SCORE.RESTR.CAVITY>
0

>  <SCORE.RESTR.norm>
0

>  <SCORE.SYSTEM>
0

>  <SCORE.SYSTEM.CONST>
0

>  <SCORE.SYSTEM.DIHEDRAL>
0

>  <SCORE.SYSTEM.SOLV>
0

>  <SCORE.SYSTEM.norm>
0

>  <SCORE.heavy>
26

>  <SCORE.norm>
-0.679922

>  <RMSD>
8.633

$$$$
ligand
 OpenBabel11021811473D
libRbt.so/2013.1/901 2013/11/27
 26 28  0  0  0  0  0  0  0  0999 V2000
   -7.7915   15.7087  -24.1639 N   0  0  0  0  0  0  0  0  0  0  0  0
   -8.7476   16.5379  -23.4197 C   0  0  2  0  0  0  0  0  0  0  0  0
   -8.3015   17.9758  -23.4604 C   0  0  0  0  0  0  0  0  0  0  0  0
   -9.1209   18.8621  -23.5239 O   0  0  0  0  0  0  0  0  0  0  0  0
   -8.8100   16.0632  -21.9669 C   0  0  0  0  0  0  0  0  0  0  0  0
   -9.5279   14.7164  -21.9005 C   0  0  0  0  0  0  0  0  0  0  0  0
   -9.8054   13.9583  -20.4064 S   0  0  0  0  0  0  0  0  0  0  0  0
  -10.4808   12.3910  -19.7993 C   0  0  0  0  0  0  0  0  0  0  0  0
  -12.0075   12.3619  -19.6586 C   0  0  1  0  0  0  0  0  0  0  0  0
  -12.6676   12.7604  -20.8462 O   0  0  0  0  0  0  0  0  0  0  0  0
  -12.5305   10.9634  -19.4303 C   0  0  1  0  0  0  0  0  0  0  0  0
  -13.7774   11.1410  -18.7948 O   0  0  0  0  0  0  0  0  0  0  0  0
  -12.7818   10.4045  -20.8115 C   0  0  1  0  0  0  0  0  0  0  0  0
  -13.9837    9.6656  -20.8139 O   0  0  0  0  0  0  0  0  0  0  0  0
  -12.9484   11.6419  -21.6667 C   0  0  2  0  0  0  0  0  0  0  0  0
   -6.9925   18.2748  -23.4289 O   0  0  0  0  0  0  0  0  0  0  0  0
  -10.1338    8.9050  -25.1019 N   0  0  0  0  0  0  0  0  0  0  0  0
  -10.8736    8.4325  -24.0438 C   0  0  0  0  0  0  0  0  0  0  0  0
  -11.5427    9.3196  -23.2355 N   0  0  0  0  0  0  0  0  0  0  0  0
  -11.4825   10.6449  -23.4705 C   0  0  0  0  0  0  0  0  0  0  0  0
  -10.7454   11.1411  -24.5293 C   0  0  0  0  0  0  0  0  0  0  0  0
  -10.0621   10.2525  -25.3510 C   0  0  0  0  0  0  0  0  0  0  0  0
   -9.3392   10.6861  -26.3762 N   0  0  0  0  0  0  0  0  0  0  0  0
  -10.8589   12.4882  -24.5296 N   0  0  0  0  0  0  0  0  0  0  0  0
  -11.6534   12.8435  -23.5011 C   0  0  0  0  0  0  0  0  0  0  0  0
  -12.0406   11.7141  -22.8262 N   0  0  0  0  0  0  0  0  0  0  0  0
  2  1  1  6  0  0  0
  2  3  1  0  0  0  0
  2  5  1  0  0  0  0
  3  4  1  0  0  0  0
  3 16  1  0  0  0  0
  5  6  1  0  0  0  0
  6  7  1  0  0  0  0
  7  8  1  0  0  0  0
  9  8  1  6  0  0  0
  9 10  1  0  0  0  0
  9 11  1  0  0  0  0
 10 15  1  0  0  0  0
 11 12  1  1  0  0  0
 11 13  1  0  0  0  0
 13 14  1  1  0  0  0
 13 15  1  0  0  0  0
 15 26  1  6  0  0  0
 17 18  2  0  0  0  0
 17 22  1  0  0  0  0
 18 19  1  0  0  0  0
 19 20  2  0  0  0  0
 20 21  1  0  0  0  0
 20 26  1  0  0  0  0
 21 22  2  0  0  0  0
 21 24  1  0  0  0  0
 22 23  1  0  0  0  0
 24 25  2  0  0  0  0
 25 26  1  0  0  0  0
M  END
>  <CHROM.1>
144.23822895,-71.57000563,-177.68021627,-175.27344760,-84.47895294,52.54363847
145.30356252,-10.69429454,12.81643588,-22.41885583,-0.57117868,-0.95341302
-2.41832027

>  <Name>
ligand

>  <RI>
0

>  <Rbt.Current_Directory>
/home/itssahil/PROJECTS/Mol_Feturizer/New_Systems/rnas/3E5E

>  <Rbt.Executable>
rbdock ($Id: //depot/dev/client3/rdock/2013.1/src/exe/rbdock.cxx#4 $)

>  <Rbt.Library>
libRbt.so (2013.1, Build901 2013/11/27)

>  <Rbt.Parameter_File>
/export/apps/rDock/src/rDock_2013.1_src/data/scripts/dock_solv.prm

>  <Rbt.Receptor>
prm/blind_docking_40.prm

>  <SCORE>
-18.4575

>  <SCORE.INTER>
-14.2125

>  <SCORE.INTER.CONST>
1

>  <SCORE.INTER.POLAR>
0

>  <SCORE.INTER.ROT>
7

>  <SCORE.INTER.SOLV>
7.71993

>  <SCORE.INTER.VDW>
-20.315

>  <SCORE.INTER.norm>
-0.546636

>  <SCORE.INTRA>
-4.24492

>  <SCORE.INTRA.DIHEDRAL>
-5.91463

>  <SCORE.INTRA.DIHEDRAL.0>
10.1225

>  <SCORE.INTRA.POLAR>
0

>  <SCORE.INTRA.POLAR.0>
0

>  <SCORE.INTRA.REPUL>
0

>  <SCORE.INTRA.REPUL.0>
0

>  <SCORE.INTRA.SOLV>
0.207007

>  <SCORE.INTRA.SOLV.lig_0>
-49.9393

>  <SCORE.INTRA.VDW>
-1.39111

>  <SCORE.INTRA.VDW.0>
-1.75437

>  <SCORE.INTRA.norm>
-0.163266

>  <SCORE.RESTR>
0

>  <SCORE.RESTR.CAVITY>
0

>  <SCORE.RESTR.norm>
0

>  <SCORE.SYSTEM>
0

>  <SCORE.SYSTEM.CONST>
0

>  <SCORE.SYSTEM.DIHEDRAL>
0

>  <SCORE.SYSTEM.SOLV>
0

>  <SCORE.SYSTEM.norm>
0

>  <SCORE.heavy>
26

>  <SCORE.norm>
-0.709902

>  <RMSD>
8.637

$$$$
ligand
 OpenBabel11021811473D
libRbt.so/2013.1/901 2013/11/27
 26 28  0  0  0  0  0  0  0  0999 V2000
   -7.2242   12.8347  -24.9999 N   0  0  0  0  0  0  0  0  0  0  0  0
   -8.6012   12.7634  -25.5041 C   0  0  2  0  0  0  0  0  0  0  0  0
   -8.8271   13.8684  -26.5021 C   0  0  0  0  0  0  0  0  0  0  0  0
   -8.3045   14.9463  -26.3402 O   0  0  0  0  0  0  0  0  0  0  0  0
   -9.5789   12.9202  -24.3382 C   0  0  0  0  0  0  0  0  0  0  0  0
  -10.9965   12.6106  -24.8158 C   0  0  0  0  0  0  0  0  0  0  0  0
  -12.3161   12.7573  -23.7568 S   0  0  0  0  0  0  0  0  0  0  0  0
  -12.7799   12.1892  -22.1005 C   0  0  0  0  0  0  0  0  0  0  0  0
  -12.4714   13.1809  -20.9722 C   0  0  1  0  0  0  0  0  0  0  0  0
  -13.0083   12.7687  -19.7285 O   0  0  0  0  0  0  0  0  0  0  0  0
  -10.9908   13.2773  -20.6896 C   0  0  1  0  0  0  0  0  0  0  0  0
  -10.8179   14.5401  -20.0848 O   0  0  0  0  0  0  0  0  0  0  0  0
  -10.7163   12.2160  -19.6497 C   0  0  1  0  0  0  0  0  0  0  0  0
   -9.8099   12.7140  -18.6900 O   0  0  0  0  0  0  0  0  0  0  0  0
  -12.0675   11.9995  -19.0032 C   0  0  2  0  0  0  0  0  0  0  0  0
   -9.6115   13.6583  -27.5720 O   0  0  0  0  0  0  0  0  0  0  0  0
  -14.4253    8.2214  -16.2865 N   0  0  0  0  0  0  0  0  0  0  0  0
  -14.0912    9.4866  -15.8652 C   0  0  0  0  0  0  0  0  0  0  0  0
  -13.4559   10.3433  -16.7317 N   0  0  0  0  0  0  0  0  0  0  0  0
  -13.1597    9.9567  -17.9879 C   0  0  0  0  0  0  0  0  0  0  0  0
  -13.4875    8.6895  -18.4322 C   0  0  0  0  0  0  0  0  0  0  0  0
  -14.1273    7.8141  -17.5625 C   0  0  0  0  0  0  0  0  0  0  0  0
  -14.4564    6.5869  -17.9465 N   0  0  0  0  0  0  0  0  0  0  0  0
  -13.0782    8.5717  -19.7151 N   0  0  0  0  0  0  0  0  0  0  0  0
  -12.5090    9.7359  -20.0836 C   0  0  0  0  0  0  0  0  0  0  0  0
  -12.5405   10.6032  -19.0215 N   0  0  0  0  0  0  0  0  0  0  0  0
  2  1  1  1  0  0  0
  2  3  1  0  0  0  0
  2  5  1  0  0  0  0
  3  4  1  0  0  0  0
  3 16  1  0  0  0  0
  5  6  1  0  0  0  0
  6  7  1  0  0  0  0
  7  8  1  0  0  0  0
  9  8  1  6  0  0  0
  9 10  1  0  0  0  0
  9 11  1  0  0  0  0
 10 15  1  0  0  0  0
 11 12  1  1  0  0  0
 11 13  1  0  0  0  0
 13 14  1  1  0  0  0
 13 15  1  0  0  0  0
 15 26  1  6  0  0  0
 17 18  2  0  0  0  0
 17 22  1  0  0  0  0
 18 19  1  0  0  0  0
 19 20  2  0  0  0  0
 20 21  1  0  0  0  0
 20 26  1  0  0  0  0
 21 22  2  0  0  0  0
 21 24  1  0  0  0  0
 22 23  1  0  0  0  0
 24 25  2  0  0  0  0
 25 26  1  0  0  0  0
M  END
>  <CHROM.1>
-35.89705579,-170.42404992,-177.64375350,-51.14745648,94.51052564,172.24590369
-102.74015826,-11.64247504,11.66383648,-21.16068414,0.63459232,-1.01480235
-1.91534736

>  <Name>
ligand

>  <RI>
0

>  <Rbt.Current_Directory>
/home/itssahil/PROJECTS/Mol_Feturizer/New_Systems/rnas/3E5E

>  <Rbt.Executable>
rbdock ($Id: //depot/dev/client3/rdock/2013.1/src/exe/rbdock.cxx#4 $)

>  <Rbt.Library>
libRbt.so (2013.1, Build901 2013/11/27)

>  <Rbt.Parameter_File>
/export/apps/rDock/src/rDock_2013.1_src/data/scripts/dock_solv.prm

>  <Rbt.Receptor>
prm/pocket_docking_8.prm

>  <SCORE>
-19.8819

>  <SCORE.INTER>
-16.1885

>  <SCORE.INTER.CONST>
1

>  <SCORE.INTER.POLAR>
0

>  <SCORE.INTER.ROT>
7

>  <SCORE.INTER.SOLV>
8.26953

>  <SCORE.INTER.VDW>
-21.8155

>  <SCORE.INTER.norm>
-0.622635

>  <SCORE.INTRA>
-3.70211

>  <SCORE.INTRA.DIHEDRAL>
-5.33114

>  <SCORE.INTRA.DIHEDRAL.0>
10.1225

>  <SCORE.INTRA.POLAR>
0

>  <SCORE.INTRA.POLAR.0>
0

>  <SCORE.INTRA.REPUL>
0

>  <SCORE.INTRA.REPUL.0>
0

>  <SCORE.INTRA.SOLV>
-0.639169

>  <SCORE.INTRA.SOLV.lig_0>
-49.9393

>  <SCORE.INTRA.VDW>
-0.716953

>  <SCORE.INTRA.VDW.0>
-1.75437

>  <SCORE.INTRA.norm>
-0.142389

>  <SCORE.RESTR>
0.00871823

>  <SCORE.RESTR.CAVITY>
0.00871823

>  <SCORE.RESTR.norm>
0.000335316

>  <SCORE.SYSTEM>
0

>  <SCORE.SYSTEM.CONST>
0

>  <SCORE.SYSTEM.DIHEDRAL>
0

>  <SCORE.SYSTEM.SOLV>
0

>  <SCORE.SYSTEM.norm>
0

>  <SCORE.heavy>
26

>  <SCORE.norm>
-0.764689

>  <RMSD>
8.639

$$$$
ligand
 OpenBabel11021811473D
libRbt.so/2013.1/901 2013/11/27
 26 28  0  0  0  0  0  0  0  0999 V2000
   -5.7328   16.0568  -20.5256 N   0  0  0  0  0  0  0  0  0  0  0  0
   -7.1472   15.6686  -20.4587 C   0  0  2  0  0  0  0  0  0  0  0  0
   -7.9575   16.5730  -21.3495 C   0  0  0  0  0  0  0  0  0  0  0  0
   -9.0240   16.2012  -21.7801 O   0  0  0  0  0  0  0  0  0  0  0  0
   -7.6419   15.7948  -19.0168 C   0  0  0  0  0  0  0  0  0  0  0  0
   -9.0352   15.1797  -18.8996 C   0  0  0  0  0  0  0  0  0  0  0  0
   -9.3829   13.6841  -19.6251 S   0  0  0  0  0  0  0  0  0  0  0  0
  -10.5812   12.3402  -19.4269 C   0  0  0  0  0  0  0  0  0  0  0  0
  -10.6183   11.3373  -20.5865 C   0  0  1  0  0  0  0  0  0  0  0  0
  -11.1095   10.0700  -20.1896 O   0  0  0  0  0  0  0  0  0  0  0  0
  -11.5863   11.7551  -21.6681 C   0  0  1  0  0  0  0  0  0  0  0  0
  -11.1314   11.1039  -22.8340 O   0  0  0  0  0  0  0  0  0  0  0  0
  -12.9098   11.1423  -21.2730 C   0  0  1  0  0  0  0  0  0  0  0  0
  -13.5622   10.6404  -22.4189 O   0  0  0  0  0  0  0  0  0  0  0  0
  -12.5103    9.9914  -20.3750 C   0  0  2  0  0  0  0  0  0  0  0  0
   -7.4947   17.7928  -21.6689 O   0  0  0  0  0  0  0  0  0  0  0  0
  -14.0089    7.1254  -16.2818 N   0  0  0  0  0  0  0  0  0  0  0  0
  -13.4679    6.6910  -17.4687 C   0  0  0  0  0  0  0  0  0  0  0  0
  -13.1459    7.6064  -18.4415 N   0  0  0  0  0  0  0  0  0  0  0  0
  -13.3532    8.9228  -18.2431 C   0  0  0  0  0  0  0  0  0  0  0  0
  -13.8951    9.3812  -17.0571 C   0  0  0  0  0  0  0  0  0  0  0  0
  -14.2274    8.4631  -16.0678 C   0  0  0  0  0  0  0  0  0  0  0  0
  -14.7538    8.8593  -14.9156 N   0  0  0  0  0  0  0  0  0  0  0  0
  -13.9925   10.7275  -17.1285 N   0  0  0  0  0  0  0  0  0  0  0  0
  -13.5190   11.1205  -18.3271 C   0  0  0  0  0  0  0  0  0  0  0  0
  -13.1283   10.0136  -19.0365 N   0  0  0  0  0  0  0  0  0  0  0  0
  2  1  1  1  0  0  0
  2  3  1  0  0  0  0
  2  5  1  0  0  0  0
  3  4  1  0  0  0  0
  3 16  1  0  0  0  0
  5  6  1  0  0  0  0
  6  7  1  0  0  0  0
  7  8  1  0  0  0  0
  9  8  1  1  0  0  0
  9 10  1  0  0  0  0
  9 11  1  0  0  0  0
 10 15  1  0  0  0  0
 11 12  1  6  0  0  0
 11 13  1  0  0  0  0
 13 14  1  6  0  0  0
 13 15  1  0  0  0  0
 15 26  1  1  0  0  0
 17 18  2  0  0  0  0
 17 22  1  0  0  0  0
 18 19  1  0  0  0  0
 19 20  2  0  0  0  0
 20 21  1  0  0  0  0
 20 26  1  0  0  0  0
 21 22  2  0  0  0  0
 21 24  1  0  0  0  0
 22 23  1  0  0  0  0
 24 25  2  0  0  0  0
 25 26  1  0  0  0  0
M  END
>  <CHROM.1>
156.48371363,-170.83074022,44.47784501,157.46841181,167.07351951,155.59591224
-86.95695475,-11.18566012,11.88070671,-19.52126299,-0.33936930,0.88747867
1.58536061

>  <Name>
ligand

>  <RI>
0

>  <Rbt.Current_Directory>
/home/itssahil/PROJECTS/Mol_Feturizer/New_Systems/rnas/3E5E

>  <Rbt.Executable>
rbdock ($Id: //depot/dev/client3/rdock/2013.1/src/exe/rbdock.cxx#4 $)

>  <Rbt.Library>
libRbt.so (2013.1, Build901 2013/11/27)

>  <Rbt.Parameter_File>
/export/apps/rDock/src/rDock_2013.1_src/data/scripts/dock_solv.prm

>  <Rbt.Receptor>
prm/pocket_docking_5.prm

>  <SCORE>
-20.4905

>  <SCORE.INTER>
-18.1962

>  <SCORE.INTER.CONST>
1

>  <SCORE.INTER.POLAR>
0

>  <SCORE.INTER.ROT>
7

>  <SCORE.INTER.SOLV>
14.9993

>  <SCORE.INTER.VDW>
-25.3973

>  <SCORE.INTER.norm>
-0.699855

>  <SCORE.INTRA>
-2.29422

>  <SCORE.INTRA.DIHEDRAL>
-3.52446

>  <SCORE.INTRA.DIHEDRAL.0>
10.1225

>  <SCORE.INTRA.POLAR>
0

>  <SCORE.INTRA.POLAR.0>
0

>  <SCORE.INTRA.REPUL>
0

>  <SCORE.INTRA.REPUL.0>
0

>  <SCORE.INTRA.SOLV>
-0.383058

>  <SCORE.INTRA.SOLV.lig_0>
-49.9393

>  <SCORE.INTRA.VDW>
-0.340462

>  <SCORE.INTRA.VDW.0>
-1.75437

>  <SCORE.INTRA.norm>
-0.0882392

>  <SCORE.RESTR>
0

>  <SCORE.RESTR.CAVITY>
0

>  <SCORE.RESTR.norm>
0

>  <SCORE.SYSTEM>
0

>  <SCORE.SYSTEM.CONST>
0

>  <SCORE.SYSTEM.DIHEDRAL>
0

>  <SCORE.SYSTEM.SOLV>
0

>  <SCORE.SYSTEM.norm>
0

>  <SCORE.heavy>
26

>  <SCORE.norm>
-0.788095

>  <RMSD>
8.645

$$$$
ligand
 OpenBabel11021811473D
libRbt.so/2013.1/901 2013/11/27
 26 28  0  0  0  0  0  0  0  0999 V2000
   -7.4708   15.2280  -21.6435 N   0  0  0  0  0  0  0  0  0  0  0  0
   -6.8656   16.2277  -20.7547 C   0  0  2  0  0  0  0  0  0  0  0  0
   -5.4568   16.5112  -21.2054 C   0  0  0  0  0  0  0  0  0  0  0  0
   -5.0900   17.6520  -21.3637 O   0  0  0  0  0  0  0  0  0  0  0  0
   -6.8457   15.6901  -19.3229 C   0  0  0  0  0  0  0  0  0  0  0  0
   -8.2787   15.4929  -18.8318 C   0  0  0  0  0  0  0  0  0  0  0  0
   -9.2586   14.2741  -19.4939 S   0  0  0  0  0  0  0  0  0  0  0  0
  -10.1236   13.9423  -21.0505 C   0  0  0  0  0  0  0  0  0  0  0  0
  -11.6537   13.9570  -20.9500 C   0  0  1  0  0  0  0  0  0  0  0  0
  -12.2794   13.8850  -22.2182 O   0  0  0  0  0  0  0  0  0  0  0  0
  -12.1879   12.7377  -20.2362 C   0  0  1  0  0  0  0  0  0  0  0  0
  -13.4512   13.1289  -19.7448 O   0  0  0  0  0  0  0  0  0  0  0  0
  -12.4033   11.7072  -21.3201 C   0  0  1  0  0  0  0  0  0  0  0  0
  -13.6075   11.0115  -21.0822 O   0  0  0  0  0  0  0  0  0  0  0  0
  -12.5418   12.5410  -22.5755 C   0  0  2  0  0  0  0  0  0  0  0  0
   -4.6071   15.4965  -21.4346 O   0  0  0  0  0  0  0  0  0  0  0  0
  -10.1282    8.6466  -25.0699 N   0  0  0  0  0  0  0  0  0  0  0  0
  -10.9662    8.5669  -23.9829 C   0  0  0  0  0  0  0  0  0  0  0  0
  -11.5002    9.7171  -23.4538 N   0  0  0  0  0  0  0  0  0  0  0  0
  -11.2127   10.9192  -23.9899 C   0  0  0  0  0  0  0  0  0  0  0  0
  -10.3734   11.0219  -25.0833 C   0  0  0  0  0  0  0  0  0  0  0  0
   -9.8252    9.8647  -25.6241 C   0  0  0  0  0  0  0  0  0  0  0  0
   -9.0113    9.9178  -26.6712 N   0  0  0  0  0  0  0  0  0  0  0  0
  -10.2601   12.3290  -25.4088 N   0  0  0  0  0  0  0  0  0  0  0  0
  -11.0127   13.0432  -24.5493 C   0  0  0  0  0  0  0  0  0  0  0  0
  -11.6022   12.1865  -23.6551 N   0  0  0  0  0  0  0  0  0  0  0  0
  2  1  1  6  0  0  0
  2  3  1  0  0  0  0
  2  5  1  0  0  0  0
  3  4  1  0  0  0  0
  3 16  1  0  0  0  0
  5  6  1  0  0  0  0
  6  7  1  0  0  0  0
  7  8  1  0  0  0  0
  9  8  1  6  0  0  0
  9 10  1  0  0  0  0
  9 11  1  0  0  0  0
 10 15  1  0  0  0  0
 11 12  1  6  0  0  0
 11 13  1  0  0  0  0
 13 14  1  1  0  0  0
 13 15  1  0  0  0  0
 15 26  1  6  0  0  0
 17 18  2  0  0  0  0
 17 22  1  0  0  0  0
 18 19  1  0  0  0  0
 19 20  2  0  0  0  0
 20 21  1  0  0  0  0
 20 26  1  0  0  0  0
 21 22  2  0  0  0  0
 21 24  1  0  0  0  0
 22 23  1  0  0  0  0
 24 25  2  0  0  0  0
 25 26  1  0  0  0  0
M  END
>  <CHROM.1>
129.74662256,-63.89533396,69.04933322,-71.61416721,-112.48617546,171.48710264
157.52276750,-9.87610068,13.04562056,-22.12713665,-0.86971808,-0.42292439
-2.23722519

>  <Name>
ligand

>  <RI>
0

>  <Rbt.Current_Directory>
/home/itssahil/PROJECTS/Mol_Feturizer/New_Systems/rnas/3E5E

>  <Rbt.Executable>
rbdock ($Id: //depot/dev/client3/rdock/2013.1/src/exe/rbdock.cxx#4 $)

>  <Rbt.Library>
libRbt.so (2013.1, Build901 2013/11/27)

>  <Rbt.Parameter_File>
/export/apps/rDock/src/rDock_2013.1_src/data/scripts/dock_solv.prm

>  <Rbt.Receptor>
prm/pocket_docking_6.prm

>  <SCORE>
-20.6249

>  <SCORE.INTER>
-19.3075

>  <SCORE.INTER.CONST>
1

>  <SCORE.INTER.POLAR>
0

>  <SCORE.INTER.ROT>
7

>  <SCORE.INTER.SOLV>
9.88015

>  <SCORE.INTER.VDW>
-24.4317

>  <SCORE.INTER.norm>
-0.742595

>  <SCORE.INTRA>
-1.31741

>  <SCORE.INTRA.DIHEDRAL>
-4.41105

>  <SCORE.INTRA.DIHEDRAL.0>
10.1225

>  <SCORE.INTRA.POLAR>
0

>  <SCORE.INTRA.POLAR.0>
0

>  <SCORE.INTRA.REPUL>
0

>  <SCORE.INTRA.REPUL.0>
0

>  <SCORE.INTRA.SOLV>
2.68694

>  <SCORE.INTRA.SOLV.lig_0>
-49.9393

>  <SCORE.INTRA.VDW>
-0.455354

>  <SCORE.INTRA.VDW.0>
-1.75437

>  <SCORE.INTRA.norm>
-0.0506694

>  <SCORE.RESTR>
0

>  <SCORE.RESTR.CAVITY>
0

>  <SCORE.RESTR.norm>
0

>  <SCORE.SYSTEM>
0

>  <SCORE.SYSTEM.CONST>
0

>  <SCORE.SYSTEM.DIHEDRAL>
0

>  <SCORE.SYSTEM.SOLV>
0

>  <SCORE.SYSTEM.norm>
0

>  <SCORE.heavy>
26

>  <SCORE.norm>
-0.793264

>  <RMSD>
8.646

$$$$
ligand
 OpenBabel11021811473D
libRbt.so/2013.1/901 2013/11/27
 26 28  0  0  0  0  0  0  0  0999 V2000
   -7.5635   14.9416  -21.2481 N   0  0  0  0  0  0  0  0  0  0  0  0
   -7.6792   16.2844  -20.6660 C   0  0  2  0  0  0  0  0  0  0  0  0
   -6.6709   17.1985  -21.3110 C   0  0  0  0  0  0  0  0  0  0  0  0
   -7.0123   18.2834  -21.7202 O   0  0  0  0  0  0  0  0  0  0  0  0
   -7.4139   16.2115  -19.1613 C   0  0  0  0  0  0  0  0  0  0  0  0
   -8.6383   15.6326  -18.4547 C   0  0  0  0  0  0  0  0  0  0  0  0
   -9.0862   14.0116  -18.6916 S   0  0  0  0  0  0  0  0  0  0  0  0
  -10.1722   13.0637  -19.7885 C   0  0  0  0  0  0  0  0  0  0  0  0
   -9.8519   13.1989  -21.2821 C   0  0  1  0  0  0  0  0  0  0  0  0
  -10.1971   12.0384  -22.0162 O   0  0  0  0  0  0  0  0  0  0  0  0
  -10.6747   14.2788  -21.9441 C   0  0  1  0  0  0  0  0  0  0  0  0
   -9.9303   14.6570  -23.0813 O   0  0  0  0  0  0  0  0  0  0  0  0
  -11.9325   13.5858  -22.4142 C   0  0  1  0  0  0  0  0  0  0  0  0
  -12.2921   14.0678  -23.6906 O   0  0  0  0  0  0  0  0  0  0  0  0
  -11.5154   12.1350  -22.5217 C   0  0  2  0  0  0  0  0  0  0  0  0
   -5.3917   16.8082  -21.4346 O   0  0  0  0  0  0  0  0  0  0  0  0
  -15.5627    8.8469  -22.6679 N   0  0  0  0  0  0  0  0  0  0  0  0
  -15.0820    9.6454  -23.6785 C   0  0  0  0  0  0  0  0  0  0  0  0
  -14.0024   10.4618  -23.4412 N   0  0  0  0  0  0  0  0  0  0  0  0
  -13.4108   10.4857  -22.2310 C   0  0  0  0  0  0  0  0  0  0  0  0
  -13.8774    9.6903  -21.2014 C   0  0  0  0  0  0  0  0  0  0  0  0
  -14.9709    8.8634  -21.4300 C   0  0  0  0  0  0  0  0  0  0  0  0
  -15.4540    8.0864  -20.4684 N   0  0  0  0  0  0  0  0  0  0  0  0
  -13.1076    9.9125  -20.1126 N   0  0  0  0  0  0  0  0  0  0  0  0
  -12.1690   10.8220  -20.4397 C   0  0  0  0  0  0  0  0  0  0  0  0
  -12.3484   11.1974  -21.7466 N   0  0  0  0  0  0  0  0  0  0  0  0
  2  1  1  6  0  0  0
  2  3  1  0  0  0  0
  2  5  1  0  0  0  0
  3  4  1  0  0  0  0
  3 16  1  0  0  0  0
  5  6  1  0  0  0  0
  6  7  1  0  0  0  0
  7  8  1  0  0  0  0
  9  8  1  1  0  0  0
  9 10  1  0  0  0  0
  9 11  1  0  0  0  0
 10 15  1  0  0  0  0
 11 12  1  6  0  0  0
 11 13  1  0  0  0  0
 13 14  1  6  0  0  0
 13 15  1  0  0  0  0
 15 26  1  1  0  0  0
 17 18  2  0  0  0  0
 17 22  1  0  0  0  0
 18 19  1  0  0  0  0
 19 20  2  0  0  0  0
 20 21  1  0  0  0  0
 20 26  1  0  0  0  0
 21 22  2  0  0  0  0
 21 24  1  0  0  0  0
 22 23  1  0  0  0  0
 24 25  2  0  0  0  0
 25 26  1  0  0  0  0
M  END
>  <CHROM.1>
131.64540761,-76.25223947,67.74564085,-92.12335476,58.96940589,150.31444915
-145.91169285,-10.80848568,13.02086688,-21.29730217,0.14990173,-0.76248338
-1.16011988

>  <Name>
ligand

>  <RI>
0

>  <Rbt.Current_Directory>
/home/itssahil/PROJECTS/Mol_Feturizer/New_Systems/rnas/3E5E

>  <Rbt.Executable>
rbdock ($Id: //depot/dev/client3/rdock/2013.1/src/exe/rbdock.cxx#4 $)

>  <Rbt.Library>
libRbt.so (2013.1, Build901 2013/11/27)

>  <Rbt.Parameter_File>
/export/apps/rDock/src/rDock_2013.1_src/data/scripts/dock_solv.prm

>  <Rbt.Receptor>
prm/blind_docking_80.prm

>  <SCORE>
-20.7875

>  <SCORE.INTER>
-20.6969

>  <SCORE.INTER.CONST>
1

>  <SCORE.INTER.POLAR>
0

>  <SCORE.INTER.ROT>
7

>  <SCORE.INTER.SOLV>
11.33

>  <SCORE.INTER.VDW>
-25.8413

>  <SCORE.INTER.norm>
-0.796036

>  <SCORE.INTRA>
-0.090589

>  <SCORE.INTRA.DIHEDRAL>
-2.23633

>  <SCORE.INTRA.DIHEDRAL.0>
10.1225

>  <SCORE.INTRA.POLAR>
0

>  <SCORE.INTRA.POLAR.0>
0

>  <SCORE.INTRA.REPUL>
0

>  <SCORE.INTRA.REPUL.0>
0

>  <SCORE.INTRA.SOLV>
4.9461

>  <SCORE.INTRA.SOLV.lig_0>
-49.9393

>  <SCORE.INTRA.VDW>
-1.44547

>  <SCORE.INTRA.VDW.0>
-1.75437

>  <SCORE.INTRA.norm>
-0.00348419

>  <SCORE.RESTR>
0

>  <SCORE.RESTR.CAVITY>
0

>  <SCORE.RESTR.norm>
0

>  <SCORE.SYSTEM>
0

>  <SCORE.SYSTEM.CONST>
0

>  <SCORE.SYSTEM.DIHEDRAL>
0

>  <SCORE.SYSTEM.SOLV>
0

>  <SCORE.SYSTEM.norm>
0

>  <SCORE.heavy>
26

>  <SCORE.norm>
-0.79952

>  <RMSD>
8.650

$$$$
ligand
 OpenBabel11021811473D
libRbt.so/2013.1/901 2013/11/27
 26 28  0  0  0  0  0  0  0  0999 V2000
   -6.6970   13.0212  -24.5173 N   0  0  0  0  0  0  0  0  0  0  0  0
   -7.9854   12.7396  -25.1624 C   0  0  2  0  0  0  0  0  0  0  0  0
   -8.0764   13.5064  -26.4554 C   0  0  0  0  0  0  0  0  0  0  0  0
   -8.3029   12.9238  -27.4899 O   0  0  0  0  0  0  0  0  0  0  0  0
   -9.1236   13.1665  -24.2339 C   0  0  0  0  0  0  0  0  0  0  0  0
  -10.4641   12.7968  -24.8663 C   0  0  0  0  0  0  0  0  0  0  0  0
  -11.9232   13.2226  -24.1087 S   0  0  0  0  0  0  0  0  0  0  0  0
  -12.7504   12.9295  -22.5241 C   0  0  0  0  0  0  0  0  0  0  0  0
  -12.2224   13.7750  -21.3587 C   0  0  1  0  0  0  0  0  0  0  0  0
  -12.9055   13.5113  -20.1467 O   0  0  0  0  0  0  0  0  0  0  0  0
  -10.7879   13.4440  -21.0209 C   0  0  1  0  0  0  0  0  0  0  0  0
  -10.2915   14.5963  -20.3757 O   0  0  0  0  0  0  0  0  0  0  0  0
  -10.8679   12.3316  -20.0013 C   0  0  1  0  0  0  0  0  0  0  0  0
   -9.8990   12.5371  -18.9965 O   0  0  0  0  0  0  0  0  0  0  0  0
  -12.2512   12.4957  -19.4097 C   0  0  2  0  0  0  0  0  0  0  0  0
   -7.9033   14.8383  -26.4609 O   0  0  0  0  0  0  0  0  0  0  0  0
  -14.6591    8.7582  -16.6808 N   0  0  0  0  0  0  0  0  0  0  0  0
  -13.8522    9.7664  -16.2091 C   0  0  0  0  0  0  0  0  0  0  0  0
  -13.2929   10.6563  -17.0940 N   0  0  0  0  0  0  0  0  0  0  0  0
  -13.5286   10.5518  -18.4164 C   0  0  0  0  0  0  0  0  0  0  0  0
  -14.3374    9.5464  -18.9119 C   0  0  0  0  0  0  0  0  0  0  0  0
  -14.9054    8.6389  -18.0255 C   0  0  0  0  0  0  0  0  0  0  0  0
  -15.6850    7.6559  -18.4586 N   0  0  0  0  0  0  0  0  0  0  0  0
  -14.3996    9.6768  -20.2559 N   0  0  0  0  0  0  0  0  0  0  0  0
  -13.6547   10.7421  -20.6101 C   0  0  0  0  0  0  0  0  0  0  0  0
  -13.0976   11.2907  -19.4832 N   0  0  0  0  0  0  0  0  0  0  0  0
  2  1  1  1  0  0  0
  2  3  1  0  0  0  0
  2  5  1  0  0  0  0
  3  4  1  0  0  0  0
  3 16  1  0  0  0  0
  5  6  1  0  0  0  0
  6  7  1  0  0  0  0
  7  8  1  0  0  0  0
  9  8  1  6  0  0  0
  9 10  1  0  0  0  0
  9 11  1  0  0  0  0
 10 15  1  0  0  0  0
 11 12  1  1  0  0  0
 11 13  1  0  0  0  0
 13 14  1  1  0  0  0
 13 15  1  0  0  0  0
 15 26  1  6  0  0  0
 17 18  2  0  0  0  0
 17 22  1  0  0  0  0
 18 19  1  0  0  0  0
 19 20  2  0  0  0  0
 20 21  1  0  0  0  0
 20 26  1  0  0  0  0
 21 22  2  0  0  0  0
 21 24  1  0  0  0  0
 22 23  1  0  0  0  0
 24 25  2  0  0  0  0
 25 26  1  0  0  0  0
M  END
>  <CHROM.1>
124.84523888,-176.58041340,-176.60264178,-58.72341878,77.76299581,179.76411556
-127.86231851,-11.61738953,12.03267698,-21.42582448,-0.74024288,0.73481934
1.40703543

>  <Name>
ligand

>  <RI>
0

>  <Rbt.Current_Directory>
/home/itssahil/PROJECTS/Mol_Feturizer/New_Systems/rnas/3E5E

>  <Rbt.Executable>
rbdock ($Id: //depot/dev/client3/rdock/2013.1/src/exe/rbdock.cxx#4 $)

>  <Rbt.Library>
libRbt.so (2013.1, Build901 2013/11/27)

>  <Rbt.Parameter_File>
/export/apps/rDock/src/rDock_2013.1_src/data/scripts/dock_solv.prm

>  <Rbt.Receptor>
prm/pocket_docking_8.prm

>  <SCORE>
-18.6886

>  <SCORE.INTER>
-14.4351

>  <SCORE.INTER.CONST>
1

>  <SCORE.INTER.POLAR>
0

>  <SCORE.INTER.ROT>
7

>  <SCORE.INTER.SOLV>
8.09835

>  <SCORE.INTER.VDW>
-20.5895

>  <SCORE.INTER.norm>
-0.555196

>  <SCORE.INTRA>
-4.25356

>  <SCORE.INTRA.DIHEDRAL>
-6.80148

>  <SCORE.INTRA.DIHEDRAL.0>
10.1225

>  <SCORE.INTRA.POLAR>
0

>  <SCORE.INTRA.POLAR.0>
0

>  <SCORE.INTRA.REPUL>
0

>  <SCORE.INTRA.REPUL.0>
0

>  <SCORE.INTRA.SOLV>
-0.539595

>  <SCORE.INTRA.SOLV.lig_0>
-49.9393

>  <SCORE.INTRA.VDW>
-0.583022

>  <SCORE.INTRA.VDW.0>
-1.75437

>  <SCORE.INTRA.norm>
-0.163599

>  <SCORE.RESTR>
0

>  <SCORE.RESTR.CAVITY>
0

>  <SCORE.RESTR.norm>
0

>  <SCORE.SYSTEM>
0

>  <SCORE.SYSTEM.CONST>
0

>  <SCORE.SYSTEM.DIHEDRAL>
0

>  <SCORE.SYSTEM.SOLV>
0

>  <SCORE.SYSTEM.norm>
0

>  <SCORE.heavy>
26

>  <SCORE.norm>
-0.718794

>  <RMSD>
8.652

$$$$
ligand
 OpenBabel11021811473D
libRbt.so/2013.1/901 2013/11/27
 26 28  0  0  0  0  0  0  0  0999 V2000
   -7.0274   14.0025  -24.1334 N   0  0  0  0  0  0  0  0  0  0  0  0
   -8.2565   13.6769  -24.8675 C   0  0  2  0  0  0  0  0  0  0  0  0
   -8.4983   14.7197  -25.9269 C   0  0  0  0  0  0  0  0  0  0  0  0
   -8.7817   14.3840  -27.0530 O   0  0  0  0  0  0  0  0  0  0  0  0
   -9.4379   13.6517  -23.8962 C   0  0  0  0  0  0  0  0  0  0  0  0
  -10.6537   13.0372  -24.5873 C   0  0  0  0  0  0  0  0  0  0  0  0
  -12.1253   12.8677  -23.7567 S   0  0  0  0  0  0  0  0  0  0  0  0
  -12.6892   12.3678  -22.1095 C   0  0  0  0  0  0  0  0  0  0  0  0
  -12.3003   13.3285  -20.9792 C   0  0  1  0  0  0  0  0  0  0  0  0
  -12.8414   12.9402  -19.7297 O   0  0  0  0  0  0  0  0  0  0  0  0
  -10.8121   13.3294  -20.7212 C   0  0  1  0  0  0  0  0  0  0  0  0
  -10.5501   14.5737  -20.1099 O   0  0  0  0  0  0  0  0  0  0  0  0
  -10.5878   12.2441  -19.6941 C   0  0  1  0  0  0  0  0  0  0  0  0
   -9.6361   12.6760  -18.7462 O   0  0  0  0  0  0  0  0  0  0  0  0
  -11.9390   12.1074  -19.0262 C   0  0  2  0  0  0  0  0  0  0  0  0
   -8.3966   16.0238  -25.6223 O   0  0  0  0  0  0  0  0  0  0  0  0
  -14.5376    8.4837  -16.3188 N   0  0  0  0  0  0  0  0  0  0  0  0
  -14.1253    9.7250  -15.8955 C   0  0  0  0  0  0  0  0  0  0  0  0
  -13.4351   10.5405  -16.7596 N   0  0  0  0  0  0  0  0  0  0  0  0
  -13.1606   10.1368  -18.0154 C   0  0  0  0  0  0  0  0  0  0  0  0
  -13.5666    8.8932  -18.4617 C   0  0  0  0  0  0  0  0  0  0  0  0
  -14.2626    8.0593  -17.5944 C   0  0  0  0  0  0  0  0  0  0  0  0
  -14.6676    6.8556  -17.9802 N   0  0  0  0  0  0  0  0  0  0  0  0
  -13.1623    8.7507  -19.7437 N   0  0  0  0  0  0  0  0  0  0  0  0
  -12.5198    9.8769  -20.1097 C   0  0  0  0  0  0  0  0  0  0  0  0
  -12.4991   10.7436  -19.0469 N   0  0  0  0  0  0  0  0  0  0  0  0
  2  1  1  1  0  0  0
  2  3  1  0  0  0  0
  2  5  1  0  0  0  0
  3  4  1  0  0  0  0
  3 16  1  0  0  0  0
  5  6  1  0  0  0  0
  6  7  1  0  0  0  0
  7  8  1  0  0  0  0
  9  8  1  6  0  0  0
  9 10  1  0  0  0  0
  9 11  1  0  0  0  0
 10 15  1  0  0  0  0
 11 12  1  1  0  0  0
 11 13  1  0  0  0  0
 13 14  1  1  0  0  0
 13 15  1  0  0  0  0
 15 26  1  6  0  0  0
 17 18  2  0  0  0  0
 17 22  1  0  0  0  0
 18 19  1  0  0  0  0
 19 20  2  0  0  0  0
 20 21  1  0  0  0  0
 20 26  1  0  0  0  0
 21 22  2  0  0  0  0
 21 24  1  0  0  0  0
 22 23  1  0  0  0  0
 24 25  2  0  0  0  0
 25 26  1  0  0  0  0
M  END
>  <CHROM.1>
133.03948594,-168.36203662,179.78181568,-41.84218897,67.57464058,175.97484041
-101.55756712,-11.51765288,11.99273110,-21.02776524,-0.75167006,0.88502046
1.48600957

>  <Name>
ligand

>  <RI>
0

>  <Rbt.Current_Directory>
/home/itssahil/PROJECTS/Mol_Feturizer/New_Systems/rnas/3E5E

>  <Rbt.Executable>
rbdock ($Id: //depot/dev/client3/rdock/2013.1/src/exe/rbdock.cxx#4 $)

>  <Rbt.Library>
libRbt.so (2013.1, Build901 2013/11/27)

>  <Rbt.Parameter_File>
/export/apps/rDock/src/rDock_2013.1_src/data/scripts/dock_solv.prm

>  <Rbt.Receptor>
prm/pocket_docking_6.prm

>  <SCORE>
-20.1974

>  <SCORE.INTER>
-15.7869

>  <SCORE.INTER.CONST>
1

>  <SCORE.INTER.POLAR>
0

>  <SCORE.INTER.ROT>
7

>  <SCORE.INTER.SOLV>
8.28306

>  <SCORE.INTER.VDW>
-21.5523

>  <SCORE.INTER.norm>
-0.607189

>  <SCORE.INTRA>
-4.41285

>  <SCORE.INTRA.DIHEDRAL>
-6.34112

>  <SCORE.INTRA.DIHEDRAL.0>
10.1225

>  <SCORE.INTRA.POLAR>
0

>  <SCORE.INTRA.POLAR.0>
0

>  <SCORE.INTRA.REPUL>
0

>  <SCORE.INTRA.REPUL.0>
0

>  <SCORE.INTRA.SOLV>
-0.503047

>  <SCORE.INTRA.SOLV.lig_0>
-49.9393

>  <SCORE.INTRA.VDW>
-0.990766

>  <SCORE.INTRA.VDW.0>
-1.75437

>  <SCORE.INTRA.norm>
-0.169725

>  <SCORE.RESTR>
0.00234049

>  <SCORE.RESTR.CAVITY>
0.00234049

>  <SCORE.RESTR.norm>
9.00189e-05

>  <SCORE.SYSTEM>
0

>  <SCORE.SYSTEM.CONST>
0

>  <SCORE.SYSTEM.DIHEDRAL>
0

>  <SCORE.SYSTEM.SOLV>
0

>  <SCORE.SYSTEM.norm>
0

>  <SCORE.heavy>
26

>  <SCORE.norm>
-0.776824

>  <RMSD>
8.664

$$$$
ligand
 OpenBabel11021811473D
libRbt.so/2013.1/901 2013/11/27
 26 28  0  0  0  0  0  0  0  0999 V2000
   -7.1151   16.2020  -18.0690 N   0  0  0  0  0  0  0  0  0  0  0  0
   -7.1164   15.4445  -19.3267 C   0  0  2  0  0  0  0  0  0  0  0  0
   -6.4958   16.2800  -20.4152 C   0  0  0  0  0  0  0  0  0  0  0  0
   -7.0564   17.2765  -20.8073 O   0  0  0  0  0  0  0  0  0  0  0  0
   -8.5556   15.0946  -19.7087 C   0  0  0  0  0  0  0  0  0  0  0  0
   -9.1287   14.1099  -18.6912 C   0  0  0  0  0  0  0  0  0  0  0  0
  -10.7156   13.5268  -18.8526 S   0  0  0  0  0  0  0  0  0  0  0  0
  -11.7627   12.8213  -20.1513 C   0  0  0  0  0  0  0  0  0  0  0  0
  -11.1447   11.6339  -20.8995 C   0  0  1  0  0  0  0  0  0  0  0  0
  -11.0193   10.4853  -20.0809 O   0  0  0  0  0  0  0  0  0  0  0  0
  -12.0252   11.1535  -22.0289 C   0  0  1  0  0  0  0  0  0  0  0  0
  -11.1493   10.4949  -22.9174 O   0  0  0  0  0  0  0  0  0  0  0  0
  -12.9336   10.1172  -21.4093 C   0  0  1  0  0  0  0  0  0  0  0  0
  -13.0903    9.0312  -22.2962 O   0  0  0  0  0  0  0  0  0  0  0  0
  -12.1665    9.6633  -20.1862 C   0  0  2  0  0  0  0  0  0  0  0  0
   -5.3199   15.9174  -20.9535 O   0  0  0  0  0  0  0  0  0  0  0  0
  -14.2560    7.0836  -16.1621 N   0  0  0  0  0  0  0  0  0  0  0  0
  -13.6368    6.5629  -17.2737 C   0  0  0  0  0  0  0  0  0  0  0  0
  -13.1570    7.4119  -18.2418 N   0  0  0  0  0  0  0  0  0  0  0  0
  -13.2857    8.7467  -18.1115 C   0  0  0  0  0  0  0  0  0  0  0  0
  -13.9039    9.2912  -17.0016 C   0  0  0  0  0  0  0  0  0  0  0  0
  -14.3958    8.4410  -16.0181 C   0  0  0  0  0  0  0  0  0  0  0  0
  -14.9999    8.9211  -14.9382 N   0  0  0  0  0  0  0  0  0  0  0  0
  -13.8955   10.6369  -17.1298 N   0  0  0  0  0  0  0  0  0  0  0  0
  -13.2818   10.9450  -18.2890 C   0  0  0  0  0  0  0  0  0  0  0  0
  -12.9067    9.7848  -18.9168 N   0  0  0  0  0  0  0  0  0  0  0  0
  2  1  1  1  0  0  0
  2  3  1  0  0  0  0
  2  5  1  0  0  0  0
  3  4  1  0  0  0  0
  3 16  1  0  0  0  0
  5  6  1  0  0  0  0
  6  7  1  0  0  0  0
  7  8  1  0  0  0  0
  9  8  1  1  0  0  0
  9 10  1  0  0  0  0
  9 11  1  0  0  0  0
 10 15  1  0  0  0  0
 11 12  1  6  0  0  0
 11 13  1  0  0  0  0
 13 14  1  6  0  0  0
 13 15  1  0  0  0  0
 15 26  1  1  0  0  0
 17 18  2  0  0  0  0
 17 22  1  0  0  0  0
 18 19  1  0  0  0  0
 19 20  2  0  0  0  0
 20 21  1  0  0  0  0
 20 26  1  0  0  0  0
 21 22  2  0  0  0  0
 21 24  1  0  0  0  0
 22 23  1  0  0  0  0
 24 25  2  0  0  0  0
 25 26  1  0  0  0  0
M  END
>  <CHROM.1>
-67.40922644,-66.89215428,-179.71183107,47.89052890,52.00501296,68.36515632
-125.41055279,-11.21588288,11.60152218,-19.25232452,-0.07014697,0.86542914
1.35273216

>  <Name>
ligand

>  <RI>
0

>  <Rbt.Current_Directory>
/home/itssahil/PROJECTS/Mol_Feturizer/New_Systems/rnas/3E5E

>  <Rbt.Executable>
rbdock ($Id: //depot/dev/client3/rdock/2013.1/src/exe/rbdock.cxx#4 $)

>  <Rbt.Library>
libRbt.so (2013.1, Build901 2013/11/27)

>  <Rbt.Parameter_File>
/export/apps/rDock/src/rDock_2013.1_src/data/scripts/dock_solv.prm

>  <Rbt.Receptor>
prm/pocket_docking_4.prm

>  <SCORE>
-23.4856

>  <SCORE.INTER>
-19.815

>  <SCORE.INTER.CONST>
1

>  <SCORE.INTER.POLAR>
0

>  <SCORE.INTER.ROT>
7

>  <SCORE.INTER.SOLV>
16.791

>  <SCORE.INTER.VDW>
-27.0737

>  <SCORE.INTER.norm>
-0.762115

>  <SCORE.INTRA>
-3.67065

>  <SCORE.INTRA.DIHEDRAL>
-6.60723

>  <SCORE.INTRA.DIHEDRAL.0>
10.1225

>  <SCORE.INTRA.POLAR>
0

>  <SCORE.INTRA.POLAR.0>
0

>  <SCORE.INTRA.REPUL>
0

>  <SCORE.INTRA.REPUL.0>
0

>  <SCORE.INTRA.SOLV>
0.0832136

>  <SCORE.INTRA.SOLV.lig_0>
-49.9393

>  <SCORE.INTRA.VDW>
-0.408643

>  <SCORE.INTRA.VDW.0>
-1.75437

>  <SCORE.INTRA.norm>
-0.141179

>  <SCORE.RESTR>
0

>  <SCORE.RESTR.CAVITY>
0

>  <SCORE.RESTR.norm>
0

>  <SCORE.SYSTEM>
0

>  <SCORE.SYSTEM.CONST>
0

>  <SCORE.SYSTEM.DIHEDRAL>
0

>  <SCORE.SYSTEM.SOLV>
0

>  <SCORE.SYSTEM.norm>
0

>  <SCORE.heavy>
26

>  <SCORE.norm>
-0.903294

>  <RMSD>
8.675

$$$$
ligand
 OpenBabel11021811473D
libRbt.so/2013.1/901 2013/11/27
 26 28  0  0  0  0  0  0  0  0999 V2000
   -8.0284   12.9249  -26.3532 N   0  0  0  0  0  0  0  0  0  0  0  0
   -8.8965   13.8839  -25.6587 C   0  0  2  0  0  0  0  0  0  0  0  0
   -8.0949   15.1009  -25.2784 C   0  0  0  0  0  0  0  0  0  0  0  0
   -6.8933   15.0249  -25.1711 O   0  0  0  0  0  0  0  0  0  0  0  0
   -9.4670   13.2333  -24.3974 C   0  0  0  0  0  0  0  0  0  0  0  0
  -10.3454   12.0461  -24.7882 C   0  0  0  0  0  0  0  0  0  0  0  0
  -10.9983   11.0259  -23.5978 S   0  0  0  0  0  0  0  0  0  0  0  0
  -12.3006   11.0890  -22.3404 C   0  0  0  0  0  0  0  0  0  0  0  0
  -12.3356   12.3825  -21.5173 C   0  0  1  0  0  0  0  0  0  0  0  0
  -13.1257   12.2584  -20.3488 O   0  0  0  0  0  0  0  0  0  0  0  0
  -10.9747   12.7458  -20.9719 C   0  0  1  0  0  0  0  0  0  0  0  0
  -11.0338   14.1370  -20.7452 O   0  0  0  0  0  0  0  0  0  0  0  0
  -10.8878   12.0539  -19.6314 C   0  0  1  0  0  0  0  0  0  0  0  0
  -10.2710   12.9093  -18.6941 O   0  0  0  0  0  0  0  0  0  0  0  0
  -12.3371   11.8466  -19.2482 C   0  0  2  0  0  0  0  0  0  0  0  0
   -8.7145   16.2715  -25.0555 O   0  0  0  0  0  0  0  0  0  0  0  0
  -14.2877    8.5725  -15.6859 N   0  0  0  0  0  0  0  0  0  0  0  0
  -14.0374    9.9179  -15.5542 C   0  0  0  0  0  0  0  0  0  0  0  0
  -13.5045   10.6144  -16.6119 N   0  0  0  0  0  0  0  0  0  0  0  0
  -13.2272    9.9933  -17.7749 C   0  0  0  0  0  0  0  0  0  0  0  0
  -13.4718    8.6417  -17.9291 C   0  0  0  0  0  0  0  0  0  0  0  0
  -14.0077    7.9272  -16.8641 C   0  0  0  0  0  0  0  0  0  0  0  0
  -14.2545    6.6272  -16.9675 N   0  0  0  0  0  0  0  0  0  0  0  0
  -13.1038    8.2849  -19.1800 N   0  0  0  0  0  0  0  0  0  0  0  0
  -12.6417    9.3816  -19.8114 C   0  0  0  0  0  0  0  0  0  0  0  0
  -12.7001   10.4486  -18.9517 N   0  0  0  0  0  0  0  0  0  0  0  0
  2  1  1  1  0  0  0
  2  3  1  0  0  0  0
  2  5  1  0  0  0  0
  3  4  1  0  0  0  0
  3 16  1  0  0  0  0
  5  6  1  0  0  0  0
  6  7  1  0  0  0  0
  7  8  1  0  0  0  0
  9  8  1  1  0  0  0
  9 10  1  0  0  0  0
  9 11  1  0  0  0  0
 10 15  1  0  0  0  0
 11 12  1  1  0  0  0
 11 13  1  0  0  0  0
 13 14  1  1  0  0  0
 13 15  1  0  0  0  0
 15 26  1  6  0  0  0
 17 18  2  0  0  0  0
 17 22  1  0  0  0  0
 18 19  1  0  0  0  0
 19 20  2  0  0  0  0
 20 21  1  0  0  0  0
 20 26  1  0  0  0  0
 21 22  2  0  0  0  0
 21 24  1  0  0  0  0
 22 23  1  0  0  0  0
 24 25  2  0  0  0  0
 25 26  1  0  0  0  0
M  END
>  <CHROM.1>
-22.66220264,-63.26802661,173.93946757,73.00757161,-44.78348008,-165.09697041
-119.25723454,-11.44222011,11.58816698,-20.95826000,0.30270050,-1.05969702
-2.22317296

>  <Name>
ligand

>  <RI>
0

>  <Rbt.Current_Directory>
/home/itssahil/PROJECTS/Mol_Feturizer/New_Systems/rnas/3E5E

>  <Rbt.Executable>
rbdock ($Id: //depot/dev/client3/rdock/2013.1/src/exe/rbdock.cxx#4 $)

>  <Rbt.Library>
libRbt.so (2013.1, Build901 2013/11/27)

>  <Rbt.Parameter_File>
/export/apps/rDock/src/rDock_2013.1_src/data/scripts/dock_solv.prm

>  <Rbt.Receptor>
prm/pocket_docking_7.prm

>  <SCORE>
-17.075

>  <SCORE.INTER>
-13.8431

>  <SCORE.INTER.CONST>
1

>  <SCORE.INTER.POLAR>
0

>  <SCORE.INTER.ROT>
7

>  <SCORE.INTER.SOLV>
8.15884

>  <SCORE.INTER.VDW>
-20.215

>  <SCORE.INTER.norm>
-0.532425

>  <SCORE.INTRA>
-3.23198

>  <SCORE.INTRA.DIHEDRAL>
-5.85349

>  <SCORE.INTRA.DIHEDRAL.0>
10.1225

>  <SCORE.INTRA.POLAR>
0

>  <SCORE.INTRA.POLAR.0>
0

>  <SCORE.INTRA.REPUL>
0

>  <SCORE.INTRA.REPUL.0>
0

>  <SCORE.INTRA.SOLV>
0.316673

>  <SCORE.INTRA.SOLV.lig_0>
-49.9393

>  <SCORE.INTRA.VDW>
-0.463577

>  <SCORE.INTRA.VDW.0>
-1.75437

>  <SCORE.INTRA.norm>
-0.124307

>  <SCORE.RESTR>
0

>  <SCORE.RESTR.CAVITY>
0

>  <SCORE.RESTR.norm>
0

>  <SCORE.SYSTEM>
0

>  <SCORE.SYSTEM.CONST>
0

>  <SCORE.SYSTEM.DIHEDRAL>
0

>  <SCORE.SYSTEM.SOLV>
0

>  <SCORE.SYSTEM.norm>
0

>  <SCORE.heavy>
26

>  <SCORE.norm>
-0.656732

>  <RMSD>
8.697

$$$$
ligand
 OpenBabel11021811473D
libRbt.so/2013.1/901 2013/11/27
 26 28  0  0  0  0  0  0  0  0999 V2000
   -7.3880   15.0306  -23.2533 N   0  0  0  0  0  0  0  0  0  0  0  0
   -8.6966   15.6964  -23.2459 C   0  0  2  0  0  0  0  0  0  0  0  0
   -8.5416   17.0997  -22.7217 C   0  0  0  0  0  0  0  0  0  0  0  0
   -9.2219   17.9921  -23.1710 O   0  0  0  0  0  0  0  0  0  0  0  0
   -9.6584   14.9182  -22.3464 C   0  0  0  0  0  0  0  0  0  0  0  0
   -9.0928   14.8547  -20.9287 C   0  0  0  0  0  0  0  0  0  0  0  0
   -9.9647   14.0964  -19.6841 S   0  0  0  0  0  0  0  0  0  0  0  0
  -10.7327   12.4865  -19.3689 C   0  0  0  0  0  0  0  0  0  0  0  0
  -10.6549   11.4983  -20.5390 C   0  0  1  0  0  0  0  0  0  0  0  0
  -11.0386   10.1874  -20.1659 O   0  0  0  0  0  0  0  0  0  0  0  0
  -11.6334   11.8406  -21.6376 C   0  0  1  0  0  0  0  0  0  0  0  0
  -11.0971   11.2468  -22.7997 O   0  0  0  0  0  0  0  0  0  0  0  0
  -12.9045   11.1069  -21.2782 C   0  0  1  0  0  0  0  0  0  0  0  0
  -13.4847   10.5624  -22.4433 O   0  0  0  0  0  0  0  0  0  0  0  0
  -12.4224    9.9858  -20.3832 C   0  0  2  0  0  0  0  0  0  0  0  0
   -7.6455   17.3618  -21.7562 O   0  0  0  0  0  0  0  0  0  0  0  0
  -14.0256    6.9028  -16.4923 N   0  0  0  0  0  0  0  0  0  0  0  0
  -13.4627    6.5326  -17.6907 C   0  0  0  0  0  0  0  0  0  0  0  0
  -13.1143    7.4995  -18.6027 N   0  0  0  0  0  0  0  0  0  0  0  0
  -13.3168    8.8040  -18.3337 C   0  0  0  0  0  0  0  0  0  0  0  0
  -13.8804    9.1982  -17.1347 C   0  0  0  0  0  0  0  0  0  0  0  0
  -14.2396    8.2278  -16.2066 C   0  0  0  0  0  0  0  0  0  0  0  0
  -14.7873    8.5618  -15.0447 N   0  0  0  0  0  0  0  0  0  0  0  0
  -13.9673   10.5472  -17.1310 N   0  0  0  0  0  0  0  0  0  0  0  0
  -13.4662   11.0041  -18.2952 C   0  0  0  0  0  0  0  0  0  0  0  0
  -13.0681    9.9365  -19.0586 N   0  0  0  0  0  0  0  0  0  0  0  0
  2  1  1  1  0  0  0
  2  3  1  0  0  0  0
  2  5  1  0  0  0  0
  3  4  1  0  0  0  0
  3 16  1  0  0  0  0
  5  6  1  0  0  0  0
  6  7  1  0  0  0  0
  7  8  1  0  0  0  0
  9  8  1  1  0  0  0
  9 10  1  0  0  0  0
  9 11  1  0  0  0  0
 10 15  1  0  0  0  0
 11 12  1  6  0  0  0
 11 13  1  0  0  0  0
 13 14  1  6  0  0  0
 13 15  1  0  0  0  0
 15 26  1  1  0  0  0
 17 18  2  0  0  0  0
 17 22  1  0  0  0  0
 18 19  1  0  0  0  0
 19 20  2  0  0  0  0
 20 21  1  0  0  0  0
 20 26  1  0  0  0  0
 21 22  2  0  0  0  0
 21 24  1  0  0  0  0
 22 23  1  0  0  0  0
 24 25  2  0  0  0  0
 25 26  1  0  0  0  0
M  END
>  <CHROM.1>
144.90703960,59.18727170,177.93211344,54.41261449,-3.01389807,168.93897669
-93.11953191,-11.45387798,11.86988443,-20.06163815,0.22634169,-1.04807148
-1.88394073

>  <Name>
ligand

>  <RI>
0

>  <Rbt.Current_Directory>
/home/itssahil/PROJECTS/Mol_Feturizer/New_Systems/rnas/3E5E

>  <Rbt.Executable>
rbdock ($Id: //depot/dev/client3/rdock/2013.1/src/exe/rbdock.cxx#4 $)

>  <Rbt.Library>
libRbt.so (2013.1, Build901 2013/11/27)

>  <Rbt.Parameter_File>
/export/apps/rDock/src/rDock_2013.1_src/data/scripts/dock_solv.prm

>  <Rbt.Receptor>
prm/pocket_docking_4.prm

>  <SCORE>
-20.6865

>  <SCORE.INTER>
-18.1749

>  <SCORE.INTER.CONST>
1

>  <SCORE.INTER.POLAR>
0

>  <SCORE.INTER.ROT>
7

>  <SCORE.INTER.SOLV>
9.72439

>  <SCORE.INTER.VDW>
-23.6248

>  <SCORE.INTER.norm>
-0.699036

>  <SCORE.INTRA>
-2.51152

>  <SCORE.INTRA.DIHEDRAL>
-4.6772

>  <SCORE.INTRA.DIHEDRAL.0>
10.1225

>  <SCORE.INTRA.POLAR>
0

>  <SCORE.INTRA.POLAR.0>
0

>  <SCORE.INTRA.REPUL>
0

>  <SCORE.INTRA.REPUL.0>
0

>  <SCORE.INTRA.SOLV>
0.298342

>  <SCORE.INTRA.SOLV.lig_0>
-49.9393

>  <SCORE.INTRA.VDW>
-0.322086

>  <SCORE.INTRA.VDW.0>
-1.75437

>  <SCORE.INTRA.norm>
-0.0965968

>  <SCORE.RESTR>
0

>  <SCORE.RESTR.CAVITY>
0

>  <SCORE.RESTR.norm>
0

>  <SCORE.SYSTEM>
0

>  <SCORE.SYSTEM.CONST>
0

>  <SCORE.SYSTEM.DIHEDRAL>
0

>  <SCORE.SYSTEM.SOLV>
0

>  <SCORE.SYSTEM.norm>
0

>  <SCORE.heavy>
26

>  <SCORE.norm>
-0.795633

>  <RMSD>
8.720

$$$$
ligand
 OpenBabel11021811473D
libRbt.so/2013.1/901 2013/11/27
 26 28  0  0  0  0  0  0  0  0999 V2000
   -8.1974   14.4157  -25.0093 N   0  0  0  0  0  0  0  0  0  0  0  0
   -8.9429   15.0122  -23.8940 C   0  0  2  0  0  0  0  0  0  0  0  0
   -8.3685   16.3675  -23.5756 C   0  0  0  0  0  0  0  0  0  0  0  0
   -7.1823   16.5658  -23.6969 O   0  0  0  0  0  0  0  0  0  0  0  0
   -8.8304   14.1080  -22.6654 C   0  0  0  0  0  0  0  0  0  0  0  0
   -9.6723   14.6847  -21.5286 C   0  0  0  0  0  0  0  0  0  0  0  0
   -9.9022   13.8071  -20.0930 S   0  0  0  0  0  0  0  0  0  0  0  0
  -10.6691   12.2488  -19.5784 C   0  0  0  0  0  0  0  0  0  0  0  0
  -10.5912   11.1220  -20.6157 C   0  0  1  0  0  0  0  0  0  0  0  0
  -11.0195    9.8771  -20.0946 O   0  0  0  0  0  0  0  0  0  0  0  0
  -11.5339   11.3497  -21.7737 C   0  0  1  0  0  0  0  0  0  0  0  0
  -10.9870   10.6040  -22.8392 O   0  0  0  0  0  0  0  0  0  0  0  0
  -12.8328   10.6974  -21.3608 C   0  0  1  0  0  0  0  0  0  0  0  0
  -13.4003   10.0274  -22.4652 O   0  0  0  0  0  0  0  0  0  0  0  0
  -12.4029    9.6841  -20.3222 C   0  0  2  0  0  0  0  0  0  0  0  0
   -9.1732   17.3567  -23.1538 O   0  0  0  0  0  0  0  0  0  0  0  0
  -14.2161    7.1412  -16.1437 N   0  0  0  0  0  0  0  0  0  0  0  0
  -13.6406    6.6121  -17.2747 C   0  0  0  0  0  0  0  0  0  0  0  0
  -13.2333    7.4515  -18.2834 N   0  0  0  0  0  0  0  0  0  0  0  0
  -13.3905    8.7852  -18.1743 C   0  0  0  0  0  0  0  0  0  0  0  0
  -13.9658    9.3381  -17.0456 C   0  0  0  0  0  0  0  0  0  0  0  0
  -14.3842    8.4975  -16.0208 C   0  0  0  0  0  0  0  0  0  0  0  0
  -14.9452    8.9857  -14.9215 N   0  0  0  0  0  0  0  0  0  0  0  0
  -13.9995   10.6804  -17.2019 N   0  0  0  0  0  0  0  0  0  0  0  0
  -13.4539   10.9785  -18.3972 C   0  0  0  0  0  0  0  0  0  0  0  0
  -13.0806    9.8146  -19.0193 N   0  0  0  0  0  0  0  0  0  0  0  0
  2  1  1  6  0  0  0
  2  3  1  0  0  0  0
  2  5  1  0  0  0  0
  3  4  1  0  0  0  0
  3 16  1  0  0  0  0
  5  6  1  0  0  0  0
  6  7  1  0  0  0  0
  7  8  1  0  0  0  0
  9  8  1  1  0  0  0
  9 10  1  0  0  0  0
  9 11  1  0  0  0  0
 10 15  1  0  0  0  0
 11 12  1  6  0  0  0
 11 13  1  0  0  0  0
 13 14  1  6  0  0  0
 13 15  1  0  0  0  0
 15 26  1  1  0  0  0
 17 18  2  0  0  0  0
 17 22  1  0  0  0  0
 18 19  1  0  0  0  0
 19 20  2  0  0  0  0
 20 21  1  0  0  0  0
 20 26  1  0  0  0  0
 21 22  2  0  0  0  0
 21 24  1  0  0  0  0
 22 23  1  0  0  0  0
 24 25  2  0  0  0  0
 25 26  1  0  0  0  0
M  END
>  <CHROM.1>
-34.29835534,-176.70337322,172.51560250,-63.51438655,33.20528978,171.05333474
-93.88373685,-11.46444839,11.58793566,-20.29146540,0.11904257,-1.04733799
-2.14979578

>  <Name>
ligand

>  <RI>
0

>  <Rbt.Current_Directory>
/home/itssahil/PROJECTS/Mol_Feturizer/New_Systems/rnas/3E5E

>  <Rbt.Executable>
rbdock ($Id: //depot/dev/client3/rdock/2013.1/src/exe/rbdock.cxx#4 $)

>  <Rbt.Library>
libRbt.so (2013.1, Build901 2013/11/27)

>  <Rbt.Parameter_File>
/export/apps/rDock/src/rDock_2013.1_src/data/scripts/dock_solv.prm

>  <Rbt.Receptor>
prm/pocket_docking_4.prm

>  <SCORE>
-19.3375

>  <SCORE.INTER>
-15.3489

>  <SCORE.INTER.CONST>
1

>  <SCORE.INTER.POLAR>
0

>  <SCORE.INTER.ROT>
7

>  <SCORE.INTER.SOLV>
9.377

>  <SCORE.INTER.VDW>
-21.6249

>  <SCORE.INTER.norm>
-0.590343

>  <SCORE.INTRA>
-3.98861

>  <SCORE.INTRA.DIHEDRAL>
-6.00853

>  <SCORE.INTRA.DIHEDRAL.0>
10.1225

>  <SCORE.INTRA.POLAR>
0

>  <SCORE.INTRA.POLAR.0>
0

>  <SCORE.INTRA.REPUL>
0

>  <SCORE.INTRA.REPUL.0>
0

>  <SCORE.INTRA.SOLV>
-0.550645

>  <SCORE.INTRA.SOLV.lig_0>
-49.9393

>  <SCORE.INTRA.VDW>
-0.709023

>  <SCORE.INTRA.VDW.0>
-1.75437

>  <SCORE.INTRA.norm>
-0.153408

>  <SCORE.RESTR>
0

>  <SCORE.RESTR.CAVITY>
0

>  <SCORE.RESTR.norm>
0

>  <SCORE.SYSTEM>
0

>  <SCORE.SYSTEM.CONST>
0

>  <SCORE.SYSTEM.DIHEDRAL>
0

>  <SCORE.SYSTEM.SOLV>
0

>  <SCORE.SYSTEM.norm>
0

>  <SCORE.heavy>
26

>  <SCORE.norm>
-0.743751

>  <RMSD>
8.753

$$$$
ligand
 OpenBabel11021811473D
libRbt.so/2013.1/901 2013/11/27
 26 28  0  0  0  0  0  0  0  0999 V2000
   -5.1596   14.4723  -22.6664 N   0  0  0  0  0  0  0  0  0  0  0  0
   -6.3014   13.8080  -23.3073 C   0  0  2  0  0  0  0  0  0  0  0  0
   -5.9346   12.3838  -23.6318 C   0  0  0  0  0  0  0  0  0  0  0  0
   -4.9427   12.1471  -24.2806 O   0  0  0  0  0  0  0  0  0  0  0  0
   -6.6636   14.5487  -24.5957 C   0  0  0  0  0  0  0  0  0  0  0  0
   -7.6830   15.6433  -24.2857 C   0  0  0  0  0  0  0  0  0  0  0  0
   -9.2209   15.2462  -23.6847 S   0  0  0  0  0  0  0  0  0  0  0  0
   -9.9284   14.1856  -22.3979 C   0  0  0  0  0  0  0  0  0  0  0  0
  -11.4611   14.1367  -22.3777 C   0  0  1  0  0  0  0  0  0  0  0  0
  -11.9999   13.5823  -23.5639 O   0  0  0  0  0  0  0  0  0  0  0  0
  -11.9859   13.2159  -21.3015 C   0  0  1  0  0  0  0  0  0  0  0  0
  -13.2942   13.6734  -21.0382 O   0  0  0  0  0  0  0  0  0  0  0  0
  -12.0853   11.8579  -21.9565 C   0  0  1  0  0  0  0  0  0  0  0  0
  -13.2705   11.2151  -21.5407 O   0  0  0  0  0  0  0  0  0  0  0  0
  -12.1792   12.1847  -23.4312 C   0  0  2  0  0  0  0  0  0  0  0  0
   -6.7109   11.3751  -23.2029 O   0  0  0  0  0  0  0  0  0  0  0  0
  -10.0949    7.6405  -24.9209 N   0  0  0  0  0  0  0  0  0  0  0  0
  -11.0915    7.8544  -23.9983 C   0  0  0  0  0  0  0  0  0  0  0  0
  -11.5011    9.1381  -23.7292 N   0  0  0  0  0  0  0  0  0  0  0  0
  -10.9379   10.1866  -24.3607 C   0  0  0  0  0  0  0  0  0  0  0  0
   -9.9352    9.9939  -25.2923 C   0  0  0  0  0  0  0  0  0  0  0  0
   -9.5112    8.6996  -25.5694 C   0  0  0  0  0  0  0  0  0  0  0  0
   -8.5487    8.4694  -26.4538 N   0  0  0  0  0  0  0  0  0  0  0  0
   -9.5566   11.2033  -25.7630 N   0  0  0  0  0  0  0  0  0  0  0  0
  -10.3026   12.1445  -25.1525 C   0  0  0  0  0  0  0  0  0  0  0  0
  -11.1572   11.5333  -24.2710 N   0  0  0  0  0  0  0  0  0  0  0  0
  2  1  1  6  0  0  0
  2  3  1  0  0  0  0
  2  5  1  0  0  0  0
  3  4  1  0  0  0  0
  3 16  1  0  0  0  0
  5  6  1  0  0  0  0
  6  7  1  0  0  0  0
  7  8  1  0  0  0  0
  9  8  1  6  0  0  0
  9 10  1  0  0  0  0
  9 11  1  0  0  0  0
 10 15  1  0  0  0  0
 11 12  1  6  0  0  0
 11 13  1  0  0  0  0
 13 14  1  1  0  0  0
 13 15  1  0  0  0  0
 15 26  1  6  0  0  0
 17 18  2  0  0  0  0
 17 22  1  0  0  0  0
 18 19  1  0  0  0  0
 19 20  2  0  0  0  0
 20 21  1  0  0  0  0
 20 26  1  0  0  0  0
 21 22  2  0  0  0  0
 21 24  1  0  0  0  0
 22 23  1  0  0  0  0
 24 25  2  0  0  0  0
 25 26  1  0  0  0  0
M  END
>  <CHROM.1>
-53.83116848,-89.68018726,-63.12865377,47.20959575,-175.16070748,63.31591398
175.90480970,-9.64621984,12.15607654,-23.68006210,-0.56754689,-0.29626072
-2.76070030

>  <Name>
ligand

>  <RI>
0

>  <Rbt.Current_Directory>
/home/itssahil/PROJECTS/Mol_Feturizer/New_Systems/rnas/3E5E

>  <Rbt.Executable>
rbdock ($Id: //depot/dev/client3/rdock/2013.1/src/exe/rbdock.cxx#4 $)

>  <Rbt.Library>
libRbt.so (2013.1, Build901 2013/11/27)

>  <Rbt.Parameter_File>
/export/apps/rDock/src/rDock_2013.1_src/data/scripts/dock_solv.prm

>  <Rbt.Receptor>
prm/blind_docking_80.prm

>  <SCORE>
-16.9264

>  <SCORE.INTER>
-13.2894

>  <SCORE.INTER.CONST>
1

>  <SCORE.INTER.POLAR>
0

>  <SCORE.INTER.ROT>
7

>  <SCORE.INTER.SOLV>
10.9208

>  <SCORE.INTER.VDW>
-20.7665

>  <SCORE.INTER.norm>
-0.511131

>  <SCORE.INTRA>
-3.637

>  <SCORE.INTRA.DIHEDRAL>
-4.20199

>  <SCORE.INTRA.DIHEDRAL.0>
10.1225

>  <SCORE.INTRA.POLAR>
0

>  <SCORE.INTRA.POLAR.0>
0

>  <SCORE.INTRA.REPUL>
0

>  <SCORE.INTRA.REPUL.0>
0

>  <SCORE.INTRA.SOLV>
0.260843

>  <SCORE.INTRA.SOLV.lig_0>
-49.9393

>  <SCORE.INTRA.VDW>
-1.66643

>  <SCORE.INTRA.VDW.0>
-1.75437

>  <SCORE.INTRA.norm>
-0.139885

>  <SCORE.RESTR>
0

>  <SCORE.RESTR.CAVITY>
0

>  <SCORE.RESTR.norm>
0

>  <SCORE.SYSTEM>
0

>  <SCORE.SYSTEM.CONST>
0

>  <SCORE.SYSTEM.DIHEDRAL>
0

>  <SCORE.SYSTEM.SOLV>
0

>  <SCORE.SYSTEM.norm>
0

>  <SCORE.heavy>
26

>  <SCORE.norm>
-0.651015

>  <RMSD>
8.760

$$$$
ligand
 OpenBabel11021811473D
libRbt.so/2013.1/901 2013/11/27
 26 28  0  0  0  0  0  0  0  0999 V2000
   -7.4033   16.6450  -18.2483 N   0  0  0  0  0  0  0  0  0  0  0  0
   -7.1394   15.6397  -19.2852 C   0  0  2  0  0  0  0  0  0  0  0  0
   -6.4931   16.3028  -20.4729 C   0  0  0  0  0  0  0  0  0  0  0  0
   -5.4682   15.8558  -20.9322 O   0  0  0  0  0  0  0  0  0  0  0  0
   -8.4578   14.9940  -19.7152 C   0  0  0  0  0  0  0  0  0  0  0  0
   -9.0497   14.2131  -18.5433 C   0  0  0  0  0  0  0  0  0  0  0  0
  -10.4287   13.2455  -18.7587 S   0  0  0  0  0  0  0  0  0  0  0  0
  -11.0118   11.9733  -19.9088 C   0  0  0  0  0  0  0  0  0  0  0  0
  -10.6749   12.2367  -21.3815 C   0  0  1  0  0  0  0  0  0  0  0  0
  -11.2148   11.2520  -22.2439 O   0  0  0  0  0  0  0  0  0  0  0  0
  -11.3013   13.5144  -21.8879 C   0  0  1  0  0  0  0  0  0  0  0  0
  -10.5046   13.8989  -22.9869 O   0  0  0  0  0  0  0  0  0  0  0  0
  -12.6598   13.1091  -22.4106 C   0  0  1  0  0  0  0  0  0  0  0  0
  -12.9331   13.7999  -23.6101 O   0  0  0  0  0  0  0  0  0  0  0  0
  -12.4977   11.6332  -22.7040 C   0  0  2  0  0  0  0  0  0  0  0  0
   -7.0531   17.3934  -21.0215 O   0  0  0  0  0  0  0  0  0  0  0  0
  -15.7938    7.6292  -23.2674 N   0  0  0  0  0  0  0  0  0  0  0  0
  -15.0241    8.2360  -24.2315 C   0  0  0  0  0  0  0  0  0  0  0  0
  -14.2196    9.2957  -23.8879 N   0  0  0  0  0  0  0  0  0  0  0  0
  -14.1767    9.7436  -22.6180 C   0  0  0  0  0  0  0  0  0  0  0  0
  -14.9416    9.1474  -21.6331 C   0  0  0  0  0  0  0  0  0  0  0  0
  -15.7613    8.0769  -21.9708 C   0  0  0  0  0  0  0  0  0  0  0  0
  -16.5153    7.4778  -21.0574 N   0  0  0  0  0  0  0  0  0  0  0  0
  -14.7069    9.7904  -20.4674 N   0  0  0  0  0  0  0  0  0  0  0  0
  -13.8100   10.7686  -20.6999 C   0  0  0  0  0  0  0  0  0  0  0  0
  -13.4781   10.7618  -22.0307 N   0  0  0  0  0  0  0  0  0  0  0  0
  2  1  1  1  0  0  0
  2  3  1  0  0  0  0
  2  5  1  0  0  0  0
  3  4  1  0  0  0  0
  3 16  1  0  0  0  0
  5  6  1  0  0  0  0
  6  7  1  0  0  0  0
  7  8  1  0  0  0  0
  9  8  1  1  0  0  0
  9 10  1  0  0  0  0
  9 11  1  0  0  0  0
 10 15  1  0  0  0  0
 11 12  1  6  0  0  0
 11 13  1  0  0  0  0
 13 14  1  6  0  0  0
 13 15  1  0  0  0  0
 15 26  1  1  0  0  0
 17 18  2  0  0  0  0
 17 22  1  0  0  0  0
 18 19  1  0  0  0  0
 19 20  2  0  0  0  0
 20 21  1  0  0  0  0
 20 26  1  0  0  0  0
 21 22  2  0  0  0  0
 21 24  1  0  0  0  0
 22 23  1  0  0  0  0
 24 25  2  0  0  0  0
 25 26  1  0  0  0  0
M  END
>  <CHROM.1>
128.43348810,-65.22065765,-173.33258921,48.73558456,-40.22435015,-176.78289686
-107.23635081,-11.48099516,12.33347193,-21.25801471,0.11608570,0.76270195
1.75346731

>  <Name>
ligand

>  <RI>
0

>  <Rbt.Current_Directory>
/home/itssahil/PROJECTS/Mol_Feturizer/New_Systems/rnas/3E5E

>  <Rbt.Executable>
rbdock ($Id: //depot/dev/client3/rdock/2013.1/src/exe/rbdock.cxx#4 $)

>  <Rbt.Library>
libRbt.so (2013.1, Build901 2013/11/27)

>  <Rbt.Parameter_File>
/export/apps/rDock/src/rDock_2013.1_src/data/scripts/dock_solv.prm

>  <Rbt.Receptor>
prm/blind_docking_40.prm

>  <SCORE>
-23.3558

>  <SCORE.INTER>
-19.4356

>  <SCORE.INTER.CONST>
1

>  <SCORE.INTER.POLAR>
0

>  <SCORE.INTER.ROT>
7

>  <SCORE.INTER.SOLV>
19.1069

>  <SCORE.INTER.VDW>
-27.5927

>  <SCORE.INTER.norm>
-0.747524

>  <SCORE.INTRA>
-3.92012

>  <SCORE.INTRA.DIHEDRAL>
-6.38637

>  <SCORE.INTRA.DIHEDRAL.0>
10.1225

>  <SCORE.INTRA.POLAR>
0

>  <SCORE.INTRA.POLAR.0>
0

>  <SCORE.INTRA.REPUL>
0

>  <SCORE.INTRA.REPUL.0>
0

>  <SCORE.INTRA.SOLV>
0.202952

>  <SCORE.INTRA.SOLV.lig_0>
-49.9393

>  <SCORE.INTRA.VDW>
-0.828409

>  <SCORE.INTRA.VDW.0>
-1.75437

>  <SCORE.INTRA.norm>
-0.150774

>  <SCORE.RESTR>
0

>  <SCORE.RESTR.CAVITY>
0

>  <SCORE.RESTR.norm>
0

>  <SCORE.SYSTEM>
0

>  <SCORE.SYSTEM.CONST>
0

>  <SCORE.SYSTEM.DIHEDRAL>
0

>  <SCORE.SYSTEM.SOLV>
0

>  <SCORE.SYSTEM.norm>
0

>  <SCORE.heavy>
26

>  <SCORE.norm>
-0.898298

>  <RMSD>
8.787

$$$$
ligand
 OpenBabel11021811473D
libRbt.so/2013.1/901 2013/11/27
 26 28  0  0  0  0  0  0  0  0999 V2000
   -5.5824   18.1843  -21.9658 N   0  0  0  0  0  0  0  0  0  0  0  0
   -6.8412   17.4742  -21.7075 C   0  0  2  0  0  0  0  0  0  0  0  0
   -6.5403   16.1111  -21.1421 C   0  0  0  0  0  0  0  0  0  0  0  0
   -7.1213   15.7234  -20.1555 O   0  0  0  0  0  0  0  0  0  0  0  0
   -7.6188   17.3243  -23.0162 C   0  0  0  0  0  0  0  0  0  0  0  0
   -8.9823   16.6976  -22.7307 C   0  0  0  0  0  0  0  0  0  0  0  0
   -9.1310   15.0221  -22.4971 S   0  0  0  0  0  0  0  0  0  0  0  0
   -9.8963   13.8939  -21.3044 C   0  0  0  0  0  0  0  0  0  0  0  0
  -11.4202   14.0205  -21.1880 C   0  0  1  0  0  0  0  0  0  0  0  0
  -12.0655   13.9592  -22.4468 O   0  0  0  0  0  0  0  0  0  0  0  0
  -12.0306   12.8623  -20.4348 C   0  0  1  0  0  0  0  0  0  0  0  0
  -13.2565   13.3559  -19.9408 O   0  0  0  0  0  0  0  0  0  0  0  0
  -12.3325   11.8209  -21.4871 C   0  0  1  0  0  0  0  0  0  0  0  0
  -13.5800   11.2197  -21.2169 O   0  0  0  0  0  0  0  0  0  0  0  0
  -12.4273   12.6282  -22.7637 C   0  0  2  0  0  0  0  0  0  0  0  0
   -5.6243   15.3256  -21.7319 O   0  0  0  0  0  0  0  0  0  0  0  0
  -10.1986    8.5136  -25.0696 N   0  0  0  0  0  0  0  0  0  0  0  0
  -11.0076    8.5277  -23.9581 C   0  0  0  0  0  0  0  0  0  0  0  0
  -11.4931    9.7244  -23.4889 N   0  0  0  0  0  0  0  0  0  0  0  0
  -11.1860   10.8814  -24.1072 C   0  0  0  0  0  0  0  0  0  0  0  0
  -10.3752   10.8899  -25.2266 C   0  0  0  0  0  0  0  0  0  0  0  0
   -9.8762    9.6850  -25.7074 C   0  0  0  0  0  0  0  0  0  0  0  0
   -9.0909    9.6477  -26.7768 N   0  0  0  0  0  0  0  0  0  0  0  0
  -10.2333   12.1701  -25.6368 N   0  0  0  0  0  0  0  0  0  0  0  0
  -10.9405   12.9592  -24.8048 C   0  0  0  0  0  0  0  0  0  0  0  0
  -11.5291   12.1784  -23.8430 N   0  0  0  0  0  0  0  0  0  0  0  0
  2  1  1  6  0  0  0
  2  3  1  0  0  0  0
  2  5  1  0  0  0  0
  3  4  1  0  0  0  0
  3 16  1  0  0  0  0
  5  6  1  0  0  0  0
  6  7  1  0  0  0  0
  7  8  1  0  0  0  0
  9  8  1  6  0  0  0
  9 10  1  0  0  0  0
  9 11  1  0  0  0  0
 10 15  1  0  0  0  0
 11 12  1  6  0  0  0
 11 13  1  0  0  0  0
 13 14  1  1  0  0  0
 13 15  1  0  0  0  0
 15 26  1  6  0  0  0
 17 18  2  0  0  0  0
 17 22  1  0  0  0  0
 18 19  1  0  0  0  0
 19 20  2  0  0  0  0
 20 21  1  0  0  0  0
 20 26  1  0  0  0  0
 21 22  2  0  0  0  0
 21 24  1  0  0  0  0
 22 23  1  0  0  0  0
 24 25  2  0  0  0  0
 25 26  1  0  0  0  0
M  END
>  <CHROM.1>
131.81262274,-175.00456535,-79.60606526,130.95444420,61.06834177,51.23788217
154.27654804,-9.96806317,13.26413554,-22.77154976,-0.91322947,-0.52506231
-2.41601601

>  <Name>
ligand

>  <RI>
0

>  <Rbt.Current_Directory>
/home/itssahil/PROJECTS/Mol_Feturizer/New_Systems/rnas/3E5E

>  <Rbt.Executable>
rbdock ($Id: //depot/dev/client3/rdock/2013.1/src/exe/rbdock.cxx#4 $)

>  <Rbt.Library>
libRbt.so (2013.1, Build901 2013/11/27)

>  <Rbt.Parameter_File>
/export/apps/rDock/src/rDock_2013.1_src/data/scripts/dock_solv.prm

>  <Rbt.Receptor>
prm/blind_docking_80.prm

>  <SCORE>
-17.7447

>  <SCORE.INTER>
-14.3124

>  <SCORE.INTER.CONST>
1

>  <SCORE.INTER.POLAR>
0

>  <SCORE.INTER.ROT>
7

>  <SCORE.INTER.SOLV>
9.05355

>  <SCORE.INTER.VDW>
-20.8261

>  <SCORE.INTER.norm>
-0.550476

>  <SCORE.INTRA>
-3.43228

>  <SCORE.INTRA.DIHEDRAL>
-3.64765

>  <SCORE.INTRA.DIHEDRAL.0>
10.1225

>  <SCORE.INTRA.POLAR>
0

>  <SCORE.INTRA.POLAR.0>
0

>  <SCORE.INTRA.REPUL>
0

>  <SCORE.INTRA.REPUL.0>
0

>  <SCORE.INTRA.SOLV>
-0.247087

>  <SCORE.INTRA.SOLV.lig_0>
-49.9393

>  <SCORE.INTRA.VDW>
-1.48491

>  <SCORE.INTRA.VDW.0>
-1.75437

>  <SCORE.INTRA.norm>
-0.132011

>  <SCORE.RESTR>
0

>  <SCORE.RESTR.CAVITY>
0

>  <SCORE.RESTR.norm>
0

>  <SCORE.SYSTEM>
0

>  <SCORE.SYSTEM.CONST>
0

>  <SCORE.SYSTEM.DIHEDRAL>
0

>  <SCORE.SYSTEM.SOLV>
0

>  <SCORE.SYSTEM.norm>
0

>  <SCORE.heavy>
26

>  <SCORE.norm>
-0.682487

>  <RMSD>
8.792

$$$$
ligand
 OpenBabel11021811473D
libRbt.so/2013.1/901 2013/11/27
 26 28  0  0  0  0  0  0  0  0999 V2000
   -6.8305   17.7603  -21.1176 N   0  0  0  0  0  0  0  0  0  0  0  0
   -7.3744   16.6512  -21.9111 C   0  0  2  0  0  0  0  0  0  0  0  0
   -7.8066   17.1648  -23.2593 C   0  0  0  0  0  0  0  0  0  0  0  0
   -8.3227   18.2536  -23.3552 O   0  0  0  0  0  0  0  0  0  0  0  0
   -8.5775   16.0476  -21.1845 C   0  0  0  0  0  0  0  0  0  0  0  0
   -8.1339   15.5030  -19.8280 C   0  0  0  0  0  0  0  0  0  0  0  0
   -9.0984   14.3854  -18.9886 S   0  0  0  0  0  0  0  0  0  0  0  0
  -10.1062   12.9285  -19.3669 C   0  0  0  0  0  0  0  0  0  0  0  0
  -10.2516   12.6196  -20.8620 C   0  0  1  0  0  0  0  0  0  0  0  0
  -10.9617   11.4177  -21.0990 O   0  0  0  0  0  0  0  0  0  0  0  0
  -11.0857   13.6556  -21.5777 C   0  0  1  0  0  0  0  0  0  0  0  0
  -10.6884   13.5717  -22.9288 O   0  0  0  0  0  0  0  0  0  0  0  0
  -12.5088   13.1585  -21.4740 C   0  0  1  0  0  0  0  0  0  0  0  0
  -13.1793   13.3781  -22.6959 O   0  0  0  0  0  0  0  0  0  0  0  0
  -12.3461   11.6709  -21.2480 C   0  0  2  0  0  0  0  0  0  0  0  0
   -7.6215   16.4124  -24.3564 O   0  0  0  0  0  0  0  0  0  0  0  0
  -16.3667    8.9049  -19.4046 N   0  0  0  0  0  0  0  0  0  0  0  0
  -16.0909    9.2328  -20.7110 C   0  0  0  0  0  0  0  0  0  0  0  0
  -14.9795    9.9873  -20.9997 N   0  0  0  0  0  0  0  0  0  0  0  0
  -14.1582   10.4065  -20.0173 C   0  0  0  0  0  0  0  0  0  0  0  0
  -14.4163   10.0874  -18.6974 C   0  0  0  0  0  0  0  0  0  0  0  0
  -15.5398    9.3273  -18.3943 C   0  0  0  0  0  0  0  0  0  0  0  0
  -15.8275    9.0016  -17.1402 N   0  0  0  0  0  0  0  0  0  0  0  0
  -13.4432   10.6308  -17.9325 N   0  0  0  0  0  0  0  0  0  0  0  0
  -12.5816   11.2754  -18.7432 C   0  0  0  0  0  0  0  0  0  0  0  0
  -13.0151   11.1565  -20.0389 N   0  0  0  0  0  0  0  0  0  0  0  0
  2  1  1  1  0  0  0
  2  3  1  0  0  0  0
  2  5  1  0  0  0  0
  3  4  1  0  0  0  0
  3 16  1  0  0  0  0
  5  6  1  0  0  0  0
  6  7  1  0  0  0  0
  7  8  1  0  0  0  0
  9  8  1  1  0  0  0
  9 10  1  0  0  0  0
  9 11  1  0  0  0  0
 10 15  1  0  0  0  0
 11 12  1  6  0  0  0
 11 13  1  0  0  0  0
 13 14  1  6  0  0  0
 13 15  1  0  0  0  0
 15 26  1  1  0  0  0
 17 18  2  0  0  0  0
 17 22  1  0  0  0  0
 18 19  1  0  0  0  0
 19 20  2  0  0  0  0
 20 21  1  0  0  0  0
 20 26  1  0  0  0  0
 21 22  2  0  0  0  0
 21 24  1  0  0  0  0
 22 23  1  0  0  0  0
 24 25  2  0  0  0  0
 25 26  1  0  0  0  0
M  END
>  <CHROM.1>
-37.70218820,-61.11284684,-161.88448544,40.68380072,-5.64168783,175.53085946
-134.70129304,-11.38335010,13.03091719,-20.65715772,-0.50488151,0.66855266
1.90266039

>  <Name>
ligand

>  <RI>
0

>  <Rbt.Current_Directory>
/home/itssahil/PROJECTS/Mol_Feturizer/New_Systems/rnas/3E5E

>  <Rbt.Executable>
rbdock ($Id: //depot/dev/client3/rdock/2013.1/src/exe/rbdock.cxx#4 $)

>  <Rbt.Library>
libRbt.so (2013.1, Build901 2013/11/27)

>  <Rbt.Parameter_File>
/export/apps/rDock/src/rDock_2013.1_src/data/scripts/dock_solv.prm

>  <Rbt.Receptor>
prm/pocket_docking_6.prm

>  <SCORE>
-17.139

>  <SCORE.INTER>
-14.8988

>  <SCORE.INTER.CONST>
1

>  <SCORE.INTER.POLAR>
0

>  <SCORE.INTER.ROT>
7

>  <SCORE.INTER.SOLV>
12.3155

>  <SCORE.INTER.VDW>
-22.3044

>  <SCORE.INTER.norm>
-0.573032

>  <SCORE.INTRA>
-2.2402

>  <SCORE.INTRA.DIHEDRAL>
-3.22012

>  <SCORE.INTRA.DIHEDRAL.0>
10.1225

>  <SCORE.INTRA.POLAR>
0

>  <SCORE.INTRA.POLAR.0>
0

>  <SCORE.INTRA.REPUL>
0

>  <SCORE.INTRA.REPUL.0>
0

>  <SCORE.INTRA.SOLV>
0.25048

>  <SCORE.INTRA.SOLV.lig_0>
-49.9393

>  <SCORE.INTRA.VDW>
-0.755376

>  <SCORE.INTRA.VDW.0>
-1.75437

>  <SCORE.INTRA.norm>
-0.0861613

>  <SCORE.RESTR>
0

>  <SCORE.RESTR.CAVITY>
0

>  <SCORE.RESTR.norm>
0

>  <SCORE.SYSTEM>
0

>  <SCORE.SYSTEM.CONST>
0

>  <SCORE.SYSTEM.DIHEDRAL>
0

>  <SCORE.SYSTEM.SOLV>
0

>  <SCORE.SYSTEM.norm>
0

>  <SCORE.heavy>
26

>  <SCORE.norm>
-0.659193

>  <RMSD>
8.804

$$$$
ligand
 OpenBabel11021811473D
libRbt.so/2013.1/901 2013/11/27
 26 28  0  0  0  0  0  0  0  0999 V2000
   -5.1421   17.5957  -21.5175 N   0  0  0  0  0  0  0  0  0  0  0  0
   -5.3477   16.1898  -21.8872 C   0  0  2  0  0  0  0  0  0  0  0  0
   -4.0126   15.5324  -22.1187 C   0  0  0  0  0  0  0  0  0  0  0  0
   -3.0417   16.2066  -22.3710 O   0  0  0  0  0  0  0  0  0  0  0  0
   -6.1819   16.1169  -23.1673 C   0  0  0  0  0  0  0  0  0  0  0  0
   -7.5715   16.6946  -22.9044 C   0  0  0  0  0  0  0  0  0  0  0  0
   -8.6977   15.8411  -21.9626 S   0  0  0  0  0  0  0  0  0  0  0  0
   -8.7058   14.4283  -20.8290 C   0  0  0  0  0  0  0  0  0  0  0  0
  -10.0206   14.2251  -20.0663 C   0  0  1  0  0  0  0  0  0  0  0  0
  -11.1507   14.2591  -20.9187 O   0  0  0  0  0  0  0  0  0  0  0  0
  -10.1074   12.8537  -19.4391 C   0  0  1  0  0  0  0  0  0  0  0  0
  -11.0263   12.9971  -18.3781 O   0  0  0  0  0  0  0  0  0  0  0  0
  -10.7397   11.9755  -20.4936 C   0  0  1  0  0  0  0  0  0  0  0  0
  -11.6656   11.0989  -19.8895 O   0  0  0  0  0  0  0  0  0  0  0  0
  -11.4776   12.9599  -21.3750 C   0  0  2  0  0  0  0  0  0  0  0  0
   -3.8999   14.1959  -22.0477 O   0  0  0  0  0  0  0  0  0  0  0  0
   -7.7831   11.6656  -24.8231 N   0  0  0  0  0  0  0  0  0  0  0  0
   -7.7158   11.6195  -23.4507 C   0  0  0  0  0  0  0  0  0  0  0  0
   -8.7996   12.0175  -22.7057 N   0  0  0  0  0  0  0  0  0  0  0  0
   -9.9257   12.4498  -23.3059 C   0  0  0  0  0  0  0  0  0  0  0  0
  -10.0150   12.5033  -24.6842 C   0  0  0  0  0  0  0  0  0  0  0  0
   -8.9231   12.1061  -25.4470 C   0  0  0  0  0  0  0  0  0  0  0  0
   -8.9643   12.1453  -26.7731 N   0  0  0  0  0  0  0  0  0  0  0  0
  -11.2408   12.9700  -25.0112 N   0  0  0  0  0  0  0  0  0  0  0  0
  -11.9201   13.2029  -23.8712 C   0  0  0  0  0  0  0  0  0  0  0  0
  -11.1162   12.8966  -22.8030 N   0  0  0  0  0  0  0  0  0  0  0  0
  2  1  1  6  0  0  0
  2  3  1  0  0  0  0
  2  5  1  0  0  0  0
  3  4  1  0  0  0  0
  3 16  1  0  0  0  0
  5  6  1  0  0  0  0
  6  7  1  0  0  0  0
  7  8  1  0  0  0  0
  9  8  1  6  0  0  0
  9 10  1  0  0  0  0
  9 11  1  0  0  0  0
 10 15  1  0  0  0  0
 11 12  1  1  0  0  0
 11 13  1  0  0  0  0
 13 14  1  1  0  0  0
 13 15  1  0  0  0  0
 15 26  1  6  0  0  0
 17 18  2  0  0  0  0
 17 22  1  0  0  0  0
 18 19  1  0  0  0  0
 19 20  2  0  0  0  0
 20 21  1  0  0  0  0
 20 26  1  0  0  0  0
 21 22  2  0  0  0  0
 21 24  1  0  0  0  0
 22 23  1  0  0  0  0
 24 25  2  0  0  0  0
 25 26  1  0  0  0  0
M  END
>  <CHROM.1>
-21.30128378,-64.02908559,-72.17931523,13.76584588,170.51816585,48.91560968
93.33761315,-8.63498420,13.85132073,-22.30634823,0.12802492,0.50941660,1.18856676

>  <Name>
ligand

>  <RI>
0

>  <Rbt.Current_Directory>
/home/itssahil/PROJECTS/Mol_Feturizer/New_Systems/rnas/3E5E

>  <Rbt.Executable>
rbdock ($Id: //depot/dev/client3/rdock/2013.1/src/exe/rbdock.cxx#4 $)

>  <Rbt.Library>
libRbt.so (2013.1, Build901 2013/11/27)

>  <Rbt.Parameter_File>
/export/apps/rDock/src/rDock_2013.1_src/data/scripts/dock_solv.prm

>  <Rbt.Receptor>
prm/pocket_docking_5.prm

>  <SCORE>
-18.9089

>  <SCORE.INTER>
-15.5074

>  <SCORE.INTER.CONST>
1

>  <SCORE.INTER.POLAR>
0

>  <SCORE.INTER.ROT>
7

>  <SCORE.INTER.SOLV>
9.55523

>  <SCORE.INTER.VDW>
-21.79

>  <SCORE.INTER.norm>
-0.596439

>  <SCORE.INTRA>
-3.40152

>  <SCORE.INTRA.DIHEDRAL>
-4.06158

>  <SCORE.INTRA.DIHEDRAL.0>
10.1225

>  <SCORE.INTRA.POLAR>
0

>  <SCORE.INTRA.POLAR.0>
0

>  <SCORE.INTRA.REPUL>
0

>  <SCORE.INTRA.REPUL.0>
0

>  <SCORE.INTRA.SOLV>
0.71429

>  <SCORE.INTRA.SOLV.lig_0>
-49.9393

>  <SCORE.INTRA.VDW>
-1.72788

>  <SCORE.INTRA.VDW.0>
-1.75437

>  <SCORE.INTRA.norm>
-0.130828

>  <SCORE.RESTR>
0

>  <SCORE.RESTR.CAVITY>
0

>  <SCORE.RESTR.norm>
0

>  <SCORE.SYSTEM>
0

>  <SCORE.SYSTEM.CONST>
0

>  <SCORE.SYSTEM.DIHEDRAL>
0

>  <SCORE.SYSTEM.SOLV>
0

>  <SCORE.SYSTEM.norm>
0

>  <SCORE.heavy>
26

>  <SCORE.norm>
-0.727267

>  <RMSD>
8.805

$$$$
ligand
 OpenBabel11021811473D
libRbt.so/2013.1/901 2013/11/27
 26 28  0  0  0  0  0  0  0  0999 V2000
   -5.5914   16.2703  -22.6200 N   0  0  0  0  0  0  0  0  0  0  0  0
   -6.9113   16.1210  -21.9947 C   0  0  2  0  0  0  0  0  0  0  0  0
   -7.7480   17.3368  -22.2947 C   0  0  0  0  0  0  0  0  0  0  0  0
   -8.8930   17.2083  -22.6603 O   0  0  0  0  0  0  0  0  0  0  0  0
   -6.7441   15.9764  -20.4812 C   0  0  0  0  0  0  0  0  0  0  0  0
   -8.1124   15.7705  -19.8339 C   0  0  0  0  0  0  0  0  0  0  0  0
   -9.1551   14.5499  -20.3881 S   0  0  0  0  0  0  0  0  0  0  0  0
   -9.9896   14.0924  -21.9293 C   0  0  0  0  0  0  0  0  0  0  0  0
  -11.5211   14.0787  -21.8500 C   0  0  1  0  0  0  0  0  0  0  0  0
  -12.1211   13.6514  -23.0593 O   0  0  0  0  0  0  0  0  0  0  0  0
  -12.0289   13.0736  -20.8434 C   0  0  1  0  0  0  0  0  0  0  0  0
  -13.3127   13.5357  -20.4846 O   0  0  0  0  0  0  0  0  0  0  0  0
  -12.1916   11.7860  -21.6171 C   0  0  1  0  0  0  0  0  0  0  0  0
  -13.3771   11.1358  -21.2141 O   0  0  0  0  0  0  0  0  0  0  0  0
  -12.3339   12.2523  -23.0499 C   0  0  2  0  0  0  0  0  0  0  0  0
   -7.2222   18.5652  -22.1587 O   0  0  0  0  0  0  0  0  0  0  0  0
  -10.2637    7.8205  -24.8628 N   0  0  0  0  0  0  0  0  0  0  0  0
  -11.1917    7.9751  -23.8603 C   0  0  0  0  0  0  0  0  0  0  0  0
  -11.6094    9.2371  -23.5128 N   0  0  0  0  0  0  0  0  0  0  0  0
  -11.1208   10.3220  -24.1449 C   0  0  0  0  0  0  0  0  0  0  0  0
  -10.1879   10.1891  -25.1561 C   0  0  0  0  0  0  0  0  0  0  0  0
   -9.7562    8.9170  -25.5130 C   0  0  0  0  0  0  0  0  0  0  0  0
   -8.8588    8.7440  -26.4755 N   0  0  0  0  0  0  0  0  0  0  0  0
   -9.8747   11.4240  -25.6081 N   0  0  0  0  0  0  0  0  0  0  0  0
  -10.5938   12.3230  -24.9081 C   0  0  0  0  0  0  0  0  0  0  0  0
  -11.3641   11.6584  -23.9883 N   0  0  0  0  0  0  0  0  0  0  0  0
  2  1  1  6  0  0  0
  2  3  1  0  0  0  0
  2  5  1  0  0  0  0
  3  4  1  0  0  0  0
  3 16  1  0  0  0  0
  5  6  1  0  0  0  0
  6  7  1  0  0  0  0
  7  8  1  0  0  0  0
  9  8  1  6  0  0  0
  9 10  1  0  0  0  0
  9 11  1  0  0  0  0
 10 15  1  0  0  0  0
 11 12  1  6  0  0  0
 11 13  1  0  0  0  0
 13 14  1  1  0  0  0
 13 15  1  0  0  0  0
 15 26  1  6  0  0  0
 17 18  2  0  0  0  0
 17 22  1  0  0  0  0
 18 19  1  0  0  0  0
 19 20  2  0  0  0  0
 20 21  1  0  0  0  0
 20 26  1  0  0  0  0
 21 22  2  0  0  0  0
 21 24  1  0  0  0  0
 22 23  1  0  0  0  0
 24 25  2  0  0  0  0
 25 26  1  0  0  0  0
M  END
>  <CHROM.1>
133.99306913,-177.97353433,52.68035434,-59.70357573,-118.68392931,-177.06660384
171.08253460,-10.04633860,13.02656350,-22.68792118,-1.10399540,-0.51462693
-2.50588367

>  <Name>
ligand

>  <RI>
0

>  <Rbt.Current_Directory>
/home/itssahil/PROJECTS/Mol_Feturizer/New_Systems/rnas/3E5E

>  <Rbt.Executable>
rbdock ($Id: //depot/dev/client3/rdock/2013.1/src/exe/rbdock.cxx#4 $)

>  <Rbt.Library>
libRbt.so (2013.1, Build901 2013/11/27)

>  <Rbt.Parameter_File>
/export/apps/rDock/src/rDock_2013.1_src/data/scripts/dock_solv.prm

>  <Rbt.Receptor>
prm/blind_docking_60.prm

>  <SCORE>
-19.627

>  <SCORE.INTER>
-16.2534

>  <SCORE.INTER.CONST>
1

>  <SCORE.INTER.POLAR>
0

>  <SCORE.INTER.ROT>
7

>  <SCORE.INTER.SOLV>
8.77423

>  <SCORE.INTER.VDW>
-22.027

>  <SCORE.INTER.norm>
-0.62513

>  <SCORE.INTRA>
-3.37359

>  <SCORE.INTRA.DIHEDRAL>
-4.84269

>  <SCORE.INTRA.DIHEDRAL.0>
10.1225

>  <SCORE.INTRA.POLAR>
0

>  <SCORE.INTRA.POLAR.0>
0

>  <SCORE.INTRA.REPUL>
0

>  <SCORE.INTRA.REPUL.0>
0

>  <SCORE.INTRA.SOLV>
-0.32591

>  <SCORE.INTRA.SOLV.lig_0>
-49.9393

>  <SCORE.INTRA.VDW>
-0.78929

>  <SCORE.INTRA.VDW.0>
-1.75437

>  <SCORE.INTRA.norm>
-0.129754

>  <SCORE.RESTR>
0

>  <SCORE.RESTR.CAVITY>
0

>  <SCORE.RESTR.norm>
0

>  <SCORE.SYSTEM>
0

>  <SCORE.SYSTEM.CONST>
0

>  <SCORE.SYSTEM.DIHEDRAL>
0

>  <SCORE.SYSTEM.SOLV>
0

>  <SCORE.SYSTEM.norm>
0

>  <SCORE.heavy>
26

>  <SCORE.norm>
-0.754884

>  <RMSD>
8.807

$$$$
ligand
 OpenBabel11021811473D
libRbt.so/2013.1/901 2013/11/27
 26 28  0  0  0  0  0  0  0  0999 V2000
   -8.0189   16.2869  -21.7800 N   0  0  0  0  0  0  0  0  0  0  0  0
   -6.8805   16.8637  -21.0542 C   0  0  2  0  0  0  0  0  0  0  0  0
   -5.7762   17.1834  -22.0271 C   0  0  0  0  0  0  0  0  0  0  0  0
   -5.7696   16.6748  -23.1236 O   0  0  0  0  0  0  0  0  0  0  0  0
   -6.3742   15.8576  -20.0192 C   0  0  0  0  0  0  0  0  0  0  0  0
   -7.3357   15.8184  -18.8328 C   0  0  0  0  0  0  0  0  0  0  0  0
   -8.8948   15.1676  -19.0057 S   0  0  0  0  0  0  0  0  0  0  0  0
   -9.6501   13.6161  -19.5564 C   0  0  0  0  0  0  0  0  0  0  0  0
   -9.6231   13.3923  -21.0733 C   0  0  1  0  0  0  0  0  0  0  0  0
  -10.1559   12.1337  -21.4436 O   0  0  0  0  0  0  0  0  0  0  0  0
  -10.5116   14.3684  -21.8075 C   0  0  1  0  0  0  0  0  0  0  0  0
   -9.9887   14.4218  -23.1168 O   0  0  0  0  0  0  0  0  0  0  0  0
  -11.8662   13.7017  -21.8688 C   0  0  1  0  0  0  0  0  0  0  0  0
  -12.4475   13.9217  -23.1355 O   0  0  0  0  0  0  0  0  0  0  0  0
  -11.5422   12.2318  -21.7108 C   0  0  2  0  0  0  0  0  0  0  0  0
   -4.7959   18.0320  -21.6765 O   0  0  0  0  0  0  0  0  0  0  0  0
  -15.3901    8.9568  -20.4142 N   0  0  0  0  0  0  0  0  0  0  0  0
  -15.0482    9.4101  -21.6663 C   0  0  0  0  0  0  0  0  0  0  0  0
  -14.0007   10.2883  -21.8059 N   0  0  0  0  0  0  0  0  0  0  0  0
  -13.3059   10.7071  -20.7302 C   0  0  0  0  0  0  0  0  0  0  0  0
  -13.6322   10.2631  -19.4626 C   0  0  0  0  0  0  0  0  0  0  0  0
  -14.6923    9.3772  -19.3100 C   0  0  0  0  0  0  0  0  0  0  0  0
  -15.0422    8.9289  -18.1107 N   0  0  0  0  0  0  0  0  0  0  0  0
  -12.7826   10.8367  -18.5814 N   0  0  0  0  0  0  0  0  0  0  0  0
  -11.9308   11.6222  -19.2688 C   0  0  0  0  0  0  0  0  0  0  0  0
  -12.2473   11.5631  -20.6020 N   0  0  0  0  0  0  0  0  0  0  0  0
  2  1  1  6  0  0  0
  2  3  1  0  0  0  0
  2  5  1  0  0  0  0
  3  4  1  0  0  0  0
  3 16  1  0  0  0  0
  5  6  1  0  0  0  0
  6  7  1  0  0  0  0
  7  8  1  0  0  0  0
  9  8  1  1  0  0  0
  9 10  1  0  0  0  0
  9 11  1  0  0  0  0
 10 15  1  0  0  0  0
 11 12  1  6  0  0  0
 11 13  1  0  0  0  0
 13 14  1  6  0  0  0
 13 15  1  0  0  0  0
 15 26  1  1  0  0  0
 17 18  2  0  0  0  0
 17 22  1  0  0  0  0
 18 19  1  0  0  0  0
 19 20  2  0  0  0  0
 20 21  1  0  0  0  0
 20 26  1  0  0  0  0
 21 22  2  0  0  0  0
 21 24  1  0  0  0  0
 22 23  1  0  0  0  0
 24 25  2  0  0  0  0
 25 26  1  0  0  0  0
M  END
>  <CHROM.1>
-18.07299920,-75.31462240,69.02181652,55.23739364,-73.78323465,176.62523680
-136.24477503,-10.49318951,13.32950782,-20.77608042,0.26466309,-0.68413166
-1.33355237

>  <Name>
ligand

>  <RI>
0

>  <Rbt.Current_Directory>
/home/itssahil/PROJECTS/Mol_Feturizer/New_Systems/rnas/3E5E

>  <Rbt.Executable>
rbdock ($Id: //depot/dev/client3/rdock/2013.1/src/exe/rbdock.cxx#4 $)

>  <Rbt.Library>
libRbt.so (2013.1, Build901 2013/11/27)

>  <Rbt.Parameter_File>
/export/apps/rDock/src/rDock_2013.1_src/data/scripts/dock_solv.prm

>  <Rbt.Receptor>
prm/blind_docking_100.prm

>  <SCORE>
-18.557

>  <SCORE.INTER>
-16.7535

>  <SCORE.INTER.CONST>
1

>  <SCORE.INTER.POLAR>
0

>  <SCORE.INTER.ROT>
7

>  <SCORE.INTER.SOLV>
11.1926

>  <SCORE.INTER.VDW>
-23.1665

>  <SCORE.INTER.norm>
-0.644364

>  <SCORE.INTRA>
-1.81327

>  <SCORE.INTRA.DIHEDRAL>
-5.77618

>  <SCORE.INTRA.DIHEDRAL.0>
10.1225

>  <SCORE.INTRA.POLAR>
0

>  <SCORE.INTRA.POLAR.0>
0

>  <SCORE.INTRA.REPUL>
0

>  <SCORE.INTRA.REPUL.0>
0

>  <SCORE.INTRA.SOLV>
4.24512

>  <SCORE.INTRA.SOLV.lig_0>
-49.9393

>  <SCORE.INTRA.VDW>
-1.04774

>  <SCORE.INTRA.VDW.0>
-1.75437

>  <SCORE.INTRA.norm>
-0.0697412

>  <SCORE.RESTR>
0.0097524

>  <SCORE.RESTR.CAVITY>
0.0097524

>  <SCORE.RESTR.norm>
0.000375092

>  <SCORE.SYSTEM>
0

>  <SCORE.SYSTEM.CONST>
0

>  <SCORE.SYSTEM.DIHEDRAL>
0

>  <SCORE.SYSTEM.SOLV>
0

>  <SCORE.SYSTEM.norm>
0

>  <SCORE.heavy>
26

>  <SCORE.norm>
-0.71373

>  <RMSD>
8.811

$$$$
ligand
 OpenBabel11021811473D
libRbt.so/2013.1/901 2013/11/27
 26 28  0  0  0  0  0  0  0  0999 V2000
   -9.1686   11.4528  -26.7805 N   0  0  0  0  0  0  0  0  0  0  0  0
   -9.6827   12.8280  -26.7689 C   0  0  2  0  0  0  0  0  0  0  0  0
   -9.2891   13.5205  -28.0471 C   0  0  0  0  0  0  0  0  0  0  0  0
  -10.0377   14.3211  -28.5569 O   0  0  0  0  0  0  0  0  0  0  0  0
   -9.0920   13.5821  -25.5764 C   0  0  0  0  0  0  0  0  0  0  0  0
   -9.7949   13.1400  -24.2942 C   0  0  0  0  0  0  0  0  0  0  0  0
  -11.4516   13.4388  -24.0703 S   0  0  0  0  0  0  0  0  0  0  0  0
  -12.7325   13.0597  -22.8469 C   0  0  0  0  0  0  0  0  0  0  0  0
  -12.4860   13.6535  -21.4547 C   0  0  1  0  0  0  0  0  0  0  0  0
  -13.3331   13.0909  -20.4693 O   0  0  0  0  0  0  0  0  0  0  0  0
  -11.1029   13.3348  -20.9379 C   0  0  1  0  0  0  0  0  0  0  0  0
  -10.8295   14.3409  -19.9874 O   0  0  0  0  0  0  0  0  0  0  0  0
  -11.2472   12.0216  -20.2047 C   0  0  1  0  0  0  0  0  0  0  0  0
  -10.4816   12.0520  -19.0199 O   0  0  0  0  0  0  0  0  0  0  0  0
  -12.7186   11.9746  -19.8536 C   0  0  2  0  0  0  0  0  0  0  0  0
   -8.1071   13.2475  -28.6234 O   0  0  0  0  0  0  0  0  0  0  0  0
  -12.8091    8.1682  -23.4197 N   0  0  0  0  0  0  0  0  0  0  0  0
  -11.9382    9.2284  -23.3330 C   0  0  0  0  0  0  0  0  0  0  0  0
  -12.0844   10.1437  -22.3187 N   0  0  0  0  0  0  0  0  0  0  0  0
  -13.0696   10.0115  -21.4093 C   0  0  0  0  0  0  0  0  0  0  0  0
  -13.9555    8.9526  -21.4773 C   0  0  0  0  0  0  0  0  0  0  0  0
  -13.8184    8.0229  -22.5015 C   0  0  0  0  0  0  0  0  0  0  0  0
  -14.6493    6.9934  -22.6067 N   0  0  0  0  0  0  0  0  0  0  0  0
  -14.8305    9.0662  -20.4532 N   0  0  0  0  0  0  0  0  0  0  0  0
  -14.5084   10.1660  -19.7448 C   0  0  0  0  0  0  0  0  0  0  0  0
  -13.4255   10.7714  -20.3296 N   0  0  0  0  0  0  0  0  0  0  0  0
  2  1  1  6  0  0  0
  2  3  1  0  0  0  0
  2  5  1  0  0  0  0
  3  4  1  0  0  0  0
  3 16  1  0  0  0  0
  5  6  1  0  0  0  0
  6  7  1  0  0  0  0
  7  8  1  0  0  0  0
  9  8  1  6  0  0  0
  9 10  1  0  0  0  0
  9 11  1  0  0  0  0
 10 15  1  0  0  0  0
 11 12  1  1  0  0  0
 11 13  1  0  0  0  0
 13 14  1  1  0  0  0
 13 15  1  0  0  0  0
 15 26  1  6  0  0  0
 17 18  2  0  0  0  0
 17 22  1  0  0  0  0
 18 19  1  0  0  0  0
 19 20  2  0  0  0  0
 20 21  1  0  0  0  0
 20 26  1  0  0  0  0
 21 22  2  0  0  0  0
 21 24  1  0  0  0  0
 22 23  1  0  0  0  0
 24 25  2  0  0  0  0
 25 26  1  0  0  0  0
M  END
>  <CHROM.1>
144.82956262,-76.03368658,-63.89920882,175.55173111,62.67422175,-166.55495770
92.63269706,-11.71814295,11.73509929,-22.97484594,0.46030987,-0.99588743
-2.14552627

>  <Name>
ligand

>  <RI>
0

>  <Rbt.Current_Directory>
/home/itssahil/PROJECTS/Mol_Feturizer/New_Systems/rnas/3E5E

>  <Rbt.Executable>
rbdock ($Id: //depot/dev/client3/rdock/2013.1/src/exe/rbdock.cxx#4 $)

>  <Rbt.Library>
libRbt.so (2013.1, Build901 2013/11/27)

>  <Rbt.Parameter_File>
/export/apps/rDock/src/rDock_2013.1_src/data/scripts/dock_solv.prm

>  <Rbt.Receptor>
prm/pocket_docking_6.prm

>  <SCORE>
-16.0718

>  <SCORE.INTER>
-12.1501

>  <SCORE.INTER.CONST>
1

>  <SCORE.INTER.POLAR>
0

>  <SCORE.INTER.ROT>
7

>  <SCORE.INTER.SOLV>
8.72096

>  <SCORE.INTER.VDW>
-19.2737

>  <SCORE.INTER.norm>
-0.467311

>  <SCORE.INTRA>
-3.92172

>  <SCORE.INTRA.DIHEDRAL>
-5.60344

>  <SCORE.INTRA.DIHEDRAL.0>
10.1225

>  <SCORE.INTRA.POLAR>
0

>  <SCORE.INTRA.POLAR.0>
0

>  <SCORE.INTRA.REPUL>
0

>  <SCORE.INTRA.REPUL.0>
0

>  <SCORE.INTRA.SOLV>
0.593288

>  <SCORE.INTRA.SOLV.lig_0>
-49.9393

>  <SCORE.INTRA.VDW>
-1.41664

>  <SCORE.INTRA.VDW.0>
-1.75437

>  <SCORE.INTRA.norm>
-0.150835

>  <SCORE.RESTR>
0

>  <SCORE.RESTR.CAVITY>
0

>  <SCORE.RESTR.norm>
0

>  <SCORE.SYSTEM>
0

>  <SCORE.SYSTEM.CONST>
0

>  <SCORE.SYSTEM.DIHEDRAL>
0

>  <SCORE.SYSTEM.SOLV>
0

>  <SCORE.SYSTEM.norm>
0

>  <SCORE.heavy>
26

>  <SCORE.norm>
-0.618146

>  <RMSD>
8.814

$$$$
ligand
 OpenBabel11021811473D
libRbt.so/2013.1/901 2013/11/27
 26 28  0  0  0  0  0  0  0  0999 V2000
   -6.6733   17.5819  -21.3539 N   0  0  0  0  0  0  0  0  0  0  0  0
   -7.6254   16.4722  -21.2211 C   0  0  2  0  0  0  0  0  0  0  0  0
   -7.6855   16.0334  -19.7816 C   0  0  0  0  0  0  0  0  0  0  0  0
   -6.6988   16.1006  -19.0867 O   0  0  0  0  0  0  0  0  0  0  0  0
   -7.1680   15.3019  -22.0934 C   0  0  0  0  0  0  0  0  0  0  0  0
   -8.2623   14.2369  -22.1333 C   0  0  0  0  0  0  0  0  0  0  0  0
   -9.7605   14.5648  -22.8627 S   0  0  0  0  0  0  0  0  0  0  0  0
  -11.4199   13.8400  -22.9097 C   0  0  0  0  0  0  0  0  0  0  0  0
  -12.2226   13.9901  -21.6116 C   0  0  1  0  0  0  0  0  0  0  0  0
  -13.2901   13.0638  -21.5261 O   0  0  0  0  0  0  0  0  0  0  0  0
  -11.3935   13.6688  -20.3906 C   0  0  1  0  0  0  0  0  0  0  0  0
  -12.0291   14.3492  -19.3307 O   0  0  0  0  0  0  0  0  0  0  0  0
  -11.5713   12.1846  -20.1707 C   0  0  1  0  0  0  0  0  0  0  0  0
  -11.7019   11.9207  -18.7908 O   0  0  0  0  0  0  0  0  0  0  0  0
  -12.8791   11.8799  -20.8687 C   0  0  2  0  0  0  0  0  0  0  0  0
   -8.8350   15.5644  -19.2690 O   0  0  0  0  0  0  0  0  0  0  0  0
  -15.3552    7.8813  -23.1257 N   0  0  0  0  0  0  0  0  0  0  0  0
  -15.7837    8.6615  -22.0780 C   0  0  0  0  0  0  0  0  0  0  0  0
  -14.9762    9.6700  -21.6101 N   0  0  0  0  0  0  0  0  0  0  0  0
  -13.7721    9.9022  -22.1681 C   0  0  0  0  0  0  0  0  0  0  0  0
  -13.3223    9.1303  -23.2229 C   0  0  0  0  0  0  0  0  0  0  0  0
  -14.1301    8.1055  -23.7016 C   0  0  0  0  0  0  0  0  0  0  0  0
  -13.7357    7.3376  -24.7098 N   0  0  0  0  0  0  0  0  0  0  0  0
  -12.0979    9.5765  -23.5821 N   0  0  0  0  0  0  0  0  0  0  0  0
  -11.7758   10.6113  -22.7816 C   0  0  0  0  0  0  0  0  0  0  0  0
  -12.7975   10.8205  -21.8909 N   0  0  0  0  0  0  0  0  0  0  0  0
  2  1  1  1  0  0  0
  2  3  1  0  0  0  0
  2  5  1  0  0  0  0
  3  4  1  0  0  0  0
  3 16  1  0  0  0  0
  5  6  1  0  0  0  0
  6  7  1  0  0  0  0
  7  8  1  0  0  0  0
  9  8  1  6  0  0  0
  9 10  1  0  0  0  0
  9 11  1  0  0  0  0
 10 15  1  0  0  0  0
 11 12  1  1  0  0  0
 11 13  1  0  0  0  0
 13 14  1  1  0  0  0
 13 15  1  0  0  0  0
 15 26  1  6  0  0  0
 17 18  2  0  0  0  0
 17 22  1  0  0  0  0
 18 19  1  0  0  0  0
 19 20  2  0  0  0  0
 20 21  1  0  0  0  0
 20 26  1  0  0  0  0
 21 22  2  0  0  0  0
 21 24  1  0  0  0  0
 22 23  1  0  0  0  0
 24 25  2  0  0  0  0
 25 26  1  0  0  0  0
M  END
>  <CHROM.1>
-32.83856245,-171.05053827,65.50083370,-165.39495589,71.47936797,-160.46107083
-96.54695146,-11.27867837,12.60135967,-21.62068185,-0.60372554,-0.66063115
-2.11569415

>  <Name>
ligand

>  <RI>
0

>  <Rbt.Current_Directory>
/home/itssahil/PROJECTS/Mol_Feturizer/New_Systems/rnas/3E5E

>  <Rbt.Executable>
rbdock ($Id: //depot/dev/client3/rdock/2013.1/src/exe/rbdock.cxx#4 $)

>  <Rbt.Library>
libRbt.so (2013.1, Build901 2013/11/27)

>  <Rbt.Parameter_File>
/export/apps/rDock/src/rDock_2013.1_src/data/scripts/dock_solv.prm

>  <Rbt.Receptor>
prm/blind_docking_80.prm

>  <SCORE>
-18.5086

>  <SCORE.INTER>
-14.6467

>  <SCORE.INTER.CONST>
1

>  <SCORE.INTER.POLAR>
0

>  <SCORE.INTER.ROT>
7

>  <SCORE.INTER.SOLV>
13.2917

>  <SCORE.INTER.VDW>
-22.4617

>  <SCORE.INTER.norm>
-0.563336

>  <SCORE.INTRA>
-3.86191

>  <SCORE.INTRA.DIHEDRAL>
-5.30154

>  <SCORE.INTRA.DIHEDRAL.0>
10.1225

>  <SCORE.INTRA.POLAR>
0

>  <SCORE.INTRA.POLAR.0>
0

>  <SCORE.INTRA.REPUL>
0

>  <SCORE.INTRA.REPUL.0>
0

>  <SCORE.INTRA.SOLV>
-0.348241

>  <SCORE.INTRA.SOLV.lig_0>
-49.9393

>  <SCORE.INTRA.VDW>
-1.03702

>  <SCORE.INTRA.VDW.0>
-1.75437

>  <SCORE.INTRA.norm>
-0.148535

>  <SCORE.RESTR>
0

>  <SCORE.RESTR.CAVITY>
0

>  <SCORE.RESTR.norm>
0

>  <SCORE.SYSTEM>
0

>  <SCORE.SYSTEM.CONST>
0

>  <SCORE.SYSTEM.DIHEDRAL>
0

>  <SCORE.SYSTEM.SOLV>
0

>  <SCORE.SYSTEM.norm>
0

>  <SCORE.heavy>
26

>  <SCORE.norm>
-0.711871

>  <RMSD>
8.829

$$$$
ligand
 OpenBabel11021811473D
libRbt.so/2013.1/901 2013/11/27
 26 28  0  0  0  0  0  0  0  0999 V2000
   -7.7796   15.8365  -23.5653 N   0  0  0  0  0  0  0  0  0  0  0  0
   -8.1091   16.1059  -22.1602 C   0  0  2  0  0  0  0  0  0  0  0  0
   -6.9173   16.7215  -21.4754 C   0  0  0  0  0  0  0  0  0  0  0  0
   -6.8962   17.9085  -21.2483 O   0  0  0  0  0  0  0  0  0  0  0  0
   -8.4780   14.7950  -21.4636 C   0  0  0  0  0  0  0  0  0  0  0  0
   -8.9406   15.0875  -20.0374 C   0  0  0  0  0  0  0  0  0  0  0  0
   -9.4716   13.8304  -19.0266 S   0  0  0  0  0  0  0  0  0  0  0  0
  -10.6960   12.4963  -19.0709 C   0  0  0  0  0  0  0  0  0  0  0  0
  -10.6265   11.6026  -20.3152 C   0  0  1  0  0  0  0  0  0  0  0  0
  -11.0633   10.2808  -20.0565 O   0  0  0  0  0  0  0  0  0  0  0  0
  -11.5679   12.0666  -21.4014 C   0  0  1  0  0  0  0  0  0  0  0  0
  -11.0268   11.5486  -22.5969 O   0  0  0  0  0  0  0  0  0  0  0  0
  -12.8713   11.3531  -21.1270 C   0  0  1  0  0  0  0  0  0  0  0  0
  -13.4439   10.9247  -22.3432 O   0  0  0  0  0  0  0  0  0  0  0  0
  -12.4481   10.1474  -20.3160 C   0  0  2  0  0  0  0  0  0  0  0  0
   -5.8754   15.9526  -21.1187 O   0  0  0  0  0  0  0  0  0  0  0  0
  -13.9283    6.8527  -16.5520 N   0  0  0  0  0  0  0  0  0  0  0  0
  -13.3075    6.5565  -17.7424 C   0  0  0  0  0  0  0  0  0  0  0  0
  -13.0056    7.5703  -18.6194 N   0  0  0  0  0  0  0  0  0  0  0  0
  -13.3098    8.8491  -18.3238 C   0  0  0  0  0  0  0  0  0  0  0  0
  -13.9330    9.1690  -17.1323 C   0  0  0  0  0  0  0  0  0  0  0  0
  -14.2458    8.1505  -16.2396 C   0  0  0  0  0  0  0  0  0  0  0  0
  -14.8478    8.4126  -15.0862 N   0  0  0  0  0  0  0  0  0  0  0  0
  -14.1179   10.5077  -17.0973 N   0  0  0  0  0  0  0  0  0  0  0  0
  -13.6198   11.0309  -18.2345 C   0  0  0  0  0  0  0  0  0  0  0  0
  -13.1244   10.0158  -19.0125 N   0  0  0  0  0  0  0  0  0  0  0  0
  2  1  1  6  0  0  0
  2  3  1  0  0  0  0
  2  5  1  0  0  0  0
  3  4  1  0  0  0  0
  3 16  1  0  0  0  0
  5  6  1  0  0  0  0
  6  7  1  0  0  0  0
  7  8  1  0  0  0  0
  9  8  1  1  0  0  0
  9 10  1  0  0  0  0
  9 11  1  0  0  0  0
 10 15  1  0  0  0  0
 11 12  1  6  0  0  0
 11 13  1  0  0  0  0
 13 14  1  6  0  0  0
 13 15  1  0  0  0  0
 15 26  1  1  0  0  0
 17 18  2  0  0  0  0
 17 22  1  0  0  0  0
 18 19  1  0  0  0  0
 19 20  2  0  0  0  0
 20 21  1  0  0  0  0
 20 26  1  0  0  0  0
 21 22  2  0  0  0  0
 21 24  1  0  0  0  0
 22 23  1  0  0  0  0
 24 25  2  0  0  0  0
 25 26  1  0  0  0  0
M  END
>  <CHROM.1>
103.43056653,-175.00412552,177.81567904,-54.32404359,51.84044862,150.67605297
-86.19034567,-11.12494998,11.87441030,-19.71369051,0.40956263,-0.87473705
-1.54663967

>  <Name>
ligand

>  <RI>
0

>  <Rbt.Current_Directory>
/home/itssahil/PROJECTS/Mol_Feturizer/New_Systems/rnas/3E5E

>  <Rbt.Executable>
rbdock ($Id: //depot/dev/client3/rdock/2013.1/src/exe/rbdock.cxx#4 $)

>  <Rbt.Library>
libRbt.so (2013.1, Build901 2013/11/27)

>  <Rbt.Parameter_File>
/export/apps/rDock/src/rDock_2013.1_src/data/scripts/dock_solv.prm

>  <Rbt.Receptor>
prm/pocket_docking_5.prm

>  <SCORE>
-21.3678

>  <SCORE.INTER>
-18.1474

>  <SCORE.INTER.CONST>
1

>  <SCORE.INTER.POLAR>
0

>  <SCORE.INTER.ROT>
7

>  <SCORE.INTER.SOLV>
9.35035

>  <SCORE.INTER.VDW>
-23.4817

>  <SCORE.INTER.norm>
-0.697976

>  <SCORE.INTRA>
-3.22046

>  <SCORE.INTRA.DIHEDRAL>
-4.80053

>  <SCORE.INTRA.DIHEDRAL.0>
10.1225

>  <SCORE.INTRA.POLAR>
0

>  <SCORE.INTRA.POLAR.0>
0

>  <SCORE.INTRA.REPUL>
0

>  <SCORE.INTRA.REPUL.0>
0

>  <SCORE.INTRA.SOLV>
-0.640795

>  <SCORE.INTRA.SOLV.lig_0>
-49.9393

>  <SCORE.INTRA.VDW>
-0.499799

>  <SCORE.INTRA.VDW.0>
-1.75437

>  <SCORE.INTRA.norm>
-0.123864

>  <SCORE.RESTR>
0

>  <SCORE.RESTR.CAVITY>
0

>  <SCORE.RESTR.norm>
0

>  <SCORE.SYSTEM>
0

>  <SCORE.SYSTEM.CONST>
0

>  <SCORE.SYSTEM.DIHEDRAL>
0

>  <SCORE.SYSTEM.SOLV>
0

>  <SCORE.SYSTEM.norm>
0

>  <SCORE.heavy>
26

>  <SCORE.norm>
-0.82184

>  <RMSD>
8.841

$$$$
ligand
 OpenBabel11021811473D
libRbt.so/2013.1/901 2013/11/27
 26 28  0  0  0  0  0  0  0  0999 V2000
   -7.3235   16.6416  -22.2366 N   0  0  0  0  0  0  0  0  0  0  0  0
   -7.0342   15.2122  -22.0675 C   0  0  2  0  0  0  0  0  0  0  0  0
   -6.4437   14.6667  -23.3410 C   0  0  0  0  0  0  0  0  0  0  0  0
   -5.7774   13.6584  -23.3159 O   0  0  0  0  0  0  0  0  0  0  0  0
   -8.3294   14.4656  -21.7439 C   0  0  0  0  0  0  0  0  0  0  0  0
   -8.7969   14.8401  -20.3386 C   0  0  0  0  0  0  0  0  0  0  0  0
  -10.1887   14.1297  -19.6734 S   0  0  0  0  0  0  0  0  0  0  0  0
  -10.8021   12.4665  -19.3015 C   0  0  0  0  0  0  0  0  0  0  0  0
  -10.7052   11.4718  -20.4647 C   0  0  1  0  0  0  0  0  0  0  0  0
  -11.0708   10.1579  -20.0842 O   0  0  0  0  0  0  0  0  0  0  0  0
  -11.6844   11.7922  -21.5692 C   0  0  1  0  0  0  0  0  0  0  0  0
  -11.1350   11.1988  -22.7252 O   0  0  0  0  0  0  0  0  0  0  0  0
  -12.9459   11.0422  -21.2096 C   0  0  1  0  0  0  0  0  0  0  0  0
  -13.5135   10.4813  -22.3732 O   0  0  0  0  0  0  0  0  0  0  0  0
  -12.4507    9.9343  -20.3053 C   0  0  2  0  0  0  0  0  0  0  0  0
   -6.6544   15.3013  -24.5058 O   0  0  0  0  0  0  0  0  0  0  0  0
  -14.0734    6.8484  -16.4249 N   0  0  0  0  0  0  0  0  0  0  0  0
  -13.5076    6.4789  -17.6221 C   0  0  0  0  0  0  0  0  0  0  0  0
  -13.1540    7.4465  -18.5314 N   0  0  0  0  0  0  0  0  0  0  0  0
  -13.3543    8.7511  -18.2607 C   0  0  0  0  0  0  0  0  0  0  0  0
  -13.9208    9.1445  -17.0628 C   0  0  0  0  0  0  0  0  0  0  0  0
  -14.2851    8.1733  -16.1376 C   0  0  0  0  0  0  0  0  0  0  0  0
  -14.8357    8.5066  -14.9768 N   0  0  0  0  0  0  0  0  0  0  0  0
  -14.0045   10.4937  -17.0570 N   0  0  0  0  0  0  0  0  0  0  0  0
  -13.4986   10.9514  -18.2188 C   0  0  0  0  0  0  0  0  0  0  0  0
  -13.1007    9.8842  -18.9828 N   0  0  0  0  0  0  0  0  0  0  0  0
  2  1  1  6  0  0  0
  2  3  1  0  0  0  0
  2  5  1  0  0  0  0
  3  4  1  0  0  0  0
  3 16  1  0  0  0  0
  5  6  1  0  0  0  0
  6  7  1  0  0  0  0
  7  8  1  0  0  0  0
  9  8  1  1  0  0  0
  9 10  1  0  0  0  0
  9 11  1  0  0  0  0
 10 15  1  0  0  0  0
 11 12  1  6  0  0  0
 11 13  1  0  0  0  0
 13 14  1  6  0  0  0
 13 15  1  0  0  0  0
 15 26  1  1  0  0  0
 17 18  2  0  0  0  0
 17 22  1  0  0  0  0
 18 19  1  0  0  0  0
 19 20  2  0  0  0  0
 20 21  1  0  0  0  0
 20 26  1  0  0  0  0
 21 22  2  0  0  0  0
 21 24  1  0  0  0  0
 22 23  1  0  0  0  0
 24 25  2  0  0  0  0
 25 26  1  0  0  0  0
M  END
>  <CHROM.1>
157.94389596,-69.98448157,-178.02012677,57.51801007,-50.40333736,174.07055542
-94.21696878,-11.12284065,11.51546497,-20.03354540,-0.17565667,0.89626433
1.11025552

>  <Name>
ligand

>  <RI>
0

>  <Rbt.Current_Directory>
/home/itssahil/PROJECTS/Mol_Feturizer/New_Systems/rnas/3E5E

>  <Rbt.Executable>
rbdock ($Id: //depot/dev/client3/rdock/2013.1/src/exe/rbdock.cxx#4 $)

>  <Rbt.Library>
libRbt.so (2013.1, Build901 2013/11/27)

>  <Rbt.Parameter_File>
/export/apps/rDock/src/rDock_2013.1_src/data/scripts/dock_solv.prm

>  <Rbt.Receptor>
prm/pocket_docking_6.prm

>  <SCORE>
-19.4308

>  <SCORE.INTER>
-15.3146

>  <SCORE.INTER.CONST>
1

>  <SCORE.INTER.POLAR>
0

>  <SCORE.INTER.ROT>
7

>  <SCORE.INTER.SOLV>
8.81975

>  <SCORE.INTER.VDW>
-21.4163

>  <SCORE.INTER.norm>
-0.589025

>  <SCORE.INTRA>
-4.11613

>  <SCORE.INTRA.DIHEDRAL>
-6.85681

>  <SCORE.INTRA.DIHEDRAL.0>
10.1225

>  <SCORE.INTRA.POLAR>
0

>  <SCORE.INTRA.POLAR.0>
0

>  <SCORE.INTRA.REPUL>
0

>  <SCORE.INTRA.REPUL.0>
0

>  <SCORE.INTRA.SOLV>
0.0865804

>  <SCORE.INTRA.SOLV.lig_0>
-49.9393

>  <SCORE.INTRA.VDW>
-0.73102

>  <SCORE.INTRA.VDW.0>
-1.75437

>  <SCORE.INTRA.norm>
-0.158313

>  <SCORE.RESTR>
0

>  <SCORE.RESTR.CAVITY>
0

>  <SCORE.RESTR.norm>
0

>  <SCORE.SYSTEM>
0

>  <SCORE.SYSTEM.CONST>
0

>  <SCORE.SYSTEM.DIHEDRAL>
0

>  <SCORE.SYSTEM.SOLV>
0

>  <SCORE.SYSTEM.norm>
0

>  <SCORE.heavy>
26

>  <SCORE.norm>
-0.747338

>  <RMSD>
8.844

$$$$
ligand
 OpenBabel11021811473D
libRbt.so/2013.1/901 2013/11/27
 26 28  0  0  0  0  0  0  0  0999 V2000
   -7.2749   15.7033  -22.5324 N   0  0  0  0  0  0  0  0  0  0  0  0
   -8.1949   15.2014  -23.5606 C   0  0  2  0  0  0  0  0  0  0  0  0
   -8.5518   16.3207  -24.5029 C   0  0  0  0  0  0  0  0  0  0  0  0
   -8.4778   16.1529  -25.6976 O   0  0  0  0  0  0  0  0  0  0  0  0
   -9.4647   14.6714  -22.8925 C   0  0  0  0  0  0  0  0  0  0  0  0
  -10.2686   13.8530  -23.9011 C   0  0  0  0  0  0  0  0  0  0  0  0
  -11.8577   13.3680  -23.5492 S   0  0  0  0  0  0  0  0  0  0  0  0
  -12.7760   12.6910  -22.1423 C   0  0  0  0  0  0  0  0  0  0  0  0
  -12.5376   13.4156  -20.8119 C   0  0  1  0  0  0  0  0  0  0  0  0
  -13.1624   12.7632  -19.7216 O   0  0  0  0  0  0  0  0  0  0  0  0
  -11.0791   13.4163  -20.4189 C   0  0  1  0  0  0  0  0  0  0  0  0
  -10.9376   14.5192  -19.5504 O   0  0  0  0  0  0  0  0  0  0  0  0
  -10.8862   12.1539  -19.6114 C   0  0  1  0  0  0  0  0  0  0  0  0
  -10.0438   12.4177  -18.5107 O   0  0  0  0  0  0  0  0  0  0  0  0
  -12.2805   11.8372  -19.1153 C   0  0  2  0  0  0  0  0  0  0  0  0
   -8.9501   17.5077  -24.0167 O   0  0  0  0  0  0  0  0  0  0  0  0
  -14.2117    7.3582  -17.2651 N   0  0  0  0  0  0  0  0  0  0  0  0
  -13.8035    8.4629  -16.5558 C   0  0  0  0  0  0  0  0  0  0  0  0
  -13.3060    9.5533  -17.2277 N   0  0  0  0  0  0  0  0  0  0  0  0
  -13.2164    9.5511  -18.5720 C   0  0  0  0  0  0  0  0  0  0  0  0
  -13.6220    8.4514  -19.3046 C   0  0  0  0  0  0  0  0  0  0  0  0
  -14.1236    7.3419  -18.6344 C   0  0  0  0  0  0  0  0  0  0  0  0
  -14.5207    6.2633  -19.2982 N   0  0  0  0  0  0  0  0  0  0  0  0
  -13.4225    8.7185  -20.6146 N   0  0  0  0  0  0  0  0  0  0  0  0
  -12.9084    9.9596  -20.7173 C   0  0  0  0  0  0  0  0  0  0  0  0
  -12.7631   10.4872  -19.4597 N   0  0  0  0  0  0  0  0  0  0  0  0
  2  1  1  1  0  0  0
  2  3  1  0  0  0  0
  2  5  1  0  0  0  0
  3  4  1  0  0  0  0
  3 16  1  0  0  0  0
  5  6  1  0  0  0  0
  6  7  1  0  0  0  0
  7  8  1  0  0  0  0
  9  8  1  6  0  0  0
  9 10  1  0  0  0  0
  9 11  1  0  0  0  0
 10 15  1  0  0  0  0
 11 12  1  1  0  0  0
 11 13  1  0  0  0  0
 13 14  1  1  0  0  0
 13 15  1  0  0  0  0
 15 26  1  6  0  0  0
 17 18  2  0  0  0  0
 17 22  1  0  0  0  0
 18 19  1  0  0  0  0
 19 20  2  0  0  0  0
 20 21  1  0  0  0  0
 20 26  1  0  0  0  0
 21 22  2  0  0  0  0
 21 24  1  0  0  0  0
 22 23  1  0  0  0  0
 24 25  2  0  0  0  0
 25 26  1  0  0  0  0
M  END
>  <CHROM.1>
130.93121511,-166.47705347,-168.88017051,-42.84169596,47.52801498,-173.64169640
-116.58794060,-11.58972244,12.18972793,-20.88946362,-0.67424485,0.94484076
1.70846010

>  <Name>
ligand

>  <RI>
0

>  <Rbt.Current_Directory>
/home/itssahil/PROJECTS/Mol_Feturizer/New_Systems/rnas/3E5E

>  <Rbt.Executable>
rbdock ($Id: //depot/dev/client3/rdock/2013.1/src/exe/rbdock.cxx#4 $)

>  <Rbt.Library>
libRbt.so (2013.1, Build901 2013/11/27)

>  <Rbt.Parameter_File>
/export/apps/rDock/src/rDock_2013.1_src/data/scripts/dock_solv.prm

>  <Rbt.Receptor>
prm/blind_docking_40.prm

>  <SCORE>
-19.4149

>  <SCORE.INTER>
-15.6059

>  <SCORE.INTER.CONST>
1

>  <SCORE.INTER.POLAR>
0

>  <SCORE.INTER.ROT>
7

>  <SCORE.INTER.SOLV>
10.7847

>  <SCORE.INTER.VDW>
-22.2655

>  <SCORE.INTER.norm>
-0.600225

>  <SCORE.INTRA>
-3.80901

>  <SCORE.INTRA.DIHEDRAL>
-5.42823

>  <SCORE.INTRA.DIHEDRAL.0>
10.1225

>  <SCORE.INTRA.POLAR>
0

>  <SCORE.INTRA.POLAR.0>
0

>  <SCORE.INTRA.REPUL>
0

>  <SCORE.INTRA.REPUL.0>
0

>  <SCORE.INTRA.SOLV>
-0.370964

>  <SCORE.INTRA.SOLV.lig_0>
-49.9393

>  <SCORE.INTRA.VDW>
-0.909409

>  <SCORE.INTRA.VDW.0>
-1.75437

>  <SCORE.INTRA.norm>
-0.1465

>  <SCORE.RESTR>
0

>  <SCORE.RESTR.CAVITY>
0

>  <SCORE.RESTR.norm>
0

>  <SCORE.SYSTEM>
0

>  <SCORE.SYSTEM.CONST>
0

>  <SCORE.SYSTEM.DIHEDRAL>
0

>  <SCORE.SYSTEM.SOLV>
0

>  <SCORE.SYSTEM.norm>
0

>  <SCORE.heavy>
26

>  <SCORE.norm>
-0.746726

>  <RMSD>
8.851

$$$$
ligand
 OpenBabel11021811473D
libRbt.so/2013.1/901 2013/11/27
 26 28  0  0  0  0  0  0  0  0999 V2000
   -4.8002   16.8666  -22.8186 N   0  0  0  0  0  0  0  0  0  0  0  0
   -6.2305   17.1362  -23.0112 C   0  0  2  0  0  0  0  0  0  0  0  0
   -6.7484   17.9449  -21.8511 C   0  0  0  0  0  0  0  0  0  0  0  0
   -6.9820   17.4065  -20.7944 O   0  0  0  0  0  0  0  0  0  0  0  0
   -6.9917   15.8118  -23.0912 C   0  0  0  0  0  0  0  0  0  0  0  0
   -8.4657   16.0873  -23.3826 C   0  0  0  0  0  0  0  0  0  0  0  0
   -9.6331   14.8759  -23.1504 S   0  0  0  0  0  0  0  0  0  0  0  0
  -10.2894   13.8862  -21.7826 C   0  0  0  0  0  0  0  0  0  0  0  0
  -11.8033   14.0085  -21.5707 C   0  0  1  0  0  0  0  0  0  0  0  0
  -12.5457   13.3927  -22.6073 O   0  0  0  0  0  0  0  0  0  0  0  0
  -12.2655   13.2718  -20.3358 C   0  0  1  0  0  0  0  0  0  0  0  0
  -13.4775   13.8960  -19.9727 O   0  0  0  0  0  0  0  0  0  0  0  0
  -12.5802   11.8705  -20.8055 C   0  0  1  0  0  0  0  0  0  0  0  0
  -13.7553   11.4104  -20.1745 O   0  0  0  0  0  0  0  0  0  0  0  0
  -12.8381   12.0457  -22.2865 C   0  0  2  0  0  0  0  0  0  0  0  0
   -6.9538   19.2649  -21.9901 O   0  0  0  0  0  0  0  0  0  0  0  0
   -9.7181   11.9396  -26.4659 N   0  0  0  0  0  0  0  0  0  0  0  0
  -10.4085   13.0107  -25.9501 C   0  0  0  0  0  0  0  0  0  0  0  0
  -11.1969   12.8363  -24.8383 N   0  0  0  0  0  0  0  0  0  0  0  0
  -11.2982   11.6290  -24.2491 C   0  0  0  0  0  0  0  0  0  0  0  0
  -10.6119   10.5390  -24.7508 C   0  0  0  0  0  0  0  0  0  0  0  0
   -9.8142   10.7039  -25.8770 C   0  0  0  0  0  0  0  0  0  0  0  0
   -9.1413    9.6835  -26.3942 N   0  0  0  0  0  0  0  0  0  0  0  0
  -10.8931    9.4682  -23.9752 N   0  0  0  0  0  0  0  0  0  0  0  0
  -11.7326    9.8648  -22.9989 C   0  0  0  0  0  0  0  0  0  0  0  0
  -12.0039   11.1996  -23.1594 N   0  0  0  0  0  0  0  0  0  0  0  0
  2  1  1  1  0  0  0
  2  3  1  0  0  0  0
  2  5  1  0  0  0  0
  3  4  1  0  0  0  0
  3 16  1  0  0  0  0
  5  6  1  0  0  0  0
  6  7  1  0  0  0  0
  7  8  1  0  0  0  0
  9  8  1  6  0  0  0
  9 10  1  0  0  0  0
  9 11  1  0  0  0  0
 10 15  1  0  0  0  0
 11 12  1  6  0  0  0
 11 13  1  0  0  0  0
 13 14  1  1  0  0  0
 13 15  1  0  0  0  0
 15 26  1  6  0  0  0
 17 18  2  0  0  0  0
 17 22  1  0  0  0  0
 18 19  1  0  0  0  0
 19 20  2  0  0  0  0
 20 21  1  0  0  0  0
 20 26  1  0  0  0  0
 21 22  2  0  0  0  0
 21 24  1  0  0  0  0
 22 23  1  0  0  0  0
 24 25  2  0  0  0  0
 25 26  1  0  0  0  0
M  END
>  <CHROM.1>
-77.64690585,-176.33027053,-164.65281166,62.07257103,122.83042729,70.15903133
-12.19065412,-10.10216763,13.60948659,-22.94512999,-0.68028128,-0.63250117
-2.36704606

>  <Name>
ligand

>  <RI>
0

>  <Rbt.Current_Directory>
/home/itssahil/PROJECTS/Mol_Feturizer/New_Systems/rnas/3E5E

>  <Rbt.Executable>
rbdock ($Id: //depot/dev/client3/rdock/2013.1/src/exe/rbdock.cxx#4 $)

>  <Rbt.Library>
libRbt.so (2013.1, Build901 2013/11/27)

>  <Rbt.Parameter_File>
/export/apps/rDock/src/rDock_2013.1_src/data/scripts/dock_solv.prm

>  <Rbt.Receptor>
prm/pocket_docking_7.prm

>  <SCORE>
-15.2222

>  <SCORE.INTER>
-12.4544

>  <SCORE.INTER.CONST>
1

>  <SCORE.INTER.POLAR>
0

>  <SCORE.INTER.ROT>
7

>  <SCORE.INTER.SOLV>
10.481

>  <SCORE.INTER.VDW>
-20.0633

>  <SCORE.INTER.norm>
-0.479017

>  <SCORE.INTRA>
-2.76775

>  <SCORE.INTRA.DIHEDRAL>
-3.68922

>  <SCORE.INTRA.DIHEDRAL.0>
10.1225

>  <SCORE.INTRA.POLAR>
0

>  <SCORE.INTRA.POLAR.0>
0

>  <SCORE.INTRA.REPUL>
0

>  <SCORE.INTRA.REPUL.0>
0

>  <SCORE.INTRA.SOLV>
-0.49065

>  <SCORE.INTRA.SOLV.lig_0>
-49.9393

>  <SCORE.INTRA.VDW>
-0.677815

>  <SCORE.INTRA.VDW.0>
-1.75437

>  <SCORE.INTRA.norm>
-0.106452

>  <SCORE.RESTR>
0

>  <SCORE.RESTR.CAVITY>
0

>  <SCORE.RESTR.norm>
0

>  <SCORE.SYSTEM>
0

>  <SCORE.SYSTEM.CONST>
0

>  <SCORE.SYSTEM.DIHEDRAL>
0

>  <SCORE.SYSTEM.SOLV>
0

>  <SCORE.SYSTEM.norm>
0

>  <SCORE.heavy>
26

>  <SCORE.norm>
-0.585469

>  <RMSD>
8.857

$$$$
ligand
 OpenBabel11021811473D
libRbt.so/2013.1/901 2013/11/27
 26 28  0  0  0  0  0  0  0  0999 V2000
   -7.4958   18.0368  -22.5153 N   0  0  0  0  0  0  0  0  0  0  0  0
   -8.2212   16.7680  -22.6549 C   0  0  2  0  0  0  0  0  0  0  0  0
   -7.9969   15.9251  -21.4272 C   0  0  0  0  0  0  0  0  0  0  0  0
   -8.8853   15.7832  -20.6199 O   0  0  0  0  0  0  0  0  0  0  0  0
   -7.7087   16.0217  -23.8878 C   0  0  0  0  0  0  0  0  0  0  0  0
   -8.7603   15.0136  -24.3478 C   0  0  0  0  0  0  0  0  0  0  0  0
   -9.0803   13.6203  -23.4311 S   0  0  0  0  0  0  0  0  0  0  0  0
   -9.7554   13.2094  -21.8012 C   0  0  0  0  0  0  0  0  0  0  0  0
  -11.1556   13.7712  -21.5264 C   0  0  1  0  0  0  0  0  0  0  0  0
  -12.1401   13.2074  -22.3736 O   0  0  0  0  0  0  0  0  0  0  0  0
  -11.6497   13.4145  -20.1444 C   0  0  1  0  0  0  0  0  0  0  0  0
  -12.6157   14.3964  -19.8393 O   0  0  0  0  0  0  0  0  0  0  0  0
  -12.3597   12.0907  -20.3074 C   0  0  1  0  0  0  0  0  0  0  0  0
  -13.5357   12.0828  -19.5278 O   0  0  0  0  0  0  0  0  0  0  0  0
  -12.7273   12.0672  -21.7753 C   0  0  2  0  0  0  0  0  0  0  0  0
   -6.8086   15.3322  -21.2265 O   0  0  0  0  0  0  0  0  0  0  0  0
  -14.0595    8.0004  -24.7587 N   0  0  0  0  0  0  0  0  0  0  0  0
  -14.8865    8.9298  -24.1735 C   0  0  0  0  0  0  0  0  0  0  0  0
  -14.3434    9.9307  -23.4045 N   0  0  0  0  0  0  0  0  0  0  0  0
  -13.0111   10.0110  -23.2205 C   0  0  0  0  0  0  0  0  0  0  0  0
  -12.1616    9.0877  -23.8005 C   0  0  0  0  0  0  0  0  0  0  0  0
  -12.7011    8.0692  -24.5774 C   0  0  0  0  0  0  0  0  0  0  0  0
  -11.9224    7.1592  -25.1494 N   0  0  0  0  0  0  0  0  0  0  0  0
  -10.8936    9.4027  -23.4537 N   0  0  0  0  0  0  0  0  0  0  0  0
  -10.9310   10.5031  -22.6771 C   0  0  0  0  0  0  0  0  0  0  0  0
  -12.2371   10.8880  -22.5124 N   0  0  0  0  0  0  0  0  0  0  0  0
  2  1  1  1  0  0  0
  2  3  1  0  0  0  0
  2  5  1  0  0  0  0
  3  4  1  0  0  0  0
  3 16  1  0  0  0  0
  5  6  1  0  0  0  0
  6  7  1  0  0  0  0
  7  8  1  0  0  0  0
  9  8  1  6  0  0  0
  9 10  1  0  0  0  0
  9 11  1  0  0  0  0
 10 15  1  0  0  0  0
 11 12  1  6  0  0  0
 11 13  1  0  0  0  0
 13 14  1  1  0  0  0
 13 15  1  0  0  0  0
 15 26  1  6  0  0  0
 17 18  2  0  0  0  0
 17 22  1  0  0  0  0
 18 19  1  0  0  0  0
 19 20  2  0  0  0  0
 20 21  1  0  0  0  0
 20 26  1  0  0  0  0
 21 22  2  0  0  0  0
 21 24  1  0  0  0  0
 22 23  1  0  0  0  0
 24 25  2  0  0  0  0
 25 26  1  0  0  0  0
M  END
>  <CHROM.1>
106.70286493,-158.65978399,-70.73005283,65.19820945,55.79356230,65.46047452
-117.68725064,-10.94500952,12.56488273,-22.49268145,-0.78511528,-0.63950735
-2.37909079

>  <Name>
ligand

>  <RI>
0

>  <Rbt.Current_Directory>
/home/itssahil/PROJECTS/Mol_Feturizer/New_Systems/rnas/3E5E

>  <Rbt.Executable>
rbdock ($Id: //depot/dev/client3/rdock/2013.1/src/exe/rbdock.cxx#4 $)

>  <Rbt.Library>
libRbt.so (2013.1, Build901 2013/11/27)

>  <Rbt.Parameter_File>
/export/apps/rDock/src/rDock_2013.1_src/data/scripts/dock_solv.prm

>  <Rbt.Receptor>
prm/blind_docking_60.prm

>  <SCORE>
-17.0532

>  <SCORE.INTER>
-12.5825

>  <SCORE.INTER.CONST>
1

>  <SCORE.INTER.POLAR>
0

>  <SCORE.INTER.ROT>
7

>  <SCORE.INTER.SOLV>
8.35532

>  <SCORE.INTER.VDW>
-19.4401

>  <SCORE.INTER.norm>
-0.48394

>  <SCORE.INTRA>
-4.47071

>  <SCORE.INTRA.DIHEDRAL>
-5.17718

>  <SCORE.INTRA.DIHEDRAL.0>
10.1225

>  <SCORE.INTRA.POLAR>
0

>  <SCORE.INTRA.POLAR.0>
0

>  <SCORE.INTRA.REPUL>
0

>  <SCORE.INTRA.REPUL.0>
0

>  <SCORE.INTRA.SOLV>
-0.343432

>  <SCORE.INTRA.SOLV.lig_0>
-49.9393

>  <SCORE.INTRA.VDW>
-1.7104

>  <SCORE.INTRA.VDW.0>
-1.75437

>  <SCORE.INTRA.norm>
-0.17195

>  <SCORE.RESTR>
0

>  <SCORE.RESTR.CAVITY>
0

>  <SCORE.RESTR.norm>
0

>  <SCORE.SYSTEM>
0

>  <SCORE.SYSTEM.CONST>
0

>  <SCORE.SYSTEM.DIHEDRAL>
0

>  <SCORE.SYSTEM.SOLV>
0

>  <SCORE.SYSTEM.norm>
0

>  <SCORE.heavy>
26

>  <SCORE.norm>
-0.655891

>  <RMSD>
8.860

$$$$
ligand
 OpenBabel11021811473D
libRbt.so/2013.1/901 2013/11/27
 26 28  0  0  0  0  0  0  0  0999 V2000
   -8.8548   13.5864  -24.2248 N   0  0  0  0  0  0  0  0  0  0  0  0
   -9.3320   14.8621  -23.6769 C   0  0  2  0  0  0  0  0  0  0  0  0
   -8.1584   15.7756  -23.4394 C   0  0  0  0  0  0  0  0  0  0  0  0
   -8.2735   16.9663  -23.6128 O   0  0  0  0  0  0  0  0  0  0  0  0
  -10.0578   14.6084  -22.3545 C   0  0  0  0  0  0  0  0  0  0  0  0
  -11.3899   13.9128  -22.6288 C   0  0  0  0  0  0  0  0  0  0  0  0
  -12.3477   13.3447  -21.3466 S   0  0  0  0  0  0  0  0  0  0  0  0
  -12.1472   12.3039  -19.8777 C   0  0  0  0  0  0  0  0  0  0  0  0
  -13.4085   11.5409  -19.4549 C   0  0  1  0  0  0  0  0  0  0  0  0
  -13.9939   10.8273  -20.5286 O   0  0  0  0  0  0  0  0  0  0  0  0
  -13.1056   10.4558  -18.4488 C   0  0  1  0  0  0  0  0  0  0  0  0
  -14.3234   10.2392  -17.7703 O   0  0  0  0  0  0  0  0  0  0  0  0
  -12.8008    9.2262  -19.2725 C   0  0  1  0  0  0  0  0  0  0  0  0
  -13.3843    8.0926  -18.6682 O   0  0  0  0  0  0  0  0  0  0  0  0
  -13.4898    9.5063  -20.5906 C   0  0  2  0  0  0  0  0  0  0  0  0
   -6.9817   15.2680  -23.0373 O   0  0  0  0  0  0  0  0  0  0  0  0
  -12.9795    7.7240  -25.4668 N   0  0  0  0  0  0  0  0  0  0  0  0
  -14.0251    7.5256  -24.5964 C   0  0  0  0  0  0  0  0  0  0  0  0
  -13.9703    8.0710  -23.3364 N   0  0  0  0  0  0  0  0  0  0  0  0
  -12.9051    8.7983  -22.9473 C   0  0  0  0  0  0  0  0  0  0  0  0
  -11.8436    9.0108  -23.8067 C   0  0  0  0  0  0  0  0  0  0  0  0
  -11.8875    8.4606  -25.0823 C   0  0  0  0  0  0  0  0  0  0  0  0
  -10.8884    8.6365  -25.9381 N   0  0  0  0  0  0  0  0  0  0  0  0
  -10.9231    9.7641  -23.1643 N   0  0  0  0  0  0  0  0  0  0  0  0
  -11.3871   10.0316  -21.9280 C   0  0  0  0  0  0  0  0  0  0  0  0
  -12.6103    9.4313  -21.7716 N   0  0  0  0  0  0  0  0  0  0  0  0
  2  1  1  1  0  0  0
  2  3  1  0  0  0  0
  2  5  1  0  0  0  0
  3  4  1  0  0  0  0
  3 16  1  0  0  0  0
  5  6  1  0  0  0  0
  6  7  1  0  0  0  0
  7  8  1  0  0  0  0
  9  8  1  6  0  0  0
  9 10  1  0  0  0  0
  9 11  1  0  0  0  0
 10 15  1  0  0  0  0
 11 12  1  1  0  0  0
 11 13  1  0  0  0  0
 13 14  1  1  0  0  0
 13 15  1  0  0  0  0
 15 26  1  6  0  0  0
 17 18  2  0  0  0  0
 17 22  1  0  0  0  0
 18 19  1  0  0  0  0
 19 20  2  0  0  0  0
 20 21  1  0  0  0  0
 20 26  1  0  0  0  0
 21 22  2  0  0  0  0
 21 24  1  0  0  0  0
 22 23  1  0  0  0  0
 24 25  2  0  0  0  0
 25 26  1  0  0  0  0
M  END
>  <CHROM.1>
144.77350996,-70.93314913,173.22029456,-51.68094446,-150.12907534,50.77707452
-106.52556093,-11.76064759,11.25312806,-22.09052388,-0.31353236,-0.93442540
-2.24501056

>  <Name>
ligand

>  <RI>
0

>  <Rbt.Current_Directory>
/home/itssahil/PROJECTS/Mol_Feturizer/New_Systems/rnas/3E5E

>  <Rbt.Executable>
rbdock ($Id: //depot/dev/client3/rdock/2013.1/src/exe/rbdock.cxx#4 $)

>  <Rbt.Library>
libRbt.so (2013.1, Build901 2013/11/27)

>  <Rbt.Parameter_File>
/export/apps/rDock/src/rDock_2013.1_src/data/scripts/dock_solv.prm

>  <Rbt.Receptor>
prm/blind_docking_80.prm

>  <SCORE>
-16.7895

>  <SCORE.INTER>
-12.9977

>  <SCORE.INTER.CONST>
1

>  <SCORE.INTER.POLAR>
0

>  <SCORE.INTER.ROT>
7

>  <SCORE.INTER.SOLV>
9.30189

>  <SCORE.INTER.VDW>
-20.0324

>  <SCORE.INTER.norm>
-0.499912

>  <SCORE.INTRA>
-3.79183

>  <SCORE.INTRA.DIHEDRAL>
-5.26663

>  <SCORE.INTRA.DIHEDRAL.0>
10.1225

>  <SCORE.INTRA.POLAR>
0

>  <SCORE.INTRA.POLAR.0>
0

>  <SCORE.INTRA.REPUL>
0

>  <SCORE.INTRA.REPUL.0>
0

>  <SCORE.INTRA.SOLV>
0.155412

>  <SCORE.INTRA.SOLV.lig_0>
-49.9393

>  <SCORE.INTRA.VDW>
-1.23622

>  <SCORE.INTRA.VDW.0>
-1.75437

>  <SCORE.INTRA.norm>
-0.14584

>  <SCORE.RESTR>
0

>  <SCORE.RESTR.CAVITY>
0

>  <SCORE.RESTR.norm>
0

>  <SCORE.SYSTEM>
0

>  <SCORE.SYSTEM.CONST>
0

>  <SCORE.SYSTEM.DIHEDRAL>
0

>  <SCORE.SYSTEM.SOLV>
0

>  <SCORE.SYSTEM.norm>
0

>  <SCORE.heavy>
26

>  <SCORE.norm>
-0.645751

>  <RMSD>
8.866

$$$$
ligand
 OpenBabel11021811473D
libRbt.so/2013.1/901 2013/11/27
 26 28  0  0  0  0  0  0  0  0999 V2000
   -7.0313   17.7110  -21.3056 N   0  0  0  0  0  0  0  0  0  0  0  0
   -7.8087   16.4688  -21.3956 C   0  0  2  0  0  0  0  0  0  0  0  0
   -7.9938   15.8928  -20.0164 C   0  0  0  0  0  0  0  0  0  0  0  0
   -7.1632   16.0916  -19.1611 O   0  0  0  0  0  0  0  0  0  0  0  0
   -7.0615   15.4633  -22.2733 C   0  0  0  0  0  0  0  0  0  0  0  0
   -7.9452   14.2408  -22.5145 C   0  0  0  0  0  0  0  0  0  0  0  0
   -9.4754   14.4091  -23.2316 S   0  0  0  0  0  0  0  0  0  0  0  0
  -10.8321   13.3371  -23.7714 C   0  0  0  0  0  0  0  0  0  0  0  0
  -12.1790   13.6160  -23.0933 C   0  0  1  0  0  0  0  0  0  0  0  0
  -13.1305   12.5973  -23.3418 O   0  0  0  0  0  0  0  0  0  0  0  0
  -12.0670   13.6183  -21.5870 C   0  0  1  0  0  0  0  0  0  0  0  0
  -13.1589   14.3934  -21.1427 O   0  0  0  0  0  0  0  0  0  0  0  0
  -12.3064   12.1858  -21.1701 C   0  0  1  0  0  0  0  0  0  0  0  0
  -13.1056   12.1562  -20.0078 O   0  0  0  0  0  0  0  0  0  0  0  0
  -13.0841   11.6067  -22.3322 C   0  0  2  0  0  0  0  0  0  0  0  0
   -9.0807   15.1552  -19.7361 O   0  0  0  0  0  0  0  0  0  0  0  0
  -14.0237    7.1195  -24.8212 N   0  0  0  0  0  0  0  0  0  0  0  0
  -14.9352    8.0296  -24.3406 C   0  0  0  0  0  0  0  0  0  0  0  0
  -14.4898    9.1578  -23.6951 N   0  0  0  0  0  0  0  0  0  0  0  0
  -13.1714    9.3811  -23.5305 C   0  0  0  0  0  0  0  0  0  0  0  0
  -12.2380    8.4797  -24.0067 C   0  0  0  0  0  0  0  0  0  0  0  0
  -12.6782    7.3335  -24.6583 C   0  0  0  0  0  0  0  0  0  0  0  0
  -11.8165    6.4397  -25.1276 N   0  0  0  0  0  0  0  0  0  0  0  0
  -11.0058    8.9479  -23.7069 N   0  0  0  0  0  0  0  0  0  0  0  0
  -11.1477   10.1219  -23.0612 C   0  0  0  0  0  0  0  0  0  0  0  0
  -12.4843   10.4011  -22.9328 N   0  0  0  0  0  0  0  0  0  0  0  0
  2  1  1  1  0  0  0
  2  3  1  0  0  0  0
  2  5  1  0  0  0  0
  3  4  1  0  0  0  0
  3 16  1  0  0  0  0
  5  6  1  0  0  0  0
  6  7  1  0  0  0  0
  7  8  1  0  0  0  0
  9  8  1  6  0  0  0
  9 10  1  0  0  0  0
  9 11  1  0  0  0  0
 10 15  1  0  0  0  0
 11 12  1  1  0  0  0
 11 13  1  0  0  0  0
 13 14  1  1  0  0  0
 13 15  1  0  0  0  0
 15 26  1  6  0  0  0
 17 18  2  0  0  0  0
 17 22  1  0  0  0  0
 18 19  1  0  0  0  0
 19 20  2  0  0  0  0
 20 21  1  0  0  0  0
 20 26  1  0  0  0  0
 21 22  2  0  0  0  0
 21 24  1  0  0  0  0
 22 23  1  0  0  0  0
 24 25  2  0  0  0  0
 25 26  1  0  0  0  0
M  END
>  <CHROM.1>
-29.16077375,-172.84956375,57.76268468,177.26511638,120.85032081,-168.17643034
-91.59542194,-11.09250314,12.30746199,-22.50590026,-0.98033350,-0.30015676
-2.56246870

>  <Name>
ligand

>  <RI>
0

>  <Rbt.Current_Directory>
/home/itssahil/PROJECTS/Mol_Feturizer/New_Systems/rnas/3E5E

>  <Rbt.Executable>
rbdock ($Id: //depot/dev/client3/rdock/2013.1/src/exe/rbdock.cxx#4 $)

>  <Rbt.Library>
libRbt.so (2013.1, Build901 2013/11/27)

>  <Rbt.Parameter_File>
/export/apps/rDock/src/rDock_2013.1_src/data/scripts/dock_solv.prm

>  <Rbt.Receptor>
prm/blind_docking_100.prm

>  <SCORE>
-19.9438

>  <SCORE.INTER>
-16.8197

>  <SCORE.INTER.CONST>
1

>  <SCORE.INTER.POLAR>
0

>  <SCORE.INTER.ROT>
7

>  <SCORE.INTER.SOLV>
11.5543

>  <SCORE.INTER.VDW>
-23.3312

>  <SCORE.INTER.norm>
-0.646911

>  <SCORE.INTRA>
-3.12414

>  <SCORE.INTRA.DIHEDRAL>
-4.42054

>  <SCORE.INTRA.DIHEDRAL.0>
10.1225

>  <SCORE.INTRA.POLAR>
0

>  <SCORE.INTRA.POLAR.0>
0

>  <SCORE.INTRA.REPUL>
0

>  <SCORE.INTRA.REPUL.0>
0

>  <SCORE.INTRA.SOLV>
-0.403344

>  <SCORE.INTRA.SOLV.lig_0>
-49.9393

>  <SCORE.INTRA.VDW>
-0.712201

>  <SCORE.INTRA.VDW.0>
-1.75437

>  <SCORE.INTRA.norm>
-0.120159

>  <SCORE.RESTR>
0

>  <SCORE.RESTR.CAVITY>
0

>  <SCORE.RESTR.norm>
0

>  <SCORE.SYSTEM>
0

>  <SCORE.SYSTEM.CONST>
0

>  <SCORE.SYSTEM.DIHEDRAL>
0

>  <SCORE.SYSTEM.SOLV>
0

>  <SCORE.SYSTEM.norm>
0

>  <SCORE.heavy>
26

>  <SCORE.norm>
-0.76707

>  <RMSD>
8.872

$$$$
ligand
 OpenBabel11021811473D
libRbt.so/2013.1/901 2013/11/27
 26 28  0  0  0  0  0  0  0  0999 V2000
   -9.4827   14.1339  -27.7173 N   0  0  0  0  0  0  0  0  0  0  0  0
   -8.5908   13.4997  -26.7386 C   0  0  2  0  0  0  0  0  0  0  0  0
   -7.2791   13.1658  -27.3990 C   0  0  0  0  0  0  0  0  0  0  0  0
   -6.2412   13.3344  -26.8029 O   0  0  0  0  0  0  0  0  0  0  0  0
   -9.2399   12.2177  -26.2143 C   0  0  0  0  0  0  0  0  0  0  0  0
  -10.4669   12.5727  -25.3764 C   0  0  0  0  0  0  0  0  0  0  0  0
  -10.3013   13.4457  -23.9292 S   0  0  0  0  0  0  0  0  0  0  0  0
   -9.3963   13.2990  -22.3670 C   0  0  0  0  0  0  0  0  0  0  0  0
   -9.8621   14.2563  -21.2632 C   0  0  1  0  0  0  0  0  0  0  0  0
  -11.2690   14.2528  -21.1030 O   0  0  0  0  0  0  0  0  0  0  0  0
   -9.3625   13.8383  -19.9005 C   0  0  1  0  0  0  0  0  0  0  0  0
   -9.3764   15.0201  -19.1302 O   0  0  0  0  0  0  0  0  0  0  0  0
  -10.4239   12.9101  -19.3573 C   0  0  1  0  0  0  0  0  0  0  0  0
  -10.6249   13.1691  -17.9850 O   0  0  0  0  0  0  0  0  0  0  0  0
  -11.6636   13.3022  -20.1317 C   0  0  2  0  0  0  0  0  0  0  0  0
   -7.2609   12.6828  -28.6522 O   0  0  0  0  0  0  0  0  0  0  0  0
  -13.5727    8.4628  -19.7450 N   0  0  0  0  0  0  0  0  0  0  0  0
  -12.9432    9.2061  -18.7748 C   0  0  0  0  0  0  0  0  0  0  0  0
  -12.4945   10.4698  -19.0744 N   0  0  0  0  0  0  0  0  0  0  0  0
  -12.6668   10.9870  -20.3065 C   0  0  0  0  0  0  0  0  0  0  0  0
  -13.2978   10.2572  -21.2964 C   0  0  0  0  0  0  0  0  0  0  0  0
  -13.7525    8.9766  -21.0046 C   0  0  0  0  0  0  0  0  0  0  0  0
  -14.3601    8.2397  -21.9263 N   0  0  0  0  0  0  0  0  0  0  0  0
  -13.3333   11.0091  -22.4192 N   0  0  0  0  0  0  0  0  0  0  0  0
  -12.7457   12.1917  -22.1522 C   0  0  0  0  0  0  0  0  0  0  0  0
  -12.3161   12.1918  -20.8497 N   0  0  0  0  0  0  0  0  0  0  0  0
  2  1  1  6  0  0  0
  2  3  1  0  0  0  0
  2  5  1  0  0  0  0
  3  4  1  0  0  0  0
  3 16  1  0  0  0  0
  5  6  1  0  0  0  0
  6  7  1  0  0  0  0
  7  8  1  0  0  0  0
  9  8  1  6  0  0  0
  9 10  1  0  0  0  0
  9 11  1  0  0  0  0
 10 15  1  0  0  0  0
 11 12  1  1  0  0  0
 11 13  1  0  0  0  0
 13 14  1  1  0  0  0
 13 15  1  0  0  0  0
 15 26  1  6  0  0  0
 17 18  2  0  0  0  0
 17 22  1  0  0  0  0
 18 19  1  0  0  0  0
 19 20  2  0  0  0  0
 20 21  1  0  0  0  0
 20 26  1  0  0  0  0
 21 22  2  0  0  0  0
 21 24  1  0  0  0  0
 22 23  1  0  0  0  0
 24 25  2  0  0  0  0
 25 26  1  0  0  0  0
M  END
>  <CHROM.1>
139.81155131,-67.93812045,-64.45066645,-55.79188960,-167.39259634,48.30606975
169.89662017,-10.75256690,12.32242993,-22.48414290,0.72852104,-0.81931339
-1.92133820

>  <Name>
ligand

>  <RI>
0

>  <Rbt.Current_Directory>
/home/itssahil/PROJECTS/Mol_Feturizer/New_Systems/rnas/3E5E

>  <Rbt.Executable>
rbdock ($Id: //depot/dev/client3/rdock/2013.1/src/exe/rbdock.cxx#4 $)

>  <Rbt.Library>
libRbt.so (2013.1, Build901 2013/11/27)

>  <Rbt.Parameter_File>
/export/apps/rDock/src/rDock_2013.1_src/data/scripts/dock_solv.prm

>  <Rbt.Receptor>
prm/pocket_docking_7.prm

>  <SCORE>
-15.207

>  <SCORE.INTER>
-11.1575

>  <SCORE.INTER.CONST>
1

>  <SCORE.INTER.POLAR>
0

>  <SCORE.INTER.ROT>
7

>  <SCORE.INTER.SOLV>
9.46647

>  <SCORE.INTER.VDW>
-18.8605

>  <SCORE.INTER.norm>
-0.429133

>  <SCORE.INTRA>
-4.04956

>  <SCORE.INTRA.DIHEDRAL>
-6.43571

>  <SCORE.INTRA.DIHEDRAL.0>
10.1225

>  <SCORE.INTRA.POLAR>
0

>  <SCORE.INTRA.POLAR.0>
0

>  <SCORE.INTRA.REPUL>
0

>  <SCORE.INTRA.REPUL.0>
0

>  <SCORE.INTRA.SOLV>
0.797236

>  <SCORE.INTRA.SOLV.lig_0>
-49.9393

>  <SCORE.INTRA.VDW>
-1.23032

>  <SCORE.INTRA.VDW.0>
-1.75437

>  <SCORE.INTRA.norm>
-0.155752

>  <SCORE.RESTR>
0

>  <SCORE.RESTR.CAVITY>
0

>  <SCORE.RESTR.norm>
0

>  <SCORE.SYSTEM>
0

>  <SCORE.SYSTEM.CONST>
0

>  <SCORE.SYSTEM.DIHEDRAL>
0

>  <SCORE.SYSTEM.SOLV>
0

>  <SCORE.SYSTEM.norm>
0

>  <SCORE.heavy>
26

>  <SCORE.norm>
-0.584885

>  <RMSD>
8.872

$$$$
ligand
 OpenBabel11021811473D
libRbt.so/2013.1/901 2013/11/27
 26 28  0  0  0  0  0  0  0  0999 V2000
   -7.4780   17.7766  -22.5120 N   0  0  0  0  0  0  0  0  0  0  0  0
   -7.1474   17.1188  -21.2417 C   0  0  2  0  0  0  0  0  0  0  0  0
   -5.7973   16.4610  -21.3549 C   0  0  0  0  0  0  0  0  0  0  0  0
   -4.8049   17.0504  -20.9960 O   0  0  0  0  0  0  0  0  0  0  0  0
   -8.2063   16.0612  -20.9256 C   0  0  0  0  0  0  0  0  0  0  0  0
   -8.0413   15.5895  -19.4820 C   0  0  0  0  0  0  0  0  0  0  0  0
   -9.1548   14.5072  -18.7944 S   0  0  0  0  0  0  0  0  0  0  0  0
  -10.1127   13.0578  -19.3072 C   0  0  0  0  0  0  0  0  0  0  0  0
  -10.2626   12.8917  -20.8243 C   0  0  1  0  0  0  0  0  0  0  0  0
  -10.9559   11.7072  -21.1725 O   0  0  0  0  0  0  0  0  0  0  0  0
  -11.1167   13.9785  -21.4332 C   0  0  1  0  0  0  0  0  0  0  0  0
  -10.7265   14.0310  -22.7879 O   0  0  0  0  0  0  0  0  0  0  0  0
  -12.5314   13.4515  -21.3712 C   0  0  1  0  0  0  0  0  0  0  0  0
  -13.2127   13.7770  -22.5631 O   0  0  0  0  0  0  0  0  0  0  0  0
  -12.3448   11.9518  -21.2900 C   0  0  2  0  0  0  0  0  0  0  0  0
   -5.6941   15.2196  -21.8572 O   0  0  0  0  0  0  0  0  0  0  0  0
  -16.1801    8.7798  -19.7269 N   0  0  0  0  0  0  0  0  0  0  0  0
  -15.9019    9.2093  -21.0029 C   0  0  0  0  0  0  0  0  0  0  0  0
  -14.8457   10.0622  -21.2153 N   0  0  0  0  0  0  0  0  0  0  0  0
  -14.0807   10.4793  -20.1876 C   0  0  0  0  0  0  0  0  0  0  0  0
  -14.3423   10.0590  -18.8971 C   0  0  0  0  0  0  0  0  0  0  0  0
  -15.4104    9.1988  -18.6710 C   0  0  0  0  0  0  0  0  0  0  0  0
  -15.6995    8.7739  -17.4473 N   0  0  0  0  0  0  0  0  0  0  0  0
  -13.4308   10.6249  -18.0747 N   0  0  0  0  0  0  0  0  0  0  0  0
  -12.6038   11.3825  -18.8212 C   0  0  0  0  0  0  0  0  0  0  0  0
  -12.9985   11.3133  -20.1329 N   0  0  0  0  0  0  0  0  0  0  0  0
  2  1  1  6  0  0  0
  2  3  1  0  0  0  0
  2  5  1  0  0  0  0
  3  4  1  0  0  0  0
  3 16  1  0  0  0  0
  5  6  1  0  0  0  0
  6  7  1  0  0  0  0
  7  8  1  0  0  0  0
  9  8  1  1  0  0  0
  9 10  1  0  0  0  0
  9 11  1  0  0  0  0
 10 15  1  0  0  0  0
 11 12  1  6  0  0  0
 11 13  1  0  0  0  0
 13 14  1  6  0  0  0
 13 15  1  0  0  0  0
 15 26  1  1  0  0  0
 17 18  2  0  0  0  0
 17 22  1  0  0  0  0
 18 19  1  0  0  0  0
 19 20  2  0  0  0  0
 20 21  1  0  0  0  0
 20 26  1  0  0  0  0
 21 22  2  0  0  0  0
 21 24  1  0  0  0  0
 22 23  1  0  0  0  0
 24 25  2  0  0  0  0
 25 26  1  0  0  0  0
M  END
>  <CHROM.1>
93.99123930,-167.90346738,174.89350889,37.98695399,-18.34607467,176.78586285
-130.36309246,-11.06380602,13.02678892,-20.43241261,0.39197626,-0.58785803
-1.16854238

>  <Name>
ligand

>  <RI>
0

>  <Rbt.Current_Directory>
/home/itssahil/PROJECTS/Mol_Feturizer/New_Systems/rnas/3E5E

>  <Rbt.Executable>
rbdock ($Id: //depot/dev/client3/rdock/2013.1/src/exe/rbdock.cxx#4 $)

>  <Rbt.Library>
libRbt.so (2013.1, Build901 2013/11/27)

>  <Rbt.Parameter_File>
/export/apps/rDock/src/rDock_2013.1_src/data/scripts/dock_solv.prm

>  <Rbt.Receptor>
prm/pocket_docking_4.prm

>  <SCORE>
-20.3383

>  <SCORE.INTER>
-17.6002

>  <SCORE.INTER.CONST>
1

>  <SCORE.INTER.POLAR>
0

>  <SCORE.INTER.ROT>
7

>  <SCORE.INTER.SOLV>
11.2474

>  <SCORE.INTER.VDW>
-23.7492

>  <SCORE.INTER.norm>
-0.676929

>  <SCORE.INTRA>
-2.73813

>  <SCORE.INTRA.DIHEDRAL>
-4.07005

>  <SCORE.INTRA.DIHEDRAL.0>
10.1225

>  <SCORE.INTRA.POLAR>
0

>  <SCORE.INTRA.POLAR.0>
0

>  <SCORE.INTRA.REPUL>
0

>  <SCORE.INTRA.REPUL.0>
0

>  <SCORE.INTRA.SOLV>
-0.48274

>  <SCORE.INTRA.SOLV.lig_0>
-49.9393

>  <SCORE.INTRA.VDW>
-0.461733

>  <SCORE.INTRA.VDW.0>
-1.75437

>  <SCORE.INTRA.norm>
-0.105313

>  <SCORE.RESTR>
0

>  <SCORE.RESTR.CAVITY>
0

>  <SCORE.RESTR.norm>
0

>  <SCORE.SYSTEM>
0

>  <SCORE.SYSTEM.CONST>
0

>  <SCORE.SYSTEM.DIHEDRAL>
0

>  <SCORE.SYSTEM.SOLV>
0

>  <SCORE.SYSTEM.norm>
0

>  <SCORE.heavy>
26

>  <SCORE.norm>
-0.782242

>  <RMSD>
8.874

$$$$
ligand
 OpenBabel11021811473D
libRbt.so/2013.1/901 2013/11/27
 26 28  0  0  0  0  0  0  0  0999 V2000
   -7.7938   17.2673  -23.0108 N   0  0  0  0  0  0  0  0  0  0  0  0
   -7.6020   16.4194  -21.8277 C   0  0  2  0  0  0  0  0  0  0  0  0
   -6.4404   15.4896  -22.0607 C   0  0  0  0  0  0  0  0  0  0  0  0
   -6.4741   14.6955  -22.9714 O   0  0  0  0  0  0  0  0  0  0  0  0
   -8.8697   15.6008  -21.5774 C   0  0  0  0  0  0  0  0  0  0  0  0
   -8.7185   14.8101  -20.2791 C   0  0  0  0  0  0  0  0  0  0  0  0
  -10.0805   14.1609  -19.4996 S   0  0  0  0  0  0  0  0  0  0  0  0
  -10.7545   12.5251  -19.1113 C   0  0  0  0  0  0  0  0  0  0  0  0
  -10.6360   11.4971  -20.2431 C   0  0  1  0  0  0  0  0  0  0  0  0
  -11.0566   10.2047  -19.8457 O   0  0  0  0  0  0  0  0  0  0  0  0
  -11.5558   11.8151  -21.3981 C   0  0  1  0  0  0  0  0  0  0  0  0
  -10.9738   11.1755  -22.5128 O   0  0  0  0  0  0  0  0  0  0  0  0
  -12.8535   11.1112  -21.0762 C   0  0  1  0  0  0  0  0  0  0  0  0
  -13.3857   10.5355  -22.2492 O   0  0  0  0  0  0  0  0  0  0  0  0
  -12.4314   10.0145  -20.1225 C   0  0  2  0  0  0  0  0  0  0  0  0
   -5.3668   15.5398  -21.2553 O   0  0  0  0  0  0  0  0  0  0  0  0
  -14.1564    7.1001  -16.1546 N   0  0  0  0  0  0  0  0  0  0  0  0
  -13.5276    6.6818  -17.3033 C   0  0  0  0  0  0  0  0  0  0  0  0
  -13.1558    7.6081  -18.2477 N   0  0  0  0  0  0  0  0  0  0  0  0
  -13.3995    8.9195  -18.0583 C   0  0  0  0  0  0  0  0  0  0  0  0
  -14.0296    9.3618  -16.9103 C   0  0  0  0  0  0  0  0  0  0  0  0
  -14.4128    8.4326  -15.9502 C   0  0  0  0  0  0  0  0  0  0  0  0
  -15.0239    8.8132  -14.8352 N   0  0  0  0  0  0  0  0  0  0  0  0
  -14.1457   10.7066  -16.9824 N   0  0  0  0  0  0  0  0  0  0  0  0
  -13.5981   11.1144  -18.1438 C   0  0  0  0  0  0  0  0  0  0  0  0
  -13.1401   10.0185  -18.8296 N   0  0  0  0  0  0  0  0  0  0  0  0
  2  1  1  6  0  0  0
  2  3  1  0  0  0  0
  2  5  1  0  0  0  0
  3  4  1  0  0  0  0
  3 16  1  0  0  0  0
  5  6  1  0  0  0  0
  6  7  1  0  0  0  0
  7  8  1  0  0  0  0
  9  8  1  1  0  0  0
  9 10  1  0  0  0  0
  9 11  1  0  0  0  0
 10 15  1  0  0  0  0
 11 12  1  6  0  0  0
 11 13  1  0  0  0  0
 13 14  1  6  0  0  0
 13 15  1  0  0  0  0
 15 26  1  1  0  0  0
 17 18  2  0  0  0  0
 17 22  1  0  0  0  0
 18 19  1  0  0  0  0
 19 20  2  0  0  0  0
 20 21  1  0  0  0  0
 20 26  1  0  0  0  0
 21 22  2  0  0  0  0
 21 24  1  0  0  0  0
 22 23  1  0  0  0  0
 24 25  2  0  0  0  0
 25 26  1  0  0  0  0
M  END
>  <CHROM.1>
-60.82766003,-175.08711270,162.60428953,114.07161704,-41.65018099,174.22870644
-90.72393520,-11.14713979,11.78987162,-19.71600190,-0.29431081,0.87556962
1.35530377

>  <Name>
ligand

>  <RI>
0

>  <Rbt.Current_Directory>
/home/itssahil/PROJECTS/Mol_Feturizer/New_Systems/rnas/3E5E

>  <Rbt.Executable>
rbdock ($Id: //depot/dev/client3/rdock/2013.1/src/exe/rbdock.cxx#4 $)

>  <Rbt.Library>
libRbt.so (2013.1, Build901 2013/11/27)

>  <Rbt.Parameter_File>
/export/apps/rDock/src/rDock_2013.1_src/data/scripts/dock_solv.prm

>  <Rbt.Receptor>
prm/pocket_docking_3.prm

>  <SCORE>
-18.2929

>  <SCORE.INTER>
-15.9828

>  <SCORE.INTER.CONST>
1

>  <SCORE.INTER.POLAR>
0

>  <SCORE.INTER.ROT>
7

>  <SCORE.INTER.SOLV>
9.44361

>  <SCORE.INTER.VDW>
-22.0697

>  <SCORE.INTER.norm>
-0.614723

>  <SCORE.INTRA>
-2.34373

>  <SCORE.INTRA.DIHEDRAL>
-3.41785

>  <SCORE.INTRA.DIHEDRAL.0>
10.1225

>  <SCORE.INTRA.POLAR>
0

>  <SCORE.INTRA.POLAR.0>
0

>  <SCORE.INTRA.REPUL>
0

>  <SCORE.INTRA.REPUL.0>
0

>  <SCORE.INTRA.SOLV>
-0.63994

>  <SCORE.INTRA.SOLV.lig_0>
-49.9393

>  <SCORE.INTRA.VDW>
-0.314837

>  <SCORE.INTRA.VDW.0>
-1.75437

>  <SCORE.INTRA.norm>
-0.0901435

>  <SCORE.RESTR>
0.0336275

>  <SCORE.RESTR.CAVITY>
0.0336275

>  <SCORE.RESTR.norm>
0.00129337

>  <SCORE.SYSTEM>
0

>  <SCORE.SYSTEM.CONST>
0

>  <SCORE.SYSTEM.DIHEDRAL>
0

>  <SCORE.SYSTEM.SOLV>
0

>  <SCORE.SYSTEM.norm>
0

>  <SCORE.heavy>
26

>  <SCORE.norm>
-0.703573

>  <RMSD>
8.878

$$$$
ligand
 OpenBabel11021811473D
libRbt.so/2013.1/901 2013/11/27
 26 28  0  0  0  0  0  0  0  0999 V2000
   -7.0857   15.1139  -23.1361 N   0  0  0  0  0  0  0  0  0  0  0  0
   -8.3121   15.8718  -23.4134 C   0  0  2  0  0  0  0  0  0  0  0  0
   -8.2912   17.1608  -22.6349 C   0  0  0  0  0  0  0  0  0  0  0  0
   -9.0164   18.0732  -22.9553 O   0  0  0  0  0  0  0  0  0  0  0  0
   -9.5281   15.0427  -22.9965 C   0  0  0  0  0  0  0  0  0  0  0  0
   -9.7991   13.9694  -24.0492 C   0  0  0  0  0  0  0  0  0  0  0  0
  -11.0931   12.8852  -23.8640 S   0  0  0  0  0  0  0  0  0  0  0  0
  -12.6041   12.7523  -22.8739 C   0  0  0  0  0  0  0  0  0  0  0  0
  -12.5243   13.4085  -21.4902 C   0  0  1  0  0  0  0  0  0  0  0  0
  -13.3886   12.7959  -20.5508 O   0  0  0  0  0  0  0  0  0  0  0  0
  -11.1618   13.2415  -20.8599 C   0  0  1  0  0  0  0  0  0  0  0  0
  -11.0599   14.2974  -19.9297 O   0  0  0  0  0  0  0  0  0  0  0  0
  -11.2378   11.9429  -20.0912 C   0  0  1  0  0  0  0  0  0  0  0  0
  -10.5734   12.0831  -18.8544 O   0  0  0  0  0  0  0  0  0  0  0  0
  -12.7210   11.7635  -19.8497 C   0  0  2  0  0  0  0  0  0  0  0  0
   -7.4648   17.2991  -21.5851 O   0  0  0  0  0  0  0  0  0  0  0  0
  -13.7444    6.7933  -18.6399 N   0  0  0  0  0  0  0  0  0  0  0  0
  -13.1231    7.7440  -17.8652 C   0  0  0  0  0  0  0  0  0  0  0  0
  -12.9307    9.0079  -18.3687 N   0  0  0  0  0  0  0  0  0  0  0  0
  -13.3457    9.3243  -19.6108 C   0  0  0  0  0  0  0  0  0  0  0  0
  -13.9733    8.3840  -20.4061 C   0  0  0  0  0  0  0  0  0  0  0  0
  -14.1698    7.1016  -19.9076 C   0  0  0  0  0  0  0  0  0  0  0  0
  -14.7643    6.1669  -20.6387 N   0  0  0  0  0  0  0  0  0  0  0  0
  -14.2787    8.9651  -21.5879 N   0  0  0  0  0  0  0  0  0  0  0  0
  -13.8627   10.2459  -21.5467 C   0  0  0  0  0  0  0  0  0  0  0  0
  -13.2715   10.4836  -20.3321 N   0  0  0  0  0  0  0  0  0  0  0  0
  2  1  1  1  0  0  0
  2  3  1  0  0  0  0
  2  5  1  0  0  0  0
  3  4  1  0  0  0  0
  3 16  1  0  0  0  0
  5  6  1  0  0  0  0
  6  7  1  0  0  0  0
  7  8  1  0  0  0  0
  9  8  1  6  0  0  0
  9 10  1  0  0  0  0
  9 11  1  0  0  0  0
 10 15  1  0  0  0  0
 11 12  1  1  0  0  0
 11 13  1  0  0  0  0
 13 14  1  1  0  0  0
 13 15  1  0  0  0  0
 15 26  1  6  0  0  0
 17 18  2  0  0  0  0
 17 22  1  0  0  0  0
 18 19  1  0  0  0  0
 19 20  2  0  0  0  0
 20 21  1  0  0  0  0
 20 26  1  0  0  0  0
 21 22  2  0  0  0  0
 21 24  1  0  0  0  0
 22 23  1  0  0  0  0
 24 25  2  0  0  0  0
 25 26  1  0  0  0  0
M  END
>  <CHROM.1>
161.55270070,-77.29564116,179.96890286,16.11207965,-30.44213524,-152.38771442
-151.51402971,-11.57262887,12.16469929,-21.22777988,-0.51660709,0.94297153
1.81146574

>  <Name>
ligand

>  <RI>
0

>  <Rbt.Current_Directory>
/home/itssahil/PROJECTS/Mol_Feturizer/New_Systems/rnas/3E5E

>  <Rbt.Executable>
rbdock ($Id: //depot/dev/client3/rdock/2013.1/src/exe/rbdock.cxx#4 $)

>  <Rbt.Library>
libRbt.so (2013.1, Build901 2013/11/27)

>  <Rbt.Parameter_File>
/export/apps/rDock/src/rDock_2013.1_src/data/scripts/dock_solv.prm

>  <Rbt.Receptor>
prm/pocket_docking_5.prm

>  <SCORE>
-15.5241

>  <SCORE.INTER>
-14.8474

>  <SCORE.INTER.CONST>
1

>  <SCORE.INTER.POLAR>
0

>  <SCORE.INTER.ROT>
7

>  <SCORE.INTER.SOLV>
9.45634

>  <SCORE.INTER.VDW>
-21.3171

>  <SCORE.INTER.norm>
-0.571055

>  <SCORE.INTRA>
-0.67667

>  <SCORE.INTRA.DIHEDRAL>
-0.726708

>  <SCORE.INTRA.DIHEDRAL.0>
10.1225

>  <SCORE.INTRA.POLAR>
0

>  <SCORE.INTRA.POLAR.0>
0

>  <SCORE.INTRA.REPUL>
0

>  <SCORE.INTRA.REPUL.0>
0

>  <SCORE.INTRA.SOLV>
0.330517

>  <SCORE.INTRA.SOLV.lig_0>
-49.9393

>  <SCORE.INTRA.VDW>
-0.478575

>  <SCORE.INTRA.VDW.0>
-1.75437

>  <SCORE.INTRA.norm>
-0.0260258

>  <SCORE.RESTR>
0

>  <SCORE.RESTR.CAVITY>
0

>  <SCORE.RESTR.norm>
0

>  <SCORE.SYSTEM>
0

>  <SCORE.SYSTEM.CONST>
0

>  <SCORE.SYSTEM.DIHEDRAL>
0

>  <SCORE.SYSTEM.SOLV>
0

>  <SCORE.SYSTEM.norm>
0

>  <SCORE.heavy>
26

>  <SCORE.norm>
-0.597081

>  <RMSD>
8.879

$$$$
ligand
 OpenBabel11021811473D
libRbt.so/2013.1/901 2013/11/27
 26 28  0  0  0  0  0  0  0  0999 V2000
   -7.8685   16.7464  -22.3803 N   0  0  0  0  0  0  0  0  0  0  0  0
   -8.0971   16.2018  -21.0361 C   0  0  2  0  0  0  0  0  0  0  0  0
   -6.7818   15.7780  -20.4371 C   0  0  0  0  0  0  0  0  0  0  0  0
   -6.7018   15.5495  -19.2529 O   0  0  0  0  0  0  0  0  0  0  0  0
   -9.0296   14.9929  -21.1286 C   0  0  0  0  0  0  0  0  0  0  0  0
   -8.5043   14.0228  -22.1853 C   0  0  0  0  0  0  0  0  0  0  0  0
   -9.3575   12.6012  -22.5530 S   0  0  0  0  0  0  0  0  0  0  0  0
  -11.0826   12.0625  -22.6749 C   0  0  0  0  0  0  0  0  0  0  0  0
  -11.9155   12.2850  -21.4067 C   0  0  1  0  0  0  0  0  0  0  0  0
  -13.2753   11.9324  -21.5842 O   0  0  0  0  0  0  0  0  0  0  0  0
  -11.4756   11.3884  -20.2735 C   0  0  1  0  0  0  0  0  0  0  0  0
  -11.9019   12.0483  -19.1017 O   0  0  0  0  0  0  0  0  0  0  0  0
  -12.2930   10.1268  -20.4269 C   0  0  1  0  0  0  0  0  0  0  0  0
  -12.7101    9.6734  -19.1576 O   0  0  0  0  0  0  0  0  0  0  0  0
  -13.4980   10.5828  -21.2209 C   0  0  2  0  0  0  0  0  0  0  0  0
   -5.6956   15.6562  -21.2177 O   0  0  0  0  0  0  0  0  0  0  0  0
  -11.3108    7.7259  -24.9982 N   0  0  0  0  0  0  0  0  0  0  0  0
  -10.6922    8.3496  -23.9406 C   0  0  0  0  0  0  0  0  0  0  0  0
  -11.4442    9.0746  -23.0479 N   0  0  0  0  0  0  0  0  0  0  0  0
  -12.7792    9.1783  -23.1977 C   0  0  0  0  0  0  0  0  0  0  0  0
  -13.4212    8.5584  -24.2531 C   0  0  0  0  0  0  0  0  0  0  0  0
  -12.6693    7.8254  -25.1637 C   0  0  0  0  0  0  0  0  0  0  0  0
  -13.2446    7.2176  -26.1939 N   0  0  0  0  0  0  0  0  0  0  0  0
  -14.7431    8.8260  -24.1606 N   0  0  0  0  0  0  0  0  0  0  0  0
  -14.9417    9.5921  -23.0702 C   0  0  0  0  0  0  0  0  0  0  0  0
  -13.7334    9.8301  -22.4666 N   0  0  0  0  0  0  0  0  0  0  0  0
  2  1  1  6  0  0  0
  2  3  1  0  0  0  0
  2  5  1  0  0  0  0
  3  4  1  0  0  0  0
  3 16  1  0  0  0  0
  5  6  1  0  0  0  0
  6  7  1  0  0  0  0
  7  8  1  0  0  0  0
  9  8  1  6  0  0  0
  9 10  1  0  0  0  0
  9 11  1  0  0  0  0
 10 15  1  0  0  0  0
 11 12  1  1  0  0  0
 11 13  1  0  0  0  0
 13 14  1  1  0  0  0
 13 15  1  0  0  0  0
 15 26  1  6  0  0  0
 17 18  2  0  0  0  0
 17 22  1  0  0  0  0
 18 19  1  0  0  0  0
 19 20  2  0  0  0  0
 20 21  1  0  0  0  0
 20 26  1  0  0  0  0
 21 22  2  0  0  0  0
 21 24  1  0  0  0  0
 22 23  1  0  0  0  0
 24 25  2  0  0  0  0
 25 26  1  0  0  0  0
M  END
>  <CHROM.1>
165.47734660,50.75012454,-178.04463931,35.57355321,-56.25923133,175.95667654
92.61017896,-10.97984440,11.59215383,-22.11617294,-0.70605141,-0.63270682
-2.14626226

>  <Name>
ligand

>  <RI>
0

>  <Rbt.Current_Directory>
/home/itssahil/PROJECTS/Mol_Feturizer/New_Systems/rnas/3E5E

>  <Rbt.Executable>
rbdock ($Id: //depot/dev/client3/rdock/2013.1/src/exe/rbdock.cxx#4 $)

>  <Rbt.Library>
libRbt.so (2013.1, Build901 2013/11/27)

>  <Rbt.Parameter_File>
/export/apps/rDock/src/rDock_2013.1_src/data/scripts/dock_solv.prm

>  <Rbt.Receptor>
prm/blind_docking_100.prm

>  <SCORE>
-14.9488

>  <SCORE.INTER>
-11.6637

>  <SCORE.INTER.CONST>
1

>  <SCORE.INTER.POLAR>
0

>  <SCORE.INTER.ROT>
7

>  <SCORE.INTER.SOLV>
11.3365

>  <SCORE.INTER.VDW>
-19.8213

>  <SCORE.INTER.norm>
-0.448605

>  <SCORE.INTRA>
-3.28512

>  <SCORE.INTRA.DIHEDRAL>
-6.03443

>  <SCORE.INTRA.DIHEDRAL.0>
10.1225

>  <SCORE.INTRA.POLAR>
0

>  <SCORE.INTRA.POLAR.0>
0

>  <SCORE.INTRA.REPUL>
0

>  <SCORE.INTRA.REPUL.0>
0

>  <SCORE.INTRA.SOLV>
0.401421

>  <SCORE.INTRA.SOLV.lig_0>
-49.9393

>  <SCORE.INTRA.VDW>
-0.468616

>  <SCORE.INTRA.VDW.0>
-1.75437

>  <SCORE.INTRA.norm>
-0.126351

>  <SCORE.RESTR>
0

>  <SCORE.RESTR.CAVITY>
0

>  <SCORE.RESTR.norm>
0

>  <SCORE.SYSTEM>
0

>  <SCORE.SYSTEM.CONST>
0

>  <SCORE.SYSTEM.DIHEDRAL>
0

>  <SCORE.SYSTEM.SOLV>
0

>  <SCORE.SYSTEM.norm>
0

>  <SCORE.heavy>
26

>  <SCORE.norm>
-0.574955

>  <RMSD>
8.886

$$$$
ligand
 OpenBabel11021811473D
libRbt.so/2013.1/901 2013/11/27
 26 28  0  0  0  0  0  0  0  0999 V2000
   -7.9680   14.4870  -24.0656 N   0  0  0  0  0  0  0  0  0  0  0  0
   -7.4465   15.0988  -22.8370 C   0  0  2  0  0  0  0  0  0  0  0  0
   -5.9482   14.9511  -22.8009 C   0  0  0  0  0  0  0  0  0  0  0  0
   -5.4311   13.9304  -23.1907 O   0  0  0  0  0  0  0  0  0  0  0  0
   -8.0583   14.4004  -21.6214 C   0  0  0  0  0  0  0  0  0  0  0  0
   -9.5673   14.6376  -21.6023 C   0  0  0  0  0  0  0  0  0  0  0  0
  -10.5298   13.9774  -20.3687 S   0  0  0  0  0  0  0  0  0  0  0  0
  -10.8453   12.3519  -19.6344 C   0  0  0  0  0  0  0  0  0  0  0  0
  -10.6551   11.1681  -20.5904 C   0  0  1  0  0  0  0  0  0  0  0  0
  -10.9626    9.9271  -19.9819 O   0  0  0  0  0  0  0  0  0  0  0  0
  -11.6115   11.2217  -21.7583 C   0  0  1  0  0  0  0  0  0  0  0  0
  -10.9914   10.4596  -22.7709 O   0  0  0  0  0  0  0  0  0  0  0  0
  -12.8425   10.4772  -21.2964 C   0  0  1  0  0  0  0  0  0  0  0  0
  -13.3388    9.6797  -22.3491 O   0  0  0  0  0  0  0  0  0  0  0  0
  -12.3200    9.5855  -20.1908 C   0  0  2  0  0  0  0  0  0  0  0  0
   -5.1849   15.9523  -22.3331 O   0  0  0  0  0  0  0  0  0  0  0  0
  -14.3045    7.1093  -16.0503 N   0  0  0  0  0  0  0  0  0  0  0  0
  -13.7347    6.5597  -17.1743 C   0  0  0  0  0  0  0  0  0  0  0  0
  -13.2764    7.3841  -18.1734 N   0  0  0  0  0  0  0  0  0  0  0  0
  -13.3782    8.7229  -18.0616 C   0  0  0  0  0  0  0  0  0  0  0  0
  -13.9467    9.2963  -16.9398 C   0  0  0  0  0  0  0  0  0  0  0  0
  -14.4165    8.4711  -15.9248 C   0  0  0  0  0  0  0  0  0  0  0  0
  -14.9730    8.9794  -14.8322 N   0  0  0  0  0  0  0  0  0  0  0  0
  -13.9206   10.6393  -17.0914 N   0  0  0  0  0  0  0  0  0  0  0  0
  -13.3444   10.9176  -18.2771 C   0  0  0  0  0  0  0  0  0  0  0  0
  -13.0116    9.7408  -18.8979 N   0  0  0  0  0  0  0  0  0  0  0  0
  2  1  1  6  0  0  0
  2  3  1  0  0  0  0
  2  5  1  0  0  0  0
  3  4  1  0  0  0  0
  3 16  1  0  0  0  0
  5  6  1  0  0  0  0
  6  7  1  0  0  0  0
  7  8  1  0  0  0  0
  9  8  1  1  0  0  0
  9 10  1  0  0  0  0
  9 11  1  0  0  0  0
 10 15  1  0  0  0  0
 11 12  1  6  0  0  0
 11 13  1  0  0  0  0
 13 14  1  6  0  0  0
 13 15  1  0  0  0  0
 15 26  1  1  0  0  0
 17 18  2  0  0  0  0
 17 22  1  0  0  0  0
 18 19  1  0  0  0  0
 19 20  2  0  0  0  0
 20 21  1  0  0  0  0
 20 26  1  0  0  0  0
 21 22  2  0  0  0  0
 21 24  1  0  0  0  0
 22 23  1  0  0  0  0
 24 25  2  0  0  0  0
 25 26  1  0  0  0  0
M  END
>  <CHROM.1>
-38.79845161,-64.19936222,179.73932749,-53.95221692,-28.80428296,-177.76411418
-102.98307168,-11.10678353,11.35485763,-20.07005657,0.25553511,-0.85252078
-1.95492144

>  <Name>
ligand

>  <RI>
0

>  <Rbt.Current_Directory>
/home/itssahil/PROJECTS/Mol_Feturizer/New_Systems/rnas/3E5E

>  <Rbt.Executable>
rbdock ($Id: //depot/dev/client3/rdock/2013.1/src/exe/rbdock.cxx#4 $)

>  <Rbt.Library>
libRbt.so (2013.1, Build901 2013/11/27)

>  <Rbt.Parameter_File>
/export/apps/rDock/src/rDock_2013.1_src/data/scripts/dock_solv.prm

>  <Rbt.Receptor>
prm/pocket_docking_5.prm

>  <SCORE>
-17.3759

>  <SCORE.INTER>
-13.8197

>  <SCORE.INTER.CONST>
1

>  <SCORE.INTER.POLAR>
0

>  <SCORE.INTER.ROT>
7

>  <SCORE.INTER.SOLV>
7.94169

>  <SCORE.INTER.VDW>
-20.127

>  <SCORE.INTER.norm>
-0.531526

>  <SCORE.INTRA>
-3.55622

>  <SCORE.INTRA.DIHEDRAL>
-6.09345

>  <SCORE.INTRA.DIHEDRAL.0>
10.1225

>  <SCORE.INTRA.POLAR>
0

>  <SCORE.INTRA.POLAR.0>
0

>  <SCORE.INTRA.REPUL>
0

>  <SCORE.INTRA.REPUL.0>
0

>  <SCORE.INTRA.SOLV>
0.141456

>  <SCORE.INTRA.SOLV.lig_0>
-49.9393

>  <SCORE.INTRA.VDW>
-0.580222

>  <SCORE.INTRA.VDW.0>
-1.75437

>  <SCORE.INTRA.norm>
-0.136778

>  <SCORE.RESTR>
0

>  <SCORE.RESTR.CAVITY>
0

>  <SCORE.RESTR.norm>
0

>  <SCORE.SYSTEM>
0

>  <SCORE.SYSTEM.CONST>
0

>  <SCORE.SYSTEM.DIHEDRAL>
0

>  <SCORE.SYSTEM.SOLV>
0

>  <SCORE.SYSTEM.norm>
0

>  <SCORE.heavy>
26

>  <SCORE.norm>
-0.668304

>  <RMSD>
8.891

$$$$
ligand
 OpenBabel11021811473D
libRbt.so/2013.1/901 2013/11/27
 26 28  0  0  0  0  0  0  0  0999 V2000
   -6.9565   14.7169  -23.3401 N   0  0  0  0  0  0  0  0  0  0  0  0
   -8.3232   15.0496  -22.9195 C   0  0  2  0  0  0  0  0  0  0  0  0
   -8.3413   16.4330  -22.3244 C   0  0  0  0  0  0  0  0  0  0  0  0
   -7.6286   16.6968  -21.3845 O   0  0  0  0  0  0  0  0  0  0  0  0
   -8.7946   14.0374  -21.8741 C   0  0  0  0  0  0  0  0  0  0  0  0
  -10.2703   14.2776  -21.5603 C   0  0  0  0  0  0  0  0  0  0  0  0
  -11.4610   13.9926  -22.7372 S   0  0  0  0  0  0  0  0  0  0  0  0
  -12.2648   12.5700  -23.5191 C   0  0  0  0  0  0  0  0  0  0  0  0
  -12.9893   11.6291  -22.5488 C   0  0  1  0  0  0  0  0  0  0  0  0
  -13.0440   10.2974  -23.0268 O   0  0  0  0  0  0  0  0  0  0  0  0
  -12.2544   11.4906  -21.2364 C   0  0  1  0  0  0  0  0  0  0  0  0
  -13.2400   11.0937  -20.3083 O   0  0  0  0  0  0  0  0  0  0  0  0
  -11.3028   10.3340  -21.4358 C   0  0  1  0  0  0  0  0  0  0  0  0
  -11.2716    9.5379  -20.2713 O   0  0  0  0  0  0  0  0  0  0  0  0
  -11.9340    9.5501  -22.5661 C   0  0  2  0  0  0  0  0  0  0  0  0
   -9.1513   17.3744  -22.8358 O   0  0  0  0  0  0  0  0  0  0  0  0
   -9.7978    5.9802  -25.7136 N   0  0  0  0  0  0  0  0  0  0  0  0
  -10.6001    5.7723  -24.6167 C   0  0  0  0  0  0  0  0  0  0  0  0
  -11.0598    6.8505  -23.8996 N   0  0  0  0  0  0  0  0  0  0  0  0
  -10.7341    8.1067  -24.2614 C   0  0  0  0  0  0  0  0  0  0  0  0
   -9.9296    8.3384  -25.3613 C   0  0  0  0  0  0  0  0  0  0  0  0
   -9.4565    7.2544  -26.0915 C   0  0  0  0  0  0  0  0  0  0  0  0
   -8.6781    7.4312  -27.1519 N   0  0  0  0  0  0  0  0  0  0  0  0
   -9.7654    9.6738  -25.4920 N   0  0  0  0  0  0  0  0  0  0  0  0
  -10.4526   10.2806  -24.5047 C   0  0  0  0  0  0  0  0  0  0  0  0
  -11.0507    9.3240  -23.7248 N   0  0  0  0  0  0  0  0  0  0  0  0
  2  1  1  1  0  0  0
  2  3  1  0  0  0  0
  2  5  1  0  0  0  0
  3  4  1  0  0  0  0
  3 16  1  0  0  0  0
  5  6  1  0  0  0  0
  6  7  1  0  0  0  0
  7  8  1  0  0  0  0
  9  8  1  6  0  0  0
  9 10  1  0  0  0  0
  9 11  1  0  0  0  0
 10 15  1  0  0  0  0
 11 12  1  1  0  0  0
 11 13  1  0  0  0  0
 13 14  1  1  0  0  0
 13 15  1  0  0  0  0
 15 26  1  6  0  0  0
 17 18  2  0  0  0  0
 17 22  1  0  0  0  0
 18 19  1  0  0  0  0
 19 20  2  0  0  0  0
 20 21  1  0  0  0  0
 20 26  1  0  0  0  0
 21 22  2  0  0  0  0
 21 24  1  0  0  0  0
 22 23  1  0  0  0  0
 24 25  2  0  0  0  0
 25 26  1  0  0  0  0
M  END
>  <CHROM.1>
-57.12479778,-173.16771984,67.05444782,73.81902380,58.87277347,-152.08110777
-116.95482752,-10.47929600,11.31972272,-23.16199904,-1.37618693,-0.65774218
-2.71148158

>  <Name>
ligand

>  <RI>
0

>  <Rbt.Current_Directory>
/home/itssahil/PROJECTS/Mol_Feturizer/New_Systems/rnas/3E5E

>  <Rbt.Executable>
rbdock ($Id: //depot/dev/client3/rdock/2013.1/src/exe/rbdock.cxx#4 $)

>  <Rbt.Library>
libRbt.so (2013.1, Build901 2013/11/27)

>  <Rbt.Parameter_File>
/export/apps/rDock/src/rDock_2013.1_src/data/scripts/dock_solv.prm

>  <Rbt.Receptor>
prm/blind_docking_60.prm

>  <SCORE>
-19.2469

>  <SCORE.INTER>
-16.3496

>  <SCORE.INTER.CONST>
1

>  <SCORE.INTER.POLAR>
0

>  <SCORE.INTER.ROT>
7

>  <SCORE.INTER.SOLV>
10.0471

>  <SCORE.INTER.VDW>
-22.5154

>  <SCORE.INTER.norm>
-0.62883

>  <SCORE.INTRA>
-2.89728

>  <SCORE.INTRA.DIHEDRAL>
-4.4297

>  <SCORE.INTRA.DIHEDRAL.0>
10.1225

>  <SCORE.INTRA.POLAR>
0

>  <SCORE.INTRA.POLAR.0>
0

>  <SCORE.INTRA.REPUL>
0

>  <SCORE.INTRA.REPUL.0>
0

>  <SCORE.INTRA.SOLV>
-0.39631

>  <SCORE.INTRA.SOLV.lig_0>
-49.9393

>  <SCORE.INTRA.VDW>
-0.484271

>  <SCORE.INTRA.VDW.0>
-1.75437

>  <SCORE.INTRA.norm>
-0.111434

>  <SCORE.RESTR>
0

>  <SCORE.RESTR.CAVITY>
0

>  <SCORE.RESTR.norm>
0

>  <SCORE.SYSTEM>
0

>  <SCORE.SYSTEM.CONST>
0

>  <SCORE.SYSTEM.DIHEDRAL>
0

>  <SCORE.SYSTEM.SOLV>
0

>  <SCORE.SYSTEM.norm>
0

>  <SCORE.heavy>
26

>  <SCORE.norm>
-0.740264

>  <RMSD>
8.899

$$$$
ligand
 OpenBabel11021811473D
libRbt.so/2013.1/901 2013/11/27
 26 28  0  0  0  0  0  0  0  0999 V2000
   -4.2378   16.1740  -22.9635 N   0  0  0  0  0  0  0  0  0  0  0  0
   -5.2994   16.9153  -22.2714 C   0  0  2  0  0  0  0  0  0  0  0  0
   -4.7552   18.2328  -21.7854 C   0  0  0  0  0  0  0  0  0  0  0  0
   -3.5829   18.3390  -21.5106 O   0  0  0  0  0  0  0  0  0  0  0  0
   -5.7974   16.0969  -21.0789 C   0  0  0  0  0  0  0  0  0  0  0  0
   -7.1451   16.6438  -20.6119 C   0  0  0  0  0  0  0  0  0  0  0  0
   -8.0122   15.8647  -19.3769 S   0  0  0  0  0  0  0  0  0  0  0  0
   -8.8285   14.2703  -19.1075 C   0  0  0  0  0  0  0  0  0  0  0  0
  -10.2489   14.1723  -19.6772 C   0  0  1  0  0  0  0  0  0  0  0  0
  -10.2870   14.3932  -21.0753 O   0  0  0  0  0  0  0  0  0  0  0  0
  -10.8232   12.7824  -19.5356 C   0  0  1  0  0  0  0  0  0  0  0  0
  -12.2221   12.9624  -19.5685 O   0  0  0  0  0  0  0  0  0  0  0  0
  -10.4128   12.0544  -20.7944 C   0  0  1  0  0  0  0  0  0  0  0  0
  -11.4815   11.2541  -21.2506 O   0  0  0  0  0  0  0  0  0  0  0  0
  -10.1628   13.1734  -21.7822 C   0  0  2  0  0  0  0  0  0  0  0  0
   -5.5724   19.2906  -21.6541 O   0  0  0  0  0  0  0  0  0  0  0  0
   -7.0378   10.8273  -25.2382 N   0  0  0  0  0  0  0  0  0  0  0  0
   -8.3198   10.4810  -24.8823 C   0  0  0  0  0  0  0  0  0  0  0  0
   -8.9828   11.2217  -23.9337 N   0  0  0  0  0  0  0  0  0  0  0  0
   -8.3906   12.2827  -23.3516 C   0  0  0  0  0  0  0  0  0  0  0  0
   -7.1028   12.6487  -23.6953 C   0  0  0  0  0  0  0  0  0  0  0  0
   -6.4221   11.9041  -24.6514 C   0  0  0  0  0  0  0  0  0  0  0  0
   -5.1828   12.2179  -25.0082 N   0  0  0  0  0  0  0  0  0  0  0  0
   -6.7622   13.7343  -22.9653 N   0  0  0  0  0  0  0  0  0  0  0  0
   -7.8078   14.0578  -22.1797 C   0  0  0  0  0  0  0  0  0  0  0  0
   -8.8230   13.1617  -22.3975 N   0  0  0  0  0  0  0  0  0  0  0  0
  2  1  1  1  0  0  0
  2  3  1  0  0  0  0
  2  5  1  0  0  0  0
  3  4  1  0  0  0  0
  3 16  1  0  0  0  0
  5  6  1  0  0  0  0
  6  7  1  0  0  0  0
  7  8  1  0  0  0  0
  9  8  1  6  0  0  0
  9 10  1  0  0  0  0
  9 11  1  0  0  0  0
 10 15  1  0  0  0  0
 11 12  1  6  0  0  0
 11 13  1  0  0  0  0
 13 14  1  6  0  0  0
 13 15  1  0  0  0  0
 15 26  1  1  0  0  0
 17 18  2  0  0  0  0
 17 22  1  0  0  0  0
 18 19  1  0  0  0  0
 19 20  2  0  0  0  0
 20 21  1  0  0  0  0
 20 26  1  0  0  0  0
 21 22  2  0  0  0  0
 21 24  1  0  0  0  0
 22 23  1  0  0  0  0
 24 25  2  0  0  0  0
 25 26  1  0  0  0  0
M  END
>  <CHROM.1>
-28.67028344,-163.36966397,175.20325784,-64.39505777,-82.59947473,59.04739687
-167.70141295,-7.86613001,14.19198885,-21.83047450,-0.63426853,-0.59482182
-2.44006921

>  <Name>
ligand

>  <RI>
0

>  <Rbt.Current_Directory>
/home/itssahil/PROJECTS/Mol_Feturizer/New_Systems/rnas/3E5E

>  <Rbt.Executable>
rbdock ($Id: //depot/dev/client3/rdock/2013.1/src/exe/rbdock.cxx#4 $)

>  <Rbt.Library>
libRbt.so (2013.1, Build901 2013/11/27)

>  <Rbt.Parameter_File>
/export/apps/rDock/src/rDock_2013.1_src/data/scripts/dock_solv.prm

>  <Rbt.Receptor>
prm/blind_docking_40.prm

>  <SCORE>
-17.9271

>  <SCORE.INTER>
-13.7801

>  <SCORE.INTER.CONST>
1

>  <SCORE.INTER.POLAR>
0

>  <SCORE.INTER.ROT>
7

>  <SCORE.INTER.SOLV>
14.1516

>  <SCORE.INTER.VDW>
-22.1706

>  <SCORE.INTER.norm>
-0.530003

>  <SCORE.INTRA>
-4.14699

>  <SCORE.INTRA.DIHEDRAL>
-5.46658

>  <SCORE.INTRA.DIHEDRAL.0>
10.1225

>  <SCORE.INTRA.POLAR>
0

>  <SCORE.INTRA.POLAR.0>
0

>  <SCORE.INTRA.REPUL>
0

>  <SCORE.INTRA.REPUL.0>
0

>  <SCORE.INTRA.SOLV>
-0.178371

>  <SCORE.INTRA.SOLV.lig_0>
-49.9393

>  <SCORE.INTRA.VDW>
-1.32451

>  <SCORE.INTRA.VDW.0>
-1.75437

>  <SCORE.INTRA.norm>
-0.1595

>  <SCORE.RESTR>
0

>  <SCORE.RESTR.CAVITY>
0

>  <SCORE.RESTR.norm>
0

>  <SCORE.SYSTEM>
0

>  <SCORE.SYSTEM.CONST>
0

>  <SCORE.SYSTEM.DIHEDRAL>
0

>  <SCORE.SYSTEM.SOLV>
0

>  <SCORE.SYSTEM.norm>
0

>  <SCORE.heavy>
26

>  <SCORE.norm>
-0.689503

>  <RMSD>
8.916

$$$$
ligand
 OpenBabel11021811473D
libRbt.so/2013.1/901 2013/11/27
 26 28  0  0  0  0  0  0  0  0999 V2000
   -5.5811   17.8892  -22.0897 N   0  0  0  0  0  0  0  0  0  0  0  0
   -5.2806   16.7378  -21.2298 C   0  0  2  0  0  0  0  0  0  0  0  0
   -4.5588   15.6879  -22.0328 C   0  0  0  0  0  0  0  0  0  0  0  0
   -4.5337   15.7597  -23.2392 O   0  0  0  0  0  0  0  0  0  0  0  0
   -6.5857   16.1560  -20.6838 C   0  0  0  0  0  0  0  0  0  0  0  0
   -7.4930   15.7583  -21.8466 C   0  0  0  0  0  0  0  0  0  0  0  0
   -9.0469   15.1374  -21.5565 S   0  0  0  0  0  0  0  0  0  0  0  0
  -10.2461   14.0702  -22.3955 C   0  0  0  0  0  0  0  0  0  0  0  0
  -11.6870   14.2004  -21.8868 C   0  0  1  0  0  0  0  0  0  0  0  0
  -12.5904   13.3815  -22.6067 O   0  0  0  0  0  0  0  0  0  0  0  0
  -11.8352   13.7061  -20.4673 C   0  0  1  0  0  0  0  0  0  0  0  0
  -12.9804   14.3639  -19.9713 O   0  0  0  0  0  0  0  0  0  0  0  0
  -12.1547   12.2345  -20.5919 C   0  0  1  0  0  0  0  0  0  0  0  0
  -13.1418   11.8808  -19.6478 O   0  0  0  0  0  0  0  0  0  0  0  0
  -12.7264   12.1158  -21.9882 C   0  0  2  0  0  0  0  0  0  0  0  0
   -3.9444   14.6690  -21.4096 O   0  0  0  0  0  0  0  0  0  0  0  0
   -9.9369   11.4225  -26.3415 N   0  0  0  0  0  0  0  0  0  0  0  0
  -10.4813   12.5895  -25.8601 C   0  0  0  0  0  0  0  0  0  0  0  0
  -11.2019   12.5686  -24.6903 N   0  0  0  0  0  0  0  0  0  0  0  0
  -11.3780   11.4184  -24.0111 C   0  0  0  0  0  0  0  0  0  0  0  0
  -10.8385   10.2341  -24.4768 C   0  0  0  0  0  0  0  0  0  0  0  0
  -10.1107   10.2437  -25.6609 C   0  0  0  0  0  0  0  0  0  0  0  0
   -9.5788    9.1287  -26.1462 N   0  0  0  0  0  0  0  0  0  0  0  0
  -11.1666    9.2498  -23.6103 N   0  0  0  0  0  0  0  0  0  0  0  0
  -11.8920    9.7921  -22.6128 C   0  0  0  0  0  0  0  0  0  0  0  0
  -12.0428   11.1345  -22.8504 N   0  0  0  0  0  0  0  0  0  0  0  0
  2  1  1  6  0  0  0
  2  3  1  0  0  0  0
  2  5  1  0  0  0  0
  3  4  1  0  0  0  0
  3 16  1  0  0  0  0
  5  6  1  0  0  0  0
  6  7  1  0  0  0  0
  7  8  1  0  0  0  0
  9  8  1  6  0  0  0
  9 10  1  0  0  0  0
  9 11  1  0  0  0  0
 10 15  1  0  0  0  0
 11 12  1  6  0  0  0
 11 13  1  0  0  0  0
 13 14  1  1  0  0  0
 13 15  1  0  0  0  0
 15 26  1  6  0  0  0
 17 18  2  0  0  0  0
 17 22  1  0  0  0  0
 18 19  1  0  0  0  0
 19 20  2  0  0  0  0
 20 21  1  0  0  0  0
 20 26  1  0  0  0  0
 21 22  2  0  0  0  0
 21 24  1  0  0  0  0
 22 23  1  0  0  0  0
 24 25  2  0  0  0  0
 25 26  1  0  0  0  0
M  END
>  <CHROM.1>
-13.63219225,57.74500828,-177.48539553,-154.70046233,-160.74776573,177.89281421
1.46115192,-9.67246660,13.29396875,-22.57294876,0.58252812,0.40518909,0.83241154

>  <Name>
ligand

>  <RI>
0

>  <Rbt.Current_Directory>
/home/itssahil/PROJECTS/Mol_Feturizer/New_Systems/rnas/3E5E

>  <Rbt.Executable>
rbdock ($Id: //depot/dev/client3/rdock/2013.1/src/exe/rbdock.cxx#4 $)

>  <Rbt.Library>
libRbt.so (2013.1, Build901 2013/11/27)

>  <Rbt.Parameter_File>
/export/apps/rDock/src/rDock_2013.1_src/data/scripts/dock_solv.prm

>  <Rbt.Receptor>
prm/blind_docking_80.prm

>  <SCORE>
-17.7338

>  <SCORE.INTER>
-15.4864

>  <SCORE.INTER.CONST>
1

>  <SCORE.INTER.POLAR>
0

>  <SCORE.INTER.ROT>
7

>  <SCORE.INTER.SOLV>
10.8587

>  <SCORE.INTER.VDW>
-22.2105

>  <SCORE.INTER.norm>
-0.595632

>  <SCORE.INTRA>
-2.24735

>  <SCORE.INTRA.DIHEDRAL>
-5.91073

>  <SCORE.INTRA.DIHEDRAL.0>
10.1225

>  <SCORE.INTRA.POLAR>
0

>  <SCORE.INTRA.POLAR.0>
0

>  <SCORE.INTRA.REPUL>
0

>  <SCORE.INTRA.REPUL.0>
0

>  <SCORE.INTRA.SOLV>
0.275175

>  <SCORE.INTRA.SOLV.lig_0>
-49.9393

>  <SCORE.INTRA.VDW>
0.570426

>  <SCORE.INTRA.VDW.0>
-1.75437

>  <SCORE.INTRA.norm>
-0.0864365

>  <SCORE.RESTR>
0

>  <SCORE.RESTR.CAVITY>
0

>  <SCORE.RESTR.norm>
0

>  <SCORE.SYSTEM>
0

>  <SCORE.SYSTEM.CONST>
0

>  <SCORE.SYSTEM.DIHEDRAL>
0

>  <SCORE.SYSTEM.SOLV>
0

>  <SCORE.SYSTEM.norm>
0

>  <SCORE.heavy>
26

>  <SCORE.norm>
-0.682069

>  <RMSD>
8.917

$$$$
ligand
 OpenBabel11021811473D
libRbt.so/2013.1/901 2013/11/27
 26 28  0  0  0  0  0  0  0  0999 V2000
   -8.7545   13.9984  -24.2477 N   0  0  0  0  0  0  0  0  0  0  0  0
   -9.3050   15.1153  -23.4700 C   0  0  2  0  0  0  0  0  0  0  0  0
   -8.1839   16.0190  -23.0288 C   0  0  0  0  0  0  0  0  0  0  0  0
   -8.3517   17.2154  -22.9871 O   0  0  0  0  0  0  0  0  0  0  0  0
  -10.0347   14.5692  -22.2415 C   0  0  0  0  0  0  0  0  0  0  0  0
  -11.3932   14.0107  -22.6613 C   0  0  0  0  0  0  0  0  0  0  0  0
  -12.4451   13.3406  -21.5087 S   0  0  0  0  0  0  0  0  0  0  0  0
  -12.4178   12.0161  -20.2734 C   0  0  0  0  0  0  0  0  0  0  0  0
  -11.9869   10.6461  -20.8111 C   0  0  1  0  0  0  0  0  0  0  0  0
  -11.7527    9.7085  -19.7761 O   0  0  0  0  0  0  0  0  0  0  0  0
  -13.0743    9.9885  -21.6276 C   0  0  1  0  0  0  0  0  0  0  0  0
  -12.3978    9.0804  -22.4691 O   0  0  0  0  0  0  0  0  0  0  0  0
  -13.8886    9.1926  -20.6343 C   0  0  1  0  0  0  0  0  0  0  0  0
  -14.2409    7.9478  -21.1975 O   0  0  0  0  0  0  0  0  0  0  0  0
  -12.9268    8.9732  -19.4866 C   0  0  2  0  0  0  0  0  0  0  0  0
   -6.9955   15.4970  -22.6837 O   0  0  0  0  0  0  0  0  0  0  0  0
  -14.9999    7.5405  -14.9190 N   0  0  0  0  0  0  0  0  0  0  0  0
  -14.7033    6.7470  -16.0018 C   0  0  0  0  0  0  0  0  0  0  0  0
  -14.1679    7.3160  -17.1321 N   0  0  0  0  0  0  0  0  0  0  0  0
  -13.9296    8.6409  -17.1886 C   0  0  0  0  0  0  0  0  0  0  0  0
  -14.2193    9.4567  -16.1111 C   0  0  0  0  0  0  0  0  0  0  0  0
  -14.7643    8.8916  -14.9642 C   0  0  0  0  0  0  0  0  0  0  0  0
  -15.0614    9.6386  -13.9081 N   0  0  0  0  0  0  0  0  0  0  0  0
  -13.8847   10.7249  -16.4384 N   0  0  0  0  0  0  0  0  0  0  0  0
  -13.3879   10.7190  -17.6907 C   0  0  0  0  0  0  0  0  0  0  0  0
  -13.4184    9.4366  -18.1761 N   0  0  0  0  0  0  0  0  0  0  0  0
  2  1  1  1  0  0  0
  2  3  1  0  0  0  0
  2  5  1  0  0  0  0
  3  4  1  0  0  0  0
  3 16  1  0  0  0  0
  5  6  1  0  0  0  0
  6  7  1  0  0  0  0
  7  8  1  0  0  0  0
  9  8  1  1  0  0  0
  9 10  1  0  0  0  0
  9 11  1  0  0  0  0
 10 15  1  0  0  0  0
 11 12  1  6  0  0  0
 11 13  1  0  0  0  0
 13 14  1  6  0  0  0
 13 15  1  0  0  0  0
 15 26  1  1  0  0  0
 17 18  2  0  0  0  0
 17 22  1  0  0  0  0
 18 19  1  0  0  0  0
 19 20  2  0  0  0  0
 20 21  1  0  0  0  0
 20 26  1  0  0  0  0
 21 22  2  0  0  0  0
 21 24  1  0  0  0  0
 22 23  1  0  0  0  0
 24 25  2  0  0  0  0
 25 26  1  0  0  0  0
M  END
>  <CHROM.1>
143.56263740,-76.90249605,-179.56226266,-57.41480668,-52.58008070,169.49243628
-139.27930383,-12.27085938,11.18491541,-19.87302535,0.31414642,-1.02722322
-1.98369625

>  <Name>
ligand

>  <RI>
0

>  <Rbt.Current_Directory>
/home/itssahil/PROJECTS/Mol_Feturizer/New_Systems/rnas/3E5E

>  <Rbt.Executable>
rbdock ($Id: //depot/dev/client3/rdock/2013.1/src/exe/rbdock.cxx#4 $)

>  <Rbt.Library>
libRbt.so (2013.1, Build901 2013/11/27)

>  <Rbt.Parameter_File>
/export/apps/rDock/src/rDock_2013.1_src/data/scripts/dock_solv.prm

>  <Rbt.Receptor>
prm/pocket_docking_8.prm

>  <SCORE>
-17.9732

>  <SCORE.INTER>
-14.5245

>  <SCORE.INTER.CONST>
1

>  <SCORE.INTER.POLAR>
0

>  <SCORE.INTER.ROT>
7

>  <SCORE.INTER.SOLV>
11.7917

>  <SCORE.INTER.VDW>
-21.8803

>  <SCORE.INTER.norm>
-0.558636

>  <SCORE.INTRA>
-3.44866

>  <SCORE.INTRA.DIHEDRAL>
-5.78042

>  <SCORE.INTRA.DIHEDRAL.0>
10.1225

>  <SCORE.INTRA.POLAR>
0

>  <SCORE.INTRA.POLAR.0>
0

>  <SCORE.INTRA.REPUL>
0

>  <SCORE.INTRA.REPUL.0>
0

>  <SCORE.INTRA.SOLV>
-0.0518451

>  <SCORE.INTRA.SOLV.lig_0>
-49.9393

>  <SCORE.INTRA.VDW>
-0.532525

>  <SCORE.INTRA.VDW.0>
-1.75437

>  <SCORE.INTRA.norm>
-0.132641

>  <SCORE.RESTR>
0

>  <SCORE.RESTR.CAVITY>
0

>  <SCORE.RESTR.norm>
0

>  <SCORE.SYSTEM>
0

>  <SCORE.SYSTEM.CONST>
0

>  <SCORE.SYSTEM.DIHEDRAL>
0

>  <SCORE.SYSTEM.SOLV>
0

>  <SCORE.SYSTEM.norm>
0

>  <SCORE.heavy>
26

>  <SCORE.norm>
-0.691276

>  <RMSD>
8.920

$$$$
ligand
 OpenBabel11021811473D
libRbt.so/2013.1/901 2013/11/27
 26 28  0  0  0  0  0  0  0  0999 V2000
   -7.9377   15.9387  -18.6904 N   0  0  0  0  0  0  0  0  0  0  0  0
   -7.5660   15.4880  -20.0374 C   0  0  2  0  0  0  0  0  0  0  0  0
   -6.6222   16.4851  -20.6565 C   0  0  0  0  0  0  0  0  0  0  0  0
   -7.0269   17.5732  -20.9932 O   0  0  0  0  0  0  0  0  0  0  0  0
   -8.8238   15.3711  -20.9000 C   0  0  0  0  0  0  0  0  0  0  0  0
   -8.4463   14.8462  -22.2841 C   0  0  0  0  0  0  0  0  0  0  0  0
   -9.6417   14.5678  -23.4578 S   0  0  0  0  0  0  0  0  0  0  0  0
  -11.0408   13.4455  -23.7115 C   0  0  0  0  0  0  0  0  0  0  0  0
  -12.2170   13.6591  -22.7510 C   0  0  1  0  0  0  0  0  0  0  0  0
  -13.1629   12.6072  -22.8124 O   0  0  0  0  0  0  0  0  0  0  0  0
  -11.7803   13.6414  -21.3051 C   0  0  1  0  0  0  0  0  0  0  0  0
  -12.7764   14.3647  -20.6159 O   0  0  0  0  0  0  0  0  0  0  0  0
  -11.8721   12.1939  -20.8817 C   0  0  1  0  0  0  0  0  0  0  0  0
  -12.3978   12.1133  -19.5748 O   0  0  0  0  0  0  0  0  0  0  0  0
  -12.8628   11.6030  -21.8614 C   0  0  2  0  0  0  0  0  0  0  0  0
   -5.3303   16.1654  -20.8376 O   0  0  0  0  0  0  0  0  0  0  0  0
  -14.1710    7.5455  -24.8679 N   0  0  0  0  0  0  0  0  0  0  0  0
  -15.0037    8.4648  -24.2749 C   0  0  0  0  0  0  0  0  0  0  0  0
  -14.4664    9.4649  -23.5008 N   0  0  0  0  0  0  0  0  0  0  0  0
  -13.1344    9.5540  -23.3192 C   0  0  0  0  0  0  0  0  0  0  0  0
  -12.2792    8.6409  -23.9069 C   0  0  0  0  0  0  0  0  0  0  0  0
  -12.8128    7.6234  -24.6892 C   0  0  0  0  0  0  0  0  0  0  0  0
  -12.0285    6.7230  -25.2687 N   0  0  0  0  0  0  0  0  0  0  0  0
  -11.0129    8.9633  -23.5609 N   0  0  0  0  0  0  0  0  0  0  0  0
  -11.0569   10.0583  -22.7772 C   0  0  0  0  0  0  0  0  0  0  0  0
  -12.3654   10.4323  -22.6071 N   0  0  0  0  0  0  0  0  0  0  0  0
  2  1  1  1  0  0  0
  2  3  1  0  0  0  0
  2  5  1  0  0  0  0
  3  4  1  0  0  0  0
  3 16  1  0  0  0  0
  5  6  1  0  0  0  0
  6  7  1  0  0  0  0
  7  8  1  0  0  0  0
  9  8  1  6  0  0  0
  9 10  1  0  0  0  0
  9 11  1  0  0  0  0
 10 15  1  0  0  0  0
 11 12  1  1  0  0  0
 11 13  1  0  0  0  0
 13 14  1  1  0  0  0
 13 15  1  0  0  0  0
 15 26  1  6  0  0  0
 17 18  2  0  0  0  0
 17 22  1  0  0  0  0
 18 19  1  0  0  0  0
 19 20  2  0  0  0  0
 20 21  1  0  0  0  0
 20 26  1  0  0  0  0
 21 22  2  0  0  0  0
 21 24  1  0  0  0  0
 22 23  1  0  0  0  0
 24 25  2  0  0  0  0
 25 26  1  0  0  0  0
M  END
>  <CHROM.1>
-70.54012886,-177.64012760,178.28134289,-66.68090639,68.18385012,-168.47506557
-76.16199009,-10.95056294,12.44059715,-22.31441389,0.92307078,0.33030502
0.64598164

>  <Name>
ligand

>  <RI>
0

>  <Rbt.Current_Directory>
/home/itssahil/PROJECTS/Mol_Feturizer/New_Systems/rnas/3E5E

>  <Rbt.Executable>
rbdock ($Id: //depot/dev/client3/rdock/2013.1/src/exe/rbdock.cxx#4 $)

>  <Rbt.Library>
libRbt.so (2013.1, Build901 2013/11/27)

>  <Rbt.Parameter_File>
/export/apps/rDock/src/rDock_2013.1_src/data/scripts/dock_solv.prm

>  <Rbt.Receptor>
prm/pocket_docking_8.prm

>  <SCORE>
-20.807

>  <SCORE.INTER>
-16.7821

>  <SCORE.INTER.CONST>
1

>  <SCORE.INTER.POLAR>
0

>  <SCORE.INTER.ROT>
7

>  <SCORE.INTER.SOLV>
13.5597

>  <SCORE.INTER.VDW>
-23.9747

>  <SCORE.INTER.norm>
-0.645466

>  <SCORE.INTRA>
-4.0249

>  <SCORE.INTRA.DIHEDRAL>
-6.83553

>  <SCORE.INTRA.DIHEDRAL.0>
10.1225

>  <SCORE.INTRA.POLAR>
0

>  <SCORE.INTRA.POLAR.0>
0

>  <SCORE.INTRA.REPUL>
0

>  <SCORE.INTRA.REPUL.0>
0

>  <SCORE.INTRA.SOLV>
-0.464914

>  <SCORE.INTRA.SOLV.lig_0>
-49.9393

>  <SCORE.INTRA.VDW>
-0.374676

>  <SCORE.INTRA.VDW.0>
-1.75437

>  <SCORE.INTRA.norm>
-0.154804

>  <SCORE.RESTR>
0

>  <SCORE.RESTR.CAVITY>
0

>  <SCORE.RESTR.norm>
0

>  <SCORE.SYSTEM>
0

>  <SCORE.SYSTEM.CONST>
0

>  <SCORE.SYSTEM.DIHEDRAL>
0

>  <SCORE.SYSTEM.SOLV>
0

>  <SCORE.SYSTEM.norm>
0

>  <SCORE.heavy>
26

>  <SCORE.norm>
-0.80027

>  <RMSD>
8.923

$$$$
ligand
 OpenBabel11021811473D
libRbt.so/2013.1/901 2013/11/27
 26 28  0  0  0  0  0  0  0  0999 V2000
   -7.3889   16.4872  -22.4147 N   0  0  0  0  0  0  0  0  0  0  0  0
   -7.6626   16.2449  -20.9928 C   0  0  2  0  0  0  0  0  0  0  0  0
   -6.3826   15.8709  -20.2929 C   0  0  0  0  0  0  0  0  0  0  0  0
   -5.4045   15.5742  -20.9381 O   0  0  0  0  0  0  0  0  0  0  0  0
   -8.6720   15.1037  -20.8560 C   0  0  0  0  0  0  0  0  0  0  0  0
   -9.0787   14.9549  -19.3911 C   0  0  0  0  0  0  0  0  0  0  0  0
  -10.5031   14.1319  -18.9694 S   0  0  0  0  0  0  0  0  0  0  0  0
  -11.0837   12.4197  -18.8589 C   0  0  0  0  0  0  0  0  0  0  0  0
  -10.9127   11.6000  -20.1436 C   0  0  1  0  0  0  0  0  0  0  0  0
  -11.1799   10.2235  -19.9462 O   0  0  0  0  0  0  0  0  0  0  0  0
  -11.9127   11.9927  -21.2054 C   0  0  1  0  0  0  0  0  0  0  0  0
  -11.3202   11.6019  -22.4247 O   0  0  0  0  0  0  0  0  0  0  0  0
  -13.1151   11.1105  -20.9624 C   0  0  1  0  0  0  0  0  0  0  0  0
  -13.6390   10.6707  -22.1964 O   0  0  0  0  0  0  0  0  0  0  0  0
  -12.5392    9.9308  -20.2094 C   0  0  2  0  0  0  0  0  0  0  0  0
   -6.3271   15.8641  -18.9510 O   0  0  0  0  0  0  0  0  0  0  0  0
  -14.3662    6.2359  -17.0120 N   0  0  0  0  0  0  0  0  0  0  0  0
  -13.8358    6.0814  -18.2709 C   0  0  0  0  0  0  0  0  0  0  0  0
  -13.4161    7.1878  -18.9694 N   0  0  0  0  0  0  0  0  0  0  0  0
  -13.5175    8.4195  -18.4329 C   0  0  0  0  0  0  0  0  0  0  0  0
  -14.0468    8.5972  -17.1685 C   0  0  0  0  0  0  0  0  0  0  0  0
  -14.4774    7.4849  -16.4548 C   0  0  0  0  0  0  0  0  0  0  0  0
  -14.9956    7.6104  -15.2393 N   0  0  0  0  0  0  0  0  0  0  0  0
  -14.0300    9.9187  -16.8844 N   0  0  0  0  0  0  0  0  0  0  0  0
  -13.4977   10.5686  -17.9377 C   0  0  0  0  0  0  0  0  0  0  0  0
  -13.1842    9.6559  -18.9123 N   0  0  0  0  0  0  0  0  0  0  0  0
  2  1  1  6  0  0  0
  2  3  1  0  0  0  0
  2  5  1  0  0  0  0
  3  4  1  0  0  0  0
  3 16  1  0  0  0  0
  5  6  1  0  0  0  0
  6  7  1  0  0  0  0
  7  8  1  0  0  0  0
  9  8  1  1  0  0  0
  9 10  1  0  0  0  0
  9 11  1  0  0  0  0
 10 15  1  0  0  0  0
 11 12  1  6  0  0  0
 11 13  1  0  0  0  0
 13 14  1  6  0  0  0
 13 15  1  0  0  0  0
 15 26  1  1  0  0  0
 17 18  2  0  0  0  0
 17 22  1  0  0  0  0
 18 19  1  0  0  0  0
 19 20  2  0  0  0  0
 20 21  1  0  0  0  0
 20 26  1  0  0  0  0
 21 22  2  0  0  0  0
 21 24  1  0  0  0  0
 22 23  1  0  0  0  0
 24 25  2  0  0  0  0
 25 26  1  0  0  0  0
M  END
>  <CHROM.1>
-13.48866312,-173.61637250,160.99110216,75.81476479,-54.57121179,170.57835408
-103.70148534,-11.27456675,11.58692576,-19.42987147,0.38132867,-0.82842109
-1.42934690

>  <Name>
ligand

>  <RI>
0

>  <Rbt.Current_Directory>
/home/itssahil/PROJECTS/Mol_Feturizer/New_Systems/rnas/3E5E

>  <Rbt.Executable>
rbdock ($Id: //depot/dev/client3/rdock/2013.1/src/exe/rbdock.cxx#4 $)

>  <Rbt.Library>
libRbt.so (2013.1, Build901 2013/11/27)

>  <Rbt.Parameter_File>
/export/apps/rDock/src/rDock_2013.1_src/data/scripts/dock_solv.prm

>  <Rbt.Receptor>
prm/pocket_docking_3.prm

>  <SCORE>
-20.9101

>  <SCORE.INTER>
-17.7912

>  <SCORE.INTER.CONST>
1

>  <SCORE.INTER.POLAR>
0

>  <SCORE.INTER.ROT>
7

>  <SCORE.INTER.SOLV>
9.36163

>  <SCORE.INTER.VDW>
-23.248

>  <SCORE.INTER.norm>
-0.684278

>  <SCORE.INTRA>
-3.12014

>  <SCORE.INTRA.DIHEDRAL>
-5.36253

>  <SCORE.INTRA.DIHEDRAL.0>
10.1225

>  <SCORE.INTRA.POLAR>
0

>  <SCORE.INTRA.POLAR.0>
0

>  <SCORE.INTRA.REPUL>
0

>  <SCORE.INTRA.REPUL.0>
0

>  <SCORE.INTRA.SOLV>
-0.646194

>  <SCORE.INTRA.SOLV.lig_0>
-49.9393

>  <SCORE.INTRA.VDW>
-0.115777

>  <SCORE.INTRA.VDW.0>
-1.75437

>  <SCORE.INTRA.norm>
-0.120005

>  <SCORE.RESTR>
0.00122592

>  <SCORE.RESTR.CAVITY>
0.00122592

>  <SCORE.RESTR.norm>
4.71507e-05

>  <SCORE.SYSTEM>
0

>  <SCORE.SYSTEM.CONST>
0

>  <SCORE.SYSTEM.DIHEDRAL>
0

>  <SCORE.SYSTEM.SOLV>
0

>  <SCORE.SYSTEM.norm>
0

>  <SCORE.heavy>
26

>  <SCORE.norm>
-0.804236

>  <RMSD>
8.929

$$$$
ligand
 OpenBabel11021811473D
libRbt.so/2013.1/901 2013/11/27
 26 28  0  0  0  0  0  0  0  0999 V2000
   -7.0779   17.5157  -21.6154 N   0  0  0  0  0  0  0  0  0  0  0  0
   -7.4966   16.6242  -20.5266 C   0  0  2  0  0  0  0  0  0  0  0  0
   -6.3096   15.8344  -20.0415 C   0  0  0  0  0  0  0  0  0  0  0  0
   -6.2395   15.4974  -18.8828 O   0  0  0  0  0  0  0  0  0  0  0  0
   -8.5732   15.6660  -21.0389 C   0  0  0  0  0  0  0  0  0  0  0  0
   -9.0563   14.7807  -19.8916 C   0  0  0  0  0  0  0  0  0  0  0  0
  -10.3984   13.7600  -20.0943 S   0  0  0  0  0  0  0  0  0  0  0  0
  -10.9746   12.1582  -19.4751 C   0  0  0  0  0  0  0  0  0  0  0  0
  -10.8400   10.9994  -20.4705 C   0  0  1  0  0  0  0  0  0  0  0  0
  -11.1504    9.7471  -19.8873 O   0  0  0  0  0  0  0  0  0  0  0  0
  -11.8346   11.1045  -21.6025 C   0  0  1  0  0  0  0  0  0  0  0  0
  -11.2643   10.3611  -22.6572 O   0  0  0  0  0  0  0  0  0  0  0  0
  -13.0632   10.3695  -21.1194 C   0  0  1  0  0  0  0  0  0  0  0  0
  -13.6104    9.6122  -22.1766 O   0  0  0  0  0  0  0  0  0  0  0  0
  -12.5205    9.4366  -20.0585 C   0  0  2  0  0  0  0  0  0  0  0  0
   -5.3262   15.5058  -20.8952 O   0  0  0  0  0  0  0  0  0  0  0  0
  -14.3723    6.8794  -15.9058 N   0  0  0  0  0  0  0  0  0  0  0  0
  -13.8468    6.3519  -17.0615 C   0  0  0  0  0  0  0  0  0  0  0  0
  -13.4190    7.1959  -18.0578 N   0  0  0  0  0  0  0  0  0  0  0  0
  -13.5076    8.5325  -17.9125 C   0  0  0  0  0  0  0  0  0  0  0  0
  -14.0318    9.0838  -16.7585 C   0  0  0  0  0  0  0  0  0  0  0  0
  -14.4705    8.2387  -15.7459 C   0  0  0  0  0  0  0  0  0  0  0  0
  -14.9842    8.7255  -14.6230 N   0  0  0  0  0  0  0  0  0  0  0  0
  -14.0021   10.4297  -16.8809 N   0  0  0  0  0  0  0  0  0  0  0  0
  -13.4668   10.7312  -18.0799 C   0  0  0  0  0  0  0  0  0  0  0  0
  -13.1643    9.5668  -18.7385 N   0  0  0  0  0  0  0  0  0  0  0  0
  2  1  1  6  0  0  0
  2  3  1  0  0  0  0
  2  5  1  0  0  0  0
  3  4  1  0  0  0  0
  3 16  1  0  0  0  0
  5  6  1  0  0  0  0
  6  7  1  0  0  0  0
  7  8  1  0  0  0  0
  9  8  1  1  0  0  0
  9 10  1  0  0  0  0
  9 11  1  0  0  0  0
 10 15  1  0  0  0  0
 11 12  1  6  0  0  0
 11 13  1  0  0  0  0
 13 14  1  6  0  0  0
 13 15  1  0  0  0  0
 15 26  1  1  0  0  0
 17 18  2  0  0  0  0
 17 22  1  0  0  0  0
 18 19  1  0  0  0  0
 19 20  2  0  0  0  0
 20 21  1  0  0  0  0
 20 26  1  0  0  0  0
 21 22  2  0  0  0  0
 21 24  1  0  0  0  0
 22 23  1  0  0  0  0
 24 25  2  0  0  0  0
 25 26  1  0  0  0  0
M  END
>  <CHROM.1>
148.64430612,-177.40851190,171.57982474,148.55826822,-104.43831045,172.84004430
-102.17966912,-11.21416939,11.51774787,-19.35610323,-0.26647554,0.85385086
1.50975725

>  <Name>
ligand

>  <RI>
0

>  <Rbt.Current_Directory>
/home/itssahil/PROJECTS/Mol_Feturizer/New_Systems/rnas/3E5E

>  <Rbt.Executable>
rbdock ($Id: //depot/dev/client3/rdock/2013.1/src/exe/rbdock.cxx#4 $)

>  <Rbt.Library>
libRbt.so (2013.1, Build901 2013/11/27)

>  <Rbt.Parameter_File>
/export/apps/rDock/src/rDock_2013.1_src/data/scripts/dock_solv.prm

>  <Rbt.Receptor>
prm/pocket_docking_7.prm

>  <SCORE>
-20.106

>  <SCORE.INTER>
-17.8019

>  <SCORE.INTER.CONST>
1

>  <SCORE.INTER.POLAR>
0

>  <SCORE.INTER.ROT>
7

>  <SCORE.INTER.SOLV>
12.1353

>  <SCORE.INTER.VDW>
-24.1797

>  <SCORE.INTER.norm>
-0.684687

>  <SCORE.INTRA>
-2.30413

>  <SCORE.INTRA.DIHEDRAL>
-3.73929

>  <SCORE.INTRA.DIHEDRAL.0>
10.1225

>  <SCORE.INTRA.POLAR>
0

>  <SCORE.INTRA.POLAR.0>
0

>  <SCORE.INTRA.REPUL>
0

>  <SCORE.INTRA.REPUL.0>
0

>  <SCORE.INTRA.SOLV>
-0.626502

>  <SCORE.INTRA.SOLV.lig_0>
-49.9393

>  <SCORE.INTRA.VDW>
-0.121233

>  <SCORE.INTRA.VDW.0>
-1.75437

>  <SCORE.INTRA.norm>
-0.0886203

>  <SCORE.RESTR>
0

>  <SCORE.RESTR.CAVITY>
0

>  <SCORE.RESTR.norm>
0

>  <SCORE.SYSTEM>
0

>  <SCORE.SYSTEM.CONST>
0

>  <SCORE.SYSTEM.DIHEDRAL>
0

>  <SCORE.SYSTEM.SOLV>
0

>  <SCORE.SYSTEM.norm>
0

>  <SCORE.heavy>
26

>  <SCORE.norm>
-0.773307

>  <RMSD>
8.942

$$$$
ligand
 OpenBabel11021811473D
libRbt.so/2013.1/901 2013/11/27
 26 28  0  0  0  0  0  0  0  0999 V2000
  -11.4555   12.8369  -19.1635 N   0  0  0  0  0  0  0  0  0  0  0  0
  -11.3836   13.0043  -20.6203 C   0  0  2  0  0  0  0  0  0  0  0  0
  -10.1538   13.7988  -20.9731 C   0  0  0  0  0  0  0  0  0  0  0  0
   -9.6440   14.5224  -20.1500 O   0  0  0  0  0  0  0  0  0  0  0  0
  -12.6288   13.7459  -21.1095 C   0  0  0  0  0  0  0  0  0  0  0  0
  -12.6495   13.7562  -22.6369 C   0  0  0  0  0  0  0  0  0  0  0  0
  -12.7093   12.3006  -23.5097 S   0  0  0  0  0  0  0  0  0  0  0  0
  -12.9299   10.5357  -23.1666 C   0  0  0  0  0  0  0  0  0  0  0  0
  -14.3905   10.0744  -23.0909 C   0  0  1  0  0  0  0  0  0  0  0  0
  -14.7826    9.3320  -24.2311 O   0  0  0  0  0  0  0  0  0  0  0  0
  -14.6220    9.1048  -21.9562 C   0  0  1  0  0  0  0  0  0  0  0  0
  -15.9997    9.2041  -21.6689 O   0  0  0  0  0  0  0  0  0  0  0  0
  -14.3614    7.7376  -22.5444 C   0  0  1  0  0  0  0  0  0  0  0  0
  -15.3177    6.8210  -22.0586 O   0  0  0  0  0  0  0  0  0  0  0  0
  -14.5716    7.9474  -24.0284 C   0  0  2  0  0  0  0  0  0  0  0  0
   -9.6235   13.7062  -22.2036 O   0  0  0  0  0  0  0  0  0  0  0  0
  -10.4535    4.7778  -24.4850 N   0  0  0  0  0  0  0  0  0  0  0  0
  -11.3282    4.8850  -23.4297 C   0  0  0  0  0  0  0  0  0  0  0  0
  -12.3543    5.7969  -23.4905 N   0  0  0  0  0  0  0  0  0  0  0  0
  -12.5121    6.5838  -24.5727 C   0  0  0  0  0  0  0  0  0  0  0  0
  -11.6448    6.4917  -25.6449 C   0  0  0  0  0  0  0  0  0  0  0  0
  -10.6015    5.5749  -25.5921 C   0  0  0  0  0  0  0  0  0  0  0  0
   -9.7432    5.4563  -26.5975 N   0  0  0  0  0  0  0  0  0  0  0  0
  -12.0321    7.3869  -26.5809 N   0  0  0  0  0  0  0  0  0  0  0  0
  -13.1230    8.0304  -26.1214 C   0  0  0  0  0  0  0  0  0  0  0  0
  -13.4287    7.5533  -24.8724 N   0  0  0  0  0  0  0  0  0  0  0  0
  2  1  1  1  0  0  0
  2  3  1  0  0  0  0
  2  5  1  0  0  0  0
  3  4  1  0  0  0  0
  3 16  1  0  0  0  0
  5  6  1  0  0  0  0
  6  7  1  0  0  0  0
  7  8  1  0  0  0  0
  9  8  1  6  0  0  0
  9 10  1  0  0  0  0
  9 11  1  0  0  0  0
 10 15  1  0  0  0  0
 11 12  1  6  0  0  0
 11 13  1  0  0  0  0
 13 14  1  1  0  0  0
 13 15  1  0  0  0  0
 15 26  1  6  0  0  0
 17 18  2  0  0  0  0
 17 22  1  0  0  0  0
 18 19  1  0  0  0  0
 19 20  2  0  0  0  0
 20 21  1  0  0  0  0
 20 26  1  0  0  0  0
 21 22  2  0  0  0  0
 21 24  1  0  0  0  0
 22 23  1  0  0  0  0
 24 25  2  0  0  0  0
 25 26  1  0  0  0  0
M  END
>  <CHROM.1>
-22.66244056,-172.43318527,61.07845308,7.92563704,85.80722574,106.06763659
147.28513988,-12.51660223,9.50322950,-23.20496567,-1.47056669,-0.26523010
-2.65722238

>  <Name>
ligand

>  <RI>
0

>  <Rbt.Current_Directory>
/home/itssahil/PROJECTS/Mol_Feturizer/New_Systems/rnas/3E5E

>  <Rbt.Executable>
rbdock ($Id: //depot/dev/client3/rdock/2013.1/src/exe/rbdock.cxx#4 $)

>  <Rbt.Library>
libRbt.so (2013.1, Build901 2013/11/27)

>  <Rbt.Parameter_File>
/export/apps/rDock/src/rDock_2013.1_src/data/scripts/dock_solv.prm

>  <Rbt.Receptor>
prm/blind_docking_100.prm

>  <SCORE>
-16.0292

>  <SCORE.INTER>
-15.3944

>  <SCORE.INTER.CONST>
1

>  <SCORE.INTER.POLAR>
0

>  <SCORE.INTER.ROT>
7

>  <SCORE.INTER.SOLV>
15.6769

>  <SCORE.INTER.VDW>
-23.7552

>  <SCORE.INTER.norm>
-0.592093

>  <SCORE.INTRA>
-0.634826

>  <SCORE.INTRA.DIHEDRAL>
0.46157

>  <SCORE.INTRA.DIHEDRAL.0>
10.1225

>  <SCORE.INTRA.POLAR>
0

>  <SCORE.INTRA.POLAR.0>
0

>  <SCORE.INTRA.REPUL>
0

>  <SCORE.INTRA.REPUL.0>
0

>  <SCORE.INTRA.SOLV>
-0.46905

>  <SCORE.INTRA.SOLV.lig_0>
-49.9393

>  <SCORE.INTRA.VDW>
-0.631086

>  <SCORE.INTRA.VDW.0>
-1.75437

>  <SCORE.INTRA.norm>
-0.0244164

>  <SCORE.RESTR>
0

>  <SCORE.RESTR.CAVITY>
0

>  <SCORE.RESTR.norm>
0

>  <SCORE.SYSTEM>
0

>  <SCORE.SYSTEM.CONST>
0

>  <SCORE.SYSTEM.DIHEDRAL>
0

>  <SCORE.SYSTEM.SOLV>
0

>  <SCORE.SYSTEM.norm>
0

>  <SCORE.heavy>
26

>  <SCORE.norm>
-0.61651

>  <RMSD>
8.957

$$$$
ligand
 OpenBabel11021811473D
libRbt.so/2013.1/901 2013/11/27
 26 28  0  0  0  0  0  0  0  0999 V2000
   -7.6336   15.8227  -20.3607 N   0  0  0  0  0  0  0  0  0  0  0  0
   -8.4067   15.6538  -19.1240 C   0  0  2  0  0  0  0  0  0  0  0  0
   -7.5025   15.8553  -17.9366 C   0  0  0  0  0  0  0  0  0  0  0  0
   -6.3948   15.3716  -17.9304 O   0  0  0  0  0  0  0  0  0  0  0  0
   -8.9985   14.2439  -19.0823 C   0  0  0  0  0  0  0  0  0  0  0  0
   -9.9943   14.0743  -20.2283 C   0  0  0  0  0  0  0  0  0  0  0  0
  -10.5432   12.5303  -20.6742 S   0  0  0  0  0  0  0  0  0  0  0  0
  -11.2376   11.0654  -19.8662 C   0  0  0  0  0  0  0  0  0  0  0  0
  -12.7389   11.1497  -19.5652 C   0  0  1  0  0  0  0  0  0  0  0  0
  -13.5306   11.0643  -20.7361 O   0  0  0  0  0  0  0  0  0  0  0  0
  -13.2200    9.9783  -18.7419 C   0  0  1  0  0  0  0  0  0  0  0  0
  -14.3903   10.4395  -18.1030 O   0  0  0  0  0  0  0  0  0  0  0  0
  -13.6178    8.9239  -19.7484 C   0  0  1  0  0  0  0  0  0  0  0  0
  -14.8055    8.2891  -19.3276 O   0  0  0  0  0  0  0  0  0  0  0  0
  -13.8902    9.7222  -21.0050 C   0  0  2  0  0  0  0  0  0  0  0  0
   -7.9270   16.5703  -16.8818 O   0  0  0  0  0  0  0  0  0  0  0  0
  -13.9340    6.8589  -25.3654 N   0  0  0  0  0  0  0  0  0  0  0  0
  -14.9213    6.9723  -24.4155 C   0  0  0  0  0  0  0  0  0  0  0  0
  -14.7169    7.7743  -23.3187 N   0  0  0  0  0  0  0  0  0  0  0  0
  -13.5615    8.4505  -23.1665 C   0  0  0  0  0  0  0  0  0  0  0  0
  -12.5562    8.3514  -24.1099 C   0  0  0  0  0  0  0  0  0  0  0  0
  -12.7516    7.5402  -25.2215 C   0  0  0  0  0  0  0  0  0  0  0  0
  -11.8112    7.4131  -26.1495 N   0  0  0  0  0  0  0  0  0  0  0  0
  -11.5222    9.1245  -23.7094 N   0  0  0  0  0  0  0  0  0  0  0  0
  -11.8602    9.7079  -22.5429 C   0  0  0  0  0  0  0  0  0  0  0  0
  -13.1174    9.2927  -22.1850 N   0  0  0  0  0  0  0  0  0  0  0  0
  2  1  1  6  0  0  0
  2  3  1  0  0  0  0
  2  5  1  0  0  0  0
  3  4  1  0  0  0  0
  3 16  1  0  0  0  0
  5  6  1  0  0  0  0
  6  7  1  0  0  0  0
  7  8  1  0  0  0  0
  9  8  1  6  0  0  0
  9 10  1  0  0  0  0
  9 11  1  0  0  0  0
 10 15  1  0  0  0  0
 11 12  1  6  0  0  0
 11 13  1  0  0  0  0
 13 14  1  1  0  0  0
 13 15  1  0  0  0  0
 15 26  1  6  0  0  0
 17 18  2  0  0  0  0
 17 22  1  0  0  0  0
 18 19  1  0  0  0  0
 19 20  2  0  0  0  0
 20 21  1  0  0  0  0
 20 26  1  0  0  0  0
 21 22  2  0  0  0  0
 21 24  1  0  0  0  0
 22 23  1  0  0  0  0
 24 25  2  0  0  0  0
 25 26  1  0  0  0  0
M  END
>  <CHROM.1>
-42.81695189,-64.19167956,165.58168103,49.82724787,80.96929630,71.56359360
-144.38825827,-11.66344856,11.01679803,-21.00811099,-0.84627714,-0.65820211
-2.05306462

>  <Name>
ligand

>  <RI>
0

>  <Rbt.Current_Directory>
/home/itssahil/PROJECTS/Mol_Feturizer/New_Systems/rnas/3E5E

>  <Rbt.Executable>
rbdock ($Id: //depot/dev/client3/rdock/2013.1/src/exe/rbdock.cxx#4 $)

>  <Rbt.Library>
libRbt.so (2013.1, Build901 2013/11/27)

>  <Rbt.Parameter_File>
/export/apps/rDock/src/rDock_2013.1_src/data/scripts/dock_solv.prm

>  <Rbt.Receptor>
prm/pocket_docking_8.prm

>  <SCORE>
-22.1637

>  <SCORE.INTER>
-19.1481

>  <SCORE.INTER.CONST>
1

>  <SCORE.INTER.POLAR>
0

>  <SCORE.INTER.ROT>
7

>  <SCORE.INTER.SOLV>
10.6662

>  <SCORE.INTER.VDW>
-24.5874

>  <SCORE.INTER.norm>
-0.736464

>  <SCORE.INTRA>
-3.01567

>  <SCORE.INTRA.DIHEDRAL>
-5.20962

>  <SCORE.INTRA.DIHEDRAL.0>
10.1225

>  <SCORE.INTRA.POLAR>
0

>  <SCORE.INTRA.POLAR.0>
0

>  <SCORE.INTRA.REPUL>
0

>  <SCORE.INTRA.REPUL.0>
0

>  <SCORE.INTRA.SOLV>
0.196854

>  <SCORE.INTRA.SOLV.lig_0>
-49.9393

>  <SCORE.INTRA.VDW>
-0.509286

>  <SCORE.INTRA.VDW.0>
-1.75437

>  <SCORE.INTRA.norm>
-0.115987

>  <SCORE.RESTR>
0

>  <SCORE.RESTR.CAVITY>
0

>  <SCORE.RESTR.norm>
0

>  <SCORE.SYSTEM>
0

>  <SCORE.SYSTEM.CONST>
0

>  <SCORE.SYSTEM.DIHEDRAL>
0

>  <SCORE.SYSTEM.SOLV>
0

>  <SCORE.SYSTEM.norm>
0

>  <SCORE.heavy>
26

>  <SCORE.norm>
-0.852452

>  <RMSD>
8.957

$$$$
ligand
 OpenBabel11021811473D
libRbt.so/2013.1/901 2013/11/27
 26 28  0  0  0  0  0  0  0  0999 V2000
   -6.0469   17.8574  -21.6911 N   0  0  0  0  0  0  0  0  0  0  0  0
   -7.3252   17.1983  -21.3961 C   0  0  2  0  0  0  0  0  0  0  0  0
   -7.1852   16.3710  -20.1455 C   0  0  0  0  0  0  0  0  0  0  0  0
   -8.0962   16.3127  -19.3532 O   0  0  0  0  0  0  0  0  0  0  0  0
   -7.7132   16.2933  -22.5667 C   0  0  0  0  0  0  0  0  0  0  0  0
   -9.1233   15.7490  -22.3453 C   0  0  0  0  0  0  0  0  0  0  0  0
   -9.7450   14.5276  -23.3482 S   0  0  0  0  0  0  0  0  0  0  0  0
  -11.2731   13.5684  -23.5087 C   0  0  0  0  0  0  0  0  0  0  0  0
  -12.2672   13.7472  -22.3547 C   0  0  1  0  0  0  0  0  0  0  0  0
  -13.1781   12.6679  -22.2539 O   0  0  0  0  0  0  0  0  0  0  0  0
  -11.5819   13.7422  -21.0087 C   0  0  1  0  0  0  0  0  0  0  0  0
  -12.4613   14.4359  -20.1508 O   0  0  0  0  0  0  0  0  0  0  0  0
  -11.5556   12.2926  -20.5833 C   0  0  1  0  0  0  0  0  0  0  0  0
  -11.8399   12.1965  -19.2046 O   0  0  0  0  0  0  0  0  0  0  0  0
  -12.6860   11.6729  -21.3760 C   0  0  2  0  0  0  0  0  0  0  0  0
   -6.0468   15.6991  -19.9076 O   0  0  0  0  0  0  0  0  0  0  0  0
  -14.2887    8.1409  -24.8647 N   0  0  0  0  0  0  0  0  0  0  0  0
  -15.0335    9.1109  -24.2364 C   0  0  0  0  0  0  0  0  0  0  0  0
  -14.4290    9.9476  -23.3295 N   0  0  0  0  0  0  0  0  0  0  0  0
  -13.1160    9.8280  -23.0520 C   0  0  0  0  0  0  0  0  0  0  0  0
  -12.3486    8.8605  -23.6729 C   0  0  0  0  0  0  0  0  0  0  0  0
  -12.9512    8.0068  -24.5894 C   0  0  0  0  0  0  0  0  0  0  0  0
  -12.2526    7.0612  -25.2055 N   0  0  0  0  0  0  0  0  0  0  0  0
  -11.0819    8.9649  -23.2125 N   0  0  0  0  0  0  0  0  0  0  0  0
  -11.0392    9.9775  -22.3247 C   0  0  0  0  0  0  0  0  0  0  0  0
  -12.2942   10.5174  -22.2039 N   0  0  0  0  0  0  0  0  0  0  0  0
  2  1  1  6  0  0  0
  2  3  1  0  0  0  0
  2  5  1  0  0  0  0
  3  4  1  0  0  0  0
  3 16  1  0  0  0  0
  5  6  1  0  0  0  0
  6  7  1  0  0  0  0
  7  8  1  0  0  0  0
  9  8  1  6  0  0  0
  9 10  1  0  0  0  0
  9 11  1  0  0  0  0
 10 15  1  0  0  0  0
 11 12  1  1  0  0  0
 11 13  1  0  0  0  0
 13 14  1  1  0  0  0
 13 15  1  0  0  0  0
 15 26  1  6  0  0  0
 17 18  2  0  0  0  0
 17 22  1  0  0  0  0
 18 19  1  0  0  0  0
 19 20  2  0  0  0  0
 20 21  1  0  0  0  0
 20 26  1  0  0  0  0
 21 22  2  0  0  0  0
 21 24  1  0  0  0  0
 22 23  1  0  0  0  0
 24 25  2  0  0  0  0
 25 26  1  0  0  0  0
M  END
>  <CHROM.1>
141.97618849,-172.68509784,-170.48437561,179.59960082,-8.97546698,-158.37175956
-57.97304288,-10.92598955,12.68743701,-22.21276344,-0.81675465,-0.56160358
-2.32490324

>  <Name>
ligand

>  <RI>
0

>  <Rbt.Current_Directory>
/home/itssahil/PROJECTS/Mol_Feturizer/New_Systems/rnas/3E5E

>  <Rbt.Executable>
rbdock ($Id: //depot/dev/client3/rdock/2013.1/src/exe/rbdock.cxx#4 $)

>  <Rbt.Library>
libRbt.so (2013.1, Build901 2013/11/27)

>  <Rbt.Parameter_File>
/export/apps/rDock/src/rDock_2013.1_src/data/scripts/dock_solv.prm

>  <Rbt.Receptor>
prm/blind_docking_40.prm

>  <SCORE>
-19.9294

>  <SCORE.INTER>
-17.7885

>  <SCORE.INTER.CONST>
1

>  <SCORE.INTER.POLAR>
0

>  <SCORE.INTER.ROT>
7

>  <SCORE.INTER.SOLV>
10.5704

>  <SCORE.INTER.VDW>
-23.6491

>  <SCORE.INTER.norm>
-0.684173

>  <SCORE.INTRA>
-2.14087

>  <SCORE.INTRA.DIHEDRAL>
-3.09268

>  <SCORE.INTRA.DIHEDRAL.0>
10.1225

>  <SCORE.INTRA.POLAR>
0

>  <SCORE.INTRA.POLAR.0>
0

>  <SCORE.INTRA.REPUL>
0

>  <SCORE.INTRA.REPUL.0>
0

>  <SCORE.INTRA.SOLV>
-0.402715

>  <SCORE.INTRA.SOLV.lig_0>
-49.9393

>  <SCORE.INTRA.VDW>
-0.393178

>  <SCORE.INTRA.VDW.0>
-1.75437

>  <SCORE.INTRA.norm>
-0.0823413

>  <SCORE.RESTR>
0

>  <SCORE.RESTR.CAVITY>
0

>  <SCORE.RESTR.norm>
0

>  <SCORE.SYSTEM>
0

>  <SCORE.SYSTEM.CONST>
0

>  <SCORE.SYSTEM.DIHEDRAL>
0

>  <SCORE.SYSTEM.SOLV>
0

>  <SCORE.SYSTEM.norm>
0

>  <SCORE.heavy>
26

>  <SCORE.norm>
-0.766514

>  <RMSD>
8.963

$$$$
ligand
 OpenBabel11021811473D
libRbt.so/2013.1/901 2013/11/27
 26 28  0  0  0  0  0  0  0  0999 V2000
   -7.7911   15.7133  -24.0128 N   0  0  0  0  0  0  0  0  0  0  0  0
   -8.7843   16.4572  -23.2281 C   0  0  2  0  0  0  0  0  0  0  0  0
   -8.4096   17.9156  -23.1993 C   0  0  0  0  0  0  0  0  0  0  0  0
   -7.2639   18.2422  -22.9949 O   0  0  0  0  0  0  0  0  0  0  0  0
   -8.8184   15.9101  -21.8001 C   0  0  0  0  0  0  0  0  0  0  0  0
   -9.5000   14.5430  -21.7935 C   0  0  0  0  0  0  0  0  0  0  0  0
   -9.8142   13.7416  -20.3296 S   0  0  0  0  0  0  0  0  0  0  0  0
  -10.6517   12.2341  -19.7753 C   0  0  0  0  0  0  0  0  0  0  0  0
  -10.6243   11.0777  -20.7822 C   0  0  1  0  0  0  0  0  0  0  0  0
  -11.0535    9.8546  -20.2124 O   0  0  0  0  0  0  0  0  0  0  0  0
  -11.6008   11.2876  -21.9152 C   0  0  1  0  0  0  0  0  0  0  0  0
  -11.1001   10.5040  -22.9762 O   0  0  0  0  0  0  0  0  0  0  0  0
  -12.8950   10.6675  -21.4423 C   0  0  1  0  0  0  0  0  0  0  0  0
  -13.5081    9.9758  -22.5083 O   0  0  0  0  0  0  0  0  0  0  0  0
  -12.4463    9.6769  -20.3898 C   0  0  2  0  0  0  0  0  0  0  0  0
   -9.3485   18.8553  -23.3982 O   0  0  0  0  0  0  0  0  0  0  0  0
  -14.1838    7.2775  -16.0958 N   0  0  0  0  0  0  0  0  0  0  0  0
  -13.6568    6.7083  -17.2309 C   0  0  0  0  0  0  0  0  0  0  0  0
  -13.2626    7.5137  -18.2721 N   0  0  0  0  0  0  0  0  0  0  0  0
  -13.3855    8.8529  -18.1907 C   0  0  0  0  0  0  0  0  0  0  0  0
  -13.9118    9.4459  -17.0585 C   0  0  0  0  0  0  0  0  0  0  0  0
  -14.3167    8.6399  -16.0009 C   0  0  0  0  0  0  0  0  0  0  0  0
  -14.8311    9.1672  -14.8968 N   0  0  0  0  0  0  0  0  0  0  0  0
  -13.9196   10.7845  -17.2463 N   0  0  0  0  0  0  0  0  0  0  0  0
  -13.4056   11.0412  -18.4650 C   0  0  0  0  0  0  0  0  0  0  0  0
  -13.0791    9.8543  -19.0699 N   0  0  0  0  0  0  0  0  0  0  0  0
  2  1  1  6  0  0  0
  2  3  1  0  0  0  0
  2  5  1  0  0  0  0
  3  4  1  0  0  0  0
  3 16  1  0  0  0  0
  5  6  1  0  0  0  0
  6  7  1  0  0  0  0
  7  8  1  0  0  0  0
  9  8  1  1  0  0  0
  9 10  1  0  0  0  0
  9 11  1  0  0  0  0
 10 15  1  0  0  0  0
 11 12  1  6  0  0  0
 11 13  1  0  0  0  0
 13 14  1  6  0  0  0
 13 15  1  0  0  0  0
 15 26  1  1  0  0  0
 17 18  2  0  0  0  0
 17 22  1  0  0  0  0
 18 19  1  0  0  0  0
 19 20  2  0  0  0  0
 20 21  1  0  0  0  0
 20 26  1  0  0  0  0
 21 22  2  0  0  0  0
 21 24  1  0  0  0  0
 22 23  1  0  0  0  0
 24 25  2  0  0  0  0
 25 26  1  0  0  0  0
M  END
>  <CHROM.1>
-44.68543186,-72.95991437,-174.47080634,175.02720872,30.63152102,168.44451156
-94.41340434,-11.44652500,11.94967789,-20.23480887,-0.01643237,-1.08235359
-2.17894816

>  <Name>
ligand

>  <RI>
0

>  <Rbt.Current_Directory>
/home/itssahil/PROJECTS/Mol_Feturizer/New_Systems/rnas/3E5E

>  <Rbt.Executable>
rbdock ($Id: //depot/dev/client3/rdock/2013.1/src/exe/rbdock.cxx#4 $)

>  <Rbt.Library>
libRbt.so (2013.1, Build901 2013/11/27)

>  <Rbt.Parameter_File>
/export/apps/rDock/src/rDock_2013.1_src/data/scripts/dock_solv.prm

>  <Rbt.Receptor>
prm/pocket_docking_5.prm

>  <SCORE>
-20.3307

>  <SCORE.INTER>
-17.1017

>  <SCORE.INTER.CONST>
1

>  <SCORE.INTER.POLAR>
0

>  <SCORE.INTER.ROT>
7

>  <SCORE.INTER.SOLV>
9.86196

>  <SCORE.INTER.VDW>
-22.9551

>  <SCORE.INTER.norm>
-0.657758

>  <SCORE.INTRA>
-3.22895

>  <SCORE.INTRA.DIHEDRAL>
-5.13482

>  <SCORE.INTRA.DIHEDRAL.0>
10.1225

>  <SCORE.INTRA.POLAR>
0

>  <SCORE.INTRA.POLAR.0>
0

>  <SCORE.INTRA.REPUL>
0

>  <SCORE.INTRA.REPUL.0>
0

>  <SCORE.INTRA.SOLV>
-0.029686

>  <SCORE.INTRA.SOLV.lig_0>
-49.9393

>  <SCORE.INTRA.VDW>
-0.646701

>  <SCORE.INTRA.VDW.0>
-1.75437

>  <SCORE.INTRA.norm>
-0.124191

>  <SCORE.RESTR>
0

>  <SCORE.RESTR.CAVITY>
0

>  <SCORE.RESTR.norm>
0

>  <SCORE.SYSTEM>
0

>  <SCORE.SYSTEM.CONST>
0

>  <SCORE.SYSTEM.DIHEDRAL>
0

>  <SCORE.SYSTEM.SOLV>
0

>  <SCORE.SYSTEM.norm>
0

>  <SCORE.heavy>
26

>  <SCORE.norm>
-0.781949

>  <RMSD>
8.981

$$$$
ligand
 OpenBabel11021811473D
libRbt.so/2013.1/901 2013/11/27
 26 28  0  0  0  0  0  0  0  0999 V2000
   -7.6496   15.9264  -20.6699 N   0  0  0  0  0  0  0  0  0  0  0  0
   -8.4549   15.7593  -19.4537 C   0  0  2  0  0  0  0  0  0  0  0  0
   -7.6093   16.0693  -18.2466 C   0  0  0  0  0  0  0  0  0  0  0  0
   -8.1323   16.4242  -17.2163 O   0  0  0  0  0  0  0  0  0  0  0  0
   -8.9562   14.3166  -19.3696 C   0  0  0  0  0  0  0  0  0  0  0  0
   -9.9185   14.0426  -20.5239 C   0  0  0  0  0  0  0  0  0  0  0  0
  -10.4391   12.4609  -20.8575 S   0  0  0  0  0  0  0  0  0  0  0  0
  -11.1556   11.0632  -19.9551 C   0  0  0  0  0  0  0  0  0  0  0  0
  -12.6526   11.1958  -19.6504 C   0  0  1  0  0  0  0  0  0  0  0  0
  -13.4493   11.1399  -20.8196 O   0  0  0  0  0  0  0  0  0  0  0  0
  -13.1700   10.0384  -18.8293 C   0  0  1  0  0  0  0  0  0  0  0  0
  -14.3230   10.5358  -18.1863 O   0  0  0  0  0  0  0  0  0  0  0  0
  -13.6045    9.0005  -19.8379 C   0  0  1  0  0  0  0  0  0  0  0  0
  -14.8114    8.4038  -19.4161 O   0  0  0  0  0  0  0  0  0  0  0  0
  -13.8533    9.8111  -21.0915 C   0  0  2  0  0  0  0  0  0  0  0  0
   -6.2728   15.9544  -18.3143 O   0  0  0  0  0  0  0  0  0  0  0  0
  -13.9622    6.8729  -25.4007 N   0  0  0  0  0  0  0  0  0  0  0  0
  -14.9359    7.0043  -24.4391 C   0  0  0  0  0  0  0  0  0  0  0  0
  -14.7151    7.8248  -23.3593 N   0  0  0  0  0  0  0  0  0  0  0  0
  -13.5568    8.5017  -23.2350 C   0  0  0  0  0  0  0  0  0  0  0  0
  -12.5649    8.3847  -24.1905 C   0  0  0  0  0  0  0  0  0  0  0  0
  -12.7770    7.5547  -25.2851 C   0  0  0  0  0  0  0  0  0  0  0  0
  -11.8499    7.4100  -26.2238 N   0  0  0  0  0  0  0  0  0  0  0  0
  -11.5243    9.1630  -23.8180 N   0  0  0  0  0  0  0  0  0  0  0  0
  -11.8452    9.7670  -22.6572 C   0  0  0  0  0  0  0  0  0  0  0  0
  -13.0978    9.3601  -22.2746 N   0  0  0  0  0  0  0  0  0  0  0  0
  2  1  1  6  0  0  0
  2  3  1  0  0  0  0
  2  5  1  0  0  0  0
  3  4  1  0  0  0  0
  3 16  1  0  0  0  0
  5  6  1  0  0  0  0
  6  7  1  0  0  0  0
  7  8  1  0  0  0  0
  9  8  1  6  0  0  0
  9 10  1  0  0  0  0
  9 11  1  0  0  0  0
 10 15  1  0  0  0  0
 11 12  1  6  0  0  0
 11 13  1  0  0  0  0
 13 14  1  1  0  0  0
 13 15  1  0  0  0  0
 15 26  1  6  0  0  0
 17 18  2  0  0  0  0
 17 22  1  0  0  0  0
 18 19  1  0  0  0  0
 19 20  2  0  0  0  0
 20 21  1  0  0  0  0
 20 26  1  0  0  0  0
 21 22  2  0  0  0  0
 21 24  1  0  0  0  0
 22 23  1  0  0  0  0
 24 25  2  0  0  0  0
 25 26  1  0  0  0  0
M  END
>  <CHROM.1>
155.60757797,-65.31814080,169.59089315,50.61232612,77.59538892,67.73408191
-146.62794315,-11.64647784,11.07926162,-21.15959051,-0.82855507,-0.67420761
-2.05984972

>  <Name>
ligand

>  <RI>
0

>  <Rbt.Current_Directory>
/home/itssahil/PROJECTS/Mol_Feturizer/New_Systems/rnas/3E5E

>  <Rbt.Executable>
rbdock ($Id: //depot/dev/client3/rdock/2013.1/src/exe/rbdock.cxx#4 $)

>  <Rbt.Library>
libRbt.so (2013.1, Build901 2013/11/27)

>  <Rbt.Parameter_File>
/export/apps/rDock/src/rDock_2013.1_src/data/scripts/dock_solv.prm

>  <Rbt.Receptor>
prm/blind_docking_100.prm

>  <SCORE>
-21.4942

>  <SCORE.INTER>
-18.0441

>  <SCORE.INTER.CONST>
1

>  <SCORE.INTER.POLAR>
0

>  <SCORE.INTER.ROT>
7

>  <SCORE.INTER.SOLV>
10.1351

>  <SCORE.INTER.VDW>
-23.6744

>  <SCORE.INTER.norm>
-0.694005

>  <SCORE.INTRA>
-3.45221

>  <SCORE.INTRA.DIHEDRAL>
-5.96565

>  <SCORE.INTRA.DIHEDRAL.0>
10.1225

>  <SCORE.INTRA.POLAR>
0

>  <SCORE.INTRA.POLAR.0>
0

>  <SCORE.INTRA.REPUL>
0

>  <SCORE.INTRA.REPUL.0>
0

>  <SCORE.INTRA.SOLV>
0.215028

>  <SCORE.INTRA.SOLV.lig_0>
-49.9393

>  <SCORE.INTRA.VDW>
-0.576901

>  <SCORE.INTRA.VDW.0>
-1.75437

>  <SCORE.INTRA.norm>
-0.132777

>  <SCORE.RESTR>
0.00210482

>  <SCORE.RESTR.CAVITY>
0.00210482

>  <SCORE.RESTR.norm>
8.09545e-05

>  <SCORE.SYSTEM>
0

>  <SCORE.SYSTEM.CONST>
0

>  <SCORE.SYSTEM.DIHEDRAL>
0

>  <SCORE.SYSTEM.SOLV>
0

>  <SCORE.SYSTEM.norm>
0

>  <SCORE.heavy>
26

>  <SCORE.norm>
-0.826701

>  <RMSD>
8.988

$$$$
ligand
 OpenBabel11021811473D
libRbt.so/2013.1/901 2013/11/27
 26 28  0  0  0  0  0  0  0  0999 V2000
   -7.0087   16.9993  -21.4572 N   0  0  0  0  0  0  0  0  0  0  0  0
   -7.8468   15.8834  -21.9130 C   0  0  2  0  0  0  0  0  0  0  0  0
   -8.7573   16.3582  -23.0148 C   0  0  0  0  0  0  0  0  0  0  0  0
   -9.0990   15.5958  -23.8883 O   0  0  0  0  0  0  0  0  0  0  0  0
   -8.6863   15.3666  -20.7435 C   0  0  0  0  0  0  0  0  0  0  0  0
   -9.3379   14.0400  -21.1299 C   0  0  0  0  0  0  0  0  0  0  0  0
  -10.6230   13.4102  -20.2155 S   0  0  0  0  0  0  0  0  0  0  0  0
  -11.1668   11.7982  -19.5937 C   0  0  0  0  0  0  0  0  0  0  0  0
  -12.6717   11.6906  -19.3196 C   0  0  1  0  0  0  0  0  0  0  0  0
  -13.4146   11.3976  -20.4889 O   0  0  0  0  0  0  0  0  0  0  0  0
  -13.0017   10.5332  -18.4068 C   0  0  1  0  0  0  0  0  0  0  0  0
  -14.2406   10.8724  -17.8235 O   0  0  0  0  0  0  0  0  0  0  0  0
  -13.2214    9.3543  -19.3261 C   0  0  1  0  0  0  0  0  0  0  0  0
  -14.3170    8.5923  -18.8682 O   0  0  0  0  0  0  0  0  0  0  0  0
  -13.5736   10.0005  -20.6485 C   0  0  2  0  0  0  0  0  0  0  0  0
   -9.1885   17.6301  -23.0295 O   0  0  0  0  0  0  0  0  0  0  0  0
  -13.4467    7.7205  -25.3389 N   0  0  0  0  0  0  0  0  0  0  0  0
  -14.5267    7.8826  -24.5038 C   0  0  0  0  0  0  0  0  0  0  0  0
  -14.3571    8.5042  -23.2901 N   0  0  0  0  0  0  0  0  0  0  0  0
  -13.1456    8.9568  -22.9123 C   0  0  0  0  0  0  0  0  0  0  0  0
  -12.0468    8.8050  -23.7369 C   0  0  0  0  0  0  0  0  0  0  0  0
  -12.2069    8.1746  -24.9653 C   0  0  0  0  0  0  0  0  0  0  0  0
  -11.1780    8.0042  -25.7862 N   0  0  0  0  0  0  0  0  0  0  0  0
  -10.9736    9.3432  -23.1156 N   0  0  0  0  0  0  0  0  0  0  0  0
  -11.3774    9.8323  -21.9269 C   0  0  0  0  0  0  0  0  0  0  0  0
  -12.7195    9.5917  -21.7787 N   0  0  0  0  0  0  0  0  0  0  0  0
  2  1  1  1  0  0  0
  2  3  1  0  0  0  0
  2  5  1  0  0  0  0
  3  4  1  0  0  0  0
  3 16  1  0  0  0  0
  5  6  1  0  0  0  0
  6  7  1  0  0  0  0
  7  8  1  0  0  0  0
  9  8  1  6  0  0  0
  9 10  1  0  0  0  0
  9 11  1  0  0  0  0
 10 15  1  0  0  0  0
 11 12  1  6  0  0  0
 11 13  1  0  0  0  0
 13 14  1  1  0  0  0
 13 15  1  0  0  0  0
 15 26  1  6  0  0  0
 17 18  2  0  0  0  0
 17 22  1  0  0  0  0
 18 19  1  0  0  0  0
 19 20  2  0  0  0  0
 20 21  1  0  0  0  0
 20 26  1  0  0  0  0
 21 22  2  0  0  0  0
 21 24  1  0  0  0  0
 22 23  1  0  0  0  0
 24 25  2  0  0  0  0
 25 26  1  0  0  0  0
M  END
>  <CHROM.1>
148.84941298,-168.47365117,-164.59339158,-139.15927480,-155.57622249,83.05193271
-122.31032740,-11.56542939,11.57577327,-21.68341830,-0.46290099,-0.92399446
-2.06226449

>  <Name>
ligand

>  <RI>
0

>  <Rbt.Current_Directory>
/home/itssahil/PROJECTS/Mol_Feturizer/New_Systems/rnas/3E5E

>  <Rbt.Executable>
rbdock ($Id: //depot/dev/client3/rdock/2013.1/src/exe/rbdock.cxx#4 $)

>  <Rbt.Library>
libRbt.so (2013.1, Build901 2013/11/27)

>  <Rbt.Parameter_File>
/export/apps/rDock/src/rDock_2013.1_src/data/scripts/dock_solv.prm

>  <Rbt.Receptor>
prm/blind_docking_100.prm

>  <SCORE>
-16.5058

>  <SCORE.INTER>
-14.9409

>  <SCORE.INTER.CONST>
1

>  <SCORE.INTER.POLAR>
0

>  <SCORE.INTER.ROT>
7

>  <SCORE.INTER.SOLV>
8.82122

>  <SCORE.INTER.VDW>
-21.1677

>  <SCORE.INTER.norm>
-0.574652

>  <SCORE.INTRA>
-1.56833

>  <SCORE.INTRA.DIHEDRAL>
-1.6395

>  <SCORE.INTRA.DIHEDRAL.0>
10.1225

>  <SCORE.INTRA.POLAR>
0

>  <SCORE.INTRA.POLAR.0>
0

>  <SCORE.INTRA.REPUL>
0

>  <SCORE.INTRA.REPUL.0>
0

>  <SCORE.INTRA.SOLV>
-0.637622

>  <SCORE.INTRA.SOLV.lig_0>
-49.9393

>  <SCORE.INTRA.VDW>
-0.429765

>  <SCORE.INTRA.VDW.0>
-1.75437

>  <SCORE.INTRA.norm>
-0.0603203

>  <SCORE.RESTR>
0.0034436

>  <SCORE.RESTR.CAVITY>
0.0034436

>  <SCORE.RESTR.norm>
0.000132446

>  <SCORE.SYSTEM>
0

>  <SCORE.SYSTEM.CONST>
0

>  <SCORE.SYSTEM.DIHEDRAL>
0

>  <SCORE.SYSTEM.SOLV>
0

>  <SCORE.SYSTEM.norm>
0

>  <SCORE.heavy>
26

>  <SCORE.norm>
-0.63484

>  <RMSD>
8.989

$$$$
ligand
 OpenBabel11021811473D
libRbt.so/2013.1/901 2013/11/27
 26 28  0  0  0  0  0  0  0  0999 V2000
   -7.1459   16.0058  -18.7726 N   0  0  0  0  0  0  0  0  0  0  0  0
   -7.0659   15.5941  -20.1796 C   0  0  2  0  0  0  0  0  0  0  0  0
   -6.3101   16.6344  -20.9636 C   0  0  0  0  0  0  0  0  0  0  0  0
   -6.7698   17.7443  -21.0967 O   0  0  0  0  0  0  0  0  0  0  0  0
   -8.4783   15.4513  -20.7492 C   0  0  0  0  0  0  0  0  0  0  0  0
   -8.4017   14.8987  -22.1712 C   0  0  0  0  0  0  0  0  0  0  0  0
   -9.8148   14.6598  -23.0824 S   0  0  0  0  0  0  0  0  0  0  0  0
  -11.3953   13.7921  -22.9088 C   0  0  0  0  0  0  0  0  0  0  0  0
  -12.0795   13.9709  -21.5481 C   0  0  1  0  0  0  0  0  0  0  0  0
  -13.1869   13.1045  -21.3818 O   0  0  0  0  0  0  0  0  0  0  0  0
  -11.1727   13.5896  -20.4018 C   0  0  1  0  0  0  0  0  0  0  0  0
  -11.6802   14.2916  -19.2882 O   0  0  0  0  0  0  0  0  0  0  0  0
  -11.4153   12.1150  -20.1789 C   0  0  1  0  0  0  0  0  0  0  0  0
  -11.4473   11.8423  -18.7950 O   0  0  0  0  0  0  0  0  0  0  0  0
  -12.7909   11.8917  -20.7691 C   0  0  2  0  0  0  0  0  0  0  0  0
   -5.1254   16.3293  -21.5181 O   0  0  0  0  0  0  0  0  0  0  0  0
  -15.5870    7.9494  -22.7322 N   0  0  0  0  0  0  0  0  0  0  0  0
  -15.8699    8.7247  -21.6327 C   0  0  0  0  0  0  0  0  0  0  0  0
  -14.9958    9.7176  -21.2610 N   0  0  0  0  0  0  0  0  0  0  0  0
  -13.8676    9.9393  -21.9633 C   0  0  0  0  0  0  0  0  0  0  0  0
  -13.5643    9.1723  -23.0724 C   0  0  0  0  0  0  0  0  0  0  0  0
  -14.4402    8.1631  -23.4549 C   0  0  0  0  0  0  0  0  0  0  0  0
  -14.1860    7.4003  -24.5108 N   0  0  0  0  0  0  0  0  0  0  0  0
  -12.3880    9.6058  -23.5781 N   0  0  0  0  0  0  0  0  0  0  0  0
  -11.9536   10.6280  -22.8156 C   0  0  0  0  0  0  0  0  0  0  0  0
  -12.8529   10.8418  -21.8024 N   0  0  0  0  0  0  0  0  0  0  0  0
  2  1  1  1  0  0  0
  2  3  1  0  0  0  0
  2  5  1  0  0  0  0
  3  4  1  0  0  0  0
  3 16  1  0  0  0  0
  5  6  1  0  0  0  0
  6  7  1  0  0  0  0
  7  8  1  0  0  0  0
  9  8  1  6  0  0  0
  9 10  1  0  0  0  0
  9 11  1  0  0  0  0
 10 15  1  0  0  0  0
 11 12  1  1  0  0  0
 11 13  1  0  0  0  0
 13 14  1  1  0  0  0
 13 15  1  0  0  0  0
 15 26  1  6  0  0  0
 17 18  2  0  0  0  0
 17 22  1  0  0  0  0
 18 19  1  0  0  0  0
 19 20  2  0  0  0  0
 20 21  1  0  0  0  0
 20 26  1  0  0  0  0
 21 22  2  0  0  0  0
 21 24  1  0  0  0  0
 22 23  1  0  0  0  0
 24 25  2  0  0  0  0
 25 26  1  0  0  0  0
M  END
>  <CHROM.1>
-65.45168353,-174.77538548,-178.70181286,-54.26545414,44.83861133,-170.15733800
-100.00057754,-11.15273214,12.67662773,-21.59374759,0.46699220,0.67887913
1.12791406

>  <Name>
ligand

>  <RI>
0

>  <Rbt.Current_Directory>
/home/itssahil/PROJECTS/Mol_Feturizer/New_Systems/rnas/3E5E

>  <Rbt.Executable>
rbdock ($Id: //depot/dev/client3/rdock/2013.1/src/exe/rbdock.cxx#4 $)

>  <Rbt.Library>
libRbt.so (2013.1, Build901 2013/11/27)

>  <Rbt.Parameter_File>
/export/apps/rDock/src/rDock_2013.1_src/data/scripts/dock_solv.prm

>  <Rbt.Receptor>
prm/blind_docking_100.prm

>  <SCORE>
-17.3796

>  <SCORE.INTER>
-13.2764

>  <SCORE.INTER.CONST>
1

>  <SCORE.INTER.POLAR>
0

>  <SCORE.INTER.ROT>
7

>  <SCORE.INTER.SOLV>
16.9207

>  <SCORE.INTER.VDW>
-22.7578

>  <SCORE.INTER.norm>
-0.51063

>  <SCORE.INTRA>
-4.10834

>  <SCORE.INTRA.DIHEDRAL>
-6.64721

>  <SCORE.INTRA.DIHEDRAL.0>
10.1225

>  <SCORE.INTRA.POLAR>
0

>  <SCORE.INTRA.POLAR.0>
0

>  <SCORE.INTRA.REPUL>
0

>  <SCORE.INTRA.REPUL.0>
0

>  <SCORE.INTRA.SOLV>
-0.400651

>  <SCORE.INTRA.SOLV.lig_0>
-49.9393

>  <SCORE.INTRA.VDW>
-0.584407

>  <SCORE.INTRA.VDW.0>
-1.75437

>  <SCORE.INTRA.norm>
-0.158013

>  <SCORE.RESTR>
0.00508981

>  <SCORE.RESTR.CAVITY>
0.00508981

>  <SCORE.RESTR.norm>
0.000195762

>  <SCORE.SYSTEM>
0

>  <SCORE.SYSTEM.CONST>
0

>  <SCORE.SYSTEM.DIHEDRAL>
0

>  <SCORE.SYSTEM.SOLV>
0

>  <SCORE.SYSTEM.norm>
0

>  <SCORE.heavy>
26

>  <SCORE.norm>
-0.668447

>  <RMSD>
9.059

$$$$
ligand
 OpenBabel11021811473D
libRbt.so/2013.1/901 2013/11/27
 26 28  0  0  0  0  0  0  0  0999 V2000
   -7.5950   18.0358  -24.1367 N   0  0  0  0  0  0  0  0  0  0  0  0
   -7.3103   17.7816  -22.7190 C   0  0  2  0  0  0  0  0  0  0  0  0
   -5.8204   17.7843  -22.4990 C   0  0  0  0  0  0  0  0  0  0  0  0
   -5.1290   16.9461  -23.0286 O   0  0  0  0  0  0  0  0  0  0  0  0
   -7.8832   16.4203  -22.3209 C   0  0  0  0  0  0  0  0  0  0  0  0
   -7.8835   16.2921  -20.7987 C   0  0  0  0  0  0  0  0  0  0  0  0
   -8.3995   14.8562  -20.0530 S   0  0  0  0  0  0  0  0  0  0  0  0
   -9.6464   13.5715  -20.3284 C   0  0  0  0  0  0  0  0  0  0  0  0
   -9.8948   13.2236  -21.8011 C   0  0  1  0  0  0  0  0  0  0  0  0
  -10.5027   11.9549  -21.9618 O   0  0  0  0  0  0  0  0  0  0  0  0
  -10.8871   14.1617  -22.4468 C   0  0  1  0  0  0  0  0  0  0  0  0
  -10.6067   14.0926  -23.8278 O   0  0  0  0  0  0  0  0  0  0  0  0
  -12.2398   13.5316  -22.2094 C   0  0  1  0  0  0  0  0  0  0  0  0
  -13.0357   13.6640  -23.3668 O   0  0  0  0  0  0  0  0  0  0  0  0
  -11.9129   12.0708  -21.9861 C   0  0  2  0  0  0  0  0  0  0  0  0
   -5.2586   18.7164  -21.7120 O   0  0  0  0  0  0  0  0  0  0  0  0
  -14.3302    8.0469  -19.7104 N   0  0  0  0  0  0  0  0  0  0  0  0
  -14.0635    8.2304  -21.0465 C   0  0  0  0  0  0  0  0  0  0  0  0
  -13.4217    9.3735  -21.4583 N   0  0  0  0  0  0  0  0  0  0  0  0
  -13.0505   10.3132  -20.5670 C   0  0  0  0  0  0  0  0  0  0  0  0
  -13.3081   10.1484  -19.2190 C   0  0  0  0  0  0  0  0  0  0  0  0
  -13.9597    8.9972  -18.7924 C   0  0  0  0  0  0  0  0  0  0  0  0
  -14.2304    8.8003  -17.5080 N   0  0  0  0  0  0  0  0  0  0  0  0
  -12.8342   11.2306  -18.5621 N   0  0  0  0  0  0  0  0  0  0  0  0
  -12.2821   12.0630  -19.4662 C   0  0  0  0  0  0  0  0  0  0  0  0
  -12.4170   11.5157  -20.7165 N   0  0  0  0  0  0  0  0  0  0  0  0
  2  1  1  6  0  0  0
  2  3  1  0  0  0  0
  2  5  1  0  0  0  0
  3  4  1  0  0  0  0
  3 16  1  0  0  0  0
  5  6  1  0  0  0  0
  6  7  1  0  0  0  0
  7  8  1  0  0  0  0
  9  8  1  1  0  0  0
  9 10  1  0  0  0  0
  9 11  1  0  0  0  0
 10 15  1  0  0  0  0
 11 12  1  6  0  0  0
 11 13  1  0  0  0  0
 13 14  1  6  0  0  0
 13 15  1  0  0  0  0
 15 26  1  1  0  0  0
 17 18  2  0  0  0  0
 17 22  1  0  0  0  0
 18 19  1  0  0  0  0
 19 20  2  0  0  0  0
 20 21  1  0  0  0  0
 20 26  1  0  0  0  0
 21 22  2  0  0  0  0
 21 24  1  0  0  0  0
 22 23  1  0  0  0  0
 24 25  2  0  0  0  0
 25 26  1  0  0  0  0
M  END
>  <CHROM.1>
-63.94481128,-166.85153522,-177.24716760,-35.61458016,36.22110906,159.93604813
-106.13190840,-10.48954519,13.32785051,-21.24188884,0.53474574,-0.71577715
-1.15738621

>  <Name>
ligand

>  <RI>
0

>  <Rbt.Current_Directory>
/home/itssahil/PROJECTS/Mol_Feturizer/New_Systems/rnas/3E5E

>  <Rbt.Executable>
rbdock ($Id: //depot/dev/client3/rdock/2013.1/src/exe/rbdock.cxx#4 $)

>  <Rbt.Library>
libRbt.so (2013.1, Build901 2013/11/27)

>  <Rbt.Parameter_File>
/export/apps/rDock/src/rDock_2013.1_src/data/scripts/dock_solv.prm

>  <Rbt.Receptor>
prm/blind_docking_40.prm

>  <SCORE>
-16.9129

>  <SCORE.INTER>
-13.8892

>  <SCORE.INTER.CONST>
1

>  <SCORE.INTER.POLAR>
0

>  <SCORE.INTER.ROT>
7

>  <SCORE.INTER.SOLV>
8.94868

>  <SCORE.INTER.VDW>
-20.509

>  <SCORE.INTER.norm>
-0.534199

>  <SCORE.INTRA>
-3.02372

>  <SCORE.INTRA.DIHEDRAL>
-3.85419

>  <SCORE.INTRA.DIHEDRAL.0>
10.1225

>  <SCORE.INTRA.POLAR>
0

>  <SCORE.INTRA.POLAR.0>
0

>  <SCORE.INTRA.REPUL>
0

>  <SCORE.INTRA.REPUL.0>
0

>  <SCORE.INTRA.SOLV>
-0.573193

>  <SCORE.INTRA.SOLV.lig_0>
-49.9393

>  <SCORE.INTRA.VDW>
-0.810034

>  <SCORE.INTRA.VDW.0>
-1.75437

>  <SCORE.INTRA.norm>
-0.116297

>  <SCORE.RESTR>
0

>  <SCORE.RESTR.CAVITY>
0

>  <SCORE.RESTR.norm>
0

>  <SCORE.SYSTEM>
0

>  <SCORE.SYSTEM.CONST>
0

>  <SCORE.SYSTEM.DIHEDRAL>
0

>  <SCORE.SYSTEM.SOLV>
0

>  <SCORE.SYSTEM.norm>
0

>  <SCORE.heavy>
26

>  <SCORE.norm>
-0.650496

>  <RMSD>
9.061

$$$$
ligand
 OpenBabel11021811473D
libRbt.so/2013.1/901 2013/11/27
 26 28  0  0  0  0  0  0  0  0999 V2000
   -5.8790   16.7045  -22.8982 N   0  0  0  0  0  0  0  0  0  0  0  0
   -7.1465   16.2286  -22.3303 C   0  0  2  0  0  0  0  0  0  0  0  0
   -8.2409   17.2109  -22.6548 C   0  0  0  0  0  0  0  0  0  0  0  0
   -9.3706   16.8206  -22.8351 O   0  0  0  0  0  0  0  0  0  0  0  0
   -7.0079   16.1010  -20.8123 C   0  0  0  0  0  0  0  0  0  0  0  0
   -8.2643   15.4487  -20.2382 C   0  0  0  0  0  0  0  0  0  0  0  0
   -8.8768   14.0143  -20.9102 S   0  0  0  0  0  0  0  0  0  0  0  0
  -10.1446   13.5255  -22.1080 C   0  0  0  0  0  0  0  0  0  0  0  0
  -11.5774   13.9094  -21.7186 C   0  0  1  0  0  0  0  0  0  0  0  0
  -12.5490   13.1939  -22.4594 O   0  0  0  0  0  0  0  0  0  0  0  0
  -11.8964   13.5383  -20.2896 C   0  0  1  0  0  0  0  0  0  0  0  0
  -12.9535   14.3959  -19.9189 O   0  0  0  0  0  0  0  0  0  0  0  0
  -12.4361   12.1286  -20.3578 C   0  0  1  0  0  0  0  0  0  0  0  0
  -13.5275   11.9941  -19.4737 O   0  0  0  0  0  0  0  0  0  0  0  0
  -12.9248   12.0078  -21.7850 C   0  0  2  0  0  0  0  0  0  0  0  0
   -7.9625   18.5216  -22.7470 O   0  0  0  0  0  0  0  0  0  0  0  0
  -13.9474    7.9423  -24.8897 N   0  0  0  0  0  0  0  0  0  0  0  0
  -14.8408    8.8062  -24.3019 C   0  0  0  0  0  0  0  0  0  0  0  0
  -14.3751    9.8188  -23.4983 N   0  0  0  0  0  0  0  0  0  0  0  0
  -13.0542    9.9740  -23.2829 C   0  0  0  0  0  0  0  0  0  0  0  0
  -12.1388    9.1173  -23.8648 C   0  0  0  0  0  0  0  0  0  0  0  0
  -12.5996    8.0876  -24.6767 C   0  0  0  0  0  0  0  0  0  0  0  0
  -11.7558    7.2398  -25.2519 N   0  0  0  0  0  0  0  0  0  0  0  0
  -10.8995    9.4990  -23.4827 N   0  0  0  0  0  0  0  0  0  0  0  0
  -11.0193   10.5760  -22.6821 C   0  0  0  0  0  0  0  0  0  0  0  0
  -12.3493   10.8782  -22.5378 N   0  0  0  0  0  0  0  0  0  0  0  0
  2  1  1  1  0  0  0
  2  3  1  0  0  0  0
  2  5  1  0  0  0  0
  3  4  1  0  0  0  0
  3 16  1  0  0  0  0
  5  6  1  0  0  0  0
  6  7  1  0  0  0  0
  7  8  1  0  0  0  0
  9  8  1  6  0  0  0
  9 10  1  0  0  0  0
  9 11  1  0  0  0  0
 10 15  1  0  0  0  0
 11 12  1  6  0  0  0
 11 13  1  0  0  0  0
 13 14  1  1  0  0  0
 13 15  1  0  0  0  0
 15 26  1  6  0  0  0
 17 18  2  0  0  0  0
 17 22  1  0  0  0  0
 18 19  1  0  0  0  0
 19 20  2  0  0  0  0
 20 21  1  0  0  0  0
 20 26  1  0  0  0  0
 21 22  2  0  0  0  0
 21 24  1  0  0  0  0
 22 23  1  0  0  0  0
 24 25  2  0  0  0  0
 25 26  1  0  0  0  0
M  END
>  <CHROM.1>
147.34433581,-173.23446686,49.70476387,-96.46249509,-62.04524554,-163.03299752
-109.51936212,-10.93564022,12.78506302,-22.26614835,-0.84661823,-0.56117520
-2.44913399

>  <Name>
ligand

>  <RI>
0

>  <Rbt.Current_Directory>
/home/itssahil/PROJECTS/Mol_Feturizer/New_Systems/rnas/3E5E

>  <Rbt.Executable>
rbdock ($Id: //depot/dev/client3/rdock/2013.1/src/exe/rbdock.cxx#4 $)

>  <Rbt.Library>
libRbt.so (2013.1, Build901 2013/11/27)

>  <Rbt.Parameter_File>
/export/apps/rDock/src/rDock_2013.1_src/data/scripts/dock_solv.prm

>  <Rbt.Receptor>
prm/blind_docking_100.prm

>  <SCORE>
-20.0264

>  <SCORE.INTER>
-16.9584

>  <SCORE.INTER.CONST>
1

>  <SCORE.INTER.POLAR>
0

>  <SCORE.INTER.ROT>
7

>  <SCORE.INTER.SOLV>
7.5307

>  <SCORE.INTER.VDW>
-22.0825

>  <SCORE.INTER.norm>
-0.652246

>  <SCORE.INTRA>
-3.06802

>  <SCORE.INTRA.DIHEDRAL>
-4.32114

>  <SCORE.INTRA.DIHEDRAL.0>
10.1225

>  <SCORE.INTRA.POLAR>
0

>  <SCORE.INTRA.POLAR.0>
0

>  <SCORE.INTRA.REPUL>
0

>  <SCORE.INTRA.REPUL.0>
0

>  <SCORE.INTRA.SOLV>
-0.277152

>  <SCORE.INTRA.SOLV.lig_0>
-49.9393

>  <SCORE.INTRA.VDW>
-0.768872

>  <SCORE.INTRA.VDW.0>
-1.75437

>  <SCORE.INTRA.norm>
-0.118001

>  <SCORE.RESTR>
0

>  <SCORE.RESTR.CAVITY>
0

>  <SCORE.RESTR.norm>
0

>  <SCORE.SYSTEM>
0

>  <SCORE.SYSTEM.CONST>
0

>  <SCORE.SYSTEM.DIHEDRAL>
0

>  <SCORE.SYSTEM.SOLV>
0

>  <SCORE.SYSTEM.norm>
0

>  <SCORE.heavy>
26

>  <SCORE.norm>
-0.770247

>  <RMSD>
9.067

$$$$
ligand
 OpenBabel11021811473D
libRbt.so/2013.1/901 2013/11/27
 26 28  0  0  0  0  0  0  0  0999 V2000
   -7.0935   18.2933  -25.4214 N   0  0  0  0  0  0  0  0  0  0  0  0
   -8.1295   17.4783  -24.7749 C   0  0  2  0  0  0  0  0  0  0  0  0
   -8.4098   18.0235  -23.3993 C   0  0  0  0  0  0  0  0  0  0  0  0
   -9.4747   18.5426  -23.1594 O   0  0  0  0  0  0  0  0  0  0  0  0
   -7.6431   16.0325  -24.6622 C   0  0  0  0  0  0  0  0  0  0  0  0
   -8.8038   15.1352  -24.2364 C   0  0  0  0  0  0  0  0  0  0  0  0
   -9.3913   15.1806  -22.6437 S   0  0  0  0  0  0  0  0  0  0  0  0
  -10.0733   14.0227  -21.4291 C   0  0  0  0  0  0  0  0  0  0  0  0
  -11.6014   14.0506  -21.3036 C   0  0  1  0  0  0  0  0  0  0  0  0
  -12.2494   13.8908  -22.5524 O   0  0  0  0  0  0  0  0  0  0  0  0
  -12.1264   12.8875  -20.4955 C   0  0  1  0  0  0  0  0  0  0  0  0
  -13.3799   13.3178  -20.0115 O   0  0  0  0  0  0  0  0  0  0  0  0
  -12.3635   11.7832  -21.4992 C   0  0  1  0  0  0  0  0  0  0  0  0
  -13.5653   11.1111  -21.1914 O   0  0  0  0  0  0  0  0  0  0  0  0
  -12.5216   12.5258  -22.8083 C   0  0  2  0  0  0  0  0  0  0  0  0
   -7.4757   17.9360  -22.4381 O   0  0  0  0  0  0  0  0  0  0  0  0
  -10.1235    8.4594  -25.0280 N   0  0  0  0  0  0  0  0  0  0  0  0
  -10.9371    8.4625  -23.9197 C   0  0  0  0  0  0  0  0  0  0  0  0
  -11.4711    9.6479  -23.4750 N   0  0  0  0  0  0  0  0  0  0  0  0
  -11.2072   10.8042  -24.1142 C   0  0  0  0  0  0  0  0  0  0  0  0
  -10.3927   10.8234  -25.2307 C   0  0  0  0  0  0  0  0  0  0  0  0
   -9.8447    9.6303  -25.6869 C   0  0  0  0  0  0  0  0  0  0  0  0
   -9.0541    9.6037  -26.7526 N   0  0  0  0  0  0  0  0  0  0  0  0
  -10.2994   12.1002  -25.6648 N   0  0  0  0  0  0  0  0  0  0  0  0
  -11.0405   12.8765  -24.8503 C   0  0  0  0  0  0  0  0  0  0  0  0
  -11.6020   12.0914  -23.8758 N   0  0  0  0  0  0  0  0  0  0  0  0
  2  1  1  1  0  0  0
  2  3  1  0  0  0  0
  2  5  1  0  0  0  0
  3  4  1  0  0  0  0
  3 16  1  0  0  0  0
  5  6  1  0  0  0  0
  6  7  1  0  0  0  0
  7  8  1  0  0  0  0
  9  8  1  6  0  0  0
  9 10  1  0  0  0  0
  9 11  1  0  0  0  0
 10 15  1  0  0  0  0
 11 12  1  6  0  0  0
 11 13  1  0  0  0  0
 13 14  1  1  0  0  0
 13 15  1  0  0  0  0
 15 26  1  6  0  0  0
 17 18  2  0  0  0  0
 17 22  1  0  0  0  0
 18 19  1  0  0  0  0
 19 20  2  0  0  0  0
 20 21  1  0  0  0  0
 20 26  1  0  0  0  0
 21 22  2  0  0  0  0
 21 24  1  0  0  0  0
 22 23  1  0  0  0  0
 24 25  2  0  0  0  0
 25 26  1  0  0  0  0
M  END
>  <CHROM.1>
111.87799467,-169.44395060,-73.08518161,-144.69541202,-100.55439141,52.87234304
156.54262886,-10.35910520,13.43711812,-23.38597559,-0.96137014,-0.81625206
-2.65686163

>  <Name>
ligand

>  <RI>
0

>  <Rbt.Current_Directory>
/home/itssahil/PROJECTS/Mol_Feturizer/New_Systems/rnas/3E5E

>  <Rbt.Executable>
rbdock ($Id: //depot/dev/client3/rdock/2013.1/src/exe/rbdock.cxx#4 $)

>  <Rbt.Library>
libRbt.so (2013.1, Build901 2013/11/27)

>  <Rbt.Parameter_File>
/export/apps/rDock/src/rDock_2013.1_src/data/scripts/dock_solv.prm

>  <Rbt.Receptor>
prm/pocket_docking_7.prm

>  <SCORE>
-16.7872

>  <SCORE.INTER>
-13.6156

>  <SCORE.INTER.CONST>
1

>  <SCORE.INTER.POLAR>
0

>  <SCORE.INTER.ROT>
7

>  <SCORE.INTER.SOLV>
8.46102

>  <SCORE.INTER.VDW>
-20.1641

>  <SCORE.INTER.norm>
-0.523676

>  <SCORE.INTRA>
-3.17164

>  <SCORE.INTRA.DIHEDRAL>
-2.95868

>  <SCORE.INTRA.DIHEDRAL.0>
10.1225

>  <SCORE.INTRA.POLAR>
0

>  <SCORE.INTRA.POLAR.0>
0

>  <SCORE.INTRA.REPUL>
0

>  <SCORE.INTRA.REPUL.0>
0

>  <SCORE.INTRA.SOLV>
-0.260051

>  <SCORE.INTRA.SOLV.lig_0>
-49.9393

>  <SCORE.INTRA.VDW>
-1.56227

>  <SCORE.INTRA.VDW.0>
-1.75437

>  <SCORE.INTRA.norm>
-0.121986

>  <SCORE.RESTR>
0

>  <SCORE.RESTR.CAVITY>
0

>  <SCORE.RESTR.norm>
0

>  <SCORE.SYSTEM>
0

>  <SCORE.SYSTEM.CONST>
0

>  <SCORE.SYSTEM.DIHEDRAL>
0

>  <SCORE.SYSTEM.SOLV>
0

>  <SCORE.SYSTEM.norm>
0

>  <SCORE.heavy>
26

>  <SCORE.norm>
-0.645662

>  <RMSD>
9.070

$$$$
ligand
 OpenBabel11021811473D
libRbt.so/2013.1/901 2013/11/27
 26 28  0  0  0  0  0  0  0  0999 V2000
   -7.5315   16.2444  -22.9269 N   0  0  0  0  0  0  0  0  0  0  0  0
   -7.9668   15.3282  -23.9884 C   0  0  2  0  0  0  0  0  0  0  0  0
   -8.2388   16.1114  -25.2457 C   0  0  0  0  0  0  0  0  0  0  0  0
   -8.1207   15.5820  -26.3259 O   0  0  0  0  0  0  0  0  0  0  0  0
   -9.2429   14.6089  -23.5482 C   0  0  0  0  0  0  0  0  0  0  0  0
   -9.5606   13.4848  -24.5325 C   0  0  0  0  0  0  0  0  0  0  0  0
  -11.0323   12.6428  -24.4365 S   0  0  0  0  0  0  0  0  0  0  0  0
  -12.0951   11.9361  -23.1512 C   0  0  0  0  0  0  0  0  0  0  0  0
  -12.3868   12.8731  -21.9728 C   0  0  1  0  0  0  0  0  0  0  0  0
  -13.4517   12.4085  -21.1635 O   0  0  0  0  0  0  0  0  0  0  0  0
  -11.2294   12.9462  -21.0051 C   0  0  1  0  0  0  0  0  0  0  0  0
  -11.3909   14.1789  -20.3381 O   0  0  0  0  0  0  0  0  0  0  0  0
  -11.4755   11.8367  -20.0093 C   0  0  1  0  0  0  0  0  0  0  0  0
  -11.1545   12.2841  -18.7102 O   0  0  0  0  0  0  0  0  0  0  0  0
  -12.9671   11.6005  -20.1075 C   0  0  2  0  0  0  0  0  0  0  0  0
   -8.6103   17.3998  -25.1682 O   0  0  0  0  0  0  0  0  0  0  0  0
  -14.9980    8.3838  -23.6770 N   0  0  0  0  0  0  0  0  0  0  0  0
  -14.8363    9.7466  -23.7579 C   0  0  0  0  0  0  0  0  0  0  0  0
  -14.2876   10.4276  -22.6981 N   0  0  0  0  0  0  0  0  0  0  0  0
  -13.9057    9.7738  -21.5837 C   0  0  0  0  0  0  0  0  0  0  0  0
  -14.0585    8.4038  -21.4818 C   0  0  0  0  0  0  0  0  0  0  0  0
  -14.6156    7.7059  -22.5469 C   0  0  0  0  0  0  0  0  0  0  0  0
  -14.7842    6.3906  -22.4898 N   0  0  0  0  0  0  0  0  0  0  0  0
  -13.5985    8.0154  -20.2715 N   0  0  0  0  0  0  0  0  0  0  0  0
  -13.1571    9.1083  -19.6188 C   0  0  0  0  0  0  0  0  0  0  0  0
  -13.3500   10.2098  -20.4128 N   0  0  0  0  0  0  0  0  0  0  0  0
  2  1  1  1  0  0  0
  2  3  1  0  0  0  0
  2  5  1  0  0  0  0
  3  4  1  0  0  0  0
  3 16  1  0  0  0  0
  5  6  1  0  0  0  0
  6  7  1  0  0  0  0
  7  8  1  0  0  0  0
  9  8  1  6  0  0  0
  9 10  1  0  0  0  0
  9 11  1  0  0  0  0
 10 15  1  0  0  0  0
 11 12  1  1  0  0  0
 11 13  1  0  0  0  0
 13 14  1  1  0  0  0
 13 15  1  0  0  0  0
 15 26  1  6  0  0  0
 17 18  2  0  0  0  0
 17 22  1  0  0  0  0
 18 19  1  0  0  0  0
 19 20  2  0  0  0  0
 20 21  1  0  0  0  0
 20 26  1  0  0  0  0
 21 22  2  0  0  0  0
 21 24  1  0  0  0  0
 22 23  1  0  0  0  0
 24 25  2  0  0  0  0
 25 26  1  0  0  0  0
M  END
>  <CHROM.1>
152.47321059,-170.09216629,-171.44597546,-42.50647568,48.28706047,166.17728830
8.03853610,-11.74126864,12.05292799,-22.46445841,-0.24164619,0.90967742,1.47419718

>  <Name>
ligand

>  <RI>
0

>  <Rbt.Current_Directory>
/home/itssahil/PROJECTS/Mol_Feturizer/New_Systems/rnas/3E5E

>  <Rbt.Executable>
rbdock ($Id: //depot/dev/client3/rdock/2013.1/src/exe/rbdock.cxx#4 $)

>  <Rbt.Library>
libRbt.so (2013.1, Build901 2013/11/27)

>  <Rbt.Parameter_File>
/export/apps/rDock/src/rDock_2013.1_src/data/scripts/dock_solv.prm

>  <Rbt.Receptor>
prm/pocket_docking_6.prm

>  <SCORE>
-14.8639

>  <SCORE.INTER>
-11.9509

>  <SCORE.INTER.CONST>
1

>  <SCORE.INTER.POLAR>
0

>  <SCORE.INTER.ROT>
7

>  <SCORE.INTER.SOLV>
7.84755

>  <SCORE.INTER.VDW>
-18.8498

>  <SCORE.INTER.norm>
-0.459651

>  <SCORE.INTRA>
-2.91301

>  <SCORE.INTRA.DIHEDRAL>
-5.48709

>  <SCORE.INTRA.DIHEDRAL.0>
10.1225

>  <SCORE.INTRA.POLAR>
0

>  <SCORE.INTRA.POLAR.0>
0

>  <SCORE.INTRA.REPUL>
0

>  <SCORE.INTRA.REPUL.0>
0

>  <SCORE.INTRA.SOLV>
-0.427623

>  <SCORE.INTRA.SOLV.lig_0>
-49.9393

>  <SCORE.INTRA.VDW>
0.0443479

>  <SCORE.INTRA.VDW.0>
-1.75437

>  <SCORE.INTRA.norm>
-0.112039

>  <SCORE.RESTR>
0

>  <SCORE.RESTR.CAVITY>
0

>  <SCORE.RESTR.norm>
0

>  <SCORE.SYSTEM>
0

>  <SCORE.SYSTEM.CONST>
0

>  <SCORE.SYSTEM.DIHEDRAL>
0

>  <SCORE.SYSTEM.SOLV>
0

>  <SCORE.SYSTEM.norm>
0

>  <SCORE.heavy>
26

>  <SCORE.norm>
-0.571689

>  <RMSD>
9.077

$$$$
ligand
 OpenBabel11021811473D
libRbt.so/2013.1/901 2013/11/27
 26 28  0  0  0  0  0  0  0  0999 V2000
   -5.2693   14.2990  -25.5379 N   0  0  0  0  0  0  0  0  0  0  0  0
   -5.8298   15.1547  -24.4848 C   0  0  2  0  0  0  0  0  0  0  0  0
   -4.8573   15.2396  -23.3379 C   0  0  0  0  0  0  0  0  0  0  0  0
   -4.3285   14.2372  -22.9174 O   0  0  0  0  0  0  0  0  0  0  0  0
   -7.1494   14.5580  -23.9926 C   0  0  0  0  0  0  0  0  0  0  0  0
   -7.8372   15.5462  -23.0524 C   0  0  0  0  0  0  0  0  0  0  0  0
   -9.3458   15.1776  -22.3652 S   0  0  0  0  0  0  0  0  0  0  0  0
  -10.0423   13.9478  -21.2323 C   0  0  0  0  0  0  0  0  0  0  0  0
  -11.5703   13.9833  -21.1071 C   0  0  1  0  0  0  0  0  0  0  0  0
  -12.2177   13.8949  -22.3632 O   0  0  0  0  0  0  0  0  0  0  0  0
  -12.1072   12.7847  -20.3613 C   0  0  1  0  0  0  0  0  0  0  0  0
  -13.3574   13.2008  -19.8568 O   0  0  0  0  0  0  0  0  0  0  0  0
  -12.3530   11.7364  -21.4213 C   0  0  1  0  0  0  0  0  0  0  0  0
  -13.5614   11.0604  -21.1503 O   0  0  0  0  0  0  0  0  0  0  0  0
  -12.5022   12.5476  -22.6902 C   0  0  2  0  0  0  0  0  0  0  0  0
   -4.5783   16.4287  -22.7793 O   0  0  0  0  0  0  0  0  0  0  0  0
  -10.1394    8.5801  -25.1170 N   0  0  0  0  0  0  0  0  0  0  0  0
  -10.9547    8.5330  -24.0110 C   0  0  0  0  0  0  0  0  0  0  0  0
  -11.4781    9.6986  -23.5054 N   0  0  0  0  0  0  0  0  0  0  0  0
  -11.2021   10.8841  -24.0829 C   0  0  0  0  0  0  0  0  0  0  0  0
  -10.3856   10.9540  -25.1960 C   0  0  0  0  0  0  0  0  0  0  0  0
   -9.8483    9.7811  -25.7133 C   0  0  0  0  0  0  0  0  0  0  0  0
   -9.0563    9.8028  -26.7781 N   0  0  0  0  0  0  0  0  0  0  0  0
  -10.2795   12.2508  -25.5624 N   0  0  0  0  0  0  0  0  0  0  0  0
  -11.0145   12.9905  -24.7093 C   0  0  0  0  0  0  0  0  0  0  0  0
  -11.5850   12.1609  -23.7779 N   0  0  0  0  0  0  0  0  0  0  0  0
  2  1  1  6  0  0  0
  2  3  1  0  0  0  0
  2  5  1  0  0  0  0
  3  4  1  0  0  0  0
  3 16  1  0  0  0  0
  5  6  1  0  0  0  0
  6  7  1  0  0  0  0
  7  8  1  0  0  0  0
  9  8  1  6  0  0  0
  9 10  1  0  0  0  0
  9 11  1  0  0  0  0
 10 15  1  0  0  0  0
 11 12  1  6  0  0  0
 11 13  1  0  0  0  0
 13 14  1  1  0  0  0
 13 15  1  0  0  0  0
 15 26  1  6  0  0  0
 17 18  2  0  0  0  0
 17 22  1  0  0  0  0
 18 19  1  0  0  0  0
 19 20  2  0  0  0  0
 20 21  1  0  0  0  0
 20 26  1  0  0  0  0
 21 22  2  0  0  0  0
 21 24  1  0  0  0  0
 22 23  1  0  0  0  0
 24 25  2  0  0  0  0
 25 26  1  0  0  0  0
M  END
>  <CHROM.1>
-45.98483695,-171.57958737,178.76914019,63.38787736,-171.80538179,53.75312306
156.56535062,-9.68883511,12.85355551,-23.24251552,-0.32278207,-0.46598633
-2.44056053

>  <Name>
ligand

>  <RI>
0

>  <Rbt.Current_Directory>
/home/itssahil/PROJECTS/Mol_Feturizer/New_Systems/rnas/3E5E

>  <Rbt.Executable>
rbdock ($Id: //depot/dev/client3/rdock/2013.1/src/exe/rbdock.cxx#4 $)

>  <Rbt.Library>
libRbt.so (2013.1, Build901 2013/11/27)

>  <Rbt.Parameter_File>
/export/apps/rDock/src/rDock_2013.1_src/data/scripts/dock_solv.prm

>  <Rbt.Receptor>
prm/pocket_docking_8.prm

>  <SCORE>
-17.6337

>  <SCORE.INTER>
-12.8378

>  <SCORE.INTER.CONST>
1

>  <SCORE.INTER.POLAR>
0

>  <SCORE.INTER.ROT>
7

>  <SCORE.INTER.SOLV>
7.0123

>  <SCORE.INTER.VDW>
-19.1626

>  <SCORE.INTER.norm>
-0.49376

>  <SCORE.INTRA>
-4.79597

>  <SCORE.INTRA.DIHEDRAL>
-7.00487

>  <SCORE.INTRA.DIHEDRAL.0>
10.1225

>  <SCORE.INTRA.POLAR>
0

>  <SCORE.INTRA.POLAR.0>
0

>  <SCORE.INTRA.REPUL>
0

>  <SCORE.INTRA.REPUL.0>
0

>  <SCORE.INTRA.SOLV>
-0.504536

>  <SCORE.INTRA.SOLV.lig_0>
-49.9393

>  <SCORE.INTRA.VDW>
-1.04126

>  <SCORE.INTRA.VDW.0>
-1.75437

>  <SCORE.INTRA.norm>
-0.18446

>  <SCORE.RESTR>
0

>  <SCORE.RESTR.CAVITY>
0

>  <SCORE.RESTR.norm>
0

>  <SCORE.SYSTEM>
0

>  <SCORE.SYSTEM.CONST>
0

>  <SCORE.SYSTEM.DIHEDRAL>
0

>  <SCORE.SYSTEM.SOLV>
0

>  <SCORE.SYSTEM.norm>
0

>  <SCORE.heavy>
26

>  <SCORE.norm>
-0.67822

>  <RMSD>
9.081

$$$$
ligand
 OpenBabel11021811473D
libRbt.so/2013.1/901 2013/11/27
 26 28  0  0  0  0  0  0  0  0999 V2000
  -11.5612   11.2669  -22.4652 N   0  0  0  0  0  0  0  0  0  0  0  0
  -12.3354   12.5123  -22.3936 C   0  0  2  0  0  0  0  0  0  0  0  0
  -11.8230   13.4807  -23.4269 C   0  0  0  0  0  0  0  0  0  0  0  0
  -12.4835   13.7224  -24.4099 O   0  0  0  0  0  0  0  0  0  0  0  0
  -12.1858   13.1252  -21.0001 C   0  0  0  0  0  0  0  0  0  0  0  0
  -13.0220   12.3290  -19.9999 C   0  0  0  0  0  0  0  0  0  0  0  0
  -12.7860   10.6575  -19.8139 S   0  0  0  0  0  0  0  0  0  0  0  0
  -13.7126    9.2301  -19.1937 C   0  0  0  0  0  0  0  0  0  0  0  0
  -15.2278    9.4437  -19.0917 C   0  0  1  0  0  0  0  0  0  0  0  0
  -15.7840    9.9511  -20.2909 O   0  0  0  0  0  0  0  0  0  0  0  0
  -15.9726    8.1447  -18.8929 C   0  0  1  0  0  0  0  0  0  0  0  0
  -17.1919    8.5142  -18.2869 O   0  0  0  0  0  0  0  0  0  0  0  0
  -16.2727    7.6433  -20.2864 C   0  0  1  0  0  0  0  0  0  0  0  0
  -17.5764    7.1056  -20.3275 O   0  0  0  0  0  0  0  0  0  0  0  0
  -16.2173    8.8979  -21.1311 C   0  0  2  0  0  0  0  0  0  0  0  0
  -10.6303   14.0750  -23.2586 O   0  0  0  0  0  0  0  0  0  0  0  0
  -14.2537    5.8996  -24.9216 N   0  0  0  0  0  0  0  0  0  0  0  0
  -15.1548    5.5492  -23.9442 C   0  0  0  0  0  0  0  0  0  0  0  0
  -15.5464    6.4848  -23.0172 N   0  0  0  0  0  0  0  0  0  0  0  0
  -15.0582    7.7399  -23.0579 C   0  0  0  0  0  0  0  0  0  0  0  0
  -14.1521    8.1135  -24.0325 C   0  0  0  0  0  0  0  0  0  0  0  0
  -13.7469    7.1737  -24.9730 C   0  0  0  0  0  0  0  0  0  0  0  0
  -12.8757    7.4887  -25.9235 N   0  0  0  0  0  0  0  0  0  0  0  0
  -13.8328    9.4126  -23.8380 N   0  0  0  0  0  0  0  0  0  0  0  0
  -14.5221    9.8598  -22.7702 C   0  0  0  0  0  0  0  0  0  0  0  0
  -15.2790    8.8329  -22.2665 N   0  0  0  0  0  0  0  0  0  0  0  0
  2  1  1  1  0  0  0
  2  3  1  0  0  0  0
  2  5  1  0  0  0  0
  3  4  1  0  0  0  0
  3 16  1  0  0  0  0
  5  6  1  0  0  0  0
  6  7  1  0  0  0  0
  7  8  1  0  0  0  0
  9  8  1  6  0  0  0
  9 10  1  0  0  0  0
  9 11  1  0  0  0  0
 10 15  1  0  0  0  0
 11 12  1  1  0  0  0
 11 13  1  0  0  0  0
 13 14  1  1  0  0  0
 13 15  1  0  0  0  0
 15 26  1  6  0  0  0
 17 18  2  0  0  0  0
 17 22  1  0  0  0  0
 18 19  1  0  0  0  0
 19 20  2  0  0  0  0
 20 21  1  0  0  0  0
 20 26  1  0  0  0  0
 21 22  2  0  0  0  0
 21 24  1  0  0  0  0
 22 23  1  0  0  0  0
 24 25  2  0  0  0  0
 25 26  1  0  0  0  0
M  END
>  <CHROM.1>
107.94865965,-74.82782156,56.24583826,-158.65195001,18.43508757,50.74668864
157.50188270,-14.13683416,9.60355139,-21.88151725,-0.35215882,-0.90740007
-2.18783377

>  <Name>
ligand

>  <RI>
0

>  <Rbt.Current_Directory>
/home/itssahil/PROJECTS/Mol_Feturizer/New_Systems/rnas/3E5E

>  <Rbt.Executable>
rbdock ($Id: //depot/dev/client3/rdock/2013.1/src/exe/rbdock.cxx#4 $)

>  <Rbt.Library>
libRbt.so (2013.1, Build901 2013/11/27)

>  <Rbt.Parameter_File>
/export/apps/rDock/src/rDock_2013.1_src/data/scripts/dock_solv.prm

>  <Rbt.Receptor>
prm/pocket_docking_8.prm

>  <SCORE>
-15.8984

>  <SCORE.INTER>
-13.4645

>  <SCORE.INTER.CONST>
1

>  <SCORE.INTER.POLAR>
0

>  <SCORE.INTER.ROT>
7

>  <SCORE.INTER.SOLV>
8.6906

>  <SCORE.INTER.VDW>
-20.1399

>  <SCORE.INTER.norm>
-0.517865

>  <SCORE.INTRA>
-2.43387

>  <SCORE.INTRA.DIHEDRAL>
-3.80766

>  <SCORE.INTRA.DIHEDRAL.0>
10.1225

>  <SCORE.INTRA.POLAR>
0

>  <SCORE.INTRA.POLAR.0>
0

>  <SCORE.INTRA.REPUL>
0

>  <SCORE.INTRA.REPUL.0>
0

>  <SCORE.INTRA.SOLV>
2.47763

>  <SCORE.INTRA.SOLV.lig_0>
-49.9393

>  <SCORE.INTRA.VDW>
-1.76886

>  <SCORE.INTRA.VDW.0>
-1.75437

>  <SCORE.INTRA.norm>
-0.0936105

>  <SCORE.RESTR>
0

>  <SCORE.RESTR.CAVITY>
0

>  <SCORE.RESTR.norm>
0

>  <SCORE.SYSTEM>
0

>  <SCORE.SYSTEM.CONST>
0

>  <SCORE.SYSTEM.DIHEDRAL>
0

>  <SCORE.SYSTEM.SOLV>
0

>  <SCORE.SYSTEM.norm>
0

>  <SCORE.heavy>
26

>  <SCORE.norm>
-0.611476

>  <RMSD>
9.095

$$$$
ligand
 OpenBabel11021811473D
libRbt.so/2013.1/901 2013/11/27
 26 28  0  0  0  0  0  0  0  0999 V2000
   -6.2962   18.1455  -23.9118 N   0  0  0  0  0  0  0  0  0  0  0  0
   -5.9345   16.9080  -23.2096 C   0  0  2  0  0  0  0  0  0  0  0  0
   -4.9809   17.2284  -22.0888 C   0  0  0  0  0  0  0  0  0  0  0  0
   -5.0142   16.5881  -21.0642 O   0  0  0  0  0  0  0  0  0  0  0  0
   -5.2651   15.9435  -24.1901 C   0  0  0  0  0  0  0  0  0  0  0  0
   -5.0488   14.5928  -23.5100 C   0  0  0  0  0  0  0  0  0  0  0  0
   -6.3654   13.5735  -23.1758 S   0  0  0  0  0  0  0  0  0  0  0  0
   -8.1080   13.7377  -22.7098 C   0  0  0  0  0  0  0  0  0  0  0  0
   -8.4388   14.9945  -21.8956 C   0  0  1  0  0  0  0  0  0  0  0  0
   -9.8133   15.0787  -21.5658 O   0  0  0  0  0  0  0  0  0  0  0  0
   -7.7634   14.9903  -20.5446 C   0  0  1  0  0  0  0  0  0  0  0  0
   -7.6914   16.3486  -20.1703 O   0  0  0  0  0  0  0  0  0  0  0  0
   -8.7356   14.2978  -19.6182 C   0  0  1  0  0  0  0  0  0  0  0  0
   -8.7614   14.9618  -18.3735 O   0  0  0  0  0  0  0  0  0  0  0  0
  -10.0690   14.4743  -20.3120 C   0  0  2  0  0  0  0  0  0  0  0  0
   -4.0942   18.2279  -22.2255 O   0  0  0  0  0  0  0  0  0  0  0  0
  -13.1572   11.9079  -23.6422 N   0  0  0  0  0  0  0  0  0  0  0  0
  -12.6910   13.1975  -23.7400 C   0  0  0  0  0  0  0  0  0  0  0  0
  -11.8906   13.7056  -22.7454 N   0  0  0  0  0  0  0  0  0  0  0  0
  -11.5575   12.9531  -21.6786 C   0  0  0  0  0  0  0  0  0  0  0  0
  -12.0144   11.6540  -21.5609 C   0  0  0  0  0  0  0  0  0  0  0  0
  -12.8274   11.1315  -22.5599 C   0  0  0  0  0  0  0  0  0  0  0  0
  -13.2915    9.8903  -22.4850 N   0  0  0  0  0  0  0  0  0  0  0  0
  -11.5336   11.1390  -20.4072 N   0  0  0  0  0  0  0  0  0  0  0  0
  -10.7834   12.0828  -19.8058 C   0  0  0  0  0  0  0  0  0  0  0  0
  -10.7958   13.2186  -20.5744 N   0  0  0  0  0  0  0  0  0  0  0  0
  2  1  1  6  0  0  0
  2  3  1  0  0  0  0
  2  5  1  0  0  0  0
  3  4  1  0  0  0  0
  3 16  1  0  0  0  0
  5  6  1  0  0  0  0
  6  7  1  0  0  0  0
  7  8  1  0  0  0  0
  9  8  1  1  0  0  0
  9 10  1  0  0  0  0
  9 11  1  0  0  0  0
 10 15  1  0  0  0  0
 11 12  1  1  0  0  0
 11 13  1  0  0  0  0
 13 14  1  1  0  0  0
 13 15  1  0  0  0  0
 15 26  1  6  0  0  0
 17 18  2  0  0  0  0
 17 22  1  0  0  0  0
 18 19  1  0  0  0  0
 19 20  2  0  0  0  0
 20 21  1  0  0  0  0
 20 26  1  0  0  0  0
 21 22  2  0  0  0  0
 21 24  1  0  0  0  0
 22 23  1  0  0  0  0
 24 25  2  0  0  0  0
 25 26  1  0  0  0  0
M  END
>  <CHROM.1>
146.24478771,-172.86213851,71.54842423,-33.87945492,-29.34796693,179.59331217
-24.83724666,-8.73447448,14.31494928,-21.87835023,-0.06981610,-0.60777595
-1.81277888

>  <Name>
ligand

>  <RI>
0

>  <Rbt.Current_Directory>
/home/itssahil/PROJECTS/Mol_Feturizer/New_Systems/rnas/3E5E

>  <Rbt.Executable>
rbdock ($Id: //depot/dev/client3/rdock/2013.1/src/exe/rbdock.cxx#4 $)

>  <Rbt.Library>
libRbt.so (2013.1, Build901 2013/11/27)

>  <Rbt.Parameter_File>
/export/apps/rDock/src/rDock_2013.1_src/data/scripts/dock_solv.prm

>  <Rbt.Receptor>
prm/blind_docking_60.prm

>  <SCORE>
-16.8861

>  <SCORE.INTER>
-12.7972

>  <SCORE.INTER.CONST>
1

>  <SCORE.INTER.POLAR>
0

>  <SCORE.INTER.ROT>
7

>  <SCORE.INTER.SOLV>
9.66924

>  <SCORE.INTER.VDW>
-20.0212

>  <SCORE.INTER.norm>
-0.492199

>  <SCORE.INTRA>
-4.08896

>  <SCORE.INTRA.DIHEDRAL>
-4.42531

>  <SCORE.INTRA.DIHEDRAL.0>
10.1225

>  <SCORE.INTRA.POLAR>
0

>  <SCORE.INTRA.POLAR.0>
0

>  <SCORE.INTRA.REPUL>
0

>  <SCORE.INTRA.REPUL.0>
0

>  <SCORE.INTRA.SOLV>
0.238776

>  <SCORE.INTRA.SOLV.lig_0>
-49.9393

>  <SCORE.INTRA.VDW>
-1.99569

>  <SCORE.INTRA.VDW.0>
-1.75437

>  <SCORE.INTRA.norm>
-0.157268

>  <SCORE.RESTR>
0

>  <SCORE.RESTR.CAVITY>
0

>  <SCORE.RESTR.norm>
0

>  <SCORE.SYSTEM>
0

>  <SCORE.SYSTEM.CONST>
0

>  <SCORE.SYSTEM.DIHEDRAL>
0

>  <SCORE.SYSTEM.SOLV>
0

>  <SCORE.SYSTEM.norm>
0

>  <SCORE.heavy>
26

>  <SCORE.norm>
-0.649466

>  <RMSD>
9.114

$$$$
ligand
 OpenBabel11021811473D
libRbt.so/2013.1/901 2013/11/27
 26 28  0  0  0  0  0  0  0  0999 V2000
   -5.7146   17.0676  -22.6707 N   0  0  0  0  0  0  0  0  0  0  0  0
   -6.9927   16.4557  -22.2864 C   0  0  2  0  0  0  0  0  0  0  0  0
   -8.1260   17.3443  -22.7270 C   0  0  0  0  0  0  0  0  0  0  0  0
   -7.9818   18.5442  -22.7466 O   0  0  0  0  0  0  0  0  0  0  0  0
   -7.0386   16.2844  -20.7671 C   0  0  0  0  0  0  0  0  0  0  0  0
   -8.3473   15.6042  -20.3695 C   0  0  0  0  0  0  0  0  0  0  0  0
   -8.8033   14.1287  -21.0760 S   0  0  0  0  0  0  0  0  0  0  0  0
  -10.1020   13.5101  -22.1768 C   0  0  0  0  0  0  0  0  0  0  0  0
  -11.5254   13.9281  -21.7882 C   0  0  1  0  0  0  0  0  0  0  0  0
  -12.5140   13.2066  -22.5002 O   0  0  0  0  0  0  0  0  0  0  0  0
  -11.8389   13.6046  -20.3465 C   0  0  1  0  0  0  0  0  0  0  0  0
  -12.8794   14.4896  -19.9936 O   0  0  0  0  0  0  0  0  0  0  0  0
  -12.4012   12.2023  -20.3687 C   0  0  1  0  0  0  0  0  0  0  0  0
  -13.4875   12.1115  -19.4729 O   0  0  0  0  0  0  0  0  0  0  0  0
  -12.9031   12.0471  -21.7880 C   0  0  2  0  0  0  0  0  0  0  0  0
   -9.2993   16.8046  -23.0961 O   0  0  0  0  0  0  0  0  0  0  0  0
  -14.0072    7.9417  -24.8112 N   0  0  0  0  0  0  0  0  0  0  0  0
  -14.8823    8.8411  -24.2498 C   0  0  0  0  0  0  0  0  0  0  0  0
  -14.3966    9.8589  -23.4648 N   0  0  0  0  0  0  0  0  0  0  0  0
  -13.0738    9.9847  -23.2420 C   0  0  0  0  0  0  0  0  0  0  0  0
  -12.1765    9.0920  -23.7975 C   0  0  0  0  0  0  0  0  0  0  0  0
  -12.6578    8.0569  -24.5904 C   0  0  0  0  0  0  0  0  0  0  0  0
  -11.8318    7.1751  -25.1400 N   0  0  0  0  0  0  0  0  0  0  0  0
  -10.9307    9.4500  -23.4138 N   0  0  0  0  0  0  0  0  0  0  0  0
  -11.0286   10.5472  -22.6380 C   0  0  0  0  0  0  0  0  0  0  0  0
  -12.3513   10.8867  -22.5112 N   0  0  0  0  0  0  0  0  0  0  0  0
  2  1  1  1  0  0  0
  2  3  1  0  0  0  0
  2  5  1  0  0  0  0
  3  4  1  0  0  0  0
  3 16  1  0  0  0  0
  5  6  1  0  0  0  0
  6  7  1  0  0  0  0
  7  8  1  0  0  0  0
  9  8  1  6  0  0  0
  9 10  1  0  0  0  0
  9 11  1  0  0  0  0
 10 15  1  0  0  0  0
 11 12  1  6  0  0  0
 11 13  1  0  0  0  0
 13 14  1  1  0  0  0
 13 15  1  0  0  0  0
 15 26  1  6  0  0  0
 17 18  2  0  0  0  0
 17 22  1  0  0  0  0
 18 19  1  0  0  0  0
 19 20  2  0  0  0  0
 20 21  1  0  0  0  0
 20 26  1  0  0  0  0
 21 22  2  0  0  0  0
 21 24  1  0  0  0  0
 22 23  1  0  0  0  0
 24 25  2  0  0  0  0
 25 26  1  0  0  0  0
M  END
>  <CHROM.1>
-32.51012997,-178.07869719,53.93177989,-113.56757346,-48.49068955,-167.78919769
-108.36946449,-10.91495267,12.84559994,-22.27803509,-0.84606111,-0.55552151
-2.46925803

>  <Name>
ligand

>  <RI>
0

>  <Rbt.Current_Directory>
/home/itssahil/PROJECTS/Mol_Feturizer/New_Systems/rnas/3E5E

>  <Rbt.Executable>
rbdock ($Id: //depot/dev/client3/rdock/2013.1/src/exe/rbdock.cxx#4 $)

>  <Rbt.Library>
libRbt.so (2013.1, Build901 2013/11/27)

>  <Rbt.Parameter_File>
/export/apps/rDock/src/rDock_2013.1_src/data/scripts/dock_solv.prm

>  <Rbt.Receptor>
prm/blind_docking_40.prm

>  <SCORE>
-20.0674

>  <SCORE.INTER>
-17.0829

>  <SCORE.INTER.CONST>
1

>  <SCORE.INTER.POLAR>
0

>  <SCORE.INTER.ROT>
7

>  <SCORE.INTER.SOLV>
7.96285

>  <SCORE.INTER.VDW>
-22.3095

>  <SCORE.INTER.norm>
-0.657035

>  <SCORE.INTRA>
-2.98453

>  <SCORE.INTRA.DIHEDRAL>
-4.2697

>  <SCORE.INTRA.DIHEDRAL.0>
10.1225

>  <SCORE.INTRA.POLAR>
0

>  <SCORE.INTRA.POLAR.0>
0

>  <SCORE.INTRA.REPUL>
0

>  <SCORE.INTRA.REPUL.0>
0

>  <SCORE.INTRA.SOLV>
-0.388742

>  <SCORE.INTRA.SOLV.lig_0>
-49.9393

>  <SCORE.INTRA.VDW>
-0.65531

>  <SCORE.INTRA.VDW.0>
-1.75437

>  <SCORE.INTRA.norm>
-0.11479

>  <SCORE.RESTR>
0

>  <SCORE.RESTR.CAVITY>
0

>  <SCORE.RESTR.norm>
0

>  <SCORE.SYSTEM>
0

>  <SCORE.SYSTEM.CONST>
0

>  <SCORE.SYSTEM.DIHEDRAL>
0

>  <SCORE.SYSTEM.SOLV>
0

>  <SCORE.SYSTEM.norm>
0

>  <SCORE.heavy>
26

>  <SCORE.norm>
-0.771824

>  <RMSD>
9.120

$$$$
ligand
 OpenBabel11021811473D
libRbt.so/2013.1/901 2013/11/27
 26 28  0  0  0  0  0  0  0  0999 V2000
   -5.7895   17.1046  -22.7046 N   0  0  0  0  0  0  0  0  0  0  0  0
   -7.0637   16.4829  -22.3232 C   0  0  2  0  0  0  0  0  0  0  0  0
   -8.2021   17.3733  -22.7467 C   0  0  0  0  0  0  0  0  0  0  0  0
   -9.2546   16.8881  -23.0900 O   0  0  0  0  0  0  0  0  0  0  0  0
   -7.1022   16.2908  -20.8061 C   0  0  0  0  0  0  0  0  0  0  0  0
   -8.4089   15.6047  -20.4117 C   0  0  0  0  0  0  0  0  0  0  0  0
   -8.8467   14.1172  -21.1042 S   0  0  0  0  0  0  0  0  0  0  0  0
  -10.1639   13.4624  -22.1611 C   0  0  0  0  0  0  0  0  0  0  0  0
  -11.5830   13.8640  -21.7409 C   0  0  1  0  0  0  0  0  0  0  0  0
  -12.5787   13.1247  -22.4242 O   0  0  0  0  0  0  0  0  0  0  0  0
  -11.8574   13.5460  -20.2900 C   0  0  1  0  0  0  0  0  0  0  0  0
  -12.9009   14.4194  -19.9177 O   0  0  0  0  0  0  0  0  0  0  0  0
  -12.4012   12.1362  -20.2898 C   0  0  1  0  0  0  0  0  0  0  0  0
  -13.4643   12.0370  -19.3675 O   0  0  0  0  0  0  0  0  0  0  0  0
  -12.9349   11.9650  -21.6955 C   0  0  2  0  0  0  0  0  0  0  0  0
   -8.0483   18.7076  -22.7460 O   0  0  0  0  0  0  0  0  0  0  0  0
  -14.0183    7.9817  -24.8851 N   0  0  0  0  0  0  0  0  0  0  0  0
  -14.8912    8.8937  -24.3407 C   0  0  0  0  0  0  0  0  0  0  0  0
  -14.4127    9.8733  -23.5043 N   0  0  0  0  0  0  0  0  0  0  0  0
  -13.0991    9.9496  -23.2148 C   0  0  0  0  0  0  0  0  0  0  0  0
  -12.2042    9.0434  -23.7520 C   0  0  0  0  0  0  0  0  0  0  0  0
  -12.6784    8.0465  -24.5966 C   0  0  0  0  0  0  0  0  0  0  0  0
  -11.8547    7.1535  -25.1310 N   0  0  0  0  0  0  0  0  0  0  0  0
  -10.9680    9.3498  -23.2988 N   0  0  0  0  0  0  0  0  0  0  0  0
  -11.0692   10.4281  -22.4974 C   0  0  0  0  0  0  0  0  0  0  0  0
  -12.3852   10.8072  -22.4245 N   0  0  0  0  0  0  0  0  0  0  0  0
  2  1  1  1  0  0  0
  2  3  1  0  0  0  0
  2  5  1  0  0  0  0
  3  4  1  0  0  0  0
  3 16  1  0  0  0  0
  5  6  1  0  0  0  0
  6  7  1  0  0  0  0
  7  8  1  0  0  0  0
  9  8  1  6  0  0  0
  9 10  1  0  0  0  0
  9 11  1  0  0  0  0
 10 15  1  0  0  0  0
 11 12  1  6  0  0  0
 11 13  1  0  0  0  0
 13 14  1  1  0  0  0
 13 15  1  0  0  0  0
 15 26  1  6  0  0  0
 17 18  2  0  0  0  0
 17 22  1  0  0  0  0
 18 19  1  0  0  0  0
 19 20  2  0  0  0  0
 20 21  1  0  0  0  0
 20 26  1  0  0  0  0
 21 22  2  0  0  0  0
 21 24  1  0  0  0  0
 22 23  1  0  0  0  0
 24 25  2  0  0  0  0
 25 26  1  0  0  0  0
M  END
>  <CHROM.1>
147.09346765,-178.26568152,55.65960667,-116.36422873,-47.27818046,-168.28761503
-103.07979250,-10.94917765,12.82719520,-22.25790919,-0.83627687,-0.58901673
-2.44967332

>  <Name>
ligand

>  <RI>
0

>  <Rbt.Current_Directory>
/home/itssahil/PROJECTS/Mol_Feturizer/New_Systems/rnas/3E5E

>  <Rbt.Executable>
rbdock ($Id: //depot/dev/client3/rdock/2013.1/src/exe/rbdock.cxx#4 $)

>  <Rbt.Library>
libRbt.so (2013.1, Build901 2013/11/27)

>  <Rbt.Parameter_File>
/export/apps/rDock/src/rDock_2013.1_src/data/scripts/dock_solv.prm

>  <Rbt.Receptor>
prm/blind_docking_80.prm

>  <SCORE>
-19.9992

>  <SCORE.INTER>
-16.98

>  <SCORE.INTER.CONST>
1

>  <SCORE.INTER.POLAR>
0

>  <SCORE.INTER.ROT>
7

>  <SCORE.INTER.SOLV>
7.89908

>  <SCORE.INTER.VDW>
-22.2197

>  <SCORE.INTER.norm>
-0.653079

>  <SCORE.INTRA>
-3.01918

>  <SCORE.INTRA.DIHEDRAL>
-4.3041

>  <SCORE.INTRA.DIHEDRAL.0>
10.1225

>  <SCORE.INTRA.POLAR>
0

>  <SCORE.INTRA.POLAR.0>
0

>  <SCORE.INTRA.REPUL>
0

>  <SCORE.INTRA.REPUL.0>
0

>  <SCORE.INTRA.SOLV>
-0.364678

>  <SCORE.INTRA.SOLV.lig_0>
-49.9393

>  <SCORE.INTRA.VDW>
-0.684788

>  <SCORE.INTRA.VDW.0>
-1.75437

>  <SCORE.INTRA.norm>
-0.116122

>  <SCORE.RESTR>
0

>  <SCORE.RESTR.CAVITY>
0

>  <SCORE.RESTR.norm>
0

>  <SCORE.SYSTEM>
0

>  <SCORE.SYSTEM.CONST>
0

>  <SCORE.SYSTEM.DIHEDRAL>
0

>  <SCORE.SYSTEM.SOLV>
0

>  <SCORE.SYSTEM.norm>
0

>  <SCORE.heavy>
26

>  <SCORE.norm>
-0.769201

>  <RMSD>
9.132

$$$$
ligand
 OpenBabel11021811473D
libRbt.so/2013.1/901 2013/11/27
 26 28  0  0  0  0  0  0  0  0999 V2000
   -5.8406   18.1708  -21.6467 N   0  0  0  0  0  0  0  0  0  0  0  0
   -5.3746   16.8188  -21.3145 C   0  0  2  0  0  0  0  0  0  0  0  0
   -4.2935   16.4103  -22.2801 C   0  0  0  0  0  0  0  0  0  0  0  0
   -4.2303   16.9260  -23.3715 O   0  0  0  0  0  0  0  0  0  0  0  0
   -6.5448   15.8386  -21.4129 C   0  0  0  0  0  0  0  0  0  0  0  0
   -7.4298   15.9743  -20.1752 C   0  0  0  0  0  0  0  0  0  0  0  0
   -8.8957   15.1243  -20.0642 S   0  0  0  0  0  0  0  0  0  0  0  0
   -9.5557   13.5123  -20.5612 C   0  0  0  0  0  0  0  0  0  0  0  0
   -9.4921   13.2295  -22.0671 C   0  0  1  0  0  0  0  0  0  0  0  0
   -9.8090   11.8851  -22.3785 O   0  0  0  0  0  0  0  0  0  0  0  0
  -10.5302   14.0118  -22.8364 C   0  0  1  0  0  0  0  0  0  0  0  0
  -10.0234   14.0934  -24.1505 O   0  0  0  0  0  0  0  0  0  0  0  0
  -11.7556   13.1281  -22.8587 C   0  0  1  0  0  0  0  0  0  0  0  0
  -12.3654   13.1930  -24.1294 O   0  0  0  0  0  0  0  0  0  0  0  0
  -11.1925   11.7405  -22.6395 C   0  0  2  0  0  0  0  0  0  0  0  0
   -3.3998   15.4705  -21.9307 O   0  0  0  0  0  0  0  0  0  0  0  0
  -15.2417    8.9137  -20.9584 N   0  0  0  0  0  0  0  0  0  0  0  0
  -15.0743    9.5083  -22.1866 C   0  0  0  0  0  0  0  0  0  0  0  0
  -13.9328   10.2301  -22.4396 N   0  0  0  0  0  0  0  0  0  0  0  0
  -12.9774   10.3589  -21.4984 C   0  0  0  0  0  0  0  0  0  0  0  0
  -13.1251    9.7685  -20.2573 C   0  0  0  0  0  0  0  0  0  0  0  0
  -14.2776    9.0390  -19.9900 C   0  0  0  0  0  0  0  0  0  0  0  0
  -14.4621    8.4591  -18.8105 N   0  0  0  0  0  0  0  0  0  0  0  0
  -12.0304   10.0566  -19.5185 N   0  0  0  0  0  0  0  0  0  0  0  0
  -11.2011   10.8067  -20.2701 C   0  0  0  0  0  0  0  0  0  0  0  0
  -11.7770   11.0138  -21.4975 N   0  0  0  0  0  0  0  0  0  0  0  0
  2  1  1  6  0  0  0
  2  3  1  0  0  0  0
  2  5  1  0  0  0  0
  3  4  1  0  0  0  0
  3 16  1  0  0  0  0
  5  6  1  0  0  0  0
  6  7  1  0  0  0  0
  7  8  1  0  0  0  0
  9  8  1  1  0  0  0
  9 10  1  0  0  0  0
  9 11  1  0  0  0  0
 10 15  1  0  0  0  0
 11 12  1  6  0  0  0
 11 13  1  0  0  0  0
 13 14  1  6  0  0  0
 13 15  1  0  0  0  0
 15 26  1  1  0  0  0
 17 18  2  0  0  0  0
 17 22  1  0  0  0  0
 18 19  1  0  0  0  0
 19 20  2  0  0  0  0
 20 21  1  0  0  0  0
 20 26  1  0  0  0  0
 21 22  2  0  0  0  0
 21 24  1  0  0  0  0
 22 23  1  0  0  0  0
 24 25  2  0  0  0  0
 25 26  1  0  0  0  0
M  END
>  <CHROM.1>
-23.76471932,-77.42232097,173.94574322,35.86896395,-58.49049380,170.16817829
-161.30933818,-10.01899890,13.03029258,-21.56177041,-0.30566896,0.61990949
1.93926194

>  <Name>
ligand

>  <RI>
0

>  <Rbt.Current_Directory>
/home/itssahil/PROJECTS/Mol_Feturizer/New_Systems/rnas/3E5E

>  <Rbt.Executable>
rbdock ($Id: //depot/dev/client3/rdock/2013.1/src/exe/rbdock.cxx#4 $)

>  <Rbt.Library>
libRbt.so (2013.1, Build901 2013/11/27)

>  <Rbt.Parameter_File>
/export/apps/rDock/src/rDock_2013.1_src/data/scripts/dock_solv.prm

>  <Rbt.Receptor>
prm/blind_docking_40.prm

>  <SCORE>
-19.4373

>  <SCORE.INTER>
-16.3567

>  <SCORE.INTER.CONST>
1

>  <SCORE.INTER.POLAR>
0

>  <SCORE.INTER.ROT>
7

>  <SCORE.INTER.SOLV>
9.94571

>  <SCORE.INTER.VDW>
-22.4864

>  <SCORE.INTER.norm>
-0.629106

>  <SCORE.INTRA>
-3.08055

>  <SCORE.INTRA.DIHEDRAL>
-4.90962

>  <SCORE.INTRA.DIHEDRAL.0>
10.1225

>  <SCORE.INTRA.POLAR>
0

>  <SCORE.INTRA.POLAR.0>
0

>  <SCORE.INTRA.REPUL>
0

>  <SCORE.INTRA.REPUL.0>
0

>  <SCORE.INTRA.SOLV>
-0.0532579

>  <SCORE.INTRA.SOLV.lig_0>
-49.9393

>  <SCORE.INTRA.VDW>
-0.599112

>  <SCORE.INTRA.VDW.0>
-1.75437

>  <SCORE.INTRA.norm>
-0.118483

>  <SCORE.RESTR>
0

>  <SCORE.RESTR.CAVITY>
0

>  <SCORE.RESTR.norm>
0

>  <SCORE.SYSTEM>
0

>  <SCORE.SYSTEM.CONST>
0

>  <SCORE.SYSTEM.DIHEDRAL>
0

>  <SCORE.SYSTEM.SOLV>
0

>  <SCORE.SYSTEM.norm>
0

>  <SCORE.heavy>
26

>  <SCORE.norm>
-0.747588

>  <RMSD>
9.134

$$$$
ligand
 OpenBabel11021811473D
libRbt.so/2013.1/901 2013/11/27
 26 28  0  0  0  0  0  0  0  0999 V2000
   -6.0317   18.0161  -21.6757 N   0  0  0  0  0  0  0  0  0  0  0  0
   -7.2792   17.2860  -21.4182 C   0  0  2  0  0  0  0  0  0  0  0  0
   -7.1254   16.4560  -20.1709 C   0  0  0  0  0  0  0  0  0  0  0  0
   -8.0036   16.4431  -19.3405 O   0  0  0  0  0  0  0  0  0  0  0  0
   -7.5884   16.3721  -22.6052 C   0  0  0  0  0  0  0  0  0  0  0  0
   -8.9118   15.6492  -22.3615 C   0  0  0  0  0  0  0  0  0  0  0  0
   -9.5714   14.6309  -23.5499 S   0  0  0  0  0  0  0  0  0  0  0  0
  -10.8399   13.3429  -23.6631 C   0  0  0  0  0  0  0  0  0  0  0  0
  -12.1234   13.6355  -22.8766 C   0  0  1  0  0  0  0  0  0  0  0  0
  -13.1055   12.6305  -23.0514 O   0  0  0  0  0  0  0  0  0  0  0  0
  -11.8895   13.6281  -21.3844 C   0  0  1  0  0  0  0  0  0  0  0  0
  -12.9313   14.4148  -20.8494 O   0  0  0  0  0  0  0  0  0  0  0  0
  -12.1133   12.1965  -20.9557 C   0  0  1  0  0  0  0  0  0  0  0  0
  -12.8158   12.1709  -19.7324 O   0  0  0  0  0  0  0  0  0  0  0  0
  -12.9905   11.6339  -22.0532 C   0  0  2  0  0  0  0  0  0  0  0  0
   -6.0111   15.7313  -19.9786 O   0  0  0  0  0  0  0  0  0  0  0  0
  -14.1555    7.3944  -24.8609 N   0  0  0  0  0  0  0  0  0  0  0  0
  -15.0160    8.3421  -24.3593 C   0  0  0  0  0  0  0  0  0  0  0  0
  -14.5156    9.3904  -23.6254 N   0  0  0  0  0  0  0  0  0  0  0  0
  -13.1926    9.4993  -23.3947 C   0  0  0  0  0  0  0  0  0  0  0  0
  -12.3099    8.5582  -23.8905 C   0  0  0  0  0  0  0  0  0  0  0  0
  -12.8062    7.4920  -24.6314 C   0  0  0  0  0  0  0  0  0  0  0  0
  -11.9947    6.5638  -25.1227 N   0  0  0  0  0  0  0  0  0  0  0  0
  -11.0604    8.9094  -23.5127 N   0  0  0  0  0  0  0  0  0  0  0  0
  -11.1415   10.0492  -22.7990 C   0  0  0  0  0  0  0  0  0  0  0  0
  -12.4576   10.4240  -22.7059 N   0  0  0  0  0  0  0  0  0  0  0  0
  2  1  1  6  0  0  0
  2  3  1  0  0  0  0
  2  5  1  0  0  0  0
  3  4  1  0  0  0  0
  3 16  1  0  0  0  0
  5  6  1  0  0  0  0
  6  7  1  0  0  0  0
  7  8  1  0  0  0  0
  9  8  1  6  0  0  0
  9 10  1  0  0  0  0
  9 11  1  0  0  0  0
 10 15  1  0  0  0  0
 11 12  1  1  0  0  0
 11 13  1  0  0  0  0
 13 14  1  1  0  0  0
 13 15  1  0  0  0  0
 15 26  1  6  0  0  0
 17 18  2  0  0  0  0
 17 22  1  0  0  0  0
 18 19  1  0  0  0  0
 19 20  2  0  0  0  0
 20 21  1  0  0  0  0
 20 26  1  0  0  0  0
 21 22  2  0  0  0  0
 21 24  1  0  0  0  0
 22 23  1  0  0  0  0
 24 25  2  0  0  0  0
 25 26  1  0  0  0  0
M  END
>  <CHROM.1>
134.93948895,-177.97855320,176.29228323,164.39199968,41.11053489,177.08766382
-82.96708881,-10.96021201,12.55781943,-22.47124446,-0.91632057,-0.38813724
-2.52242416

>  <Name>
ligand

>  <RI>
0

>  <Rbt.Current_Directory>
/home/itssahil/PROJECTS/Mol_Feturizer/New_Systems/rnas/3E5E

>  <Rbt.Executable>
rbdock ($Id: //depot/dev/client3/rdock/2013.1/src/exe/rbdock.cxx#4 $)

>  <Rbt.Library>
libRbt.so (2013.1, Build901 2013/11/27)

>  <Rbt.Parameter_File>
/export/apps/rDock/src/rDock_2013.1_src/data/scripts/dock_solv.prm

>  <Rbt.Receptor>
prm/pocket_docking_7.prm

>  <SCORE>
-21.3652

>  <SCORE.INTER>
-17.3819

>  <SCORE.INTER.CONST>
1

>  <SCORE.INTER.POLAR>
0

>  <SCORE.INTER.ROT>
7

>  <SCORE.INTER.SOLV>
10.1824

>  <SCORE.INTER.VDW>
-23.2487

>  <SCORE.INTER.norm>
-0.668536

>  <SCORE.INTRA>
-3.98324

>  <SCORE.INTRA.DIHEDRAL>
-6.52669

>  <SCORE.INTRA.DIHEDRAL.0>
10.1225

>  <SCORE.INTRA.POLAR>
0

>  <SCORE.INTRA.POLAR.0>
0

>  <SCORE.INTRA.REPUL>
0

>  <SCORE.INTRA.REPUL.0>
0

>  <SCORE.INTRA.SOLV>
-0.56864

>  <SCORE.INTRA.SOLV.lig_0>
-49.9393

>  <SCORE.INTRA.VDW>
-0.435576

>  <SCORE.INTRA.VDW.0>
-1.75437

>  <SCORE.INTRA.norm>
-0.153202

>  <SCORE.RESTR>
0

>  <SCORE.RESTR.CAVITY>
0

>  <SCORE.RESTR.norm>
0

>  <SCORE.SYSTEM>
0

>  <SCORE.SYSTEM.CONST>
0

>  <SCORE.SYSTEM.DIHEDRAL>
0

>  <SCORE.SYSTEM.SOLV>
0

>  <SCORE.SYSTEM.norm>
0

>  <SCORE.heavy>
26

>  <SCORE.norm>
-0.821737

>  <RMSD>
9.145

$$$$
ligand
 OpenBabel11021811473D
libRbt.so/2013.1/901 2013/11/27
 26 28  0  0  0  0  0  0  0  0999 V2000
   -5.7227   18.0447  -22.0265 N   0  0  0  0  0  0  0  0  0  0  0  0
   -5.2594   16.8294  -21.3453 C   0  0  2  0  0  0  0  0  0  0  0  0
   -4.0370   16.2976  -22.0462 C   0  0  0  0  0  0  0  0  0  0  0  0
   -3.6663   15.1656  -21.8410 O   0  0  0  0  0  0  0  0  0  0  0  0
   -6.3665   15.7744  -21.3776 C   0  0  0  0  0  0  0  0  0  0  0  0
   -7.4319   16.1207  -20.3390 C   0  0  0  0  0  0  0  0  0  0  0  0
   -8.8341   15.1742  -20.1915 S   0  0  0  0  0  0  0  0  0  0  0  0
   -9.4152   13.5413  -20.7180 C   0  0  0  0  0  0  0  0  0  0  0  0
   -9.3010   13.2744  -22.2238 C   0  0  1  0  0  0  0  0  0  0  0  0
   -9.5852   11.9280  -22.5572 O   0  0  0  0  0  0  0  0  0  0  0  0
  -10.3285   14.0466  -23.0172 C   0  0  1  0  0  0  0  0  0  0  0  0
   -9.7834   14.1496  -24.3144 O   0  0  0  0  0  0  0  0  0  0  0  0
  -11.5373   13.1426  -23.0851 C   0  0  1  0  0  0  0  0  0  0  0  0
  -12.1092   13.2096  -24.3732 O   0  0  0  0  0  0  0  0  0  0  0  0
  -10.9574   11.7627  -22.8617 C   0  0  2  0  0  0  0  0  0  0  0  0
   -3.3558   17.0815  -22.8979 O   0  0  0  0  0  0  0  0  0  0  0  0
  -15.0996    9.0208  -21.2684 N   0  0  0  0  0  0  0  0  0  0  0  0
  -14.9150    9.6546  -22.4744 C   0  0  0  0  0  0  0  0  0  0  0  0
  -13.7492   10.3442  -22.7056 N   0  0  0  0  0  0  0  0  0  0  0  0
  -12.7868   10.4037  -21.7646 C   0  0  0  0  0  0  0  0  0  0  0  0
  -12.9515    9.7730  -20.5457 C   0  0  0  0  0  0  0  0  0  0  0  0
  -14.1285    9.0755  -20.3005 C   0  0  0  0  0  0  0  0  0  0  0  0
  -14.3298    8.4589  -19.1426 N   0  0  0  0  0  0  0  0  0  0  0  0
  -11.8448    9.9943  -19.8016 N   0  0  0  0  0  0  0  0  0  0  0  0
  -10.9918   10.7419  -20.5286 C   0  0  0  0  0  0  0  0  0  0  0  0
  -11.5638   11.0150  -21.7449 N   0  0  0  0  0  0  0  0  0  0  0  0
  2  1  1  6  0  0  0
  2  3  1  0  0  0  0
  2  5  1  0  0  0  0
  3  4  1  0  0  0  0
  3 16  1  0  0  0  0
  5  6  1  0  0  0  0
  6  7  1  0  0  0  0
  7  8  1  0  0  0  0
  9  8  1  1  0  0  0
  9 10  1  0  0  0  0
  9 11  1  0  0  0  0
 10 15  1  0  0  0  0
 11 12  1  6  0  0  0
 11 13  1  0  0  0  0
 13 14  1  6  0  0  0
 13 15  1  0  0  0  0
 15 26  1  1  0  0  0
 17 18  2  0  0  0  0
 17 22  1  0  0  0  0
 18 19  1  0  0  0  0
 19 20  2  0  0  0  0
 20 21  1  0  0  0  0
 20 26  1  0  0  0  0
 21 22  2  0  0  0  0
 21 24  1  0  0  0  0
 22 23  1  0  0  0  0
 24 25  2  0  0  0  0
 25 26  1  0  0  0  0
M  END
>  <CHROM.1>
-163.87813359,-76.76773512,176.83892805,15.70095883,-53.71952772,171.53236252
-165.24741411,-9.83915882,13.04469271,-21.71815722,0.30271565,-0.61066534
-1.15443529

>  <Name>
ligand

>  <RI>
0

>  <Rbt.Current_Directory>
/home/itssahil/PROJECTS/Mol_Feturizer/New_Systems/rnas/3E5E

>  <Rbt.Executable>
rbdock ($Id: //depot/dev/client3/rdock/2013.1/src/exe/rbdock.cxx#4 $)

>  <Rbt.Library>
libRbt.so (2013.1, Build901 2013/11/27)

>  <Rbt.Parameter_File>
/export/apps/rDock/src/rDock_2013.1_src/data/scripts/dock_solv.prm

>  <Rbt.Receptor>
prm/blind_docking_80.prm

>  <SCORE>
-19.4288

>  <SCORE.INTER>
-17.3257

>  <SCORE.INTER.CONST>
1

>  <SCORE.INTER.POLAR>
0

>  <SCORE.INTER.ROT>
7

>  <SCORE.INTER.SOLV>
9.42242

>  <SCORE.INTER.VDW>
-22.9579

>  <SCORE.INTER.norm>
-0.666371

>  <SCORE.INTRA>
-2.10314

>  <SCORE.INTRA.DIHEDRAL>
-3.94695

>  <SCORE.INTRA.DIHEDRAL.0>
10.1225

>  <SCORE.INTRA.POLAR>
0

>  <SCORE.INTRA.POLAR.0>
0

>  <SCORE.INTRA.REPUL>
0

>  <SCORE.INTRA.REPUL.0>
0

>  <SCORE.INTRA.SOLV>
0.00982676

>  <SCORE.INTRA.SOLV.lig_0>
-49.9393

>  <SCORE.INTRA.VDW>
-0.134573

>  <SCORE.INTRA.VDW.0>
-1.75437

>  <SCORE.INTRA.norm>
-0.0808898

>  <SCORE.RESTR>
0

>  <SCORE.RESTR.CAVITY>
0

>  <SCORE.RESTR.norm>
0

>  <SCORE.SYSTEM>
0

>  <SCORE.SYSTEM.CONST>
0

>  <SCORE.SYSTEM.DIHEDRAL>
0

>  <SCORE.SYSTEM.SOLV>
0

>  <SCORE.SYSTEM.norm>
0

>  <SCORE.heavy>
26

>  <SCORE.norm>
-0.747261

>  <RMSD>
9.153

$$$$
ligand
 OpenBabel11021811473D
libRbt.so/2013.1/901 2013/11/27
 26 28  0  0  0  0  0  0  0  0999 V2000
   -4.0005   13.3597  -24.8155 N   0  0  0  0  0  0  0  0  0  0  0  0
   -5.1618   12.4620  -24.7836 C   0  0  2  0  0  0  0  0  0  0  0  0
   -6.2193   12.9774  -25.7239 C   0  0  0  0  0  0  0  0  0  0  0  0
   -6.3947   14.1673  -25.8437 O   0  0  0  0  0  0  0  0  0  0  0  0
   -5.7243   12.4079  -23.3622 C   0  0  0  0  0  0  0  0  0  0  0  0
   -7.0114   11.5851  -23.3537 C   0  0  0  0  0  0  0  0  0  0  0  0
   -8.5127   12.3328  -23.0872 S   0  0  0  0  0  0  0  0  0  0  0  0
   -9.3035   13.9237  -23.4405 C   0  0  0  0  0  0  0  0  0  0  0  0
  -10.8153   13.9594  -23.1854 C   0  0  1  0  0  0  0  0  0  0  0  0
  -11.5484   13.2747  -24.1847 O   0  0  0  0  0  0  0  0  0  0  0  0
  -11.1956   13.2265  -21.9207 C   0  0  1  0  0  0  0  0  0  0  0  0
  -12.4324   13.7850  -21.5351 O   0  0  0  0  0  0  0  0  0  0  0  0
  -11.4375   11.7977  -22.3487 C   0  0  1  0  0  0  0  0  0  0  0  0
  -12.5635   11.2829  -21.6720 O   0  0  0  0  0  0  0  0  0  0  0  0
  -11.7485   11.9207  -23.8247 C   0  0  2  0  0  0  0  0  0  0  0  0
   -6.9705   12.1153  -26.4285 O   0  0  0  0  0  0  0  0  0  0  0  0
  -10.2050    7.0911  -25.0523 N   0  0  0  0  0  0  0  0  0  0  0  0
  -11.0604    7.4785  -24.0482 C   0  0  0  0  0  0  0  0  0  0  0  0
  -11.3380    8.8126  -23.8720 N   0  0  0  0  0  0  0  0  0  0  0  0
  -10.7826    9.7426  -24.6733 C   0  0  0  0  0  0  0  0  0  0  0  0
   -9.9207    9.3749  -25.6894 C   0  0  0  0  0  0  0  0  0  0  0  0
   -9.6307    8.0282  -25.8740 C   0  0  0  0  0  0  0  0  0  0  0  0
   -8.8054    7.6314  -26.8347 N   0  0  0  0  0  0  0  0  0  0  0  0
   -9.5162   10.4958  -26.3277 N   0  0  0  0  0  0  0  0  0  0  0  0
  -10.1092   11.5525  -25.7387 C   0  0  0  0  0  0  0  0  0  0  0  0
  -10.8897   11.1055  -24.7033 N   0  0  0  0  0  0  0  0  0  0  0  0
  2  1  1  1  0  0  0
  2  3  1  0  0  0  0
  2  5  1  0  0  0  0
  3  4  1  0  0  0  0
  3 16  1  0  0  0  0
  5  6  1  0  0  0  0
  6  7  1  0  0  0  0
  7  8  1  0  0  0  0
  9  8  1  6  0  0  0
  9 10  1  0  0  0  0
  9 11  1  0  0  0  0
 10 15  1  0  0  0  0
 11 12  1  6  0  0  0
 11 13  1  0  0  0  0
 13 14  1  1  0  0  0
 13 15  1  0  0  0  0
 15 26  1  6  0  0  0
 17 18  2  0  0  0  0
 17 22  1  0  0  0  0
 18 19  1  0  0  0  0
 19 20  2  0  0  0  0
 20 21  1  0  0  0  0
 20 26  1  0  0  0  0
 21 22  2  0  0  0  0
 21 24  1  0  0  0  0
 22 23  1  0  0  0  0
 24 25  2  0  0  0  0
 25 26  1  0  0  0  0
M  END
>  <CHROM.1>
-36.55069865,174.48531959,-110.59437128,33.07466090,168.84874181,-74.75052630
179.56287077,-9.31543529,11.49897992,-24.23399478,-0.25940462,-0.39636927
-2.66960256

>  <Name>
ligand

>  <RI>
0

>  <Rbt.Current_Directory>
/home/itssahil/PROJECTS/Mol_Feturizer/New_Systems/rnas/3E5E

>  <Rbt.Executable>
rbdock ($Id: //depot/dev/client3/rdock/2013.1/src/exe/rbdock.cxx#4 $)

>  <Rbt.Library>
libRbt.so (2013.1, Build901 2013/11/27)

>  <Rbt.Parameter_File>
/export/apps/rDock/src/rDock_2013.1_src/data/scripts/dock_solv.prm

>  <Rbt.Receptor>
prm/blind_docking_80.prm

>  <SCORE>
-11.3509

>  <SCORE.INTER>
-9.76083

>  <SCORE.INTER.CONST>
1

>  <SCORE.INTER.POLAR>
0

>  <SCORE.INTER.ROT>
7

>  <SCORE.INTER.SOLV>
11.1379

>  <SCORE.INTER.VDW>
-18.4865

>  <SCORE.INTER.norm>
-0.375417

>  <SCORE.INTRA>
-1.59004

>  <SCORE.INTRA.DIHEDRAL>
-0.216219

>  <SCORE.INTRA.DIHEDRAL.0>
10.1225

>  <SCORE.INTRA.POLAR>
0

>  <SCORE.INTRA.POLAR.0>
0

>  <SCORE.INTRA.REPUL>
0

>  <SCORE.INTRA.REPUL.0>
0

>  <SCORE.INTRA.SOLV>
-0.0863503

>  <SCORE.INTRA.SOLV.lig_0>
-49.9393

>  <SCORE.INTRA.VDW>
-1.43875

>  <SCORE.INTRA.VDW.0>
-1.75437

>  <SCORE.INTRA.norm>
-0.0611552

>  <SCORE.RESTR>
0

>  <SCORE.RESTR.CAVITY>
0

>  <SCORE.RESTR.norm>
0

>  <SCORE.SYSTEM>
0

>  <SCORE.SYSTEM.CONST>
0

>  <SCORE.SYSTEM.DIHEDRAL>
0

>  <SCORE.SYSTEM.SOLV>
0

>  <SCORE.SYSTEM.norm>
0

>  <SCORE.heavy>
26

>  <SCORE.norm>
-0.436572

>  <RMSD>
9.154

$$$$
ligand
 OpenBabel11021811473D
libRbt.so/2013.1/901 2013/11/27
 26 28  0  0  0  0  0  0  0  0999 V2000
   -4.8438   18.7600  -22.1661 N   0  0  0  0  0  0  0  0  0  0  0  0
   -4.9908   17.4182  -21.5887 C   0  0  2  0  0  0  0  0  0  0  0  0
   -4.3146   16.4117  -22.4819 C   0  0  0  0  0  0  0  0  0  0  0  0
   -4.2711   16.5950  -23.6759 O   0  0  0  0  0  0  0  0  0  0  0  0
   -6.4768   17.0765  -21.4671 C   0  0  0  0  0  0  0  0  0  0  0  0
   -6.6668   15.9967  -20.4033 C   0  0  0  0  0  0  0  0  0  0  0  0
   -8.2133   15.3840  -20.0611 S   0  0  0  0  0  0  0  0  0  0  0  0
   -9.3858   14.2111  -20.7895 C   0  0  0  0  0  0  0  0  0  0  0  0
   -9.0145   13.7217  -22.1947 C   0  0  1  0  0  0  0  0  0  0  0  0
   -9.1879   12.3243  -22.3437 O   0  0  0  0  0  0  0  0  0  0  0  0
   -9.9260   14.2936  -23.2547 C   0  0  1  0  0  0  0  0  0  0  0  0
   -9.1788   14.2289  -24.4497 O   0  0  0  0  0  0  0  0  0  0  0  0
  -11.0713   13.3139  -23.3624 C   0  0  1  0  0  0  0  0  0  0  0  0
  -11.4251   13.1432  -24.7175 O   0  0  0  0  0  0  0  0  0  0  0  0
  -10.4836   12.0257  -22.8282 C   0  0  2  0  0  0  0  0  0  0  0  0
   -3.7614   15.3079  -21.9532 O   0  0  0  0  0  0  0  0  0  0  0  0
  -14.8114    9.4584  -21.4523 N   0  0  0  0  0  0  0  0  0  0  0  0
  -14.4647    9.9306  -22.6961 C   0  0  0  0  0  0  0  0  0  0  0  0
  -13.2761   10.6004  -22.8591 N   0  0  0  0  0  0  0  0  0  0  0  0
  -12.4482   10.7969  -21.8145 C   0  0  0  0  0  0  0  0  0  0  0  0
  -12.7769   10.3298  -20.5558 C   0  0  0  0  0  0  0  0  0  0  0  0
  -13.9786    9.6539  -20.3795 C   0  0  0  0  0  0  0  0  0  0  0  0
  -14.3353    9.1922  -19.1874 N   0  0  0  0  0  0  0  0  0  0  0  0
  -11.7791   10.6628  -19.7068 N   0  0  0  0  0  0  0  0  0  0  0  0
  -10.8337   11.3204  -20.4061 C   0  0  0  0  0  0  0  0  0  0  0  0
  -11.2368   11.4229  -21.7131 N   0  0  0  0  0  0  0  0  0  0  0  0
  2  1  1  6  0  0  0
  2  3  1  0  0  0  0
  2  5  1  0  0  0  0
  3  4  1  0  0  0  0
  3 16  1  0  0  0  0
  5  6  1  0  0  0  0
  6  7  1  0  0  0  0
  7  8  1  0  0  0  0
  9  8  1  1  0  0  0
  9 10  1  0  0  0  0
  9 11  1  0  0  0  0
 10 15  1  0  0  0  0
 11 12  1  6  0  0  0
 11 13  1  0  0  0  0
 13 14  1  6  0  0  0
 13 15  1  0  0  0  0
 15 26  1  1  0  0  0
 17 18  2  0  0  0  0
 17 22  1  0  0  0  0
 18 19  1  0  0  0  0
 19 20  2  0  0  0  0
 20 21  1  0  0  0  0
 20 26  1  0  0  0  0
 21 22  2  0  0  0  0
 21 24  1  0  0  0  0
 22 23  1  0  0  0  0
 24 25  2  0  0  0  0
 25 26  1  0  0  0  0
M  END
>  <CHROM.1>
-31.34902174,-157.49735334,-178.78030680,78.07385591,-9.55235110,135.70387811
-168.74608889,-9.55847312,13.39402205,-21.82518414,-0.14759742,0.66649925
1.70107474

>  <Name>
ligand

>  <RI>
0

>  <Rbt.Current_Directory>
/home/itssahil/PROJECTS/Mol_Feturizer/New_Systems/rnas/3E5E

>  <Rbt.Executable>
rbdock ($Id: //depot/dev/client3/rdock/2013.1/src/exe/rbdock.cxx#4 $)

>  <Rbt.Library>
libRbt.so (2013.1, Build901 2013/11/27)

>  <Rbt.Parameter_File>
/export/apps/rDock/src/rDock_2013.1_src/data/scripts/dock_solv.prm

>  <Rbt.Receptor>
prm/blind_docking_80.prm

>  <SCORE>
-15.4234

>  <SCORE.INTER>
-15.125

>  <SCORE.INTER.CONST>
1

>  <SCORE.INTER.POLAR>
0

>  <SCORE.INTER.ROT>
7

>  <SCORE.INTER.SOLV>
11.0402

>  <SCORE.INTER.VDW>
-22.0301

>  <SCORE.INTER.norm>
-0.581731

>  <SCORE.INTRA>
-0.298369

>  <SCORE.INTRA.DIHEDRAL>
1.52295

>  <SCORE.INTRA.DIHEDRAL.0>
10.1225

>  <SCORE.INTRA.POLAR>
0

>  <SCORE.INTRA.POLAR.0>
0

>  <SCORE.INTRA.REPUL>
0

>  <SCORE.INTRA.REPUL.0>
0

>  <SCORE.INTRA.SOLV>
-0.653707

>  <SCORE.INTRA.SOLV.lig_0>
-49.9393

>  <SCORE.INTRA.VDW>
-0.732992

>  <SCORE.INTRA.VDW.0>
-1.75437

>  <SCORE.INTRA.norm>
-0.0114757

>  <SCORE.RESTR>
0

>  <SCORE.RESTR.CAVITY>
0

>  <SCORE.RESTR.norm>
0

>  <SCORE.SYSTEM>
0

>  <SCORE.SYSTEM.CONST>
0

>  <SCORE.SYSTEM.DIHEDRAL>
0

>  <SCORE.SYSTEM.SOLV>
0

>  <SCORE.SYSTEM.norm>
0

>  <SCORE.heavy>
26

>  <SCORE.norm>
-0.593206

>  <RMSD>
9.155

$$$$
ligand
 OpenBabel11021811473D
libRbt.so/2013.1/901 2013/11/27
 26 28  0  0  0  0  0  0  0  0999 V2000
   -6.0408   15.2963  -23.3272 N   0  0  0  0  0  0  0  0  0  0  0  0
   -6.2939   16.6991  -23.6788 C   0  0  2  0  0  0  0  0  0  0  0  0
   -5.1244   17.5431  -23.2449 C   0  0  0  0  0  0  0  0  0  0  0  0
   -5.0676   18.7078  -23.5630 O   0  0  0  0  0  0  0  0  0  0  0  0
   -7.5618   17.1804  -22.9714 C   0  0  0  0  0  0  0  0  0  0  0  0
   -8.7845   16.5333  -23.6193 C   0  0  0  0  0  0  0  0  0  0  0  0
   -9.1804   14.9146  -23.2921 S   0  0  0  0  0  0  0  0  0  0  0  0
   -9.9289   13.9593  -21.9475 C   0  0  0  0  0  0  0  0  0  0  0  0
  -11.4351   14.1815  -21.7637 C   0  0  1  0  0  0  0  0  0  0  0  0
  -12.1974   13.6125  -22.8125 O   0  0  0  0  0  0  0  0  0  0  0  0
  -11.9672   13.4806  -20.5361 C   0  0  1  0  0  0  0  0  0  0  0  0
  -13.1419   14.1842  -20.1965 O   0  0  0  0  0  0  0  0  0  0  0  0
  -12.3647   12.1016  -21.0087 C   0  0  1  0  0  0  0  0  0  0  0  0
  -13.5788   11.7216  -20.3986 O   0  0  0  0  0  0  0  0  0  0  0  0
  -12.5835   12.2886  -22.4945 C   0  0  2  0  0  0  0  0  0  0  0  0
   -4.1420   17.0019  -22.5061 O   0  0  0  0  0  0  0  0  0  0  0  0
   -9.5006   11.9471  -26.6889 N   0  0  0  0  0  0  0  0  0  0  0  0
  -10.1428   13.0586  -26.1968 C   0  0  0  0  0  0  0  0  0  0  0  0
  -10.9297   12.9454  -25.0761 N   0  0  0  0  0  0  0  0  0  0  0  0
  -11.0762   11.7587  -24.4552 C   0  0  0  0  0  0  0  0  0  0  0  0
  -10.4388   10.6289  -24.9326 C   0  0  0  0  0  0  0  0  0  0  0  0
   -9.6431   10.7319  -26.0676 C   0  0  0  0  0  0  0  0  0  0  0  0
   -9.0163    9.6717  -26.5623 N   0  0  0  0  0  0  0  0  0  0  0  0
  -10.7580    9.5908  -24.1278 N   0  0  0  0  0  0  0  0  0  0  0  0
  -11.5735   10.0465  -23.1570 C   0  0  0  0  0  0  0  0  0  0  0  0
  -11.7910   11.3868  -23.3504 N   0  0  0  0  0  0  0  0  0  0  0  0
  2  1  1  1  0  0  0
  2  3  1  0  0  0  0
  2  5  1  0  0  0  0
  3  4  1  0  0  0  0
  3 16  1  0  0  0  0
  5  6  1  0  0  0  0
  6  7  1  0  0  0  0
  7  8  1  0  0  0  0
  9  8  1  6  0  0  0
  9 10  1  0  0  0  0
  9 11  1  0  0  0  0
 10 15  1  0  0  0  0
 11 12  1  6  0  0  0
 11 13  1  0  0  0  0
 13 14  1  1  0  0  0
 13 15  1  0  0  0  0
 15 26  1  6  0  0  0
 17 18  2  0  0  0  0
 17 22  1  0  0  0  0
 18 19  1  0  0  0  0
 19 20  2  0  0  0  0
 20 21  1  0  0  0  0
 20 26  1  0  0  0  0
 21 22  2  0  0  0  0
 21 24  1  0  0  0  0
 22 23  1  0  0  0  0
 24 25  2  0  0  0  0
 25 26  1  0  0  0  0
M  END
>  <CHROM.1>
172.35585043,-71.88894420,76.64045732,76.15921752,71.16071117,70.86216027
-14.60261520,-9.73475648,13.65106653,-23.31802722,-0.50177334,-0.59668447
-2.38248185

>  <Name>
ligand

>  <RI>
0

>  <Rbt.Current_Directory>
/home/itssahil/PROJECTS/Mol_Feturizer/New_Systems/rnas/3E5E

>  <Rbt.Executable>
rbdock ($Id: //depot/dev/client3/rdock/2013.1/src/exe/rbdock.cxx#4 $)

>  <Rbt.Library>
libRbt.so (2013.1, Build901 2013/11/27)

>  <Rbt.Parameter_File>
/export/apps/rDock/src/rDock_2013.1_src/data/scripts/dock_solv.prm

>  <Rbt.Receptor>
prm/pocket_docking_6.prm

>  <SCORE>
-17.1199

>  <SCORE.INTER>
-14.1063

>  <SCORE.INTER.CONST>
1

>  <SCORE.INTER.POLAR>
0

>  <SCORE.INTER.ROT>
7

>  <SCORE.INTER.SOLV>
8.33117

>  <SCORE.INTER.VDW>
-20.4479

>  <SCORE.INTER.norm>
-0.542549

>  <SCORE.INTRA>
-3.01363

>  <SCORE.INTRA.DIHEDRAL>
-4.78489

>  <SCORE.INTRA.DIHEDRAL.0>
10.1225

>  <SCORE.INTRA.POLAR>
0

>  <SCORE.INTRA.POLAR.0>
0

>  <SCORE.INTRA.REPUL>
0

>  <SCORE.INTRA.REPUL.0>
0

>  <SCORE.INTRA.SOLV>
1.56191

>  <SCORE.INTRA.SOLV.lig_0>
-49.9393

>  <SCORE.INTRA.VDW>
-1.40214

>  <SCORE.INTRA.VDW.0>
-1.75437

>  <SCORE.INTRA.norm>
-0.115909

>  <SCORE.RESTR>
0

>  <SCORE.RESTR.CAVITY>
0

>  <SCORE.RESTR.norm>
0

>  <SCORE.SYSTEM>
0

>  <SCORE.SYSTEM.CONST>
0

>  <SCORE.SYSTEM.DIHEDRAL>
0

>  <SCORE.SYSTEM.SOLV>
0

>  <SCORE.SYSTEM.norm>
0

>  <SCORE.heavy>
26

>  <SCORE.norm>
-0.658458

>  <RMSD>
9.155

$$$$
ligand
 OpenBabel11021811473D
libRbt.so/2013.1/901 2013/11/27
 26 28  0  0  0  0  0  0  0  0999 V2000
   -5.0806   16.7431  -23.9891 N   0  0  0  0  0  0  0  0  0  0  0  0
   -5.0073   15.4530  -23.2921 C   0  0  2  0  0  0  0  0  0  0  0  0
   -3.8695   15.4806  -22.3058 C   0  0  0  0  0  0  0  0  0  0  0  0
   -2.9823   16.2924  -22.4278 O   0  0  0  0  0  0  0  0  0  0  0  0
   -4.7732   14.3365  -24.3111 C   0  0  0  0  0  0  0  0  0  0  0  0
   -5.0326   12.9825  -23.6532 C   0  0  0  0  0  0  0  0  0  0  0  0
   -6.6202   12.4400  -23.3901 S   0  0  0  0  0  0  0  0  0  0  0  0
   -8.3035   13.0972  -23.5163 C   0  0  0  0  0  0  0  0  0  0  0  0
   -8.5478   14.3910  -22.7302 C   0  0  1  0  0  0  0  0  0  0  0  0
   -9.8878   14.8379  -22.8276 O   0  0  0  0  0  0  0  0  0  0  0  0
   -8.3600   14.1969  -21.2441 C   0  0  1  0  0  0  0  0  0  0  0  0
   -8.0710   15.4838  -20.7433 O   0  0  0  0  0  0  0  0  0  0  0  0
   -9.7173   13.7837  -20.7243 C   0  0  1  0  0  0  0  0  0  0  0  0
   -9.9686   14.4218  -19.4913 O   0  0  0  0  0  0  0  0  0  0  0  0
  -10.6717   14.3155  -21.7715 C   0  0  2  0  0  0  0  0  0  0  0  0
   -3.8379   14.6014  -21.2909 O   0  0  0  0  0  0  0  0  0  0  0  0
  -13.0674    9.7436  -21.0151 N   0  0  0  0  0  0  0  0  0  0  0  0
  -12.1943   10.3927  -20.1747 C   0  0  0  0  0  0  0  0  0  0  0  0
  -11.6515   11.5950  -20.5593 N   0  0  0  0  0  0  0  0  0  0  0  0
  -11.9673   12.1434  -21.7487 C   0  0  0  0  0  0  0  0  0  0  0  0
  -12.8436   11.5081  -22.6084 C   0  0  0  0  0  0  0  0  0  0  0  0
  -13.3957   10.2899  -22.2303 C   0  0  0  0  0  0  0  0  0  0  0  0
  -14.2382    9.6439  -23.0269 N   0  0  0  0  0  0  0  0  0  0  0  0
  -12.9781   12.2714  -23.7160 N   0  0  0  0  0  0  0  0  0  0  0  0
  -12.2123   13.3697  -23.5654 C   0  0  0  0  0  0  0  0  0  0  0  0
  -11.5692   13.3021  -22.3559 N   0  0  0  0  0  0  0  0  0  0  0  0
  2  1  1  6  0  0  0
  2  3  1  0  0  0  0
  2  5  1  0  0  0  0
  3  4  1  0  0  0  0
  3 16  1  0  0  0  0
  5  6  1  0  0  0  0
  6  7  1  0  0  0  0
  7  8  1  0  0  0  0
  9  8  1  6  0  0  0
  9 10  1  0  0  0  0
  9 11  1  0  0  0  0
 10 15  1  0  0  0  0
 11 12  1  1  0  0  0
 11 13  1  0  0  0  0
 13 14  1  1  0  0  0
 13 15  1  0  0  0  0
 15 26  1  6  0  0  0
 17 18  2  0  0  0  0
 17 22  1  0  0  0  0
 18 19  1  0  0  0  0
 19 20  2  0  0  0  0
 20 21  1  0  0  0  0
 20 26  1  0  0  0  0
 21 22  2  0  0  0  0
 21 24  1  0  0  0  0
 22 23  1  0  0  0  0
 24 25  2  0  0  0  0
 25 26  1  0  0  0  0
M  END
>  <CHROM.1>
-19.82949905,-166.34200272,76.97085232,-8.25373109,-54.71810482,-178.10261188
144.70218635,-8.87764611,13.37665955,-22.29769089,-0.21323524,-0.39625314
-2.30718170

>  <Name>
ligand

>  <RI>
0

>  <Rbt.Current_Directory>
/home/itssahil/PROJECTS/Mol_Feturizer/New_Systems/rnas/3E5E

>  <Rbt.Executable>
rbdock ($Id: //depot/dev/client3/rdock/2013.1/src/exe/rbdock.cxx#4 $)

>  <Rbt.Library>
libRbt.so (2013.1, Build901 2013/11/27)

>  <Rbt.Parameter_File>
/export/apps/rDock/src/rDock_2013.1_src/data/scripts/dock_solv.prm

>  <Rbt.Receptor>
prm/blind_docking_80.prm

>  <SCORE>
-18.7322

>  <SCORE.INTER>
-15.76

>  <SCORE.INTER.CONST>
1

>  <SCORE.INTER.POLAR>
0

>  <SCORE.INTER.ROT>
7

>  <SCORE.INTER.SOLV>
12.6155

>  <SCORE.INTER.VDW>
-22.9785

>  <SCORE.INTER.norm>
-0.606155

>  <SCORE.INTRA>
-2.97217

>  <SCORE.INTRA.DIHEDRAL>
-3.45348

>  <SCORE.INTRA.DIHEDRAL.0>
10.1225

>  <SCORE.INTRA.POLAR>
0

>  <SCORE.INTRA.POLAR.0>
0

>  <SCORE.INTRA.REPUL>
0

>  <SCORE.INTRA.REPUL.0>
0

>  <SCORE.INTRA.SOLV>
-0.121765

>  <SCORE.INTRA.SOLV.lig_0>
-49.9393

>  <SCORE.INTRA.VDW>
-1.18454

>  <SCORE.INTRA.VDW.0>
-1.75437

>  <SCORE.INTRA.norm>
-0.114314

>  <SCORE.RESTR>
0

>  <SCORE.RESTR.CAVITY>
0

>  <SCORE.RESTR.norm>
0

>  <SCORE.SYSTEM>
0

>  <SCORE.SYSTEM.CONST>
0

>  <SCORE.SYSTEM.DIHEDRAL>
0

>  <SCORE.SYSTEM.SOLV>
0

>  <SCORE.SYSTEM.norm>
0

>  <SCORE.heavy>
26

>  <SCORE.norm>
-0.72047

>  <RMSD>
9.172

$$$$
ligand
 OpenBabel11021811473D
libRbt.so/2013.1/901 2013/11/27
 26 28  0  0  0  0  0  0  0  0999 V2000
   -5.9171   15.5824  -22.1242 N   0  0  0  0  0  0  0  0  0  0  0  0
   -6.4534   14.4185  -22.8405 C   0  0  2  0  0  0  0  0  0  0  0  0
   -5.3255   13.4862  -23.1967 C   0  0  0  0  0  0  0  0  0  0  0  0
   -4.1817   13.8740  -23.1485 O   0  0  0  0  0  0  0  0  0  0  0  0
   -7.1533   14.8852  -24.1180 C   0  0  0  0  0  0  0  0  0  0  0  0
   -8.3735   15.7285  -23.7524 C   0  0  0  0  0  0  0  0  0  0  0  0
   -9.6805   15.0390  -22.9155 S   0  0  0  0  0  0  0  0  0  0  0  0
  -10.8983   13.7232  -23.1737 C   0  0  0  0  0  0  0  0  0  0  0  0
  -12.1828   13.8666  -22.3483 C   0  0  1  0  0  0  0  0  0  0  0  0
  -13.1175   12.8383  -22.6199 O   0  0  0  0  0  0  0  0  0  0  0  0
  -11.9268   13.7128  -20.8677 C   0  0  1  0  0  0  0  0  0  0  0  0
  -12.9975   14.3856  -20.2421 O   0  0  0  0  0  0  0  0  0  0  0  0
  -12.0747   12.2346  -20.5920 C   0  0  1  0  0  0  0  0  0  0  0  0
  -12.7570   12.0445  -19.3717 O   0  0  0  0  0  0  0  0  0  0  0  0
  -12.9397   11.7485  -21.7347 C   0  0  2  0  0  0  0  0  0  0  0  0
   -5.5894   12.2235  -23.5708 O   0  0  0  0  0  0  0  0  0  0  0  0
  -13.9474    7.7248  -24.8984 N   0  0  0  0  0  0  0  0  0  0  0  0
  -14.8449    8.5631  -24.2803 C   0  0  0  0  0  0  0  0  0  0  0  0
  -14.3824    9.5682  -23.4655 N   0  0  0  0  0  0  0  0  0  0  0  0
  -13.0608    9.7408  -23.2682 C   0  0  0  0  0  0  0  0  0  0  0  0
  -12.1414    8.9100  -23.8805 C   0  0  0  0  0  0  0  0  0  0  0  0
  -12.5989    7.8881  -24.7041 C   0  0  0  0  0  0  0  0  0  0  0  0
  -11.7510    7.0649  -25.3084 N   0  0  0  0  0  0  0  0  0  0  0  0
  -10.9024    9.3046  -23.5111 N   0  0  0  0  0  0  0  0  0  0  0  0
  -11.0263   10.3646  -22.6888 C   0  0  0  0  0  0  0  0  0  0  0  0
  -12.3585   10.6425  -22.5176 N   0  0  0  0  0  0  0  0  0  0  0  0
  2  1  1  6  0  0  0
  2  3  1  0  0  0  0
  2  5  1  0  0  0  0
  3  4  1  0  0  0  0
  3 16  1  0  0  0  0
  5  6  1  0  0  0  0
  6  7  1  0  0  0  0
  7  8  1  0  0  0  0
  9  8  1  6  0  0  0
  9 10  1  0  0  0  0
  9 11  1  0  0  0  0
 10 15  1  0  0  0  0
 11 12  1  1  0  0  0
 11 13  1  0  0  0  0
 13 14  1  1  0  0  0
 13 15  1  0  0  0  0
 15 26  1  6  0  0  0
 17 18  2  0  0  0  0
 17 22  1  0  0  0  0
 18 19  1  0  0  0  0
 19 20  2  0  0  0  0
 20 21  1  0  0  0  0
 20 26  1  0  0  0  0
 21 22  2  0  0  0  0
 21 24  1  0  0  0  0
 22 23  1  0  0  0  0
 24 25  2  0  0  0  0
 25 26  1  0  0  0  0
M  END
>  <CHROM.1>
-15.68342044,-65.13558253,-64.19884728,-61.49302708,-157.23406442,178.05440097
-84.65569057,-10.60817536,12.13779440,-22.85324766,0.60445207,0.30817503
0.50306860

>  <Name>
ligand

>  <RI>
0

>  <Rbt.Current_Directory>
/home/itssahil/PROJECTS/Mol_Feturizer/New_Systems/rnas/3E5E

>  <Rbt.Executable>
rbdock ($Id: //depot/dev/client3/rdock/2013.1/src/exe/rbdock.cxx#4 $)

>  <Rbt.Library>
libRbt.so (2013.1, Build901 2013/11/27)

>  <Rbt.Parameter_File>
/export/apps/rDock/src/rDock_2013.1_src/data/scripts/dock_solv.prm

>  <Rbt.Receptor>
prm/blind_docking_80.prm

>  <SCORE>
-19.1741

>  <SCORE.INTER>
-15.8213

>  <SCORE.INTER.CONST>
1

>  <SCORE.INTER.POLAR>
0

>  <SCORE.INTER.ROT>
7

>  <SCORE.INTER.SOLV>
8.77421

>  <SCORE.INTER.VDW>
-21.739

>  <SCORE.INTER.norm>
-0.608513

>  <SCORE.INTRA>
-3.35277

>  <SCORE.INTRA.DIHEDRAL>
-6.60743

>  <SCORE.INTRA.DIHEDRAL.0>
10.1225

>  <SCORE.INTRA.POLAR>
0

>  <SCORE.INTRA.POLAR.0>
0

>  <SCORE.INTRA.REPUL>
0

>  <SCORE.INTRA.REPUL.0>
0

>  <SCORE.INTRA.SOLV>
0.659998

>  <SCORE.INTRA.SOLV.lig_0>
-49.9393

>  <SCORE.INTRA.VDW>
-0.379058

>  <SCORE.INTRA.VDW.0>
-1.75437

>  <SCORE.INTRA.norm>
-0.128953

>  <SCORE.RESTR>
0

>  <SCORE.RESTR.CAVITY>
0

>  <SCORE.RESTR.norm>
0

>  <SCORE.SYSTEM>
0

>  <SCORE.SYSTEM.CONST>
0

>  <SCORE.SYSTEM.DIHEDRAL>
0

>  <SCORE.SYSTEM.SOLV>
0

>  <SCORE.SYSTEM.norm>
0

>  <SCORE.heavy>
26

>  <SCORE.norm>
-0.737465

>  <RMSD>
9.175

$$$$
ligand
 OpenBabel11021811473D
libRbt.so/2013.1/901 2013/11/27
 26 28  0  0  0  0  0  0  0  0999 V2000
   -5.9589   18.0956  -21.7852 N   0  0  0  0  0  0  0  0  0  0  0  0
   -7.1961   17.3676  -21.4773 C   0  0  2  0  0  0  0  0  0  0  0  0
   -6.9722   16.4842  -20.2783 C   0  0  0  0  0  0  0  0  0  0  0  0
   -7.7375   16.5270  -19.3436 O   0  0  0  0  0  0  0  0  0  0  0  0
   -7.5932   16.5079  -22.6785 C   0  0  0  0  0  0  0  0  0  0  0  0
   -8.8814   15.7510  -22.3608 C   0  0  0  0  0  0  0  0  0  0  0  0
   -9.5586   14.6841  -23.4954 S   0  0  0  0  0  0  0  0  0  0  0  0
  -10.8053   13.3704  -23.5279 C   0  0  0  0  0  0  0  0  0  0  0  0
  -12.0918   13.6874  -22.7559 C   0  0  1  0  0  0  0  0  0  0  0  0
  -13.0938   12.7058  -22.9488 O   0  0  0  0  0  0  0  0  0  0  0  0
  -11.8771   13.6666  -21.2609 C   0  0  1  0  0  0  0  0  0  0  0  0
  -12.9077   14.4735  -20.7346 O   0  0  0  0  0  0  0  0  0  0  0  0
  -12.1383   12.2381  -20.8434 C   0  0  1  0  0  0  0  0  0  0  0  0
  -12.8566   12.2215  -19.6291 O   0  0  0  0  0  0  0  0  0  0  0  0
  -13.0138   11.7013  -21.9551 C   0  0  2  0  0  0  0  0  0  0  0  0
   -5.9205   15.6496  -20.2450 O   0  0  0  0  0  0  0  0  0  0  0  0
  -14.2436    7.4856  -24.7709 N   0  0  0  0  0  0  0  0  0  0  0  0
  -15.0891    8.4470  -24.2701 C   0  0  0  0  0  0  0  0  0  0  0  0
  -14.5728    9.4859  -23.5337 N   0  0  0  0  0  0  0  0  0  0  0  0
  -13.2488    9.5720  -23.2997 C   0  0  0  0  0  0  0  0  0  0  0  0
  -12.3810    8.6168  -23.7946 C   0  0  0  0  0  0  0  0  0  0  0  0
  -12.8934    7.5600  -24.5380 C   0  0  0  0  0  0  0  0  0  0  0  0
  -12.0965    6.6188  -25.0285 N   0  0  0  0  0  0  0  0  0  0  0  0
  -11.1266    8.9463  -23.4133 N   0  0  0  0  0  0  0  0  0  0  0  0
  -11.1902   10.0864  -22.6983 C   0  0  0  0  0  0  0  0  0  0  0  0
  -12.4999   10.4833  -22.6079 N   0  0  0  0  0  0  0  0  0  0  0  0
  2  1  1  6  0  0  0
  2  3  1  0  0  0  0
  2  5  1  0  0  0  0
  3  4  1  0  0  0  0
  3 16  1  0  0  0  0
  5  6  1  0  0  0  0
  6  7  1  0  0  0  0
  7  8  1  0  0  0  0
  9  8  1  6  0  0  0
  9 10  1  0  0  0  0
  9 11  1  0  0  0  0
 10 15  1  0  0  0  0
 11 12  1  1  0  0  0
 11 13  1  0  0  0  0
 13 14  1  1  0  0  0
 13 15  1  0  0  0  0
 15 26  1  6  0  0  0
 17 18  2  0  0  0  0
 17 22  1  0  0  0  0
 18 19  1  0  0  0  0
 19 20  2  0  0  0  0
 20 21  1  0  0  0  0
 20 26  1  0  0  0  0
 21 22  2  0  0  0  0
 21 24  1  0  0  0  0
 22 23  1  0  0  0  0
 24 25  2  0  0  0  0
 25 26  1  0  0  0  0
M  END
>  <CHROM.1>
128.80872451,-179.92589752,-178.76984911,165.44400411,43.42930348,172.64957167
-83.67745909,-10.95557750,12.61738394,-22.42302214,-0.89175943,-0.40068439
-2.52127067

>  <Name>
ligand

>  <RI>
0

>  <Rbt.Current_Directory>
/home/itssahil/PROJECTS/Mol_Feturizer/New_Systems/rnas/3E5E

>  <Rbt.Executable>
rbdock ($Id: //depot/dev/client3/rdock/2013.1/src/exe/rbdock.cxx#4 $)

>  <Rbt.Library>
libRbt.so (2013.1, Build901 2013/11/27)

>  <Rbt.Parameter_File>
/export/apps/rDock/src/rDock_2013.1_src/data/scripts/dock_solv.prm

>  <Rbt.Receptor>
prm/blind_docking_100.prm

>  <SCORE>
-21.3595

>  <SCORE.INTER>
-17.3553

>  <SCORE.INTER.CONST>
1

>  <SCORE.INTER.POLAR>
0

>  <SCORE.INTER.ROT>
7

>  <SCORE.INTER.SOLV>
10.0706

>  <SCORE.INTER.VDW>
-23.1937

>  <SCORE.INTER.norm>
-0.66751

>  <SCORE.INTRA>
-4.00421

>  <SCORE.INTRA.DIHEDRAL>
-6.60184

>  <SCORE.INTRA.DIHEDRAL.0>
10.1225

>  <SCORE.INTRA.POLAR>
0

>  <SCORE.INTRA.POLAR.0>
0

>  <SCORE.INTRA.REPUL>
0

>  <SCORE.INTRA.REPUL.0>
0

>  <SCORE.INTRA.SOLV>
-0.598022

>  <SCORE.INTRA.SOLV.lig_0>
-49.9393

>  <SCORE.INTRA.VDW>
-0.404279

>  <SCORE.INTRA.VDW.0>
-1.75437

>  <SCORE.INTRA.norm>
-0.154008

>  <SCORE.RESTR>
0

>  <SCORE.RESTR.CAVITY>
0

>  <SCORE.RESTR.norm>
0

>  <SCORE.SYSTEM>
0

>  <SCORE.SYSTEM.CONST>
0

>  <SCORE.SYSTEM.DIHEDRAL>
0

>  <SCORE.SYSTEM.SOLV>
0

>  <SCORE.SYSTEM.norm>
0

>  <SCORE.heavy>
26

>  <SCORE.norm>
-0.821518

>  <RMSD>
9.179

$$$$
ligand
 OpenBabel11021811473D
libRbt.so/2013.1/901 2013/11/27
 26 28  0  0  0  0  0  0  0  0999 V2000
   -6.4917   15.4093  -26.0596 N   0  0  0  0  0  0  0  0  0  0  0  0
   -7.1162   16.1655  -24.9670 C   0  0  2  0  0  0  0  0  0  0  0  0
   -6.1067   17.1115  -24.3718 C   0  0  0  0  0  0  0  0  0  0  0  0
   -6.3575   18.2911  -24.2900 O   0  0  0  0  0  0  0  0  0  0  0  0
   -7.6039   15.1949  -23.8901 C   0  0  0  0  0  0  0  0  0  0  0  0
   -8.4887   15.9412  -22.8932 C   0  0  0  0  0  0  0  0  0  0  0  0
   -8.9594   15.2057  -21.4367 S   0  0  0  0  0  0  0  0  0  0  0  0
   -9.8857   13.7415  -20.9082 C   0  0  0  0  0  0  0  0  0  0  0  0
  -11.4069   13.9284  -20.8578 C   0  0  1  0  0  0  0  0  0  0  0  0
  -11.9878   13.9839  -22.1479 O   0  0  0  0  0  0  0  0  0  0  0  0
  -12.1033   12.7492  -20.2205 C   0  0  1  0  0  0  0  0  0  0  0  0
  -13.3317   13.2620  -19.7531 O   0  0  0  0  0  0  0  0  0  0  0  0
  -12.3929   11.7982  -21.3584 C   0  0  1  0  0  0  0  0  0  0  0  0
  -13.6767   11.2365  -21.1935 O   0  0  0  0  0  0  0  0  0  0  0  0
  -12.3875   12.6958  -22.5769 C   0  0  2  0  0  0  0  0  0  0  0  0
   -4.9255   16.6459  -23.9337 O   0  0  0  0  0  0  0  0  0  0  0  0
  -10.1507    8.6563  -25.0044 N   0  0  0  0  0  0  0  0  0  0  0  0
  -11.0061    8.6312  -23.9284 C   0  0  0  0  0  0  0  0  0  0  0  0
  -11.4855    9.8128  -23.4166 N   0  0  0  0  0  0  0  0  0  0  0  0
  -11.1275   10.9930  -23.9589 C   0  0  0  0  0  0  0  0  0  0  0  0
  -10.2695   11.0410  -25.0415 C   0  0  0  0  0  0  0  0  0  0  0  0
   -9.7763    9.8516  -25.5648 C   0  0  0  0  0  0  0  0  0  0  0  0
   -8.9468    9.8519  -26.6010 N   0  0  0  0  0  0  0  0  0  0  0  0
  -10.0828   12.3373  -25.3765 N   0  0  0  0  0  0  0  0  0  0  0  0
  -10.8079   13.0982  -24.5337 C   0  0  0  0  0  0  0  0  0  0  0  0
  -11.4538   12.2822  -23.6403 N   0  0  0  0  0  0  0  0  0  0  0  0
  2  1  1  6  0  0  0
  2  3  1  0  0  0  0
  2  5  1  0  0  0  0
  3  4  1  0  0  0  0
  3 16  1  0  0  0  0
  5  6  1  0  0  0  0
  6  7  1  0  0  0  0
  7  8  1  0  0  0  0
  9  8  1  6  0  0  0
  9 10  1  0  0  0  0
  9 11  1  0  0  0  0
 10 15  1  0  0  0  0
 11 12  1  6  0  0  0
 11 13  1  0  0  0  0
 13 14  1  1  0  0  0
 13 15  1  0  0  0  0
 15 26  1  6  0  0  0
 17 18  2  0  0  0  0
 17 22  1  0  0  0  0
 18 19  1  0  0  0  0
 19 20  2  0  0  0  0
 20 21  1  0  0  0  0
 20 26  1  0  0  0  0
 21 22  2  0  0  0  0
 21 24  1  0  0  0  0
 22 23  1  0  0  0  0
 24 25  2  0  0  0  0
 25 26  1  0  0  0  0
M  END
>  <CHROM.1>
125.56038394,-168.97820804,-169.18652605,-60.32637530,-84.33396399,72.85506251
152.63604554,-9.87943959,13.25513399,-23.23877665,-0.48326138,-0.70810947
-2.48178031

>  <Name>
ligand

>  <RI>
0

>  <Rbt.Current_Directory>
/home/itssahil/PROJECTS/Mol_Feturizer/New_Systems/rnas/3E5E

>  <Rbt.Executable>
rbdock ($Id: //depot/dev/client3/rdock/2013.1/src/exe/rbdock.cxx#4 $)

>  <Rbt.Library>
libRbt.so (2013.1, Build901 2013/11/27)

>  <Rbt.Parameter_File>
/export/apps/rDock/src/rDock_2013.1_src/data/scripts/dock_solv.prm

>  <Rbt.Receptor>
prm/blind_docking_60.prm

>  <SCORE>
-16.3971

>  <SCORE.INTER>
-12.2896

>  <SCORE.INTER.CONST>
1

>  <SCORE.INTER.POLAR>
0

>  <SCORE.INTER.ROT>
7

>  <SCORE.INTER.SOLV>
6.34966

>  <SCORE.INTER.VDW>
-18.5763

>  <SCORE.INTER.norm>
-0.472676

>  <SCORE.INTRA>
-4.10854

>  <SCORE.INTRA.DIHEDRAL>
-5.20772

>  <SCORE.INTRA.DIHEDRAL.0>
10.1225

>  <SCORE.INTRA.POLAR>
0

>  <SCORE.INTRA.POLAR.0>
0

>  <SCORE.INTRA.REPUL>
0

>  <SCORE.INTRA.REPUL.0>
0

>  <SCORE.INTRA.SOLV>
-0.532448

>  <SCORE.INTRA.SOLV.lig_0>
-49.9393

>  <SCORE.INTRA.VDW>
-1.23846

>  <SCORE.INTRA.VDW.0>
-1.75437

>  <SCORE.INTRA.norm>
-0.158021

>  <SCORE.RESTR>
0.00101058

>  <SCORE.RESTR.CAVITY>
0.00101058

>  <SCORE.RESTR.norm>
3.88686e-05

>  <SCORE.SYSTEM>
0

>  <SCORE.SYSTEM.CONST>
0

>  <SCORE.SYSTEM.DIHEDRAL>
0

>  <SCORE.SYSTEM.SOLV>
0

>  <SCORE.SYSTEM.norm>
0

>  <SCORE.heavy>
26

>  <SCORE.norm>
-0.630658

>  <RMSD>
9.190

$$$$
ligand
 OpenBabel11021811473D
libRbt.so/2013.1/901 2013/11/27
 26 28  0  0  0  0  0  0  0  0999 V2000
   -5.1824   14.2003  -23.9248 N   0  0  0  0  0  0  0  0  0  0  0  0
   -5.8785   15.1664  -24.7837 C   0  0  2  0  0  0  0  0  0  0  0  0
   -5.3395   16.5482  -24.5223 C   0  0  0  0  0  0  0  0  0  0  0  0
   -4.6840   16.7644  -23.5301 O   0  0  0  0  0  0  0  0  0  0  0  0
   -7.3763   15.1353  -24.4747 C   0  0  0  0  0  0  0  0  0  0  0  0
   -7.9539   13.7818  -24.8848 C   0  0  0  0  0  0  0  0  0  0  0  0
   -9.6250   13.4929  -24.7949 S   0  0  0  0  0  0  0  0  0  0  0  0
  -10.8800   13.2508  -23.5114 C   0  0  0  0  0  0  0  0  0  0  0  0
  -10.8020   14.2407  -22.3427 C   0  0  1  0  0  0  0  0  0  0  0  0
  -11.9319   14.1640  -21.4929 O   0  0  0  0  0  0  0  0  0  0  0  0
   -9.6533   13.9314  -21.4119 C   0  0  1  0  0  0  0  0  0  0  0  0
   -9.3719   15.1527  -20.7640 O   0  0  0  0  0  0  0  0  0  0  0  0
  -10.2198   12.9753  -20.3883 C   0  0  1  0  0  0  0  0  0  0  0  0
   -9.7232   13.3003  -19.1082 O   0  0  0  0  0  0  0  0  0  0  0  0
  -11.7075   13.2490  -20.4368 C   0  0  2  0  0  0  0  0  0  0  0  0
   -5.5889   17.5425  -25.3901 O   0  0  0  0  0  0  0  0  0  0  0  0
  -14.3839    9.3066  -18.3137 N   0  0  0  0  0  0  0  0  0  0  0  0
  -13.6300   10.2615  -17.6736 C   0  0  0  0  0  0  0  0  0  0  0  0
  -12.9824   11.2213  -18.4136 N   0  0  0  0  0  0  0  0  0  0  0  0
  -13.0805   11.2365  -19.7572 C   0  0  0  0  0  0  0  0  0  0  0  0
  -13.8339   10.2864  -20.4207 C   0  0  0  0  0  0  0  0  0  0  0  0
  -14.4902    9.3091  -19.6817 C   0  0  0  0  0  0  0  0  0  0  0  0
  -15.2209    8.3755  -20.2784 N   0  0  0  0  0  0  0  0  0  0  0  0
  -13.7571   10.5359  -21.7471 N   0  0  0  0  0  0  0  0  0  0  0  0
  -12.9797   11.6215  -21.9265 C   0  0  0  0  0  0  0  0  0  0  0  0
  -12.5418   12.0630  -20.7040 N   0  0  0  0  0  0  0  0  0  0  0  0
  2  1  1  1  0  0  0
  2  3  1  0  0  0  0
  2  5  1  0  0  0  0
  3  4  1  0  0  0  0
  3 16  1  0  0  0  0
  5  6  1  0  0  0  0
  6  7  1  0  0  0  0
  7  8  1  0  0  0  0
  9  8  1  6  0  0  0
  9 10  1  0  0  0  0
  9 11  1  0  0  0  0
 10 15  1  0  0  0  0
 11 12  1  1  0  0  0
 11 13  1  0  0  0  0
 13 14  1  1  0  0  0
 13 15  1  0  0  0  0
 15 26  1  6  0  0  0
 17 18  2  0  0  0  0
 17 22  1  0  0  0  0
 18 19  1  0  0  0  0
 19 20  2  0  0  0  0
 20 21  1  0  0  0  0
 20 26  1  0  0  0  0
 21 22  2  0  0  0  0
 21 24  1  0  0  0  0
 22 23  1  0  0  0  0
 24 25  2  0  0  0  0
 25 26  1  0  0  0  0
M  END
>  <CHROM.1>
-15.64351869,-66.25935642,-174.47213347,-71.07323121,45.06692761,169.61019799
-150.13413743,-10.34750165,13.08854943,-21.90738487,-0.41842052,0.66026456
1.47211557

>  <Name>
ligand

>  <RI>
0

>  <Rbt.Current_Directory>
/home/itssahil/PROJECTS/Mol_Feturizer/New_Systems/rnas/3E5E

>  <Rbt.Executable>
rbdock ($Id: //depot/dev/client3/rdock/2013.1/src/exe/rbdock.cxx#4 $)

>  <Rbt.Library>
libRbt.so (2013.1, Build901 2013/11/27)

>  <Rbt.Parameter_File>
/export/apps/rDock/src/rDock_2013.1_src/data/scripts/dock_solv.prm

>  <Rbt.Receptor>
prm/pocket_docking_6.prm

>  <SCORE>
-14.4288

>  <SCORE.INTER>
-10.8697

>  <SCORE.INTER.CONST>
1

>  <SCORE.INTER.POLAR>
0

>  <SCORE.INTER.ROT>
7

>  <SCORE.INTER.SOLV>
7.28309

>  <SCORE.INTER.VDW>
-17.9408

>  <SCORE.INTER.norm>
-0.418065

>  <SCORE.INTRA>
-3.55909

>  <SCORE.INTRA.DIHEDRAL>
-6.14856

>  <SCORE.INTRA.DIHEDRAL.0>
10.1225

>  <SCORE.INTRA.POLAR>
0

>  <SCORE.INTRA.POLAR.0>
0

>  <SCORE.INTRA.REPUL>
0

>  <SCORE.INTRA.REPUL.0>
0

>  <SCORE.INTRA.SOLV>
0.110626

>  <SCORE.INTRA.SOLV.lig_0>
-49.9393

>  <SCORE.INTRA.VDW>
-0.540126

>  <SCORE.INTRA.VDW.0>
-1.75437

>  <SCORE.INTRA.norm>
-0.136888

>  <SCORE.RESTR>
0

>  <SCORE.RESTR.CAVITY>
0

>  <SCORE.RESTR.norm>
0

>  <SCORE.SYSTEM>
0

>  <SCORE.SYSTEM.CONST>
0

>  <SCORE.SYSTEM.DIHEDRAL>
0

>  <SCORE.SYSTEM.SOLV>
0

>  <SCORE.SYSTEM.norm>
0

>  <SCORE.heavy>
26

>  <SCORE.norm>
-0.554953

>  <RMSD>
9.216

$$$$
ligand
 OpenBabel11021811473D
libRbt.so/2013.1/901 2013/11/27
 26 28  0  0  0  0  0  0  0  0999 V2000
   -6.9400   18.5736  -21.9493 N   0  0  0  0  0  0  0  0  0  0  0  0
   -7.3968   17.1817  -21.8514 C   0  0  2  0  0  0  0  0  0  0  0  0
   -6.5369   16.4409  -20.8615 C   0  0  0  0  0  0  0  0  0  0  0  0
   -7.0248   15.9985  -19.8480 O   0  0  0  0  0  0  0  0  0  0  0  0
   -7.2890   16.5131  -23.2229 C   0  0  0  0  0  0  0  0  0  0  0  0
   -7.8903   15.1104  -23.1555 C   0  0  0  0  0  0  0  0  0  0  0  0
   -9.5454   14.8944  -22.8423 S   0  0  0  0  0  0  0  0  0  0  0  0
  -10.8182   13.6414  -23.1445 C   0  0  0  0  0  0  0  0  0  0  0  0
  -12.1532   13.8989  -22.4353 C   0  0  1  0  0  0  0  0  0  0  0  0
  -13.1165   12.9002  -22.7173 O   0  0  0  0  0  0  0  0  0  0  0  0
  -12.0205   13.8304  -20.9322 C   0  0  1  0  0  0  0  0  0  0  0  0
  -13.0997   14.5924  -20.4372 O   0  0  0  0  0  0  0  0  0  0  0  0
  -12.2661   12.3820  -20.5789 C   0  0  1  0  0  0  0  0  0  0  0  0
  -13.0494   12.3045  -19.4079 O   0  0  0  0  0  0  0  0  0  0  0  0
  -13.0646   11.8635  -21.7554 C   0  0  2  0  0  0  0  0  0  0  0  0
   -5.2262   16.2731  -21.1025 O   0  0  0  0  0  0  0  0  0  0  0  0
  -13.9967    7.7956  -24.8854 N   0  0  0  0  0  0  0  0  0  0  0  0
  -14.8922    8.7272  -24.4162 C   0  0  0  0  0  0  0  0  0  0  0  0
  -14.4541    9.7281  -23.5829 N   0  0  0  0  0  0  0  0  0  0  0  0
  -13.1580    9.8060  -23.2235 C   0  0  0  0  0  0  0  0  0  0  0  0
  -12.2408    8.8803  -23.6844 C   0  0  0  0  0  0  0  0  0  0  0  0
  -12.6743    7.8620  -24.5252 C   0  0  0  0  0  0  0  0  0  0  0  0
  -11.8283    6.9498  -24.9876 N   0  0  0  0  0  0  0  0  0  0  0  0
  -11.0296    9.1934  -23.1724 N   0  0  0  0  0  0  0  0  0  0  0  0
  -11.1676   10.2948  -22.4088 C   0  0  0  0  0  0  0  0  0  0  0  0
  -12.4832   10.6825  -22.4196 N   0  0  0  0  0  0  0  0  0  0  0  0
  2  1  1  6  0  0  0
  2  3  1  0  0  0  0
  2  5  1  0  0  0  0
  3  4  1  0  0  0  0
  3 16  1  0  0  0  0
  5  6  1  0  0  0  0
  6  7  1  0  0  0  0
  7  8  1  0  0  0  0
  9  8  1  6  0  0  0
  9 10  1  0  0  0  0
  9 11  1  0  0  0  0
 10 15  1  0  0  0  0
 11 12  1  1  0  0  0
 11 13  1  0  0  0  0
 13 14  1  1  0  0  0
 13 15  1  0  0  0  0
 15 26  1  6  0  0  0
 17 18  2  0  0  0  0
 17 22  1  0  0  0  0
 18 19  1  0  0  0  0
 19 20  2  0  0  0  0
 20 21  1  0  0  0  0
 20 26  1  0  0  0  0
 21 22  2  0  0  0  0
 21 24  1  0  0  0  0
 22 23  1  0  0  0  0
 24 25  2  0  0  0  0
 25 26  1  0  0  0  0
M  END
>  <CHROM.1>
116.31814016,-174.49196561,64.58544740,155.91775303,171.32488333,179.29497355
-81.07428112,-10.85754597,12.76714647,-22.40578255,-0.85400434,-0.39377717
-2.55421397

>  <Name>
ligand

>  <RI>
0

>  <Rbt.Current_Directory>
/home/itssahil/PROJECTS/Mol_Feturizer/New_Systems/rnas/3E5E

>  <Rbt.Executable>
rbdock ($Id: //depot/dev/client3/rdock/2013.1/src/exe/rbdock.cxx#4 $)

>  <Rbt.Library>
libRbt.so (2013.1, Build901 2013/11/27)

>  <Rbt.Parameter_File>
/export/apps/rDock/src/rDock_2013.1_src/data/scripts/dock_solv.prm

>  <Rbt.Receptor>
prm/pocket_docking_8.prm

>  <SCORE>
-19.3877

>  <SCORE.INTER>
-15.5005

>  <SCORE.INTER.CONST>
1

>  <SCORE.INTER.POLAR>
0

>  <SCORE.INTER.ROT>
7

>  <SCORE.INTER.SOLV>
11.3457

>  <SCORE.INTER.VDW>
-22.3822

>  <SCORE.INTER.norm>
-0.596174

>  <SCORE.INTRA>
-3.88717

>  <SCORE.INTRA.DIHEDRAL>
-6.3841

>  <SCORE.INTRA.DIHEDRAL.0>
10.1225

>  <SCORE.INTRA.POLAR>
0

>  <SCORE.INTRA.POLAR.0>
0

>  <SCORE.INTRA.REPUL>
0

>  <SCORE.INTRA.REPUL.0>
0

>  <SCORE.INTRA.SOLV>
-0.521959

>  <SCORE.INTRA.SOLV.lig_0>
-49.9393

>  <SCORE.INTRA.VDW>
-0.434147

>  <SCORE.INTRA.VDW.0>
-1.75437

>  <SCORE.INTRA.norm>
-0.149507

>  <SCORE.RESTR>
0

>  <SCORE.RESTR.CAVITY>
0

>  <SCORE.RESTR.norm>
0

>  <SCORE.SYSTEM>
0

>  <SCORE.SYSTEM.CONST>
0

>  <SCORE.SYSTEM.DIHEDRAL>
0

>  <SCORE.SYSTEM.SOLV>
0

>  <SCORE.SYSTEM.norm>
0

>  <SCORE.heavy>
26

>  <SCORE.norm>
-0.745681

>  <RMSD>
9.221

$$$$
ligand
 OpenBabel11021811473D
libRbt.so/2013.1/901 2013/11/27
 26 28  0  0  0  0  0  0  0  0999 V2000
   -5.9525   17.7127  -21.9822 N   0  0  0  0  0  0  0  0  0  0  0  0
   -6.9971   16.7257  -22.2824 C   0  0  2  0  0  0  0  0  0  0  0  0
   -7.9296   17.2846  -23.3246 C   0  0  0  0  0  0  0  0  0  0  0  0
   -8.0157   16.7535  -24.4070 O   0  0  0  0  0  0  0  0  0  0  0  0
   -7.7833   16.4130  -21.0081 C   0  0  0  0  0  0  0  0  0  0  0  0
   -8.5782   15.1231  -21.2025 C   0  0  0  0  0  0  0  0  0  0  0  0
   -9.6493   14.9573  -22.5099 S   0  0  0  0  0  0  0  0  0  0  0  0
  -10.9326   13.8024  -23.0580 C   0  0  0  0  0  0  0  0  0  0  0  0
  -12.2752   13.9425  -22.3301 C   0  0  1  0  0  0  0  0  0  0  0  0
  -13.1881   12.9176  -22.6781 O   0  0  0  0  0  0  0  0  0  0  0  0
  -12.1310   13.7781  -20.8356 C   0  0  1  0  0  0  0  0  0  0  0  0
  -13.2447   14.4485  -20.2873 O   0  0  0  0  0  0  0  0  0  0  0  0
  -12.3009   12.2983  -20.5819 C   0  0  1  0  0  0  0  0  0  0  0  0
  -13.0729   12.1011  -19.4175 O   0  0  0  0  0  0  0  0  0  0  0  0
  -13.0784   11.8215  -21.7896 C   0  0  2  0  0  0  0  0  0  0  0  0
   -8.6648   18.3755  -23.0535 O   0  0  0  0  0  0  0  0  0  0  0  0
  -13.8666    7.7443  -24.9471 N   0  0  0  0  0  0  0  0  0  0  0  0
  -14.8067    8.5699  -24.3774 C   0  0  0  0  0  0  0  0  0  0  0  0
  -14.4004    9.5930  -23.5551 N   0  0  0  0  0  0  0  0  0  0  0  0
  -13.0924    9.7956  -23.3039 C   0  0  0  0  0  0  0  0  0  0  0  0
  -12.1306    8.9780  -23.8670 C   0  0  0  0  0  0  0  0  0  0  0  0
  -12.5312    7.9381  -24.6976 C   0  0  0  0  0  0  0  0  0  0  0  0
  -11.6415    7.1267  -25.2558 N   0  0  0  0  0  0  0  0  0  0  0  0
  -10.9169    9.4027  -23.4498 N   0  0  0  0  0  0  0  0  0  0  0  0
  -11.0978   10.4684  -22.6456 C   0  0  0  0  0  0  0  0  0  0  0  0
  -12.4415   10.7198  -22.5344 N   0  0  0  0  0  0  0  0  0  0  0  0
  2  1  1  1  0  0  0
  2  3  1  0  0  0  0
  2  5  1  0  0  0  0
  3  4  1  0  0  0  0
  3 16  1  0  0  0  0
  5  6  1  0  0  0  0
  6  7  1  0  0  0  0
  7  8  1  0  0  0  0
  9  8  1  6  0  0  0
  9 10  1  0  0  0  0
  9 11  1  0  0  0  0
 10 15  1  0  0  0  0
 11 12  1  1  0  0  0
 11 13  1  0  0  0  0
 13 14  1  1  0  0  0
 13 15  1  0  0  0  0
 15 26  1  6  0  0  0
 17 18  2  0  0  0  0
 17 22  1  0  0  0  0
 18 19  1  0  0  0  0
 19 20  2  0  0  0  0
 20 21  1  0  0  0  0
 20 26  1  0  0  0  0
 21 22  2  0  0  0  0
 21 24  1  0  0  0  0
 22 23  1  0  0  0  0
 24 25  2  0  0  0  0
 25 26  1  0  0  0  0
M  END
>  <CHROM.1>
116.37621015,-163.62431123,-54.85624381,-169.84730568,77.41513207,-172.82978334
-87.12961925,-11.08275920,12.87200870,-22.62371614,-0.85566302,-0.61319388
-2.50755653

>  <Name>
ligand

>  <RI>
0

>  <Rbt.Current_Directory>
/home/itssahil/PROJECTS/Mol_Feturizer/New_Systems/rnas/3E5E

>  <Rbt.Executable>
rbdock ($Id: //depot/dev/client3/rdock/2013.1/src/exe/rbdock.cxx#4 $)

>  <Rbt.Library>
libRbt.so (2013.1, Build901 2013/11/27)

>  <Rbt.Parameter_File>
/export/apps/rDock/src/rDock_2013.1_src/data/scripts/dock_solv.prm

>  <Rbt.Receptor>
prm/blind_docking_60.prm

>  <SCORE>
-20.6186

>  <SCORE.INTER>
-16.9867

>  <SCORE.INTER.CONST>
1

>  <SCORE.INTER.POLAR>
0

>  <SCORE.INTER.ROT>
7

>  <SCORE.INTER.SOLV>
9.54858

>  <SCORE.INTER.VDW>
-22.774

>  <SCORE.INTER.norm>
-0.653334

>  <SCORE.INTRA>
-3.63189

>  <SCORE.INTRA.DIHEDRAL>
-5.61149

>  <SCORE.INTRA.DIHEDRAL.0>
10.1225

>  <SCORE.INTRA.POLAR>
0

>  <SCORE.INTRA.POLAR.0>
0

>  <SCORE.INTRA.REPUL>
0

>  <SCORE.INTRA.REPUL.0>
0

>  <SCORE.INTRA.SOLV>
-0.34367

>  <SCORE.INTRA.SOLV.lig_0>
-49.9393

>  <SCORE.INTRA.VDW>
-0.654308

>  <SCORE.INTRA.VDW.0>
-1.75437

>  <SCORE.INTRA.norm>
-0.139688

>  <SCORE.RESTR>
0

>  <SCORE.RESTR.CAVITY>
0

>  <SCORE.RESTR.norm>
0

>  <SCORE.SYSTEM>
0

>  <SCORE.SYSTEM.CONST>
0

>  <SCORE.SYSTEM.DIHEDRAL>
0

>  <SCORE.SYSTEM.SOLV>
0

>  <SCORE.SYSTEM.norm>
0

>  <SCORE.heavy>
26

>  <SCORE.norm>
-0.793022

>  <RMSD>
9.230

$$$$
ligand
 OpenBabel11021811473D
libRbt.so/2013.1/901 2013/11/27
 26 28  0  0  0  0  0  0  0  0999 V2000
   -5.4896   16.9191  -24.0204 N   0  0  0  0  0  0  0  0  0  0  0  0
   -5.3790   16.2336  -22.7268 C   0  0  2  0  0  0  0  0  0  0  0  0
   -4.0917   15.4531  -22.6821 C   0  0  0  0  0  0  0  0  0  0  0  0
   -3.2937   15.6522  -21.7962 O   0  0  0  0  0  0  0  0  0  0  0  0
   -6.5616   15.2790  -22.5539 C   0  0  0  0  0  0  0  0  0  0  0  0
   -7.8608   16.0807  -22.4998 C   0  0  0  0  0  0  0  0  0  0  0  0
   -9.3554   15.2927  -22.3287 S   0  0  0  0  0  0  0  0  0  0  0  0
  -10.0901   14.0190  -21.2708 C   0  0  0  0  0  0  0  0  0  0  0  0
  -11.6182   14.0818  -21.1577 C   0  0  1  0  0  0  0  0  0  0  0  0
  -12.2593   13.9415  -22.4124 O   0  0  0  0  0  0  0  0  0  0  0  0
  -12.1766   12.9283  -20.3583 C   0  0  1  0  0  0  0  0  0  0  0  0
  -13.4237   13.3858  -19.8829 O   0  0  0  0  0  0  0  0  0  0  0  0
  -12.4308   11.8334  -21.3679 C   0  0  1  0  0  0  0  0  0  0  0  0
  -13.6503   11.1881  -21.0725 O   0  0  0  0  0  0  0  0  0  0  0  0
  -12.5609   12.5841  -22.6756 C   0  0  2  0  0  0  0  0  0  0  0  0
   -3.8276   14.5368  -23.6279 O   0  0  0  0  0  0  0  0  0  0  0  0
  -10.2077    8.4754  -24.8654 N   0  0  0  0  0  0  0  0  0  0  0  0
  -11.0257    8.4948  -23.7605 C   0  0  0  0  0  0  0  0  0  0  0  0
  -11.5458    9.6892  -23.3238 N   0  0  0  0  0  0  0  0  0  0  0  0
  -11.2640   10.8388  -23.9675 C   0  0  0  0  0  0  0  0  0  0  0  0
  -10.4448   10.8418  -25.0808 C   0  0  0  0  0  0  0  0  0  0  0  0
   -9.9108    9.6392  -25.5288 C   0  0  0  0  0  0  0  0  0  0  0  0
   -9.1163    9.5970  -26.5912 N   0  0  0  0  0  0  0  0  0  0  0  0
  -10.3329   12.1151  -25.5207 N   0  0  0  0  0  0  0  0  0  0  0  0
  -11.0670   12.9051  -24.7130 C   0  0  0  0  0  0  0  0  0  0  0  0
  -11.6428   12.1323  -23.7371 N   0  0  0  0  0  0  0  0  0  0  0  0
  2  1  1  6  0  0  0
  2  3  1  0  0  0  0
  2  5  1  0  0  0  0
  3  4  1  0  0  0  0
  3 16  1  0  0  0  0
  5  6  1  0  0  0  0
  6  7  1  0  0  0  0
  7  8  1  0  0  0  0
  9  8  1  6  0  0  0
  9 10  1  0  0  0  0
  9 11  1  0  0  0  0
 10 15  1  0  0  0  0
 11 12  1  6  0  0  0
 11 13  1  0  0  0  0
 13 14  1  1  0  0  0
 13 15  1  0  0  0  0
 15 26  1  6  0  0  0
 17 18  2  0  0  0  0
 17 22  1  0  0  0  0
 18 19  1  0  0  0  0
 19 20  2  0  0  0  0
 20 21  1  0  0  0  0
 20 26  1  0  0  0  0
 21 22  2  0  0  0  0
 21 24  1  0  0  0  0
 22 23  1  0  0  0  0
 24 25  2  0  0  0  0
 25 26  1  0  0  0  0
M  END
>  <CHROM.1>
123.62213480,-64.04229753,179.34802873,48.72535819,155.69845360,59.67040021
155.75679943,-9.60080985,13.03141336,-22.96798807,-0.48594116,-0.38100715
-2.48358568

>  <Name>
ligand

>  <RI>
0

>  <Rbt.Current_Directory>
/home/itssahil/PROJECTS/Mol_Feturizer/New_Systems/rnas/3E5E

>  <Rbt.Executable>
rbdock ($Id: //depot/dev/client3/rdock/2013.1/src/exe/rbdock.cxx#4 $)

>  <Rbt.Library>
libRbt.so (2013.1, Build901 2013/11/27)

>  <Rbt.Parameter_File>
/export/apps/rDock/src/rDock_2013.1_src/data/scripts/dock_solv.prm

>  <Rbt.Receptor>
prm/blind_docking_60.prm

>  <SCORE>
-18.5531

>  <SCORE.INTER>
-14.7053

>  <SCORE.INTER.CONST>
1

>  <SCORE.INTER.POLAR>
0

>  <SCORE.INTER.ROT>
7

>  <SCORE.INTER.SOLV>
8.96797

>  <SCORE.INTER.VDW>
-21.0595

>  <SCORE.INTER.norm>
-0.565588

>  <SCORE.INTRA>
-3.8478

>  <SCORE.INTRA.DIHEDRAL>
-6.42747

>  <SCORE.INTRA.DIHEDRAL.0>
10.1225

>  <SCORE.INTRA.POLAR>
0

>  <SCORE.INTRA.POLAR.0>
0

>  <SCORE.INTRA.REPUL>
0

>  <SCORE.INTRA.REPUL.0>
0

>  <SCORE.INTRA.SOLV>
0.234332

>  <SCORE.INTRA.SOLV.lig_0>
-49.9393

>  <SCORE.INTRA.VDW>
-0.751227

>  <SCORE.INTRA.VDW.0>
-1.75437

>  <SCORE.INTRA.norm>
-0.147992

>  <SCORE.RESTR>
0

>  <SCORE.RESTR.CAVITY>
0

>  <SCORE.RESTR.norm>
0

>  <SCORE.SYSTEM>
0

>  <SCORE.SYSTEM.CONST>
0

>  <SCORE.SYSTEM.DIHEDRAL>
0

>  <SCORE.SYSTEM.SOLV>
0

>  <SCORE.SYSTEM.norm>
0

>  <SCORE.heavy>
26

>  <SCORE.norm>
-0.71358

>  <RMSD>
9.243

$$$$
ligand
 OpenBabel11021811473D
libRbt.so/2013.1/901 2013/11/27
 26 28  0  0  0  0  0  0  0  0999 V2000
   -6.0963   18.3403  -21.7287 N   0  0  0  0  0  0  0  0  0  0  0  0
   -7.0303   17.2729  -21.3492 C   0  0  2  0  0  0  0  0  0  0  0  0
   -6.2918   16.2129  -20.5752 C   0  0  0  0  0  0  0  0  0  0  0  0
   -6.7389   15.8059  -19.5285 O   0  0  0  0  0  0  0  0  0  0  0  0
   -7.6369   16.6554  -22.6103 C   0  0  0  0  0  0  0  0  0  0  0  0
   -8.7422   15.6765  -22.2183 C   0  0  0  0  0  0  0  0  0  0  0  0
   -9.5667   14.7843  -23.4050 S   0  0  0  0  0  0  0  0  0  0  0  0
  -10.8031   13.4624  -23.4757 C   0  0  0  0  0  0  0  0  0  0  0  0
  -12.0957   13.7508  -22.7026 C   0  0  1  0  0  0  0  0  0  0  0  0
  -13.0808   12.7542  -22.9056 O   0  0  0  0  0  0  0  0  0  0  0  0
  -11.8825   13.7203  -21.2076 C   0  0  1  0  0  0  0  0  0  0  0  0
  -12.9272   14.5051  -20.6756 O   0  0  0  0  0  0  0  0  0  0  0  0
  -12.1201   12.2840  -20.8031 C   0  0  1  0  0  0  0  0  0  0  0  0
  -12.8395   12.2446  -19.5900 O   0  0  0  0  0  0  0  0  0  0  0  0
  -12.9851   11.7425  -21.9207 C   0  0  2  0  0  0  0  0  0  0  0  0
   -5.1341   15.7205  -21.0456 O   0  0  0  0  0  0  0  0  0  0  0  0
  -14.1287    7.5705  -24.8362 N   0  0  0  0  0  0  0  0  0  0  0  0
  -14.9905    8.5182  -24.3370 C   0  0  0  0  0  0  0  0  0  0  0  0
  -14.4964    9.5467  -23.5714 N   0  0  0  0  0  0  0  0  0  0  0  0
  -13.1783    9.6361  -23.3074 C   0  0  0  0  0  0  0  0  0  0  0  0
  -12.2943    8.6946  -23.8001 C   0  0  0  0  0  0  0  0  0  0  0  0
  -12.7843    7.6484  -24.5729 C   0  0  0  0  0  0  0  0  0  0  0  0
  -11.9714    6.7204  -25.0625 N   0  0  0  0  0  0  0  0  0  0  0  0
  -11.0505    9.0243  -23.3860 N   0  0  0  0  0  0  0  0  0  0  0  0
  -11.1362   10.1513  -22.6526 C   0  0  0  0  0  0  0  0  0  0  0  0
  -12.4499   10.5391  -22.5836 N   0  0  0  0  0  0  0  0  0  0  0  0
  2  1  1  6  0  0  0
  2  3  1  0  0  0  0
  2  5  1  0  0  0  0
  3  4  1  0  0  0  0
  3 16  1  0  0  0  0
  5  6  1  0  0  0  0
  6  7  1  0  0  0  0
  7  8  1  0  0  0  0
  9  8  1  6  0  0  0
  9 10  1  0  0  0  0
  9 11  1  0  0  0  0
 10 15  1  0  0  0  0
 11 12  1  1  0  0  0
 11 13  1  0  0  0  0
 13 14  1  1  0  0  0
 13 15  1  0  0  0  0
 15 26  1  6  0  0  0
 17 18  2  0  0  0  0
 17 22  1  0  0  0  0
 18 19  1  0  0  0  0
 19 20  2  0  0  0  0
 20 21  1  0  0  0  0
 20 26  1  0  0  0  0
 21 22  2  0  0  0  0
 21 24  1  0  0  0  0
 22 23  1  0  0  0  0
 24 25  2  0  0  0  0
 25 26  1  0  0  0  0
M  END
>  <CHROM.1>
131.16775322,-172.53522103,-177.63122797,174.08170350,54.64203891,173.70220858
-82.25918766,-10.82245214,12.63897834,-22.44354321,-0.88230941,-0.29016563
-2.60446249

>  <Name>
ligand

>  <RI>
0

>  <Rbt.Current_Directory>
/home/itssahil/PROJECTS/Mol_Feturizer/New_Systems/rnas/3E5E

>  <Rbt.Executable>
rbdock ($Id: //depot/dev/client3/rdock/2013.1/src/exe/rbdock.cxx#4 $)

>  <Rbt.Library>
libRbt.so (2013.1, Build901 2013/11/27)

>  <Rbt.Parameter_File>
/export/apps/rDock/src/rDock_2013.1_src/data/scripts/dock_solv.prm

>  <Rbt.Receptor>
prm/blind_docking_60.prm

>  <SCORE>
-21.2986

>  <SCORE.INTER>
-16.8661

>  <SCORE.INTER.CONST>
1

>  <SCORE.INTER.POLAR>
0

>  <SCORE.INTER.ROT>
7

>  <SCORE.INTER.SOLV>
10.526

>  <SCORE.INTER.VDW>
-23.0194

>  <SCORE.INTER.norm>
-0.648695

>  <SCORE.INTRA>
-4.43252

>  <SCORE.INTRA.DIHEDRAL>
-7.06213

>  <SCORE.INTRA.DIHEDRAL.0>
10.1225

>  <SCORE.INTRA.POLAR>
0

>  <SCORE.INTRA.POLAR.0>
0

>  <SCORE.INTRA.REPUL>
0

>  <SCORE.INTRA.REPUL.0>
0

>  <SCORE.INTRA.SOLV>
-0.598459

>  <SCORE.INTRA.SOLV.lig_0>
-49.9393

>  <SCORE.INTRA.VDW>
-0.60222

>  <SCORE.INTRA.VDW.0>
-1.75437

>  <SCORE.INTRA.norm>
-0.170481

>  <SCORE.RESTR>
0

>  <SCORE.RESTR.CAVITY>
0

>  <SCORE.RESTR.norm>
0

>  <SCORE.SYSTEM>
0

>  <SCORE.SYSTEM.CONST>
0

>  <SCORE.SYSTEM.DIHEDRAL>
0

>  <SCORE.SYSTEM.SOLV>
0

>  <SCORE.SYSTEM.norm>
0

>  <SCORE.heavy>
26

>  <SCORE.norm>
-0.819176

>  <RMSD>
9.249

$$$$
ligand
 OpenBabel11021811473D
libRbt.so/2013.1/901 2013/11/27
 26 28  0  0  0  0  0  0  0  0999 V2000
   -6.1671   17.1184  -22.0962 N   0  0  0  0  0  0  0  0  0  0  0  0
   -6.5909   16.9264  -23.4888 C   0  0  2  0  0  0  0  0  0  0  0  0
   -5.6576   17.6744  -24.4040 C   0  0  0  0  0  0  0  0  0  0  0  0
   -5.3933   17.2276  -25.4955 O   0  0  0  0  0  0  0  0  0  0  0  0
   -8.0144   17.4577  -23.6653 C   0  0  0  0  0  0  0  0  0  0  0  0
   -8.9562   16.7190  -22.7162 C   0  0  0  0  0  0  0  0  0  0  0  0
   -9.2674   15.0624  -22.9240 S   0  0  0  0  0  0  0  0  0  0  0  0
  -10.1145   13.7318  -22.0335 C   0  0  0  0  0  0  0  0  0  0  0  0
  -11.5755   14.0288  -21.6745 C   0  0  1  0  0  0  0  0  0  0  0  0
  -12.4881   13.3246  -22.4969 O   0  0  0  0  0  0  0  0  0  0  0  0
  -11.9279   13.5500  -20.2859 C   0  0  1  0  0  0  0  0  0  0  0  0
  -13.0342   14.3361  -19.9005 O   0  0  0  0  0  0  0  0  0  0  0  0
  -12.4022   12.1268  -20.4665 C   0  0  1  0  0  0  0  0  0  0  0  0
  -13.5170   11.8881  -19.6352 O   0  0  0  0  0  0  0  0  0  0  0  0
  -12.8347   12.0814  -21.9161 C   0  0  2  0  0  0  0  0  0  0  0  0
   -5.1158   18.8377  -24.0073 O   0  0  0  0  0  0  0  0  0  0  0  0
   -9.7954   11.0763  -26.0351 N   0  0  0  0  0  0  0  0  0  0  0  0
  -10.2607   12.2953  -25.6019 C   0  0  0  0  0  0  0  0  0  0  0  0
  -11.0685   12.3564  -24.4921 N   0  0  0  0  0  0  0  0  0  0  0  0
  -11.4067   11.2359  -23.8248 C   0  0  0  0  0  0  0  0  0  0  0  0
  -10.9492   10.0003  -24.2426 C   0  0  0  0  0  0  0  0  0  0  0  0
  -10.1342    9.9272  -25.3661 C   0  0  0  0  0  0  0  0  0  0  0  0
   -9.6760    8.7611  -25.8043 N   0  0  0  0  0  0  0  0  0  0  0  0
  -11.4369    9.0616  -23.4010 N   0  0  0  0  0  0  0  0  0  0  0  0
  -12.1819    9.6818  -22.4653 C   0  0  0  0  0  0  0  0  0  0  0  0
  -12.1838   11.0297  -22.7187 N   0  0  0  0  0  0  0  0  0  0  0  0
  2  1  1  1  0  0  0
  2  3  1  0  0  0  0
  2  5  1  0  0  0  0
  3  4  1  0  0  0  0
  3 16  1  0  0  0  0
  5  6  1  0  0  0  0
  6  7  1  0  0  0  0
  7  8  1  0  0  0  0
  9  8  1  6  0  0  0
  9 10  1  0  0  0  0
  9 11  1  0  0  0  0
 10 15  1  0  0  0  0
 11 12  1  6  0  0  0
 11 13  1  0  0  0  0
 13 14  1  1  0  0  0
 13 15  1  0  0  0  0
 15 26  1  6  0  0  0
 17 18  2  0  0  0  0
 17 22  1  0  0  0  0
 18 19  1  0  0  0  0
 19 20  2  0  0  0  0
 20 21  1  0  0  0  0
 20 26  1  0  0  0  0
 21 22  2  0  0  0  0
 21 24  1  0  0  0  0
 22 23  1  0  0  0  0
 24 25  2  0  0  0  0
 25 26  1  0  0  0  0
M  END
>  <CHROM.1>
145.80024205,-58.88537721,-66.46793413,172.03004819,54.51524503,105.29558047
-0.71492845,-10.02527632,13.53960492,-23.07260488,0.55228097,0.71169173,0.63983704

>  <Name>
ligand

>  <RI>
0

>  <Rbt.Current_Directory>
/home/itssahil/PROJECTS/Mol_Feturizer/New_Systems/rnas/3E5E

>  <Rbt.Executable>
rbdock ($Id: //depot/dev/client3/rdock/2013.1/src/exe/rbdock.cxx#4 $)

>  <Rbt.Library>
libRbt.so (2013.1, Build901 2013/11/27)

>  <Rbt.Parameter_File>
/export/apps/rDock/src/rDock_2013.1_src/data/scripts/dock_solv.prm

>  <Rbt.Receptor>
prm/blind_docking_60.prm

>  <SCORE>
-14.8111

>  <SCORE.INTER>
-13.2712

>  <SCORE.INTER.CONST>
1

>  <SCORE.INTER.POLAR>
0

>  <SCORE.INTER.ROT>
7

>  <SCORE.INTER.SOLV>
10.838

>  <SCORE.INTER.VDW>
-20.7268

>  <SCORE.INTER.norm>
-0.51043

>  <SCORE.INTRA>
-1.54185

>  <SCORE.INTRA.DIHEDRAL>
-2.62861

>  <SCORE.INTRA.DIHEDRAL.0>
10.1225

>  <SCORE.INTRA.POLAR>
0

>  <SCORE.INTRA.POLAR.0>
0

>  <SCORE.INTRA.REPUL>
0

>  <SCORE.INTRA.REPUL.0>
0

>  <SCORE.INTRA.SOLV>
0.828909

>  <SCORE.INTRA.SOLV.lig_0>
-49.9393

>  <SCORE.INTRA.VDW>
-0.642003

>  <SCORE.INTRA.VDW.0>
-1.75437

>  <SCORE.INTRA.norm>
-0.059302

>  <SCORE.RESTR>
0.00189982

>  <SCORE.RESTR.CAVITY>
0.00189982

>  <SCORE.RESTR.norm>
7.30701e-05

>  <SCORE.SYSTEM>
0

>  <SCORE.SYSTEM.CONST>
0

>  <SCORE.SYSTEM.DIHEDRAL>
0

>  <SCORE.SYSTEM.SOLV>
0

>  <SCORE.SYSTEM.norm>
0

>  <SCORE.heavy>
26

>  <SCORE.norm>
-0.569659

>  <RMSD>
9.277

$$$$
ligand
 OpenBabel11021811473D
libRbt.so/2013.1/901 2013/11/27
 26 28  0  0  0  0  0  0  0  0999 V2000
  -10.2874   13.1089  -21.3486 N   0  0  0  0  0  0  0  0  0  0  0  0
  -11.5119   13.9183  -21.3200 C   0  0  2  0  0  0  0  0  0  0  0  0
  -12.5092   13.2850  -20.3859 C   0  0  0  0  0  0  0  0  0  0  0  0
  -13.4614   13.9195  -19.9965 O   0  0  0  0  0  0  0  0  0  0  0  0
  -12.1059   13.9927  -22.7276 C   0  0  0  0  0  0  0  0  0  0  0  0
  -12.0662   12.6083  -23.3721 C   0  0  0  0  0  0  0  0  0  0  0  0
  -13.0886   11.3693  -22.8208 S   0  0  0  0  0  0  0  0  0  0  0  0
  -13.6381    9.7343  -23.3737 C   0  0  0  0  0  0  0  0  0  0  0  0
  -14.8896    9.2039  -22.6637 C   0  0  1  0  0  0  0  0  0  0  0  0
  -15.4662    8.1000  -23.3373 O   0  0  0  0  0  0  0  0  0  0  0  0
  -14.5728    8.6426  -21.2977 C   0  0  1  0  0  0  0  0  0  0  0  0
  -15.7877    8.7160  -20.5842 O   0  0  0  0  0  0  0  0  0  0  0  0
  -14.2529    7.1848  -21.5332 C   0  0  1  0  0  0  0  0  0  0  0  0
  -14.8219    6.4014  -20.5070 O   0  0  0  0  0  0  0  0  0  0  0  0
  -14.9456    6.8800  -22.8438 C   0  0  2  0  0  0  0  0  0  0  0  0
  -12.3402   12.0151  -19.9822 O   0  0  0  0  0  0  0  0  0  0  0  0
  -10.9044    3.7371  -23.8463 N   0  0  0  0  0  0  0  0  0  0  0  0
  -11.4465    4.0579  -22.6242 C   0  0  0  0  0  0  0  0  0  0  0  0
  -12.5124    4.9228  -22.5621 N   0  0  0  0  0  0  0  0  0  0  0  0
  -13.0315    5.4567  -23.6849 C   0  0  0  0  0  0  0  0  0  0  0  0
  -12.5025    5.1469  -24.9238 C   0  0  0  0  0  0  0  0  0  0  0  0
  -11.4220    4.2757  -24.9973 C   0  0  0  0  0  0  0  0  0  0  0  0
  -10.8806    3.9543  -26.1657 N   0  0  0  0  0  0  0  0  0  0  0  0
  -13.2071    5.8152  -25.8641 N   0  0  0  0  0  0  0  0  0  0  0  0
  -14.1661    6.5290  -25.2428 C   0  0  0  0  0  0  0  0  0  0  0  0
  -14.0655    6.3278  -23.8899 N   0  0  0  0  0  0  0  0  0  0  0  0
  2  1  1  6  0  0  0
  2  3  1  0  0  0  0
  2  5  1  0  0  0  0
  3  4  1  0  0  0  0
  3 16  1  0  0  0  0
  5  6  1  0  0  0  0
  6  7  1  0  0  0  0
  7  8  1  0  0  0  0
  9  8  1  6  0  0  0
  9 10  1  0  0  0  0
  9 11  1  0  0  0  0
 10 15  1  0  0  0  0
 11 12  1  1  0  0  0
 11 13  1  0  0  0  0
 13 14  1  1  0  0  0
 13 15  1  0  0  0  0
 15 26  1  6  0  0  0
 17 18  2  0  0  0  0
 17 22  1  0  0  0  0
 18 19  1  0  0  0  0
 19 20  2  0  0  0  0
 20 21  1  0  0  0  0
 20 26  1  0  0  0  0
 21 22  2  0  0  0  0
 21 24  1  0  0  0  0
 22 23  1  0  0  0  0
 24 25  2  0  0  0  0
 25 26  1  0  0  0  0
M  END
>  <CHROM.1>
164.40183038,43.87834363,70.53961510,166.64500665,-163.37916704,165.51505513
155.74002924,-13.11295752,8.66697999,-22.70088524,-1.55945197,-0.62699561
-2.79803731

>  <Name>
ligand

>  <RI>
0

>  <Rbt.Current_Directory>
/home/itssahil/PROJECTS/Mol_Feturizer/New_Systems/rnas/3E5E

>  <Rbt.Executable>
rbdock ($Id: //depot/dev/client3/rdock/2013.1/src/exe/rbdock.cxx#4 $)

>  <Rbt.Library>
libRbt.so (2013.1, Build901 2013/11/27)

>  <Rbt.Parameter_File>
/export/apps/rDock/src/rDock_2013.1_src/data/scripts/dock_solv.prm

>  <Rbt.Receptor>
prm/blind_docking_100.prm

>  <SCORE>
-14.4856

>  <SCORE.INTER>
-12.686

>  <SCORE.INTER.CONST>
1

>  <SCORE.INTER.POLAR>
0

>  <SCORE.INTER.ROT>
7

>  <SCORE.INTER.SOLV>
9.68974

>  <SCORE.INTER.VDW>
-19.9539

>  <SCORE.INTER.norm>
-0.487924

>  <SCORE.INTRA>
-1.79956

>  <SCORE.INTRA.DIHEDRAL>
-4.74675

>  <SCORE.INTRA.DIHEDRAL.0>
10.1225

>  <SCORE.INTRA.POLAR>
0

>  <SCORE.INTRA.POLAR.0>
0

>  <SCORE.INTRA.REPUL>
0

>  <SCORE.INTRA.REPUL.0>
0

>  <SCORE.INTRA.SOLV>
1.20304

>  <SCORE.INTRA.SOLV.lig_0>
-49.9393

>  <SCORE.INTRA.VDW>
-0.0276975

>  <SCORE.INTRA.VDW.0>
-1.75437

>  <SCORE.INTRA.norm>
-0.0692137

>  <SCORE.RESTR>
0

>  <SCORE.RESTR.CAVITY>
0

>  <SCORE.RESTR.norm>
0

>  <SCORE.SYSTEM>
0

>  <SCORE.SYSTEM.CONST>
0

>  <SCORE.SYSTEM.DIHEDRAL>
0

>  <SCORE.SYSTEM.SOLV>
0

>  <SCORE.SYSTEM.norm>
0

>  <SCORE.heavy>
26

>  <SCORE.norm>
-0.557138

>  <RMSD>
9.284

$$$$
ligand
 OpenBabel11021811473D
libRbt.so/2013.1/901 2013/11/27
 26 28  0  0  0  0  0  0  0  0999 V2000
   -5.5065   15.5512  -23.6424 N   0  0  0  0  0  0  0  0  0  0  0  0
   -4.6306   14.5602  -23.0049 C   0  0  2  0  0  0  0  0  0  0  0  0
   -3.1972   15.0050  -23.1296 C   0  0  0  0  0  0  0  0  0  0  0  0
   -2.4250   14.3741  -23.8129 O   0  0  0  0  0  0  0  0  0  0  0  0
   -4.8074   13.2063  -23.6944 C   0  0  0  0  0  0  0  0  0  0  0  0
   -6.1906   12.6450  -23.3698 C   0  0  0  0  0  0  0  0  0  0  0  0
   -7.5886   13.3751  -23.9997 S   0  0  0  0  0  0  0  0  0  0  0  0
   -9.3511   13.4767  -23.5942 C   0  0  0  0  0  0  0  0  0  0  0  0
   -9.7056   14.5240  -22.5315 C   0  0  1  0  0  0  0  0  0  0  0  0
  -11.0955   14.5756  -22.2661 O   0  0  0  0  0  0  0  0  0  0  0  0
   -9.1131   14.1885  -21.1833 C   0  0  1  0  0  0  0  0  0  0  0  0
   -9.0373   15.4220  -20.5027 O   0  0  0  0  0  0  0  0  0  0  0  0
  -10.1527   13.3347  -20.4953 C   0  0  1  0  0  0  0  0  0  0  0  0
  -10.2404   13.6967  -19.1345 O   0  0  0  0  0  0  0  0  0  0  0  0
  -11.4382   13.7091  -21.2010 C   0  0  2  0  0  0  0  0  0  0  0  0
   -2.7744   16.1016  -22.4796 O   0  0  0  0  0  0  0  0  0  0  0  0
  -13.3763    8.9433  -20.3379 N   0  0  0  0  0  0  0  0  0  0  0  0
  -12.6469    9.7305  -19.4787 C   0  0  0  0  0  0  0  0  0  0  0  0
  -12.2091   10.9640  -19.8968 N   0  0  0  0  0  0  0  0  0  0  0  0
  -12.4887   11.4092  -21.1373 C   0  0  0  0  0  0  0  0  0  0  0  0
  -13.2213   10.6344  -22.0168 C   0  0  0  0  0  0  0  0  0  0  0  0
  -13.6661    9.3836  -21.6048 C   0  0  0  0  0  0  0  0  0  0  0  0
  -14.3690    8.6053  -22.4184 N   0  0  0  0  0  0  0  0  0  0  0  0
  -13.3509   11.3176  -23.1760 N   0  0  0  0  0  0  0  0  0  0  0  0
  -12.7226   12.5015  -23.0389 C   0  0  0  0  0  0  0  0  0  0  0  0
  -12.1723   12.5714  -21.7846 N   0  0  0  0  0  0  0  0  0  0  0  0
  2  1  1  6  0  0  0
  2  3  1  0  0  0  0
  2  5  1  0  0  0  0
  3  4  1  0  0  0  0
  3 16  1  0  0  0  0
  5  6  1  0  0  0  0
  6  7  1  0  0  0  0
  7  8  1  0  0  0  0
  9  8  1  6  0  0  0
  9 10  1  0  0  0  0
  9 11  1  0  0  0  0
 10 15  1  0  0  0  0
 11 12  1  1  0  0  0
 11 13  1  0  0  0  0
 13 14  1  1  0  0  0
 13 15  1  0  0  0  0
 15 26  1  6  0  0  0
 17 18  2  0  0  0  0
 17 22  1  0  0  0  0
 18 19  1  0  0  0  0
 19 20  2  0  0  0  0
 20 21  1  0  0  0  0
 20 26  1  0  0  0  0
 21 22  2  0  0  0  0
 21 24  1  0  0  0  0
 22 23  1  0  0  0  0
 24 25  2  0  0  0  0
 25 26  1  0  0  0  0
M  END
>  <CHROM.1>
-113.18648584,-69.51351930,69.21042455,-156.81779334,82.10860666,179.14540631
168.58555429,-9.31040100,12.94590879,-22.13426392,0.19669854,0.43962533,0.68862107

>  <Name>
ligand

>  <RI>
0

>  <Rbt.Current_Directory>
/home/itssahil/PROJECTS/Mol_Feturizer/New_Systems/rnas/3E5E

>  <Rbt.Executable>
rbdock ($Id: //depot/dev/client3/rdock/2013.1/src/exe/rbdock.cxx#4 $)

>  <Rbt.Library>
libRbt.so (2013.1, Build901 2013/11/27)

>  <Rbt.Parameter_File>
/export/apps/rDock/src/rDock_2013.1_src/data/scripts/dock_solv.prm

>  <Rbt.Receptor>
prm/blind_docking_40.prm

>  <SCORE>
-17.6332

>  <SCORE.INTER>
-16.2784

>  <SCORE.INTER.CONST>
1

>  <SCORE.INTER.POLAR>
0

>  <SCORE.INTER.ROT>
7

>  <SCORE.INTER.SOLV>
8.39229

>  <SCORE.INTER.VDW>
-21.9164

>  <SCORE.INTER.norm>
-0.626093

>  <SCORE.INTRA>
-1.35479

>  <SCORE.INTRA.DIHEDRAL>
-5.33322

>  <SCORE.INTRA.DIHEDRAL.0>
10.1225

>  <SCORE.INTRA.POLAR>
0

>  <SCORE.INTRA.POLAR.0>
0

>  <SCORE.INTRA.REPUL>
0

>  <SCORE.INTRA.REPUL.0>
0

>  <SCORE.INTRA.SOLV>
1.67628

>  <SCORE.INTRA.SOLV.lig_0>
-49.9393

>  <SCORE.INTRA.VDW>
0.473687

>  <SCORE.INTRA.VDW.0>
-1.75437

>  <SCORE.INTRA.norm>
-0.0521072

>  <SCORE.RESTR>
0

>  <SCORE.RESTR.CAVITY>
0

>  <SCORE.RESTR.norm>
0

>  <SCORE.SYSTEM>
0

>  <SCORE.SYSTEM.CONST>
0

>  <SCORE.SYSTEM.DIHEDRAL>
0

>  <SCORE.SYSTEM.SOLV>
0

>  <SCORE.SYSTEM.norm>
0

>  <SCORE.heavy>
26

>  <SCORE.norm>
-0.678201

>  <RMSD>
9.292

$$$$
ligand
 OpenBabel11021811473D
libRbt.so/2013.1/901 2013/11/27
 26 28  0  0  0  0  0  0  0  0999 V2000
   -7.3122   16.0189  -25.2307 N   0  0  0  0  0  0  0  0  0  0  0  0
   -8.1336   16.2679  -24.0396 C   0  0  2  0  0  0  0  0  0  0  0  0
   -8.6884   17.6669  -24.0973 C   0  0  0  0  0  0  0  0  0  0  0  0
   -8.4917   18.3563  -25.0705 O   0  0  0  0  0  0  0  0  0  0  0  0
   -7.2722   16.1111  -22.7854 C   0  0  0  0  0  0  0  0  0  0  0  0
   -8.1720   15.8636  -21.5759 C   0  0  0  0  0  0  0  0  0  0  0  0
   -9.1178   14.4567  -21.4765 S   0  0  0  0  0  0  0  0  0  0  0  0
  -10.4508   13.6642  -22.4126 C   0  0  0  0  0  0  0  0  0  0  0  0
  -11.8619   13.9427  -21.8807 C   0  0  1  0  0  0  0  0  0  0  0  0
  -12.8375   13.1034  -22.4711 O   0  0  0  0  0  0  0  0  0  0  0  0
  -11.9865   13.6278  -20.4087 C   0  0  1  0  0  0  0  0  0  0  0  0
  -13.0723   14.4093  -19.9607 O   0  0  0  0  0  0  0  0  0  0  0  0
  -12.3961   12.1747  -20.3481 C   0  0  1  0  0  0  0  0  0  0  0  0
  -13.3668   11.9960  -19.3399 O   0  0  0  0  0  0  0  0  0  0  0  0
  -13.0246   11.9297  -21.7029 C   0  0  2  0  0  0  0  0  0  0  0  0
   -9.4000   18.1511  -23.0663 O   0  0  0  0  0  0  0  0  0  0  0  0
  -13.9776    7.9061  -24.8836 N   0  0  0  0  0  0  0  0  0  0  0  0
  -14.8844    8.7578  -24.2985 C   0  0  0  0  0  0  0  0  0  0  0  0
  -14.4366    9.7604  -23.4724 N   0  0  0  0  0  0  0  0  0  0  0  0
  -13.1202    9.9175  -23.2323 C   0  0  0  0  0  0  0  0  0  0  0  0
  -12.1915    9.0731  -23.8110 C   0  0  0  0  0  0  0  0  0  0  0  0
  -12.6343    8.0536  -24.6456 C   0  0  0  0  0  0  0  0  0  0  0  0
  -11.7772    7.2177  -25.2187 N   0  0  0  0  0  0  0  0  0  0  0  0
  -10.9605    9.4539  -23.4024 N   0  0  0  0  0  0  0  0  0  0  0  0
  -11.0983   10.5186  -22.5884 C   0  0  0  0  0  0  0  0  0  0  0  0
  -12.4317   10.8135  -22.4622 N   0  0  0  0  0  0  0  0  0  0  0  0
  2  1  1  6  0  0  0
  2  3  1  0  0  0  0
  2  5  1  0  0  0  0
  3  4  1  0  0  0  0
  3 16  1  0  0  0  0
  5  6  1  0  0  0  0
  6  7  1  0  0  0  0
  7  8  1  0  0  0  0
  9  8  1  6  0  0  0
  9 10  1  0  0  0  0
  9 11  1  0  0  0  0
 10 15  1  0  0  0  0
 11 12  1  6  0  0  0
 11 13  1  0  0  0  0
 13 14  1  1  0  0  0
 13 15  1  0  0  0  0
 15 26  1  6  0  0  0
 17 18  2  0  0  0  0
 17 22  1  0  0  0  0
 18 19  1  0  0  0  0
 19 20  2  0  0  0  0
 20 21  1  0  0  0  0
 20 26  1  0  0  0  0
 21 22  2  0  0  0  0
 21 24  1  0  0  0  0
 22 23  1  0  0  0  0
 24 25  2  0  0  0  0
 25 26  1  0  0  0  0
M  END
>  <CHROM.1>
4.34198383,-159.62750951,64.40331020,-60.72169452,-96.77937471,-168.33555726
-99.80113073,-11.14392422,12.86774234,-22.73846841,-0.70935789,-0.81660563
-2.39966052

>  <Name>
ligand

>  <RI>
0

>  <Rbt.Current_Directory>
/home/itssahil/PROJECTS/Mol_Feturizer/New_Systems/rnas/3E5E

>  <Rbt.Executable>
rbdock ($Id: //depot/dev/client3/rdock/2013.1/src/exe/rbdock.cxx#4 $)

>  <Rbt.Library>
libRbt.so (2013.1, Build901 2013/11/27)

>  <Rbt.Parameter_File>
/export/apps/rDock/src/rDock_2013.1_src/data/scripts/dock_solv.prm

>  <Rbt.Receptor>
prm/blind_docking_40.prm

>  <SCORE>
-18.2015

>  <SCORE.INTER>
-15.7133

>  <SCORE.INTER.CONST>
1

>  <SCORE.INTER.POLAR>
0

>  <SCORE.INTER.ROT>
7

>  <SCORE.INTER.SOLV>
8.4114

>  <SCORE.INTER.VDW>
-21.546

>  <SCORE.INTER.norm>
-0.604356

>  <SCORE.INTRA>
-2.48824

>  <SCORE.INTRA.DIHEDRAL>
-3.83088

>  <SCORE.INTRA.DIHEDRAL.0>
10.1225

>  <SCORE.INTRA.POLAR>
0

>  <SCORE.INTRA.POLAR.0>
0

>  <SCORE.INTRA.REPUL>
0

>  <SCORE.INTRA.REPUL.0>
0

>  <SCORE.INTRA.SOLV>
-0.340589

>  <SCORE.INTRA.SOLV.lig_0>
-49.9393

>  <SCORE.INTRA.VDW>
-0.402502

>  <SCORE.INTRA.VDW.0>
-1.75437

>  <SCORE.INTRA.norm>
-0.0957015

>  <SCORE.RESTR>
0

>  <SCORE.RESTR.CAVITY>
0

>  <SCORE.RESTR.norm>
0

>  <SCORE.SYSTEM>
0

>  <SCORE.SYSTEM.CONST>
0

>  <SCORE.SYSTEM.DIHEDRAL>
0

>  <SCORE.SYSTEM.SOLV>
0

>  <SCORE.SYSTEM.norm>
0

>  <SCORE.heavy>
26

>  <SCORE.norm>
-0.700057

>  <RMSD>
9.299

$$$$
ligand
 OpenBabel11021811473D
libRbt.so/2013.1/901 2013/11/27
 26 28  0  0  0  0  0  0  0  0999 V2000
   -6.2195   18.0601  -22.6532 N   0  0  0  0  0  0  0  0  0  0  0  0
   -7.2041   16.9864  -22.8362 C   0  0  2  0  0  0  0  0  0  0  0  0
   -8.3594   17.5004  -23.6543 C   0  0  0  0  0  0  0  0  0  0  0  0
   -8.5995   17.0144  -24.7347 O   0  0  0  0  0  0  0  0  0  0  0  0
   -7.7117   16.5231  -21.4697 C   0  0  0  0  0  0  0  0  0  0  0  0
   -8.4055   15.1699  -21.6151 C   0  0  0  0  0  0  0  0  0  0  0  0
   -9.6465   14.9535  -22.7540 S   0  0  0  0  0  0  0  0  0  0  0  0
  -10.9154   13.7202  -23.1413 C   0  0  0  0  0  0  0  0  0  0  0  0
  -12.2209   13.8730  -22.3513 C   0  0  1  0  0  0  0  0  0  0  0  0
  -13.1547   12.8506  -22.6474 O   0  0  0  0  0  0  0  0  0  0  0  0
  -12.0064   13.7189  -20.8641 C   0  0  1  0  0  0  0  0  0  0  0  0
  -13.0892   14.3995  -20.2685 O   0  0  0  0  0  0  0  0  0  0  0  0
  -12.1716   12.2420  -20.5913 C   0  0  1  0  0  0  0  0  0  0  0  0
  -12.8881   12.0577  -19.3899 O   0  0  0  0  0  0  0  0  0  0  0  0
  -13.0083   11.7605  -21.7569 C   0  0  2  0  0  0  0  0  0  0  0  0
   -9.1227   18.5012  -23.1855 O   0  0  0  0  0  0  0  0  0  0  0  0
  -13.9609    7.7114  -24.9050 N   0  0  0  0  0  0  0  0  0  0  0  0
  -14.8691    8.5524  -24.3068 C   0  0  0  0  0  0  0  0  0  0  0  0
  -14.4208    9.5644  -23.4926 N   0  0  0  0  0  0  0  0  0  0  0  0
  -13.1027    9.7412  -23.2769 C   0  0  0  0  0  0  0  0  0  0  0  0
  -12.1726    8.9077  -23.8692 C   0  0  0  0  0  0  0  0  0  0  0  0
  -12.6157    7.8788  -24.6919 C   0  0  0  0  0  0  0  0  0  0  0  0
  -11.7573    7.0529  -25.2773 N   0  0  0  0  0  0  0  0  0  0  0  0
  -10.9400    9.3077  -23.4843 N   0  0  0  0  0  0  0  0  0  0  0  0
  -11.0782   10.3735  -22.6719 C   0  0  0  0  0  0  0  0  0  0  0  0
  -12.4133   10.6499  -22.5227 N   0  0  0  0  0  0  0  0  0  0  0  0
  2  1  1  1  0  0  0
  2  3  1  0  0  0  0
  2  5  1  0  0  0  0
  3  4  1  0  0  0  0
  3 16  1  0  0  0  0
  5  6  1  0  0  0  0
  6  7  1  0  0  0  0
  7  8  1  0  0  0  0
  9  8  1  6  0  0  0
  9 10  1  0  0  0  0
  9 11  1  0  0  0  0
 10 15  1  0  0  0  0
 11 12  1  1  0  0  0
 11 13  1  0  0  0  0
 13 14  1  1  0  0  0
 13 15  1  0  0  0  0
 15 26  1  6  0  0  0
 17 18  2  0  0  0  0
 17 22  1  0  0  0  0
 18 19  1  0  0  0  0
 19 20  2  0  0  0  0
 20 21  1  0  0  0  0
 20 26  1  0  0  0  0
 21 22  2  0  0  0  0
 21 24  1  0  0  0  0
 22 23  1  0  0  0  0
 24 25  2  0  0  0  0
 25 26  1  0  0  0  0
M  END
>  <CHROM.1>
117.11605450,-163.68657299,-53.03952172,-167.83786673,85.61343138,-177.34261316
-85.59626458,-11.13315422,12.88384236,-22.74775203,-0.83197064,-0.70681448
-2.49076569

>  <Name>
ligand

>  <RI>
0

>  <Rbt.Current_Directory>
/home/itssahil/PROJECTS/Mol_Feturizer/New_Systems/rnas/3E5E

>  <Rbt.Executable>
rbdock ($Id: //depot/dev/client3/rdock/2013.1/src/exe/rbdock.cxx#4 $)

>  <Rbt.Library>
libRbt.so (2013.1, Build901 2013/11/27)

>  <Rbt.Parameter_File>
/export/apps/rDock/src/rDock_2013.1_src/data/scripts/dock_solv.prm

>  <Rbt.Receptor>
prm/pocket_docking_8.prm

>  <SCORE>
-20.6684

>  <SCORE.INTER>
-17.3305

>  <SCORE.INTER.CONST>
1

>  <SCORE.INTER.POLAR>
0

>  <SCORE.INTER.ROT>
7

>  <SCORE.INTER.SOLV>
8.83929

>  <SCORE.INTER.VDW>
-22.7667

>  <SCORE.INTER.norm>
-0.666556

>  <SCORE.INTRA>
-3.33792

>  <SCORE.INTRA.DIHEDRAL>
-5.16651

>  <SCORE.INTRA.DIHEDRAL.0>
10.1225

>  <SCORE.INTRA.POLAR>
0

>  <SCORE.INTRA.POLAR.0>
0

>  <SCORE.INTRA.REPUL>
0

>  <SCORE.INTRA.REPUL.0>
0

>  <SCORE.INTRA.SOLV>
-0.360463

>  <SCORE.INTRA.SOLV.lig_0>
-49.9393

>  <SCORE.INTRA.VDW>
-0.574437

>  <SCORE.INTRA.VDW.0>
-1.75437

>  <SCORE.INTRA.norm>
-0.128382

>  <SCORE.RESTR>
0

>  <SCORE.RESTR.CAVITY>
0

>  <SCORE.RESTR.norm>
0

>  <SCORE.SYSTEM>
0

>  <SCORE.SYSTEM.CONST>
0

>  <SCORE.SYSTEM.DIHEDRAL>
0

>  <SCORE.SYSTEM.SOLV>
0

>  <SCORE.SYSTEM.norm>
0

>  <SCORE.heavy>
26

>  <SCORE.norm>
-0.794938

>  <RMSD>
9.302

$$$$
ligand
 OpenBabel11021811473D
libRbt.so/2013.1/901 2013/11/27
 26 28  0  0  0  0  0  0  0  0999 V2000
  -10.9361   13.6617  -19.1947 N   0  0  0  0  0  0  0  0  0  0  0  0
  -11.8867   13.1882  -20.2085 C   0  0  2  0  0  0  0  0  0  0  0  0
  -11.8570   11.6832  -20.2587 C   0  0  0  0  0  0  0  0  0  0  0  0
  -10.8465   11.1086  -20.5898 O   0  0  0  0  0  0  0  0  0  0  0  0
  -11.4963   13.7528  -21.5754 C   0  0  0  0  0  0  0  0  0  0  0  0
  -12.6025   13.4542  -22.5858 C   0  0  0  0  0  0  0  0  0  0  0  0
  -12.6917   11.9382  -23.3460 S   0  0  0  0  0  0  0  0  0  0  0  0
  -13.0627   10.2252  -22.8890 C   0  0  0  0  0  0  0  0  0  0  0  0
  -14.5536    9.9201  -22.6996 C   0  0  1  0  0  0  0  0  0  0  0  0
  -15.1209    9.2761  -23.8258 O   0  0  0  0  0  0  0  0  0  0  0  0
  -14.7937    8.9307  -21.5838 C   0  0  1  0  0  0  0  0  0  0  0  0
  -16.1225    9.1639  -21.1712 O   0  0  0  0  0  0  0  0  0  0  0  0
  -14.7369    7.5714  -22.2412 C   0  0  1  0  0  0  0  0  0  0  0  0
  -15.7441    6.7415  -21.7048 O   0  0  0  0  0  0  0  0  0  0  0  0
  -15.0479    7.8691  -23.6921 C   0  0  2  0  0  0  0  0  0  0  0  0
  -12.9542   10.9780  -19.9381 O   0  0  0  0  0  0  0  0  0  0  0  0
  -13.3226    3.8016  -26.4656 N   0  0  0  0  0  0  0  0  0  0  0  0
  -14.3657    3.8365  -25.5707 C   0  0  0  0  0  0  0  0  0  0  0  0
  -14.6627    5.0110  -24.9223 N   0  0  0  0  0  0  0  0  0  0  0  0
  -13.9444    6.1266  -25.1560 C   0  0  0  0  0  0  0  0  0  0  0  0
  -12.8924    6.1139  -26.0524 C   0  0  0  0  0  0  0  0  0  0  0  0
  -12.5815    4.9300  -26.7111 C   0  0  0  0  0  0  0  0  0  0  0  0
  -11.5770    4.8722  -27.5768 N   0  0  0  0  0  0  0  0  0  0  0  0
  -12.3540    7.3532  -26.0910 N   0  0  0  0  0  0  0  0  0  0  0  0
  -13.0481    8.1398  -25.2456 C   0  0  0  0  0  0  0  0  0  0  0  0
  -14.0315    7.3933  -24.6483 N   0  0  0  0  0  0  0  0  0  0  0  0
  2  1  1  1  0  0  0
  2  3  1  0  0  0  0
  2  5  1  0  0  0  0
  3  4  1  0  0  0  0
  3 16  1  0  0  0  0
  5  6  1  0  0  0  0
  6  7  1  0  0  0  0
  7  8  1  0  0  0  0
  9  8  1  6  0  0  0
  9 10  1  0  0  0  0
  9 11  1  0  0  0  0
 10 15  1  0  0  0  0
 11 12  1  6  0  0  0
 11 13  1  0  0  0  0
 13 14  1  1  0  0  0
 13 15  1  0  0  0  0
 15 26  1  6  0  0  0
 17 18  2  0  0  0  0
 17 22  1  0  0  0  0
 18 19  1  0  0  0  0
 19 20  2  0  0  0  0
 20 21  1  0  0  0  0
 20 26  1  0  0  0  0
 21 22  2  0  0  0  0
 21 24  1  0  0  0  0
 22 23  1  0  0  0  0
 24 25  2  0  0  0  0
 25 26  1  0  0  0  0
M  END
>  <CHROM.1>
-63.42097920,-170.79839676,-82.00863422,68.54686442,76.98565633,100.41578288
-157.52152742,-13.34086110,8.95773418,-23.22532087,-1.36521129,-0.67329293
-2.41684689

>  <Name>
ligand

>  <RI>
0

>  <Rbt.Current_Directory>
/home/itssahil/PROJECTS/Mol_Feturizer/New_Systems/rnas/3E5E

>  <Rbt.Executable>
rbdock ($Id: //depot/dev/client3/rdock/2013.1/src/exe/rbdock.cxx#4 $)

>  <Rbt.Library>
libRbt.so (2013.1, Build901 2013/11/27)

>  <Rbt.Parameter_File>
/export/apps/rDock/src/rDock_2013.1_src/data/scripts/dock_solv.prm

>  <Rbt.Receptor>
prm/blind_docking_100.prm

>  <SCORE>
-16.8045

>  <SCORE.INTER>
-14.725

>  <SCORE.INTER.CONST>
1

>  <SCORE.INTER.POLAR>
0

>  <SCORE.INTER.ROT>
7

>  <SCORE.INTER.SOLV>
10.034

>  <SCORE.INTER.VDW>
-21.428

>  <SCORE.INTER.norm>
-0.566345

>  <SCORE.INTRA>
-2.07957

>  <SCORE.INTRA.DIHEDRAL>
-0.837096

>  <SCORE.INTRA.DIHEDRAL.0>
10.1225

>  <SCORE.INTRA.POLAR>
0

>  <SCORE.INTRA.POLAR.0>
0

>  <SCORE.INTRA.REPUL>
0

>  <SCORE.INTRA.REPUL.0>
0

>  <SCORE.INTRA.SOLV>
-0.494358

>  <SCORE.INTRA.SOLV.lig_0>
-49.9393

>  <SCORE.INTRA.VDW>
-1.41384

>  <SCORE.INTRA.VDW.0>
-1.75437

>  <SCORE.INTRA.norm>
-0.0799835

>  <SCORE.RESTR>
0

>  <SCORE.RESTR.CAVITY>
0

>  <SCORE.RESTR.norm>
0

>  <SCORE.SYSTEM>
0

>  <SCORE.SYSTEM.CONST>
0

>  <SCORE.SYSTEM.DIHEDRAL>
0

>  <SCORE.SYSTEM.SOLV>
0

>  <SCORE.SYSTEM.norm>
0

>  <SCORE.heavy>
26

>  <SCORE.norm>
-0.646328

>  <RMSD>
9.327

$$$$
ligand
 OpenBabel11021811473D
libRbt.so/2013.1/901 2013/11/27
 26 28  0  0  0  0  0  0  0  0999 V2000
   -7.8454   17.9233  -24.1437 N   0  0  0  0  0  0  0  0  0  0  0  0
   -7.0905   16.7353  -23.7262 C   0  0  2  0  0  0  0  0  0  0  0  0
   -5.7270   16.7581  -24.3653 C   0  0  0  0  0  0  0  0  0  0  0  0
   -5.5991   17.1403  -25.5049 O   0  0  0  0  0  0  0  0  0  0  0  0
   -7.8397   15.4760  -24.1653 C   0  0  0  0  0  0  0  0  0  0  0  0
   -9.1665   15.3836  -23.4140 C   0  0  0  0  0  0  0  0  0  0  0  0
  -10.1876   14.0432  -23.6261 S   0  0  0  0  0  0  0  0  0  0  0  0
  -11.8423   13.5187  -23.1084 C   0  0  0  0  0  0  0  0  0  0  0  0
  -12.1968   13.8559  -21.6550 C   0  0  1  0  0  0  0  0  0  0  0  0
  -13.3099   13.1177  -21.1849 O   0  0  0  0  0  0  0  0  0  0  0  0
  -11.0975   13.4635  -20.6963 C   0  0  1  0  0  0  0  0  0  0  0  0
  -11.2904   14.2858  -19.5662 O   0  0  0  0  0  0  0  0  0  0  0  0
  -11.4078   12.0388  -20.3001 C   0  0  1  0  0  0  0  0  0  0  0  0
  -11.1607   11.8641  -18.9220 O   0  0  0  0  0  0  0  0  0  0  0  0
  -12.8925   11.9152  -20.5661 C   0  0  2  0  0  0  0  0  0  0  0  0
   -4.6519   16.3513  -23.6707 O   0  0  0  0  0  0  0  0  0  0  0  0
  -11.3314    8.8563  -24.4929 N   0  0  0  0  0  0  0  0  0  0  0  0
  -10.6521    9.8990  -23.9086 C   0  0  0  0  0  0  0  0  0  0  0  0
  -11.2403   10.6012  -22.8844 N   0  0  0  0  0  0  0  0  0  0  0  0
  -12.4728   10.2771  -22.4470 C   0  0  0  0  0  0  0  0  0  0  0  0
  -13.1728    9.2319  -23.0197 C   0  0  0  0  0  0  0  0  0  0  0  0
  -12.5881    8.5174  -24.0587 C   0  0  0  0  0  0  0  0  0  0  0  0
  -13.2265    7.5091  -24.6398 N   0  0  0  0  0  0  0  0  0  0  0  0
  -14.3672    9.1297  -22.3950 N   0  0  0  0  0  0  0  0  0  0  0  0
  -14.4267   10.0812  -21.4429 C   0  0  0  0  0  0  0  0  0  0  0  0
  -13.2650   10.8098  -21.4680 N   0  0  0  0  0  0  0  0  0  0  0  0
  2  1  1  6  0  0  0
  2  3  1  0  0  0  0
  2  5  1  0  0  0  0
  3  4  1  0  0  0  0
  3 16  1  0  0  0  0
  5  6  1  0  0  0  0
  6  7  1  0  0  0  0
  7  8  1  0  0  0  0
  9  8  1  6  0  0  0
  9 10  1  0  0  0  0
  9 11  1  0  0  0  0
 10 15  1  0  0  0  0
 11 12  1  1  0  0  0
 11 13  1  0  0  0  0
 13 14  1  1  0  0  0
 13 15  1  0  0  0  0
 15 26  1  6  0  0  0
 17 18  2  0  0  0  0
 17 22  1  0  0  0  0
 18 19  1  0  0  0  0
 19 20  2  0  0  0  0
 20 21  1  0  0  0  0
 20 26  1  0  0  0  0
 21 22  2  0  0  0  0
 21 24  1  0  0  0  0
 22 23  1  0  0  0  0
 24 25  2  0  0  0  0
 25 26  1  0  0  0  0
M  END
>  <CHROM.1>
-38.81812368,-65.47541462,-176.64849064,-174.13969276,-40.44452933,-163.33223563
91.22445389,-10.67554654,12.81019301,-22.69017370,0.39999113,0.75650735,0.76973850

>  <Name>
ligand

>  <RI>
0

>  <Rbt.Current_Directory>
/home/itssahil/PROJECTS/Mol_Feturizer/New_Systems/rnas/3E5E

>  <Rbt.Executable>
rbdock ($Id: //depot/dev/client3/rdock/2013.1/src/exe/rbdock.cxx#4 $)

>  <Rbt.Library>
libRbt.so (2013.1, Build901 2013/11/27)

>  <Rbt.Parameter_File>
/export/apps/rDock/src/rDock_2013.1_src/data/scripts/dock_solv.prm

>  <Rbt.Receptor>
prm/blind_docking_60.prm

>  <SCORE>
-14.9813

>  <SCORE.INTER>
-11.4322

>  <SCORE.INTER.CONST>
1

>  <SCORE.INTER.POLAR>
0

>  <SCORE.INTER.ROT>
7

>  <SCORE.INTER.SOLV>
9.91053

>  <SCORE.INTER.VDW>
-19.1916

>  <SCORE.INTER.norm>
-0.4397

>  <SCORE.INTRA>
-3.54913

>  <SCORE.INTRA.DIHEDRAL>
-5.58311

>  <SCORE.INTRA.DIHEDRAL.0>
10.1225

>  <SCORE.INTRA.POLAR>
0

>  <SCORE.INTRA.POLAR.0>
0

>  <SCORE.INTRA.REPUL>
0

>  <SCORE.INTRA.REPUL.0>
0

>  <SCORE.INTRA.SOLV>
0.223782

>  <SCORE.INTRA.SOLV.lig_0>
-49.9393

>  <SCORE.INTRA.VDW>
-0.86946

>  <SCORE.INTRA.VDW.0>
-1.75437

>  <SCORE.INTRA.norm>
-0.136505

>  <SCORE.RESTR>
0

>  <SCORE.RESTR.CAVITY>
0

>  <SCORE.RESTR.norm>
0

>  <SCORE.SYSTEM>
0

>  <SCORE.SYSTEM.CONST>
0

>  <SCORE.SYSTEM.DIHEDRAL>
0

>  <SCORE.SYSTEM.SOLV>
0

>  <SCORE.SYSTEM.norm>
0

>  <SCORE.heavy>
26

>  <SCORE.norm>
-0.576205

>  <RMSD>
9.329

$$$$
ligand
 OpenBabel11021811473D
libRbt.so/2013.1/901 2013/11/27
 26 28  0  0  0  0  0  0  0  0999 V2000
   -8.0970   15.3262  -25.2113 N   0  0  0  0  0  0  0  0  0  0  0  0
   -7.2788   16.4574  -24.7568 C   0  0  2  0  0  0  0  0  0  0  0  0
   -6.0436   16.5578  -25.6125 C   0  0  0  0  0  0  0  0  0  0  0  0
   -5.4152   17.5897  -25.6495 O   0  0  0  0  0  0  0  0  0  0  0  0
   -6.8736   16.2388  -23.2981 C   0  0  0  0  0  0  0  0  0  0  0  0
   -8.0793   16.4806  -22.3918 C   0  0  0  0  0  0  0  0  0  0  0  0
   -9.4152   15.4328  -22.4337 S   0  0  0  0  0  0  0  0  0  0  0  0
  -10.0721   14.0530  -21.4612 C   0  0  0  0  0  0  0  0  0  0  0  0
  -11.5982   14.0434  -21.3105 C   0  0  1  0  0  0  0  0  0  0  0  0
  -12.2624   13.8619  -22.5478 O   0  0  0  0  0  0  0  0  0  0  0  0
  -12.0806   12.8713  -20.4891 C   0  0  1  0  0  0  0  0  0  0  0  0
  -13.3362   13.2725  -19.9861 O   0  0  0  0  0  0  0  0  0  0  0  0
  -12.3066   11.7569  -21.4841 C   0  0  1  0  0  0  0  0  0  0  0  0
  -13.4860   11.0565  -21.1537 O   0  0  0  0  0  0  0  0  0  0  0  0
  -12.5047   12.4895  -22.7935 C   0  0  2  0  0  0  0  0  0  0  0  0
   -5.6401   15.5017  -26.3376 O   0  0  0  0  0  0  0  0  0  0  0  0
  -10.0948    8.4652  -25.0764 N   0  0  0  0  0  0  0  0  0  0  0  0
  -10.8971    8.4508  -23.9601 C   0  0  0  0  0  0  0  0  0  0  0  0
  -11.4366    9.6272  -23.4985 N   0  0  0  0  0  0  0  0  0  0  0  0
  -11.1890   10.7918  -24.1291 C   0  0  0  0  0  0  0  0  0  0  0  0
  -10.3860   10.8287  -25.2535 C   0  0  0  0  0  0  0  0  0  0  0  0
   -9.8325    9.6448  -25.7267 C   0  0  0  0  0  0  0  0  0  0  0  0
   -9.0525    9.6353  -26.8005 N   0  0  0  0  0  0  0  0  0  0  0  0
  -10.3079   12.1104  -25.6760 N   0  0  0  0  0  0  0  0  0  0  0  0
  -11.0473   12.8724  -24.8466 C   0  0  0  0  0  0  0  0  0  0  0  0
  -11.5923   12.0733  -23.8743 N   0  0  0  0  0  0  0  0  0  0  0  0
  2  1  1  6  0  0  0
  2  3  1  0  0  0  0
  2  5  1  0  0  0  0
  3  4  1  0  0  0  0
  3 16  1  0  0  0  0
  5  6  1  0  0  0  0
  6  7  1  0  0  0  0
  7  8  1  0  0  0  0
  9  8  1  6  0  0  0
  9 10  1  0  0  0  0
  9 11  1  0  0  0  0
 10 15  1  0  0  0  0
 11 12  1  6  0  0  0
 11 13  1  0  0  0  0
 13 14  1  1  0  0  0
 13 15  1  0  0  0  0
 15 26  1  6  0  0  0
 17 18  2  0  0  0  0
 17 22  1  0  0  0  0
 18 19  1  0  0  0  0
 19 20  2  0  0  0  0
 20 21  1  0  0  0  0
 20 26  1  0  0  0  0
 21 22  2  0  0  0  0
 21 24  1  0  0  0  0
 22 23  1  0  0  0  0
 24 25  2  0  0  0  0
 25 26  1  0  0  0  0
M  END
>  <CHROM.1>
160.91165866,-73.97268450,67.26596603,100.66526557,141.08064128,64.52635211
157.83133365,-9.97254161,13.17193611,-23.58864141,-0.47002104,-0.72744913
-2.55843382

>  <Name>
ligand

>  <RI>
0

>  <Rbt.Current_Directory>
/home/itssahil/PROJECTS/Mol_Feturizer/New_Systems/rnas/3E5E

>  <Rbt.Executable>
rbdock ($Id: //depot/dev/client3/rdock/2013.1/src/exe/rbdock.cxx#4 $)

>  <Rbt.Library>
libRbt.so (2013.1, Build901 2013/11/27)

>  <Rbt.Parameter_File>
/export/apps/rDock/src/rDock_2013.1_src/data/scripts/dock_solv.prm

>  <Rbt.Receptor>
prm/blind_docking_80.prm

>  <SCORE>
-14.913

>  <SCORE.INTER>
-13.2812

>  <SCORE.INTER.CONST>
1

>  <SCORE.INTER.POLAR>
0

>  <SCORE.INTER.ROT>
7

>  <SCORE.INTER.SOLV>
7.70469

>  <SCORE.INTER.VDW>
-19.689

>  <SCORE.INTER.norm>
-0.510816

>  <SCORE.INTRA>
-1.63181

>  <SCORE.INTRA.DIHEDRAL>
-2.93402

>  <SCORE.INTRA.DIHEDRAL.0>
10.1225

>  <SCORE.INTRA.POLAR>
0

>  <SCORE.INTRA.POLAR.0>
0

>  <SCORE.INTRA.REPUL>
0

>  <SCORE.INTRA.REPUL.0>
0

>  <SCORE.INTRA.SOLV>
1.61347

>  <SCORE.INTRA.SOLV.lig_0>
-49.9393

>  <SCORE.INTRA.VDW>
-0.971534

>  <SCORE.INTRA.VDW.0>
-1.75437

>  <SCORE.INTRA.norm>
-0.0627619

>  <SCORE.RESTR>
0

>  <SCORE.RESTR.CAVITY>
0

>  <SCORE.RESTR.norm>
0

>  <SCORE.SYSTEM>
0

>  <SCORE.SYSTEM.CONST>
0

>  <SCORE.SYSTEM.DIHEDRAL>
0

>  <SCORE.SYSTEM.SOLV>
0

>  <SCORE.SYSTEM.norm>
0

>  <SCORE.heavy>
26

>  <SCORE.norm>
-0.573578

>  <RMSD>
9.337

$$$$
ligand
 OpenBabel11021811473D
libRbt.so/2013.1/901 2013/11/27
 26 28  0  0  0  0  0  0  0  0999 V2000
   -5.3073   15.0197  -24.8894 N   0  0  0  0  0  0  0  0  0  0  0  0
   -4.9334   14.4484  -23.5897 C   0  0  2  0  0  0  0  0  0  0  0  0
   -3.4890   14.7625  -23.3014 C   0  0  0  0  0  0  0  0  0  0  0  0
   -2.6132   14.2075  -23.9229 O   0  0  0  0  0  0  0  0  0  0  0  0
   -5.1293   12.9317  -23.6251 C   0  0  0  0  0  0  0  0  0  0  0  0
   -6.6184   12.6122  -23.7438 C   0  0  0  0  0  0  0  0  0  0  0  0
   -7.7261   13.2241  -22.6112 S   0  0  0  0  0  0  0  0  0  0  0  0
   -9.5230   13.3095  -22.3993 C   0  0  0  0  0  0  0  0  0  0  0  0
   -9.9933   14.2480  -21.2814 C   0  0  1  0  0  0  0  0  0  0  0  0
  -11.3973   14.2127  -21.1010 O   0  0  0  0  0  0  0  0  0  0  0  0
   -9.4650   13.8305  -19.9293 C   0  0  1  0  0  0  0  0  0  0  0  0
   -9.4933   15.0059  -19.1495 O   0  0  0  0  0  0  0  0  0  0  0  0
  -10.4982   12.8754  -19.3783 C   0  0  1  0  0  0  0  0  0  0  0  0
  -10.6848   13.1196  -18.0013 O   0  0  0  0  0  0  0  0  0  0  0  0
  -11.7572   13.2464  -20.1318 C   0  0  2  0  0  0  0  0  0  0  0  0
   -3.1721   15.6576  -22.3515 O   0  0  0  0  0  0  0  0  0  0  0  0
  -13.5776    8.3726  -19.7499 N   0  0  0  0  0  0  0  0  0  0  0  0
  -12.9534    9.1229  -18.7818 C   0  0  0  0  0  0  0  0  0  0  0  0
  -12.5295   10.3955  -19.0797 N   0  0  0  0  0  0  0  0  0  0  0  0
  -12.7209   10.9146  -20.3082 C   0  0  0  0  0  0  0  0  0  0  0  0
  -13.3471   10.1779  -21.2959 C   0  0  0  0  0  0  0  0  0  0  0  0
  -13.7767    8.8882  -21.0059 C   0  0  0  0  0  0  0  0  0  0  0  0
  -14.3787    8.1445  -21.9257 N   0  0  0  0  0  0  0  0  0  0  0  0
  -13.4050   10.9336  -22.4152 N   0  0  0  0  0  0  0  0  0  0  0  0
  -12.8360   12.1253  -22.1480 C   0  0  0  0  0  0  0  0  0  0  0  0
  -12.3958   12.1276  -20.8491 N   0  0  0  0  0  0  0  0  0  0  0  0
  2  1  1  6  0  0  0
  2  3  1  0  0  0  0
  2  5  1  0  0  0  0
  3  4  1  0  0  0  0
  3 16  1  0  0  0  0
  5  6  1  0  0  0  0
  6  7  1  0  0  0  0
  7  8  1  0  0  0  0
  9  8  1  6  0  0  0
  9 10  1  0  0  0  0
  9 11  1  0  0  0  0
 10 15  1  0  0  0  0
 11 12  1  1  0  0  0
 11 13  1  0  0  0  0
 13 14  1  1  0  0  0
 13 15  1  0  0  0  0
 15 26  1  6  0  0  0
 17 18  2  0  0  0  0
 17 22  1  0  0  0  0
 18 19  1  0  0  0  0
 19 20  2  0  0  0  0
 20 21  1  0  0  0  0
 20 26  1  0  0  0  0
 21 22  2  0  0  0  0
 21 24  1  0  0  0  0
 22 23  1  0  0  0  0
 24 25  2  0  0  0  0
 25 26  1  0  0  0  0
M  END
>  <CHROM.1>
-71.54213109,-67.03644647,-55.54984422,171.37372283,-168.31785486,-176.20116278
170.37196994,-9.54906895,12.57763386,-21.48192112,-0.06546861,-0.53310793
-2.31571820

>  <Name>
ligand

>  <RI>
0

>  <Rbt.Current_Directory>
/home/itssahil/PROJECTS/Mol_Feturizer/New_Systems/rnas/3E5E

>  <Rbt.Executable>
rbdock ($Id: //depot/dev/client3/rdock/2013.1/src/exe/rbdock.cxx#4 $)

>  <Rbt.Library>
libRbt.so (2013.1, Build901 2013/11/27)

>  <Rbt.Parameter_File>
/export/apps/rDock/src/rDock_2013.1_src/data/scripts/dock_solv.prm

>  <Rbt.Receptor>
prm/blind_docking_40.prm

>  <SCORE>
-18.932

>  <SCORE.INTER>
-15.9078

>  <SCORE.INTER.CONST>
1

>  <SCORE.INTER.POLAR>
0

>  <SCORE.INTER.ROT>
7

>  <SCORE.INTER.SOLV>
9.62878

>  <SCORE.INTER.VDW>
-22.0815

>  <SCORE.INTER.norm>
-0.61184

>  <SCORE.INTRA>
-3.02417

>  <SCORE.INTRA.DIHEDRAL>
-6.82946

>  <SCORE.INTRA.DIHEDRAL.0>
10.1225

>  <SCORE.INTRA.POLAR>
0

>  <SCORE.INTRA.POLAR.0>
0

>  <SCORE.INTRA.REPUL>
0

>  <SCORE.INTRA.REPUL.0>
0

>  <SCORE.INTRA.SOLV>
0.798188

>  <SCORE.INTRA.SOLV.lig_0>
-49.9393

>  <SCORE.INTRA.VDW>
-0.00853512

>  <SCORE.INTRA.VDW.0>
-1.75437

>  <SCORE.INTRA.norm>
-0.116314

>  <SCORE.RESTR>
0

>  <SCORE.RESTR.CAVITY>
0

>  <SCORE.RESTR.norm>
0

>  <SCORE.SYSTEM>
0

>  <SCORE.SYSTEM.CONST>
0

>  <SCORE.SYSTEM.DIHEDRAL>
0

>  <SCORE.SYSTEM.SOLV>
0

>  <SCORE.SYSTEM.norm>
0

>  <SCORE.heavy>
26

>  <SCORE.norm>
-0.728154

>  <RMSD>
9.342

$$$$
ligand
 OpenBabel11021811473D
libRbt.so/2013.1/901 2013/11/27
 26 28  0  0  0  0  0  0  0  0999 V2000
   -5.6695   15.2073  -21.8245 N   0  0  0  0  0  0  0  0  0  0  0  0
   -6.1953   16.4514  -22.4001 C   0  0  2  0  0  0  0  0  0  0  0  0
   -6.8891   17.2464  -21.3255 C   0  0  0  0  0  0  0  0  0  0  0  0
   -7.3598   16.6836  -20.3649 O   0  0  0  0  0  0  0  0  0  0  0  0
   -7.1913   16.1167  -23.5118 C   0  0  0  0  0  0  0  0  0  0  0  0
   -8.2909   15.2131  -22.9567 C   0  0  0  0  0  0  0  0  0  0  0  0
   -9.4224   14.4908  -23.9970 S   0  0  0  0  0  0  0  0  0  0  0  0
  -10.6715   13.1811  -23.9233 C   0  0  0  0  0  0  0  0  0  0  0  0
  -11.9622   13.5659  -23.1899 C   0  0  1  0  0  0  0  0  0  0  0  0
  -12.9800   12.5932  -23.3404 O   0  0  0  0  0  0  0  0  0  0  0  0
  -11.7682   13.6281  -21.6932 C   0  0  1  0  0  0  0  0  0  0  0  0
  -12.7904   14.4830  -21.2297 O   0  0  0  0  0  0  0  0  0  0  0  0
  -12.0623   12.2313  -21.1976 C   0  0  1  0  0  0  0  0  0  0  0  0
  -12.7973   12.2985  -19.9951 O   0  0  0  0  0  0  0  0  0  0  0  0
  -12.9327   11.6469  -22.2891 C   0  0  2  0  0  0  0  0  0  0  0  0
   -6.9881   18.5814  -21.4347 O   0  0  0  0  0  0  0  0  0  0  0  0
  -14.2214    7.2486  -24.7807 N   0  0  0  0  0  0  0  0  0  0  0  0
  -15.0556    8.2465  -24.3353 C   0  0  0  0  0  0  0  0  0  0  0  0
  -14.5241    9.3324  -23.6823 N   0  0  0  0  0  0  0  0  0  0  0  0
  -13.1962    9.4293  -23.4764 C   0  0  0  0  0  0  0  0  0  0  0  0
  -12.3395    8.4379  -23.9167 C   0  0  0  0  0  0  0  0  0  0  0  0
  -12.8673    7.3336  -24.5754 C   0  0  0  0  0  0  0  0  0  0  0  0
  -12.0814    6.3568  -25.0112 N   0  0  0  0  0  0  0  0  0  0  0  0
  -11.0781    8.7882  -23.5799 N   0  0  0  0  0  0  0  0  0  0  0  0
  -11.1264    9.9761  -22.9461 C   0  0  0  0  0  0  0  0  0  0  0  0
  -12.4333   10.3838  -22.8627 N   0  0  0  0  0  0  0  0  0  0  0  0
  2  1  1  1  0  0  0
  2  3  1  0  0  0  0
  2  5  1  0  0  0  0
  3  4  1  0  0  0  0
  3 16  1  0  0  0  0
  5  6  1  0  0  0  0
  6  7  1  0  0  0  0
  7  8  1  0  0  0  0
  9  8  1  6  0  0  0
  9 10  1  0  0  0  0
  9 11  1  0  0  0  0
 10 15  1  0  0  0  0
 11 12  1  1  0  0  0
 11 13  1  0  0  0  0
 13 14  1  1  0  0  0
 13 15  1  0  0  0  0
 15 26  1  6  0  0  0
 17 18  2  0  0  0  0
 17 22  1  0  0  0  0
 18 19  1  0  0  0  0
 19 20  2  0  0  0  0
 20 21  1  0  0  0  0
 20 26  1  0  0  0  0
 21 22  2  0  0  0  0
 21 24  1  0  0  0  0
 22 23  1  0  0  0  0
 24 25  2  0  0  0  0
 25 26  1  0  0  0  0
M  END
>  <CHROM.1>
-26.09594918,56.00103705,-171.27134522,166.59476060,75.79754016,170.68066725
-85.74940900,-10.84252160,12.50532902,-22.84438634,-0.89321147,-0.37067824
-2.62222147

>  <Name>
ligand

>  <RI>
0

>  <Rbt.Current_Directory>
/home/itssahil/PROJECTS/Mol_Feturizer/New_Systems/rnas/3E5E

>  <Rbt.Executable>
rbdock ($Id: //depot/dev/client3/rdock/2013.1/src/exe/rbdock.cxx#4 $)

>  <Rbt.Library>
libRbt.so (2013.1, Build901 2013/11/27)

>  <Rbt.Parameter_File>
/export/apps/rDock/src/rDock_2013.1_src/data/scripts/dock_solv.prm

>  <Rbt.Receptor>
prm/blind_docking_100.prm

>  <SCORE>
-16.2189

>  <SCORE.INTER>
-13.3235

>  <SCORE.INTER.CONST>
1

>  <SCORE.INTER.POLAR>
0

>  <SCORE.INTER.ROT>
7

>  <SCORE.INTER.SOLV>
9.08808

>  <SCORE.INTER.VDW>
-20.1784

>  <SCORE.INTER.norm>
-0.512443

>  <SCORE.INTRA>
-2.89542

>  <SCORE.INTRA.DIHEDRAL>
-6.24402

>  <SCORE.INTRA.DIHEDRAL.0>
10.1225

>  <SCORE.INTRA.POLAR>
0

>  <SCORE.INTRA.POLAR.0>
0

>  <SCORE.INTRA.REPUL>
0

>  <SCORE.INTRA.REPUL.0>
0

>  <SCORE.INTRA.SOLV>
0.263077

>  <SCORE.INTRA.SOLV.lig_0>
-49.9393

>  <SCORE.INTRA.VDW>
0.095055

>  <SCORE.INTRA.VDW.0>
-1.75437

>  <SCORE.INTRA.norm>
-0.111362

>  <SCORE.RESTR>
0

>  <SCORE.RESTR.CAVITY>
0

>  <SCORE.RESTR.norm>
0

>  <SCORE.SYSTEM>
0

>  <SCORE.SYSTEM.CONST>
0

>  <SCORE.SYSTEM.DIHEDRAL>
0

>  <SCORE.SYSTEM.SOLV>
0

>  <SCORE.SYSTEM.norm>
0

>  <SCORE.heavy>
26

>  <SCORE.norm>
-0.623806

>  <RMSD>
9.348

$$$$
ligand
 OpenBabel11021811473D
libRbt.so/2013.1/901 2013/11/27
 26 28  0  0  0  0  0  0  0  0999 V2000
   -3.7220   14.8370  -21.3975 N   0  0  0  0  0  0  0  0  0  0  0  0
   -4.0188   15.6813  -22.5614 C   0  0  2  0  0  0  0  0  0  0  0  0
   -3.8559   17.1301  -22.1837 C   0  0  0  0  0  0  0  0  0  0  0  0
   -4.6855   17.6720  -21.4915 O   0  0  0  0  0  0  0  0  0  0  0  0
   -5.4569   15.4309  -23.0183 C   0  0  0  0  0  0  0  0  0  0  0  0
   -5.6476   13.9439  -23.3115 C   0  0  0  0  0  0  0  0  0  0  0  0
   -7.1285   13.3639  -23.9072 S   0  0  0  0  0  0  0  0  0  0  0  0
   -8.8739   13.3880  -23.4236 C   0  0  0  0  0  0  0  0  0  0  0  0
   -9.2751   14.5655  -22.5268 C   0  0  1  0  0  0  0  0  0  0  0  0
  -10.6789   14.7335  -22.4510 O   0  0  0  0  0  0  0  0  0  0  0  0
   -8.8798   14.3428  -21.0861 C   0  0  1  0  0  0  0  0  0  0  0  0
   -8.7939   15.6361  -20.5289 O   0  0  0  0  0  0  0  0  0  0  0  0
  -10.0583   13.6368  -20.4569 C   0  0  1  0  0  0  0  0  0  0  0  0
  -10.2843   14.1503  -19.1624 O   0  0  0  0  0  0  0  0  0  0  0  0
  -11.2150   14.0121  -21.3578 C   0  0  2  0  0  0  0  0  0  0  0  0
   -2.7900   17.8225  -22.6179 O   0  0  0  0  0  0  0  0  0  0  0  0
  -13.0854    9.2337  -20.4188 N   0  0  0  0  0  0  0  0  0  0  0  0
  -12.3369   10.0303  -19.5850 C   0  0  0  0  0  0  0  0  0  0  0  0
  -11.9226   11.2658  -20.0207 N   0  0  0  0  0  0  0  0  0  0  0  0
  -12.2435   11.7038  -21.2538 C   0  0  0  0  0  0  0  0  0  0  0  0
  -12.9959   10.9194  -22.1077 C   0  0  0  0  0  0  0  0  0  0  0  0
  -13.4173    9.6666  -21.6779 C   0  0  0  0  0  0  0  0  0  0  0  0
  -14.1379    8.8792  -22.4668 N   0  0  0  0  0  0  0  0  0  0  0  0
  -13.1664   11.5969  -23.2650 N   0  0  0  0  0  0  0  0  0  0  0  0
  -12.5444   12.7866  -23.1514 C   0  0  0  0  0  0  0  0  0  0  0  0
  -11.9568   12.8660  -21.9147 N   0  0  0  0  0  0  0  0  0  0  0  0
  2  1  1  1  0  0  0
  2  3  1  0  0  0  0
  2  5  1  0  0  0  0
  3  4  1  0  0  0  0
  3 16  1  0  0  0  0
  5  6  1  0  0  0  0
  6  7  1  0  0  0  0
  7  8  1  0  0  0  0
  9  8  1  6  0  0  0
  9 10  1  0  0  0  0
  9 11  1  0  0  0  0
 10 15  1  0  0  0  0
 11 12  1  1  0  0  0
 11 13  1  0  0  0  0
 13 14  1  1  0  0  0
 13 15  1  0  0  0  0
 15 26  1  6  0  0  0
 17 18  2  0  0  0  0
 17 22  1  0  0  0  0
 18 19  1  0  0  0  0
 19 20  2  0  0  0  0
 20 21  1  0  0  0  0
 20 26  1  0  0  0  0
 21 22  2  0  0  0  0
 21 24  1  0  0  0  0
 22 23  1  0  0  0  0
 24 25  2  0  0  0  0
 25 26  1  0  0  0  0
M  END
>  <CHROM.1>
-74.07973517,-56.27190286,-177.25724478,-56.17404275,25.46102158,165.17839135
156.93719989,-9.14348510,13.53052663,-21.91443821,-0.23840893,-0.53394550
-2.18247490

>  <Name>
ligand

>  <RI>
0

>  <Rbt.Current_Directory>
/home/itssahil/PROJECTS/Mol_Feturizer/New_Systems/rnas/3E5E

>  <Rbt.Executable>
rbdock ($Id: //depot/dev/client3/rdock/2013.1/src/exe/rbdock.cxx#4 $)

>  <Rbt.Library>
libRbt.so (2013.1, Build901 2013/11/27)

>  <Rbt.Parameter_File>
/export/apps/rDock/src/rDock_2013.1_src/data/scripts/dock_solv.prm

>  <Rbt.Receptor>
prm/blind_docking_60.prm

>  <SCORE>
-16.3698

>  <SCORE.INTER>
-13.6701

>  <SCORE.INTER.CONST>
1

>  <SCORE.INTER.POLAR>
0

>  <SCORE.INTER.ROT>
7

>  <SCORE.INTER.SOLV>
13.9652

>  <SCORE.INTER.VDW>
-22.0352

>  <SCORE.INTER.norm>
-0.525775

>  <SCORE.INTRA>
-2.6997

>  <SCORE.INTRA.DIHEDRAL>
-5.22727

>  <SCORE.INTRA.DIHEDRAL.0>
10.1225

>  <SCORE.INTRA.POLAR>
0

>  <SCORE.INTRA.POLAR.0>
0

>  <SCORE.INTRA.REPUL>
0

>  <SCORE.INTRA.REPUL.0>
0

>  <SCORE.INTRA.SOLV>
0.337535

>  <SCORE.INTRA.SOLV.lig_0>
-49.9393

>  <SCORE.INTRA.VDW>
-0.254826

>  <SCORE.INTRA.VDW.0>
-1.75437

>  <SCORE.INTRA.norm>
-0.103834

>  <SCORE.RESTR>
0

>  <SCORE.RESTR.CAVITY>
0

>  <SCORE.RESTR.norm>
0

>  <SCORE.SYSTEM>
0

>  <SCORE.SYSTEM.CONST>
0

>  <SCORE.SYSTEM.DIHEDRAL>
0

>  <SCORE.SYSTEM.SOLV>
0

>  <SCORE.SYSTEM.norm>
0

>  <SCORE.heavy>
26

>  <SCORE.norm>
-0.629609

>  <RMSD>
9.352

$$$$
ligand
 OpenBabel11021811473D
libRbt.so/2013.1/901 2013/11/27
 26 28  0  0  0  0  0  0  0  0999 V2000
   -5.6461   16.7922  -21.6653 N   0  0  0  0  0  0  0  0  0  0  0  0
   -4.9422   16.2956  -22.8542 C   0  0  2  0  0  0  0  0  0  0  0  0
   -3.4700   16.5844  -22.7217 C   0  0  0  0  0  0  0  0  0  0  0  0
   -2.6633   15.6968  -22.8711 O   0  0  0  0  0  0  0  0  0  0  0  0
   -5.4901   16.9950  -24.0993 C   0  0  0  0  0  0  0  0  0  0  0  0
   -6.7311   16.2553  -24.5956 C   0  0  0  0  0  0  0  0  0  0  0  0
   -7.9433   15.7752  -23.5074 S   0  0  0  0  0  0  0  0  0  0  0  0
   -8.1150   14.6526  -22.0963 C   0  0  0  0  0  0  0  0  0  0  0  0
   -9.4096   14.8253  -21.2927 C   0  0  1  0  0  0  0  0  0  0  0  0
  -10.5629   14.5108  -22.0516 O   0  0  0  0  0  0  0  0  0  0  0  0
   -9.4912   13.8614  -20.1327 C   0  0  1  0  0  0  0  0  0  0  0  0
  -10.3785   14.4675  -19.2185 O   0  0  0  0  0  0  0  0  0  0  0  0
  -10.1607   12.6269  -20.6902 C   0  0  1  0  0  0  0  0  0  0  0  0
  -11.0772   12.1161  -19.7469 O   0  0  0  0  0  0  0  0  0  0  0  0
  -10.9142   13.1489  -21.8944 C   0  0  2  0  0  0  0  0  0  0  0  0
   -3.0519   17.8281  -22.4347 O   0  0  0  0  0  0  0  0  0  0  0  0
   -7.2340   10.6603  -24.6287 N   0  0  0  0  0  0  0  0  0  0  0  0
   -7.1201   11.2449  -23.3896 C   0  0  0  0  0  0  0  0  0  0  0  0
   -8.2096   11.8705  -22.8332 N   0  0  0  0  0  0  0  0  0  0  0  0
   -9.3862   11.9149  -23.4880 C   0  0  0  0  0  0  0  0  0  0  0  0
   -9.5228   11.3329  -24.7342 C   0  0  0  0  0  0  0  0  0  0  0  0
   -8.4259   10.7004  -25.3075 C   0  0  0  0  0  0  0  0  0  0  0  0
   -8.5118   10.1321  -26.5039 N   0  0  0  0  0  0  0  0  0  0  0  0
  -10.7931   11.5255  -25.1545 N   0  0  0  0  0  0  0  0  0  0  0  0
  -11.4535   12.2077  -24.1986 C   0  0  0  0  0  0  0  0  0  0  0  0
  -10.5937   12.4678  -23.1622 N   0  0  0  0  0  0  0  0  0  0  0  0
  2  1  1  1  0  0  0
  2  3  1  0  0  0  0
  2  5  1  0  0  0  0
  3  4  1  0  0  0  0
  3 16  1  0  0  0  0
  5  6  1  0  0  0  0
  6  7  1  0  0  0  0
  7  8  1  0  0  0  0
  9  8  1  6  0  0  0
  9 10  1  0  0  0  0
  9 11  1  0  0  0  0
 10 15  1  0  0  0  0
 11 12  1  1  0  0  0
 11 13  1  0  0  0  0
 13 14  1  1  0  0  0
 13 15  1  0  0  0  0
 15 26  1  6  0  0  0
 17 18  2  0  0  0  0
 17 22  1  0  0  0  0
 18 19  1  0  0  0  0
 19 20  2  0  0  0  0
 20 21  1  0  0  0  0
 20 26  1  0  0  0  0
 21 22  2  0  0  0  0
 21 24  1  0  0  0  0
 22 23  1  0  0  0  0
 24 25  2  0  0  0  0
 25 26  1  0  0  0  0
M  END
>  <CHROM.1>
127.94623613,-85.23741597,45.86970443,-63.95925462,168.22597023,64.42454983
87.87297643,-8.08783203,13.88119352,-22.86702193,0.46889293,0.53464132,0.82359855

>  <Name>
ligand

>  <RI>
0

>  <Rbt.Current_Directory>
/home/itssahil/PROJECTS/Mol_Feturizer/New_Systems/rnas/3E5E

>  <Rbt.Executable>
rbdock ($Id: //depot/dev/client3/rdock/2013.1/src/exe/rbdock.cxx#4 $)

>  <Rbt.Library>
libRbt.so (2013.1, Build901 2013/11/27)

>  <Rbt.Parameter_File>
/export/apps/rDock/src/rDock_2013.1_src/data/scripts/dock_solv.prm

>  <Rbt.Receptor>
prm/blind_docking_60.prm

>  <SCORE>
-15.5189

>  <SCORE.INTER>
-13.3233

>  <SCORE.INTER.CONST>
1

>  <SCORE.INTER.POLAR>
0

>  <SCORE.INTER.ROT>
7

>  <SCORE.INTER.SOLV>
8.37675

>  <SCORE.INTER.VDW>
-19.9411

>  <SCORE.INTER.norm>
-0.512435

>  <SCORE.INTRA>
-2.23096

>  <SCORE.INTRA.DIHEDRAL>
-4.06256

>  <SCORE.INTRA.DIHEDRAL.0>
10.1225

>  <SCORE.INTRA.POLAR>
0

>  <SCORE.INTRA.POLAR.0>
0

>  <SCORE.INTRA.REPUL>
0

>  <SCORE.INTRA.REPUL.0>
0

>  <SCORE.INTRA.SOLV>
2.33335

>  <SCORE.INTRA.SOLV.lig_0>
-49.9393

>  <SCORE.INTRA.VDW>
-1.36635

>  <SCORE.INTRA.VDW.0>
-1.75437

>  <SCORE.INTRA.norm>
-0.0858061

>  <SCORE.RESTR>
0.0353906

>  <SCORE.RESTR.CAVITY>
0.0353906

>  <SCORE.RESTR.norm>
0.00136118

>  <SCORE.SYSTEM>
0

>  <SCORE.SYSTEM.CONST>
0

>  <SCORE.SYSTEM.DIHEDRAL>
0

>  <SCORE.SYSTEM.SOLV>
0

>  <SCORE.SYSTEM.norm>
0

>  <SCORE.heavy>
26

>  <SCORE.norm>
-0.59688

>  <RMSD>
9.353

$$$$
ligand
 OpenBabel11021811473D
libRbt.so/2013.1/901 2013/11/27
 26 28  0  0  0  0  0  0  0  0999 V2000
   -4.9411   16.8837  -21.9454 N   0  0  0  0  0  0  0  0  0  0  0  0
   -5.7364   15.6563  -22.0734 C   0  0  2  0  0  0  0  0  0  0  0  0
   -5.1007   14.7520  -23.0963 C   0  0  0  0  0  0  0  0  0  0  0  0
   -4.7628   13.6331  -22.7881 O   0  0  0  0  0  0  0  0  0  0  0  0
   -7.1555   16.0134  -22.5187 C   0  0  0  0  0  0  0  0  0  0  0  0
   -8.0509   14.7808  -22.4070 C   0  0  0  0  0  0  0  0  0  0  0  0
   -9.6165   14.7880  -23.0649 S   0  0  0  0  0  0  0  0  0  0  0  0
  -10.9753   13.6163  -23.3137 C   0  0  0  0  0  0  0  0  0  0  0  0
  -12.1691   13.8084  -22.3705 C   0  0  1  0  0  0  0  0  0  0  0  0
  -13.1259   12.7717  -22.4915 O   0  0  0  0  0  0  0  0  0  0  0  0
  -11.7634   13.7304  -20.9176 C   0  0  1  0  0  0  0  0  0  0  0  0
  -12.7652   14.4398  -20.2222 O   0  0  0  0  0  0  0  0  0  0  0  0
  -11.8815   12.2692  -20.5516 C   0  0  1  0  0  0  0  0  0  0  0  0
  -12.4358   12.1459  -19.2599 O   0  0  0  0  0  0  0  0  0  0  0  0
  -12.8581   11.7285  -21.5735 C   0  0  2  0  0  0  0  0  0  0  0  0
   -4.9060   15.1886  -24.3514 O   0  0  0  0  0  0  0  0  0  0  0  0
  -14.1200    7.9156  -24.9027 N   0  0  0  0  0  0  0  0  0  0  0  0
  -14.9529    8.8372  -24.3137 C   0  0  0  0  0  0  0  0  0  0  0  0
  -14.4302    9.7650  -23.4454 N   0  0  0  0  0  0  0  0  0  0  0  0
  -13.1119    9.7814  -23.1678 C   0  0  0  0  0  0  0  0  0  0  0  0
  -12.2566    8.8647  -23.7496 C   0  0  0  0  0  0  0  0  0  0  0  0
  -12.7758    7.9197  -24.6268 C   0  0  0  0  0  0  0  0  0  0  0  0
  -11.9911    7.0185  -25.2045 N   0  0  0  0  0  0  0  0  0  0  0  0
  -11.0056    9.1073  -23.2986 N   0  0  0  0  0  0  0  0  0  0  0  0
  -11.0588   10.1564  -22.4549 C   0  0  0  0  0  0  0  0  0  0  0  0
  -12.3590   10.5807  -22.3528 N   0  0  0  0  0  0  0  0  0  0  0  0
  2  1  1  6  0  0  0
  2  3  1  0  0  0  0
  2  5  1  0  0  0  0
  3  4  1  0  0  0  0
  3 16  1  0  0  0  0
  5  6  1  0  0  0  0
  6  7  1  0  0  0  0
  7  8  1  0  0  0  0
  9  8  1  6  0  0  0
  9 10  1  0  0  0  0
  9 11  1  0  0  0  0
 10 15  1  0  0  0  0
 11 12  1  1  0  0  0
 11 13  1  0  0  0  0
 13 14  1  1  0  0  0
 13 15  1  0  0  0  0
 15 26  1  6  0  0  0
 17 18  2  0  0  0  0
 17 22  1  0  0  0  0
 18 19  1  0  0  0  0
 19 20  2  0  0  0  0
 20 21  1  0  0  0  0
 20 26  1  0  0  0  0
 21 22  2  0  0  0  0
 21 24  1  0  0  0  0
 22 23  1  0  0  0  0
 24 25  2  0  0  0  0
 25 26  1  0  0  0  0
M  END
>  <CHROM.1>
122.09284568,-169.71960102,-169.98134298,174.15372230,106.15565177,-172.62282346
-72.58799568,-10.51838860,12.37617247,-22.69218694,-0.63066140,-0.35977469
-2.56223665

>  <Name>
ligand

>  <RI>
0

>  <Rbt.Current_Directory>
/home/itssahil/PROJECTS/Mol_Feturizer/New_Systems/rnas/3E5E

>  <Rbt.Executable>
rbdock ($Id: //depot/dev/client3/rdock/2013.1/src/exe/rbdock.cxx#4 $)

>  <Rbt.Library>
libRbt.so (2013.1, Build901 2013/11/27)

>  <Rbt.Parameter_File>
/export/apps/rDock/src/rDock_2013.1_src/data/scripts/dock_solv.prm

>  <Rbt.Receptor>
prm/blind_docking_80.prm

>  <SCORE>
-17.998

>  <SCORE.INTER>
-15.0732

>  <SCORE.INTER.CONST>
1

>  <SCORE.INTER.POLAR>
0

>  <SCORE.INTER.ROT>
7

>  <SCORE.INTER.SOLV>
8.88204

>  <SCORE.INTER.VDW>
-21.2761

>  <SCORE.INTER.norm>
-0.579737

>  <SCORE.INTRA>
-2.92484

>  <SCORE.INTRA.DIHEDRAL>
-4.36913

>  <SCORE.INTRA.DIHEDRAL.0>
10.1225

>  <SCORE.INTRA.POLAR>
0

>  <SCORE.INTRA.POLAR.0>
0

>  <SCORE.INTRA.REPUL>
0

>  <SCORE.INTRA.REPUL.0>
0

>  <SCORE.INTRA.SOLV>
-0.55501

>  <SCORE.INTRA.SOLV.lig_0>
-49.9393

>  <SCORE.INTRA.VDW>
-0.462766

>  <SCORE.INTRA.VDW.0>
-1.75437

>  <SCORE.INTRA.norm>
-0.112494

>  <SCORE.RESTR>
0

>  <SCORE.RESTR.CAVITY>
0

>  <SCORE.RESTR.norm>
0

>  <SCORE.SYSTEM>
0

>  <SCORE.SYSTEM.CONST>
0

>  <SCORE.SYSTEM.DIHEDRAL>
0

>  <SCORE.SYSTEM.SOLV>
0

>  <SCORE.SYSTEM.norm>
0

>  <SCORE.heavy>
26

>  <SCORE.norm>
-0.692231

>  <RMSD>
9.369

$$$$
ligand
 OpenBabel11021811473D
libRbt.so/2013.1/901 2013/11/27
 26 28  0  0  0  0  0  0  0  0999 V2000
   -7.3708   15.6616  -21.1384 N   0  0  0  0  0  0  0  0  0  0  0  0
   -6.5126   15.7335  -22.3274 C   0  0  2  0  0  0  0  0  0  0  0  0
   -5.3037   16.5782  -22.0223 C   0  0  0  0  0  0  0  0  0  0  0  0
   -5.4359   17.6510  -21.4814 O   0  0  0  0  0  0  0  0  0  0  0  0
   -7.2953   16.3598  -23.4828 C   0  0  0  0  0  0  0  0  0  0  0  0
   -8.2641   15.3298  -24.0606 C   0  0  0  0  0  0  0  0  0  0  0  0
   -9.6319   14.8416  -23.1804 S   0  0  0  0  0  0  0  0  0  0  0  0
  -10.9521   13.6094  -23.3220 C   0  0  0  0  0  0  0  0  0  0  0  0
  -12.1302   13.8182  -22.3628 C   0  0  1  0  0  0  0  0  0  0  0  0
  -13.0977   12.7892  -22.4629 O   0  0  0  0  0  0  0  0  0  0  0  0
  -11.7041   13.7463  -20.9155 C   0  0  1  0  0  0  0  0  0  0  0  0
  -12.6894   14.4690  -20.2103 O   0  0  0  0  0  0  0  0  0  0  0  0
  -11.8295   12.2886  -20.5379 C   0  0  1  0  0  0  0  0  0  0  0  0
  -12.3659   12.1787  -19.2376 O   0  0  0  0  0  0  0  0  0  0  0  0
  -12.8256   11.7498  -21.5419 C   0  0  2  0  0  0  0  0  0  0  0  0
   -4.0774   16.1416  -22.3533 O   0  0  0  0  0  0  0  0  0  0  0  0
  -14.1353    8.0217  -24.9478 N   0  0  0  0  0  0  0  0  0  0  0  0
  -14.9496    8.9673  -24.3709 C   0  0  0  0  0  0  0  0  0  0  0  0
  -14.4170    9.8659  -23.4781 N   0  0  0  0  0  0  0  0  0  0  0  0
  -13.1072    9.8304  -23.1648 C   0  0  0  0  0  0  0  0  0  0  0  0
  -12.2706    8.8887  -23.7338 C   0  0  0  0  0  0  0  0  0  0  0  0
  -12.8000    7.9729  -24.6356 C   0  0  0  0  0  0  0  0  0  0  0  0
  -12.0335    7.0494  -25.2023 N   0  0  0  0  0  0  0  0  0  0  0  0
  -11.0243    9.0799  -23.2465 N   0  0  0  0  0  0  0  0  0  0  0  0
  -11.0619   10.1213  -22.3925 C   0  0  0  0  0  0  0  0  0  0  0  0
  -12.3480   10.5925  -22.3206 N   0  0  0  0  0  0  0  0  0  0  0  0
  2  1  1  1  0  0  0
  2  3  1  0  0  0  0
  2  5  1  0  0  0  0
  3  4  1  0  0  0  0
  3 16  1  0  0  0  0
  5  6  1  0  0  0  0
  6  7  1  0  0  0  0
  7  8  1  0  0  0  0
  9  8  1  6  0  0  0
  9 10  1  0  0  0  0
  9 11  1  0  0  0  0
 10 15  1  0  0  0  0
 11 12  1  1  0  0  0
 11 13  1  0  0  0  0
 13 14  1  1  0  0  0
 13 15  1  0  0  0  0
 15 26  1  6  0  0  0
 17 18  2  0  0  0  0
 17 22  1  0  0  0  0
 18 19  1  0  0  0  0
 19 20  2  0  0  0  0
 20 21  1  0  0  0  0
 20 26  1  0  0  0  0
 21 22  2  0  0  0  0
 21 24  1  0  0  0  0
 22 23  1  0  0  0  0
 24 25  2  0  0  0  0
 25 26  1  0  0  0  0
M  END
>  <CHROM.1>
-47.69897857,-76.43244701,70.78755543,-173.16987864,-167.04291987,-176.75550668
-69.52445963,-10.63875192,12.66241137,-22.59824129,0.71117742,0.45072683
0.65727029

>  <Name>
ligand

>  <RI>
0

>  <Rbt.Current_Directory>
/home/itssahil/PROJECTS/Mol_Feturizer/New_Systems/rnas/3E5E

>  <Rbt.Executable>
rbdock ($Id: //depot/dev/client3/rdock/2013.1/src/exe/rbdock.cxx#4 $)

>  <Rbt.Library>
libRbt.so (2013.1, Build901 2013/11/27)

>  <Rbt.Parameter_File>
/export/apps/rDock/src/rDock_2013.1_src/data/scripts/dock_solv.prm

>  <Rbt.Receptor>
prm/blind_docking_60.prm

>  <SCORE>
-17.358

>  <SCORE.INTER>
-14.4926

>  <SCORE.INTER.CONST>
1

>  <SCORE.INTER.POLAR>
0

>  <SCORE.INTER.ROT>
7

>  <SCORE.INTER.SOLV>
8.85636

>  <SCORE.INTER.VDW>
-20.8805

>  <SCORE.INTER.norm>
-0.557406

>  <SCORE.INTRA>
-2.86543

>  <SCORE.INTRA.DIHEDRAL>
-5.6663

>  <SCORE.INTRA.DIHEDRAL.0>
10.1225

>  <SCORE.INTRA.POLAR>
0

>  <SCORE.INTRA.POLAR.0>
0

>  <SCORE.INTRA.REPUL>
0

>  <SCORE.INTRA.REPUL.0>
0

>  <SCORE.INTRA.SOLV>
1.15073

>  <SCORE.INTRA.SOLV.lig_0>
-49.9393

>  <SCORE.INTRA.VDW>
-0.607644

>  <SCORE.INTRA.VDW.0>
-1.75437

>  <SCORE.INTRA.norm>
-0.110209

>  <SCORE.RESTR>
0

>  <SCORE.RESTR.CAVITY>
0

>  <SCORE.RESTR.norm>
0

>  <SCORE.SYSTEM>
0

>  <SCORE.SYSTEM.CONST>
0

>  <SCORE.SYSTEM.DIHEDRAL>
0

>  <SCORE.SYSTEM.SOLV>
0

>  <SCORE.SYSTEM.norm>
0

>  <SCORE.heavy>
26

>  <SCORE.norm>
-0.667615

>  <RMSD>
9.382

$$$$
ligand
 OpenBabel11021811473D
libRbt.so/2013.1/901 2013/11/27
 26 28  0  0  0  0  0  0  0  0999 V2000
   -7.8442   17.9113  -24.3034 N   0  0  0  0  0  0  0  0  0  0  0  0
   -7.0523   16.7572  -23.8601 C   0  0  2  0  0  0  0  0  0  0  0  0
   -5.6861   16.8150  -24.4913 C   0  0  0  0  0  0  0  0  0  0  0  0
   -4.7098   16.5027  -23.8507 O   0  0  0  0  0  0  0  0  0  0  0  0
   -7.7554   15.4656  -24.2811 C   0  0  0  0  0  0  0  0  0  0  0  0
   -9.0876   15.3459  -23.5432 C   0  0  0  0  0  0  0  0  0  0  0  0
  -10.0743   13.9805  -23.7580 S   0  0  0  0  0  0  0  0  0  0  0  0
  -11.6989   13.3965  -23.2095 C   0  0  0  0  0  0  0  0  0  0  0  0
  -12.0574   13.7614  -21.7638 C   0  0  1  0  0  0  0  0  0  0  0  0
  -13.1919   13.0564  -21.2939 O   0  0  0  0  0  0  0  0  0  0  0  0
  -10.9761   13.3554  -20.7905 C   0  0  1  0  0  0  0  0  0  0  0  0
  -11.1586   14.1970  -19.6730 O   0  0  0  0  0  0  0  0  0  0  0  0
  -11.3240   11.9440  -20.3784 C   0  0  1  0  0  0  0  0  0  0  0  0
  -11.0928   11.7817  -18.9960 O   0  0  0  0  0  0  0  0  0  0  0  0
  -12.8090   11.8526  -20.6558 C   0  0  2  0  0  0  0  0  0  0  0  0
   -5.5507   17.2163  -25.7659 O   0  0  0  0  0  0  0  0  0  0  0  0
  -11.3328    8.7849  -24.6085 N   0  0  0  0  0  0  0  0  0  0  0  0
  -10.6417    9.8297  -24.0421 C   0  0  0  0  0  0  0  0  0  0  0  0
  -11.2076   10.5340  -23.0068 N   0  0  0  0  0  0  0  0  0  0  0  0
  -12.4297   10.2100  -22.5414 C   0  0  0  0  0  0  0  0  0  0  0  0
  -13.1414    9.1628  -23.0957 C   0  0  0  0  0  0  0  0  0  0  0  0
  -12.5793    8.4461  -24.1457 C   0  0  0  0  0  0  0  0  0  0  0  0
  -13.2295    7.4358  -24.7098 N   0  0  0  0  0  0  0  0  0  0  0  0
  -14.3215    9.0612  -22.4443 N   0  0  0  0  0  0  0  0  0  0  0  0
  -14.3606   10.0150  -21.4936 C   0  0  0  0  0  0  0  0  0  0  0  0
  -13.2004   10.7446  -21.5463 N   0  0  0  0  0  0  0  0  0  0  0  0
  2  1  1  6  0  0  0
  2  3  1  0  0  0  0
  2  5  1  0  0  0  0
  3  4  1  0  0  0  0
  3 16  1  0  0  0  0
  5  6  1  0  0  0  0
  6  7  1  0  0  0  0
  7  8  1  0  0  0  0
  9  8  1  6  0  0  0
  9 10  1  0  0  0  0
  9 11  1  0  0  0  0
 10 15  1  0  0  0  0
 11 12  1  1  0  0  0
 11 13  1  0  0  0  0
 13 14  1  1  0  0  0
 13 15  1  0  0  0  0
 15 26  1  6  0  0  0
 17 18  2  0  0  0  0
 17 22  1  0  0  0  0
 18 19  1  0  0  0  0
 19 20  2  0  0  0  0
 20 21  1  0  0  0  0
 20 26  1  0  0  0  0
 21 22  2  0  0  0  0
 21 24  1  0  0  0  0
 22 23  1  0  0  0  0
 24 25  2  0  0  0  0
 25 26  1  0  0  0  0
M  END
>  <CHROM.1>
140.75766920,-65.10729788,-177.63888924,-176.75997427,-37.17152071,-167.59716705
88.87187190,-10.61346161,12.76401450,-22.80342387,0.37406446,0.78072885,0.80549027

>  <Name>
ligand

>  <RI>
0

>  <Rbt.Current_Directory>
/home/itssahil/PROJECTS/Mol_Feturizer/New_Systems/rnas/3E5E

>  <Rbt.Executable>
rbdock ($Id: //depot/dev/client3/rdock/2013.1/src/exe/rbdock.cxx#4 $)

>  <Rbt.Library>
libRbt.so (2013.1, Build901 2013/11/27)

>  <Rbt.Parameter_File>
/export/apps/rDock/src/rDock_2013.1_src/data/scripts/dock_solv.prm

>  <Rbt.Receptor>
prm/blind_docking_60.prm

>  <SCORE>
-14.927

>  <SCORE.INTER>
-11.1988

>  <SCORE.INTER.CONST>
1

>  <SCORE.INTER.POLAR>
0

>  <SCORE.INTER.ROT>
7

>  <SCORE.INTER.SOLV>
9.37041

>  <SCORE.INTER.VDW>
-18.856

>  <SCORE.INTER.norm>
-0.430721

>  <SCORE.INTRA>
-3.72821

>  <SCORE.INTRA.DIHEDRAL>
-5.86995

>  <SCORE.INTRA.DIHEDRAL.0>
10.1225

>  <SCORE.INTRA.POLAR>
0

>  <SCORE.INTRA.POLAR.0>
0

>  <SCORE.INTRA.REPUL>
0

>  <SCORE.INTRA.REPUL.0>
0

>  <SCORE.INTRA.SOLV>
0.252986

>  <SCORE.INTRA.SOLV.lig_0>
-49.9393

>  <SCORE.INTRA.VDW>
-0.919724

>  <SCORE.INTRA.VDW.0>
-1.75437

>  <SCORE.INTRA.norm>
-0.143393

>  <SCORE.RESTR>
0

>  <SCORE.RESTR.CAVITY>
0

>  <SCORE.RESTR.norm>
0

>  <SCORE.SYSTEM>
0

>  <SCORE.SYSTEM.CONST>
0

>  <SCORE.SYSTEM.DIHEDRAL>
0

>  <SCORE.SYSTEM.SOLV>
0

>  <SCORE.SYSTEM.norm>
0

>  <SCORE.heavy>
26

>  <SCORE.norm>
-0.574114

>  <RMSD>
9.393

$$$$
ligand
 OpenBabel11021811473D
libRbt.so/2013.1/901 2013/11/27
 26 28  0  0  0  0  0  0  0  0999 V2000
   -5.0171   16.1404  -23.0224 N   0  0  0  0  0  0  0  0  0  0  0  0
   -5.4262   14.7641  -22.7158 C   0  0  2  0  0  0  0  0  0  0  0  0
   -4.4571   13.8007  -23.3488 C   0  0  0  0  0  0  0  0  0  0  0  0
   -3.3155   14.1393  -23.5563 O   0  0  0  0  0  0  0  0  0  0  0  0
   -6.8300   14.5150  -23.2700 C   0  0  0  0  0  0  0  0  0  0  0  0
   -7.8620   15.1879  -22.3668 C   0  0  0  0  0  0  0  0  0  0  0  0
   -9.5199   15.0774  -22.7181 S   0  0  0  0  0  0  0  0  0  0  0  0
  -10.7343   13.7823  -23.0773 C   0  0  0  0  0  0  0  0  0  0  0  0
  -12.0866   13.9583  -22.3757 C   0  0  1  0  0  0  0  0  0  0  0  0
  -13.0265   12.9708  -22.7582 O   0  0  0  0  0  0  0  0  0  0  0  0
  -11.9802   13.7674  -20.8811 C   0  0  1  0  0  0  0  0  0  0  0  0
  -13.0817   14.4680  -20.3462 O   0  0  0  0  0  0  0  0  0  0  0  0
  -12.2063   12.2909  -20.6536 C   0  0  1  0  0  0  0  0  0  0  0  0
  -13.0094   12.1038  -19.5087 O   0  0  0  0  0  0  0  0  0  0  0  0
  -12.9736   11.8588  -21.8844 C   0  0  2  0  0  0  0  0  0  0  0  0
   -4.8610   12.5649  -23.6861 O   0  0  0  0  0  0  0  0  0  0  0  0
  -13.8535    7.7510  -24.9773 N   0  0  0  0  0  0  0  0  0  0  0  0
  -14.7765    8.5865  -24.3941 C   0  0  0  0  0  0  0  0  0  0  0  0
  -14.3465    9.6168  -23.5931 N   0  0  0  0  0  0  0  0  0  0  0  0
  -13.0320    9.8168  -23.3757 C   0  0  0  0  0  0  0  0  0  0  0  0
  -12.0872    8.9893  -23.9530 C   0  0  0  0  0  0  0  0  0  0  0  0
  -12.5118    7.9421  -24.7623 C   0  0  0  0  0  0  0  0  0  0  0  0
  -11.6389    7.1212  -25.3331 N   0  0  0  0  0  0  0  0  0  0  0  0
  -10.8622    9.4136  -23.5699 N   0  0  0  0  0  0  0  0  0  0  0  0
  -11.0195   10.4886  -22.7733 C   0  0  0  0  0  0  0  0  0  0  0  0
  -12.3592   10.7466  -22.6324 N   0  0  0  0  0  0  0  0  0  0  0  0
  2  1  1  6  0  0  0
  2  3  1  0  0  0  0
  2  5  1  0  0  0  0
  3  4  1  0  0  0  0
  3 16  1  0  0  0  0
  5  6  1  0  0  0  0
  6  7  1  0  0  0  0
  7  8  1  0  0  0  0
  9  8  1  6  0  0  0
  9 10  1  0  0  0  0
  9 11  1  0  0  0  0
 10 15  1  0  0  0  0
 11 12  1  1  0  0  0
 11 13  1  0  0  0  0
 13 14  1  1  0  0  0
 13 15  1  0  0  0  0
 15 26  1  6  0  0  0
 17 18  2  0  0  0  0
 17 22  1  0  0  0  0
 18 19  1  0  0  0  0
 19 20  2  0  0  0  0
 20 21  1  0  0  0  0
 20 26  1  0  0  0  0
 21 22  2  0  0  0  0
 21 24  1  0  0  0  0
 22 23  1  0  0  0  0
 24 25  2  0  0  0  0
 25 26  1  0  0  0  0
M  END
>  <CHROM.1>
26.87689169,-76.18276036,-179.52846117,51.84359118,137.40602727,176.08943703
-90.59640131,-10.38852555,12.22478492,-22.85964696,-0.52893473,-0.28187231
-2.62232584

>  <Name>
ligand

>  <RI>
0

>  <Rbt.Current_Directory>
/home/itssahil/PROJECTS/Mol_Feturizer/New_Systems/rnas/3E5E

>  <Rbt.Executable>
rbdock ($Id: //depot/dev/client3/rdock/2013.1/src/exe/rbdock.cxx#4 $)

>  <Rbt.Library>
libRbt.so (2013.1, Build901 2013/11/27)

>  <Rbt.Parameter_File>
/export/apps/rDock/src/rDock_2013.1_src/data/scripts/dock_solv.prm

>  <Rbt.Receptor>
prm/blind_docking_40.prm

>  <SCORE>
-19.0663

>  <SCORE.INTER>
-16.8209

>  <SCORE.INTER.CONST>
1

>  <SCORE.INTER.POLAR>
0

>  <SCORE.INTER.ROT>
7

>  <SCORE.INTER.SOLV>
8.53071

>  <SCORE.INTER.VDW>
-22.3242

>  <SCORE.INTER.norm>
-0.646959

>  <SCORE.INTRA>
-2.24534

>  <SCORE.INTRA.DIHEDRAL>
-4.45664

>  <SCORE.INTRA.DIHEDRAL.0>
10.1225

>  <SCORE.INTRA.POLAR>
0

>  <SCORE.INTRA.POLAR.0>
0

>  <SCORE.INTRA.REPUL>
0

>  <SCORE.INTRA.REPUL.0>
0

>  <SCORE.INTRA.SOLV>
-0.0657407

>  <SCORE.INTRA.SOLV.lig_0>
-49.9393

>  <SCORE.INTRA.VDW>
0.0158478

>  <SCORE.INTRA.VDW.0>
-1.75437

>  <SCORE.INTRA.norm>
-0.0863594

>  <SCORE.RESTR>
0

>  <SCORE.RESTR.CAVITY>
0

>  <SCORE.RESTR.norm>
0

>  <SCORE.SYSTEM>
0

>  <SCORE.SYSTEM.CONST>
0

>  <SCORE.SYSTEM.DIHEDRAL>
0

>  <SCORE.SYSTEM.SOLV>
0

>  <SCORE.SYSTEM.norm>
0

>  <SCORE.heavy>
26

>  <SCORE.norm>
-0.733318

>  <RMSD>
9.404

$$$$
ligand
 OpenBabel11021811473D
libRbt.so/2013.1/901 2013/11/27
 26 28  0  0  0  0  0  0  0  0999 V2000
   -4.5802   13.5768  -23.9299 N   0  0  0  0  0  0  0  0  0  0  0  0
   -5.4729   14.6843  -23.5665 C   0  0  2  0  0  0  0  0  0  0  0  0
   -4.8550   15.4788  -22.4461 C   0  0  0  0  0  0  0  0  0  0  0  0
   -4.1221   14.9366  -21.6524 O   0  0  0  0  0  0  0  0  0  0  0  0
   -6.8212   14.1231  -23.1117 C   0  0  0  0  0  0  0  0  0  0  0  0
   -7.8592   15.2436  -23.0895 C   0  0  0  0  0  0  0  0  0  0  0  0
   -9.4751   14.9162  -22.6825 S   0  0  0  0  0  0  0  0  0  0  0  0
  -10.7489   13.7010  -23.1090 C   0  0  0  0  0  0  0  0  0  0  0  0
  -12.0943   13.9069  -22.4025 C   0  0  1  0  0  0  0  0  0  0  0  0
  -13.0477   12.9222  -22.7580 O   0  0  0  0  0  0  0  0  0  0  0  0
  -11.9801   13.7464  -20.9050 C   0  0  1  0  0  0  0  0  0  0  0  0
  -13.0702   14.4705  -20.3779 O   0  0  0  0  0  0  0  0  0  0  0  0
  -12.2210   12.2776  -20.6448 C   0  0  1  0  0  0  0  0  0  0  0  0
  -13.0185   12.1237  -19.4911 O   0  0  0  0  0  0  0  0  0  0  0  0
  -13.0014   11.8283  -21.8613 C   0  0  2  0  0  0  0  0  0  0  0  0
   -5.1196   16.7901  -22.3260 O   0  0  0  0  0  0  0  0  0  0  0  0
  -13.9433    7.6921  -24.8974 N   0  0  0  0  0  0  0  0  0  0  0  0
  -14.8532    8.5533  -24.3314 C   0  0  0  0  0  0  0  0  0  0  0  0
  -14.4078    9.5872  -23.5435 N   0  0  0  0  0  0  0  0  0  0  0  0
  -13.0908    9.7658  -23.3224 C   0  0  0  0  0  0  0  0  0  0  0  0
  -12.1590    8.9122  -23.8825 C   0  0  0  0  0  0  0  0  0  0  0  0
  -12.5993    7.8611  -24.6783 C   0  0  0  0  0  0  0  0  0  0  0  0
  -11.7392    7.0156  -25.2323 N   0  0  0  0  0  0  0  0  0  0  0  0
  -10.9281    9.3190  -23.4994 N   0  0  0  0  0  0  0  0  0  0  0  0
  -11.0690   10.4086  -22.7196 C   0  0  0  0  0  0  0  0  0  0  0  0
  -12.4043   10.6938  -22.5895 N   0  0  0  0  0  0  0  0  0  0  0  0
  2  1  1  1  0  0  0
  2  3  1  0  0  0  0
  2  5  1  0  0  0  0
  3  4  1  0  0  0  0
  3 16  1  0  0  0  0
  5  6  1  0  0  0  0
  6  7  1  0  0  0  0
  7  8  1  0  0  0  0
  9  8  1  6  0  0  0
  9 10  1  0  0  0  0
  9 11  1  0  0  0  0
 10 15  1  0  0  0  0
 11 12  1  1  0  0  0
 11 13  1  0  0  0  0
 13 14  1  1  0  0  0
 13 15  1  0  0  0  0
 15 26  1  6  0  0  0
 17 18  2  0  0  0  0
 17 22  1  0  0  0  0
 18 19  1  0  0  0  0
 19 20  2  0  0  0  0
 20 21  1  0  0  0  0
 20 26  1  0  0  0  0
 21 22  2  0  0  0  0
 21 24  1  0  0  0  0
 22 23  1  0  0  0  0
 24 25  2  0  0  0  0
 25 26  1  0  0  0  0
M  END
>  <CHROM.1>
-29.43450099,-165.09572493,177.57179011,-46.79266653,-179.81554020,-179.27471682
-89.72557323,-10.45535004,12.33656531,-22.75227981,-0.61536007,-0.30149979
-2.59760751

>  <Name>
ligand

>  <RI>
0

>  <Rbt.Current_Directory>
/home/itssahil/PROJECTS/Mol_Feturizer/New_Systems/rnas/3E5E

>  <Rbt.Executable>
rbdock ($Id: //depot/dev/client3/rdock/2013.1/src/exe/rbdock.cxx#4 $)

>  <Rbt.Library>
libRbt.so (2013.1, Build901 2013/11/27)

>  <Rbt.Parameter_File>
/export/apps/rDock/src/rDock_2013.1_src/data/scripts/dock_solv.prm

>  <Rbt.Receptor>
prm/blind_docking_60.prm

>  <SCORE>
-19.1107

>  <SCORE.INTER>
-15.1327

>  <SCORE.INTER.CONST>
1

>  <SCORE.INTER.POLAR>
0

>  <SCORE.INTER.ROT>
7

>  <SCORE.INTER.SOLV>
9.85

>  <SCORE.INTER.VDW>
-21.6385

>  <SCORE.INTER.norm>
-0.582028

>  <SCORE.INTRA>
-3.97794

>  <SCORE.INTRA.DIHEDRAL>
-6.40086

>  <SCORE.INTRA.DIHEDRAL.0>
10.1225

>  <SCORE.INTRA.POLAR>
0

>  <SCORE.INTRA.POLAR.0>
0

>  <SCORE.INTRA.REPUL>
0

>  <SCORE.INTRA.REPUL.0>
0

>  <SCORE.INTRA.SOLV>
-0.625381

>  <SCORE.INTRA.SOLV.lig_0>
-49.9393

>  <SCORE.INTRA.VDW>
-0.464814

>  <SCORE.INTRA.VDW.0>
-1.75437

>  <SCORE.INTRA.norm>
-0.152998

>  <SCORE.RESTR>
0

>  <SCORE.RESTR.CAVITY>
0

>  <SCORE.RESTR.norm>
0

>  <SCORE.SYSTEM>
0

>  <SCORE.SYSTEM.CONST>
0

>  <SCORE.SYSTEM.DIHEDRAL>
0

>  <SCORE.SYSTEM.SOLV>
0

>  <SCORE.SYSTEM.norm>
0

>  <SCORE.heavy>
26

>  <SCORE.norm>
-0.735025

>  <RMSD>
9.416

$$$$
ligand
 OpenBabel11021811473D
libRbt.so/2013.1/901 2013/11/27
 26 28  0  0  0  0  0  0  0  0999 V2000
   -2.8625   14.3855  -23.5542 N   0  0  0  0  0  0  0  0  0  0  0  0
   -3.9954   15.3190  -23.5319 C   0  0  2  0  0  0  0  0  0  0  0  0
   -3.5974   16.5723  -22.7978 C   0  0  0  0  0  0  0  0  0  0  0  0
   -2.7312   16.5312  -21.9558 O   0  0  0  0  0  0  0  0  0  0  0  0
   -5.1804   14.6642  -22.8200 C   0  0  0  0  0  0  0  0  0  0  0  0
   -5.6048   13.4105  -23.5827 C   0  0  0  0  0  0  0  0  0  0  0  0
   -7.0500   12.6091  -23.1913 S   0  0  0  0  0  0  0  0  0  0  0  0
   -8.8255   12.9677  -23.1810 C   0  0  0  0  0  0  0  0  0  0  0  0
   -9.2183   14.2423  -22.4242 C   0  0  1  0  0  0  0  0  0  0  0  0
  -10.6114   14.4913  -22.4711 O   0  0  0  0  0  0  0  0  0  0  0  0
   -8.9411   14.1321  -20.9435 C   0  0  1  0  0  0  0  0  0  0  0  0
   -8.8178   15.4646  -20.4968 O   0  0  0  0  0  0  0  0  0  0  0  0
  -10.2017   13.5507  -20.3470 C   0  0  1  0  0  0  0  0  0  0  0  0
  -10.4885   14.1922  -19.1235 O   0  0  0  0  0  0  0  0  0  0  0  0
  -11.2665   13.9029  -21.3632 C   0  0  2  0  0  0  0  0  0  0  0  0
   -4.2063   17.7367  -23.0760 O   0  0  0  0  0  0  0  0  0  0  0  0
  -13.1801    9.1787  -20.2522 N   0  0  0  0  0  0  0  0  0  0  0  0
  -12.4050    9.9883  -19.4562 C   0  0  0  0  0  0  0  0  0  0  0  0
  -11.9832   11.2053  -19.9349 N   0  0  0  0  0  0  0  0  0  0  0  0
  -12.3228   11.6126  -21.1734 C   0  0  0  0  0  0  0  0  0  0  0  0
  -13.1021   10.8147  -21.9899 C   0  0  0  0  0  0  0  0  0  0  0  0
  -13.5311    9.5804  -21.5165 C   0  0  0  0  0  0  0  0  0  0  0  0
  -14.2775    8.7809  -22.2685 N   0  0  0  0  0  0  0  0  0  0  0  0
  -13.2866   11.4616  -23.1625 N   0  0  0  0  0  0  0  0  0  0  0  0
  -12.6470   12.6454  -23.0950 C   0  0  0  0  0  0  0  0  0  0  0  0
  -12.0340   12.7517  -21.8727 N   0  0  0  0  0  0  0  0  0  0  0  0
  2  1  1  1  0  0  0
  2  3  1  0  0  0  0
  2  5  1  0  0  0  0
  3  4  1  0  0  0  0
  3 16  1  0  0  0  0
  5  6  1  0  0  0  0
  6  7  1  0  0  0  0
  7  8  1  0  0  0  0
  9  8  1  6  0  0  0
  9 10  1  0  0  0  0
  9 11  1  0  0  0  0
 10 15  1  0  0  0  0
 11 12  1  1  0  0  0
 11 13  1  0  0  0  0
 13 14  1  1  0  0  0
 13 15  1  0  0  0  0
 15 26  1  6  0  0  0
 17 18  2  0  0  0  0
 17 22  1  0  0  0  0
 18 19  1  0  0  0  0
 19 20  2  0  0  0  0
 20 21  1  0  0  0  0
 20 26  1  0  0  0  0
 21 22  2  0  0  0  0
 21 24  1  0  0  0  0
 22 23  1  0  0  0  0
 24 25  2  0  0  0  0
 25 26  1  0  0  0  0
M  END
>  <CHROM.1>
-26.50526481,-61.34809834,-169.75831234,62.06311014,-52.46252366,178.72773029
150.04045728,-9.10611348,13.22888234,-21.96611367,-0.30746263,-0.43570072
-2.53338810

>  <Name>
ligand

>  <RI>
0

>  <Rbt.Current_Directory>
/home/itssahil/PROJECTS/Mol_Feturizer/New_Systems/rnas/3E5E

>  <Rbt.Executable>
rbdock ($Id: //depot/dev/client3/rdock/2013.1/src/exe/rbdock.cxx#4 $)

>  <Rbt.Library>
libRbt.so (2013.1, Build901 2013/11/27)

>  <Rbt.Parameter_File>
/export/apps/rDock/src/rDock_2013.1_src/data/scripts/dock_solv.prm

>  <Rbt.Receptor>
prm/blind_docking_40.prm

>  <SCORE>
-19.9415

>  <SCORE.INTER>
-16.0852

>  <SCORE.INTER.CONST>
1

>  <SCORE.INTER.POLAR>
0

>  <SCORE.INTER.ROT>
7

>  <SCORE.INTER.SOLV>
13.3225

>  <SCORE.INTER.VDW>
-23.431

>  <SCORE.INTER.norm>
-0.618662

>  <SCORE.INTRA>
-3.85631

>  <SCORE.INTRA.DIHEDRAL>
-7.05478

>  <SCORE.INTRA.DIHEDRAL.0>
10.1225

>  <SCORE.INTRA.POLAR>
0

>  <SCORE.INTRA.POLAR.0>
0

>  <SCORE.INTRA.REPUL>
0

>  <SCORE.INTRA.REPUL.0>
0

>  <SCORE.INTRA.SOLV>
0.234938

>  <SCORE.INTRA.SOLV.lig_0>
-49.9393

>  <SCORE.INTRA.VDW>
-0.446392

>  <SCORE.INTRA.VDW.0>
-1.75437

>  <SCORE.INTRA.norm>
-0.14832

>  <SCORE.RESTR>
0

>  <SCORE.RESTR.CAVITY>
0

>  <SCORE.RESTR.norm>
0

>  <SCORE.SYSTEM>
0

>  <SCORE.SYSTEM.CONST>
0

>  <SCORE.SYSTEM.DIHEDRAL>
0

>  <SCORE.SYSTEM.SOLV>
0

>  <SCORE.SYSTEM.norm>
0

>  <SCORE.heavy>
26

>  <SCORE.norm>
-0.766982

>  <RMSD>
9.421

$$$$
ligand
 OpenBabel11021811473D
libRbt.so/2013.1/901 2013/11/27
 26 28  0  0  0  0  0  0  0  0999 V2000
  -10.5460   13.7856  -20.5292 N   0  0  0  0  0  0  0  0  0  0  0  0
  -11.5678   13.1530  -21.3725 C   0  0  2  0  0  0  0  0  0  0  0  0
  -12.8447   13.9477  -21.2935 C   0  0  0  0  0  0  0  0  0  0  0  0
  -13.3096   14.4469  -22.2913 O   0  0  0  0  0  0  0  0  0  0  0  0
  -11.8222   11.7271  -20.8807 C   0  0  0  0  0  0  0  0  0  0  0  0
  -12.7508   11.0083  -21.8577 C   0  0  0  0  0  0  0  0  0  0  0  0
  -13.3562    9.4634  -21.4962 S   0  0  0  0  0  0  0  0  0  0  0  0
  -14.3953    8.6893  -20.2304 C   0  0  0  0  0  0  0  0  0  0  0  0
  -14.8465    9.6305  -19.1070 C   0  0  1  0  0  0  0  0  0  0  0  0
  -15.8006    9.0307  -18.2498 O   0  0  0  0  0  0  0  0  0  0  0  0
  -13.7154    9.9782  -18.1683 C   0  0  1  0  0  0  0  0  0  0  0  0
  -14.0973   11.2004  -17.5761 O   0  0  0  0  0  0  0  0  0  0  0  0
  -13.7439    8.9090  -17.1010 C   0  0  1  0  0  0  0  0  0  0  0  0
  -13.5015    9.4908  -15.8387 O   0  0  0  0  0  0  0  0  0  0  0  0
  -15.1667    8.3958  -17.1553 C   0  0  2  0  0  0  0  0  0  0  0  0
  -13.4669   14.1050  -20.1136 O   0  0  0  0  0  0  0  0  0  0  0  0
  -12.7282    3.7925  -16.8777 N   0  0  0  0  0  0  0  0  0  0  0  0
  -12.2146    5.0412  -16.6187 C   0  0  0  0  0  0  0  0  0  0  0  0
  -13.0179    6.1468  -16.7612 N   0  0  0  0  0  0  0  0  0  0  0  0
  -14.3016    6.0191  -17.1496 C   0  0  0  0  0  0  0  0  0  0  0  0
  -14.8384    4.7731  -17.4142 C   0  0  0  0  0  0  0  0  0  0  0  0
  -14.0332    3.6485  -17.2763 C   0  0  0  0  0  0  0  0  0  0  0  0
  -14.5067    2.4336  -17.5240 N   0  0  0  0  0  0  0  0  0  0  0  0
  -16.1292    4.9373  -17.7804 N   0  0  0  0  0  0  0  0  0  0  0  0
  -16.4123    6.2541  -17.7447 C   0  0  0  0  0  0  0  0  0  0  0  0
  -15.2875    6.9416  -17.3663 N   0  0  0  0  0  0  0  0  0  0  0  0
  2  1  1  1  0  0  0
  2  3  1  0  0  0  0
  2  5  1  0  0  0  0
  3  4  1  0  0  0  0
  3 16  1  0  0  0  0
  5  6  1  0  0  0  0
  6  7  1  0  0  0  0
  7  8  1  0  0  0  0
  9  8  1  6  0  0  0
  9 10  1  0  0  0  0
  9 11  1  0  0  0  0
 10 15  1  0  0  0  0
 11 12  1  1  0  0  0
 11 13  1  0  0  0  0
 13 14  1  1  0  0  0
 13 15  1  0  0  0  0
 15 26  1  6  0  0  0
 17 18  2  0  0  0  0
 17 22  1  0  0  0  0
 18 19  1  0  0  0  0
 19 20  2  0  0  0  0
 20 21  1  0  0  0  0
 20 26  1  0  0  0  0
 21 22  2  0  0  0  0
 21 24  1  0  0  0  0
 22 23  1  0  0  0  0
 24 25  2  0  0  0  0
 25 26  1  0  0  0  0
M  END
>  <CHROM.1>
119.12972015,-172.91299935,-173.21175267,61.59970508,-3.05528758,171.79732547
137.93390518,-13.75996396,8.89269933,-18.84858072,-0.99085410,-1.21454860
-3.03600131

>  <Name>
ligand

>  <RI>
0

>  <Rbt.Current_Directory>
/home/itssahil/PROJECTS/Mol_Feturizer/New_Systems/rnas/3E5E

>  <Rbt.Executable>
rbdock ($Id: //depot/dev/client3/rdock/2013.1/src/exe/rbdock.cxx#4 $)

>  <Rbt.Library>
libRbt.so (2013.1, Build901 2013/11/27)

>  <Rbt.Parameter_File>
/export/apps/rDock/src/rDock_2013.1_src/data/scripts/dock_solv.prm

>  <Rbt.Receptor>
prm/pocket_docking_5.prm

>  <SCORE>
-12.6001

>  <SCORE.INTER>
-9.22144

>  <SCORE.INTER.CONST>
1

>  <SCORE.INTER.POLAR>
0

>  <SCORE.INTER.ROT>
7

>  <SCORE.INTER.SOLV>
8.08274

>  <SCORE.INTER.VDW>
-17.1085

>  <SCORE.INTER.norm>
-0.354671

>  <SCORE.INTRA>
-3.37864

>  <SCORE.INTRA.DIHEDRAL>
-4.53401

>  <SCORE.INTRA.DIHEDRAL.0>
10.1225

>  <SCORE.INTRA.POLAR>
0

>  <SCORE.INTRA.POLAR.0>
0

>  <SCORE.INTRA.REPUL>
0

>  <SCORE.INTRA.REPUL.0>
0

>  <SCORE.INTRA.SOLV>
-0.451967

>  <SCORE.INTRA.SOLV.lig_0>
-49.9393

>  <SCORE.INTRA.VDW>
-0.885649

>  <SCORE.INTRA.VDW.0>
-1.75437

>  <SCORE.INTRA.norm>
-0.129948

>  <SCORE.RESTR>
0

>  <SCORE.RESTR.CAVITY>
0

>  <SCORE.RESTR.norm>
0

>  <SCORE.SYSTEM>
0

>  <SCORE.SYSTEM.CONST>
0

>  <SCORE.SYSTEM.DIHEDRAL>
0

>  <SCORE.SYSTEM.SOLV>
0

>  <SCORE.SYSTEM.norm>
0

>  <SCORE.heavy>
26

>  <SCORE.norm>
-0.484618

>  <RMSD>
9.426

$$$$
ligand
 OpenBabel11021811473D
libRbt.so/2013.1/901 2013/11/27
 26 28  0  0  0  0  0  0  0  0999 V2000
   -5.1824   17.1824  -22.1085 N   0  0  0  0  0  0  0  0  0  0  0  0
   -5.8356   16.8009  -23.3668 C   0  0  2  0  0  0  0  0  0  0  0  0
   -5.5812   17.8618  -24.4050 C   0  0  0  0  0  0  0  0  0  0  0  0
   -5.4348   19.0138  -24.0698 O   0  0  0  0  0  0  0  0  0  0  0  0
   -7.3414   16.6617  -23.1367 C   0  0  0  0  0  0  0  0  0  0  0  0
   -7.6056   15.5089  -22.1699 C   0  0  0  0  0  0  0  0  0  0  0  0
   -9.1951   15.0450  -21.7926 S   0  0  0  0  0  0  0  0  0  0  0  0
  -10.0273   13.7304  -20.8652 C   0  0  0  0  0  0  0  0  0  0  0  0
  -11.5542   13.8577  -20.8016 C   0  0  1  0  0  0  0  0  0  0  0  0
  -12.1476   13.8936  -22.0867 O   0  0  0  0  0  0  0  0  0  0  0  0
  -12.1989   12.6509  -20.1616 C   0  0  1  0  0  0  0  0  0  0  0  0
  -13.4423   13.1145  -19.6826 O   0  0  0  0  0  0  0  0  0  0  0  0
  -12.4608   11.6920  -21.2996 C   0  0  1  0  0  0  0  0  0  0  0  0
  -13.7204   11.0805  -21.1255 O   0  0  0  0  0  0  0  0  0  0  0  0
  -12.5006   12.5920  -22.5157 C   0  0  2  0  0  0  0  0  0  0  0  0
   -5.5193   17.5294  -25.7049 O   0  0  0  0  0  0  0  0  0  0  0  0
  -10.2012    8.6446  -25.0345 N   0  0  0  0  0  0  0  0  0  0  0  0
  -11.0561    8.5814  -23.9598 C   0  0  0  0  0  0  0  0  0  0  0  0
  -11.5538    9.7434  -23.4211 N   0  0  0  0  0  0  0  0  0  0  0  0
  -11.2142   10.9412  -23.9360 C   0  0  0  0  0  0  0  0  0  0  0  0
  -10.3570   11.0274  -25.0168 C   0  0  0  0  0  0  0  0  0  0  0  0
   -9.8453    9.8581  -25.5671 C   0  0  0  0  0  0  0  0  0  0  0  0
   -9.0159    9.8951  -26.6027 N   0  0  0  0  0  0  0  0  0  0  0  0
  -10.1904   12.3337  -25.3219 N   0  0  0  0  0  0  0  0  0  0  0  0
  -10.9273   13.0637  -24.4620 C   0  0  0  0  0  0  0  0  0  0  0  0
  -11.5605   12.2174  -23.5880 N   0  0  0  0  0  0  0  0  0  0  0  0
  2  1  1  1  0  0  0
  2  3  1  0  0  0  0
  2  5  1  0  0  0  0
  3  4  1  0  0  0  0
  3 16  1  0  0  0  0
  5  6  1  0  0  0  0
  6  7  1  0  0  0  0
  7  8  1  0  0  0  0
  9  8  1  6  0  0  0
  9 10  1  0  0  0  0
  9 11  1  0  0  0  0
 10 15  1  0  0  0  0
 11 12  1  6  0  0  0
 11 13  1  0  0  0  0
 13 14  1  1  0  0  0
 13 15  1  0  0  0  0
 15 26  1  6  0  0  0
 17 18  2  0  0  0  0
 17 22  1  0  0  0  0
 18 19  1  0  0  0  0
 19 20  2  0  0  0  0
 20 21  1  0  0  0  0
 20 26  1  0  0  0  0
 21 22  2  0  0  0  0
 21 24  1  0  0  0  0
 22 23  1  0  0  0  0
 24 25  2  0  0  0  0
 25 26  1  0  0  0  0
M  END
>  <CHROM.1>
-30.17107359,-64.65198796,-176.18990208,173.81575568,176.88975088,57.56316565
154.48466898,-9.79423883,13.42186343,-23.05457540,0.54270728,0.68865646,0.70585459

>  <Name>
ligand

>  <RI>
0

>  <Rbt.Current_Directory>
/home/itssahil/PROJECTS/Mol_Feturizer/New_Systems/rnas/3E5E

>  <Rbt.Executable>
rbdock ($Id: //depot/dev/client3/rdock/2013.1/src/exe/rbdock.cxx#4 $)

>  <Rbt.Library>
libRbt.so (2013.1, Build901 2013/11/27)

>  <Rbt.Parameter_File>
/export/apps/rDock/src/rDock_2013.1_src/data/scripts/dock_solv.prm

>  <Rbt.Receptor>
prm/blind_docking_60.prm

>  <SCORE>
-17.6405

>  <SCORE.INTER>
-13.4334

>  <SCORE.INTER.CONST>
1

>  <SCORE.INTER.POLAR>
0

>  <SCORE.INTER.ROT>
7

>  <SCORE.INTER.SOLV>
7.48664

>  <SCORE.INTER.VDW>
-19.7178

>  <SCORE.INTER.norm>
-0.51667

>  <SCORE.INTRA>
-4.20979

>  <SCORE.INTRA.DIHEDRAL>
-7.31492

>  <SCORE.INTRA.DIHEDRAL.0>
10.1225

>  <SCORE.INTRA.POLAR>
0

>  <SCORE.INTRA.POLAR.0>
0

>  <SCORE.INTRA.REPUL>
0

>  <SCORE.INTRA.REPUL.0>
0

>  <SCORE.INTRA.SOLV>
0.198723

>  <SCORE.INTRA.SOLV.lig_0>
-49.9393

>  <SCORE.INTRA.VDW>
-0.651693

>  <SCORE.INTRA.VDW.0>
-1.75437

>  <SCORE.INTRA.norm>
-0.161915

>  <SCORE.RESTR>
0.00267627

>  <SCORE.RESTR.CAVITY>
0.00267627

>  <SCORE.RESTR.norm>
0.000102934

>  <SCORE.SYSTEM>
0

>  <SCORE.SYSTEM.CONST>
0

>  <SCORE.SYSTEM.DIHEDRAL>
0

>  <SCORE.SYSTEM.SOLV>
0

>  <SCORE.SYSTEM.norm>
0

>  <SCORE.heavy>
26

>  <SCORE.norm>
-0.678482

>  <RMSD>
9.430

$$$$
ligand
 OpenBabel11021811473D
libRbt.so/2013.1/901 2013/11/27
 26 28  0  0  0  0  0  0  0  0999 V2000
   -5.7667   15.6183  -22.1398 N   0  0  0  0  0  0  0  0  0  0  0  0
   -6.7932   16.6654  -22.0661 C   0  0  2  0  0  0  0  0  0  0  0  0
   -6.1283   18.0106  -21.9379 C   0  0  0  0  0  0  0  0  0  0  0  0
   -4.9260   18.0843  -21.8374 O   0  0  0  0  0  0  0  0  0  0  0  0
   -7.6857   16.4184  -20.8486 C   0  0  0  0  0  0  0  0  0  0  0  0
   -8.4953   15.1404  -21.0602 C   0  0  0  0  0  0  0  0  0  0  0  0
   -9.5253   14.9826  -22.4012 S   0  0  0  0  0  0  0  0  0  0  0  0
  -10.7837   13.8258  -23.0007 C   0  0  0  0  0  0  0  0  0  0  0  0
  -12.1635   13.9851  -22.3508 C   0  0  1  0  0  0  0  0  0  0  0  0
  -13.0803   12.9947  -22.7790 O   0  0  0  0  0  0  0  0  0  0  0  0
  -12.1140   13.7805  -20.8551 C   0  0  1  0  0  0  0  0  0  0  0  0
  -13.2408   14.4679  -20.3569 O   0  0  0  0  0  0  0  0  0  0  0  0
  -12.3375   12.3002  -20.6505 C   0  0  1  0  0  0  0  0  0  0  0  0
  -13.1832   12.0962  -19.5397 O   0  0  0  0  0  0  0  0  0  0  0  0
  -13.0531   11.8746  -21.9144 C   0  0  2  0  0  0  0  0  0  0  0  0
   -6.8706   19.1299  -21.9324 O   0  0  0  0  0  0  0  0  0  0  0  0
  -13.7968    7.6733  -24.9160 N   0  0  0  0  0  0  0  0  0  0  0  0
  -14.7470    8.4812  -24.3376 C   0  0  0  0  0  0  0  0  0  0  0  0
  -14.3510    9.5442  -23.5621 N   0  0  0  0  0  0  0  0  0  0  0  0
  -13.0435    9.8028  -23.3650 C   0  0  0  0  0  0  0  0  0  0  0  0
  -12.0719    9.0039  -23.9379 C   0  0  0  0  0  0  0  0  0  0  0  0
  -12.4618    7.9241  -24.7214 C   0  0  0  0  0  0  0  0  0  0  0  0
  -11.5621    7.1289  -25.2870 N   0  0  0  0  0  0  0  0  0  0  0  0
  -10.8613    9.4861  -23.5784 N   0  0  0  0  0  0  0  0  0  0  0  0
  -11.0540   10.5693  -22.8008 C   0  0  0  0  0  0  0  0  0  0  0  0
  -12.4015   10.7743  -22.6482 N   0  0  0  0  0  0  0  0  0  0  0  0
  2  1  1  1  0  0  0
  2  3  1  0  0  0  0
  2  5  1  0  0  0  0
  3  4  1  0  0  0  0
  3 16  1  0  0  0  0
  5  6  1  0  0  0  0
  6  7  1  0  0  0  0
  7  8  1  0  0  0  0
  9  8  1  6  0  0  0
  9 10  1  0  0  0  0
  9 11  1  0  0  0  0
 10 15  1  0  0  0  0
 11 12  1  1  0  0  0
 11 13  1  0  0  0  0
 13 14  1  1  0  0  0
 13 15  1  0  0  0  0
 15 26  1  6  0  0  0
 17 18  2  0  0  0  0
 17 22  1  0  0  0  0
 18 19  1  0  0  0  0
 19 20  2  0  0  0  0
 20 21  1  0  0  0  0
 20 26  1  0  0  0  0
 21 22  2  0  0  0  0
 21 24  1  0  0  0  0
 22 23  1  0  0  0  0
 24 25  2  0  0  0  0
 25 26  1  0  0  0  0
M  END
>  <CHROM.1>
-4.02820897,-67.22048300,-58.03973577,-171.56257669,79.67692492,-175.51413115
-94.49366024,-10.75593258,12.91689017,-22.43625976,-0.86335046,-0.40080886
-2.57774055

>  <Name>
ligand

>  <RI>
0

>  <Rbt.Current_Directory>
/home/itssahil/PROJECTS/Mol_Feturizer/New_Systems/rnas/3E5E

>  <Rbt.Executable>
rbdock ($Id: //depot/dev/client3/rdock/2013.1/src/exe/rbdock.cxx#4 $)

>  <Rbt.Library>
libRbt.so (2013.1, Build901 2013/11/27)

>  <Rbt.Parameter_File>
/export/apps/rDock/src/rDock_2013.1_src/data/scripts/dock_solv.prm

>  <Rbt.Receptor>
prm/pocket_docking_6.prm

>  <SCORE>
-20.102

>  <SCORE.INTER>
-16.8043

>  <SCORE.INTER.CONST>
1

>  <SCORE.INTER.POLAR>
0

>  <SCORE.INTER.ROT>
7

>  <SCORE.INTER.SOLV>
9.81688

>  <SCORE.INTER.VDW>
-22.7418

>  <SCORE.INTER.norm>
-0.646319

>  <SCORE.INTRA>
-3.29769

>  <SCORE.INTRA.DIHEDRAL>
-6.54578

>  <SCORE.INTRA.DIHEDRAL.0>
10.1225

>  <SCORE.INTRA.POLAR>
0

>  <SCORE.INTRA.POLAR.0>
0

>  <SCORE.INTRA.REPUL>
0

>  <SCORE.INTRA.REPUL.0>
0

>  <SCORE.INTRA.SOLV>
0.729443

>  <SCORE.INTRA.SOLV.lig_0>
-49.9393

>  <SCORE.INTRA.VDW>
-0.389518

>  <SCORE.INTRA.VDW.0>
-1.75437

>  <SCORE.INTRA.norm>
-0.126834

>  <SCORE.RESTR>
0

>  <SCORE.RESTR.CAVITY>
0

>  <SCORE.RESTR.norm>
0

>  <SCORE.SYSTEM>
0

>  <SCORE.SYSTEM.CONST>
0

>  <SCORE.SYSTEM.DIHEDRAL>
0

>  <SCORE.SYSTEM.SOLV>
0

>  <SCORE.SYSTEM.norm>
0

>  <SCORE.heavy>
26

>  <SCORE.norm>
-0.773153

>  <RMSD>
9.431

$$$$
ligand
 OpenBabel11021811473D
libRbt.so/2013.1/901 2013/11/27
 26 28  0  0  0  0  0  0  0  0999 V2000
  -11.1951   11.8861  -24.1434 N   0  0  0  0  0  0  0  0  0  0  0  0
  -12.4060   12.3758  -23.4729 C   0  0  2  0  0  0  0  0  0  0  0  0
  -12.1390   13.7383  -22.8891 C   0  0  0  0  0  0  0  0  0  0  0  0
  -11.0378   14.2289  -22.9764 O   0  0  0  0  0  0  0  0  0  0  0  0
  -12.7951   11.4079  -22.3542 C   0  0  0  0  0  0  0  0  0  0  0  0
  -13.3318   10.1137  -22.9629 C   0  0  0  0  0  0  0  0  0  0  0  0
  -13.7554    8.8028  -21.9698 S   0  0  0  0  0  0  0  0  0  0  0  0
  -14.7305    8.5119  -20.4712 C   0  0  0  0  0  0  0  0  0  0  0  0
  -14.8968    9.7384  -19.5658 C   0  0  1  0  0  0  0  0  0  0  0  0
  -15.8278    9.5175  -18.5220 O   0  0  0  0  0  0  0  0  0  0  0  0
  -13.6248   10.0731  -18.8233 C   0  0  1  0  0  0  0  0  0  0  0  0
  -13.7404   11.4423  -18.5034 O   0  0  0  0  0  0  0  0  0  0  0  0
  -13.6969    9.2820  -17.5380 C   0  0  1  0  0  0  0  0  0  0  0  0
  -13.2228   10.0697  -16.4677 O   0  0  0  0  0  0  0  0  0  0  0  0
  -15.1790    9.0311  -17.3621 C   0  0  2  0  0  0  0  0  0  0  0  0
  -13.1236   14.4086  -22.2685 O   0  0  0  0  0  0  0  0  0  0  0  0
  -13.4932    4.1010  -17.6194 N   0  0  0  0  0  0  0  0  0  0  0  0
  -12.7932    5.2520  -17.8939 C   0  0  0  0  0  0  0  0  0  0  0  0
  -13.4201    6.4694  -17.7798 N   0  0  0  0  0  0  0  0  0  0  0  0
  -14.7106    6.5459  -17.4007 C   0  0  0  0  0  0  0  0  0  0  0  0
  -15.4326    5.4013  -17.1191 C   0  0  0  0  0  0  0  0  0  0  0  0
  -14.8088    4.1646  -17.2346 C   0  0  0  0  0  0  0  0  0  0  0  0
  -15.4657    3.0403  -16.9778 N   0  0  0  0  0  0  0  0  0  0  0  0
  -16.6859    5.7669  -16.7686 N   0  0  0  0  0  0  0  0  0  0  0  0
  -16.7615    7.1111  -16.8188 C   0  0  0  0  0  0  0  0  0  0  0  0
  -15.5489    7.6110  -17.2198 N   0  0  0  0  0  0  0  0  0  0  0  0
  2  1  1  1  0  0  0
  2  3  1  0  0  0  0
  2  5  1  0  0  0  0
  3  4  1  0  0  0  0
  3 16  1  0  0  0  0
  5  6  1  0  0  0  0
  6  7  1  0  0  0  0
  7  8  1  0  0  0  0
  9  8  1  1  0  0  0
  9 10  1  0  0  0  0
  9 11  1  0  0  0  0
 10 15  1  0  0  0  0
 11 12  1  1  0  0  0
 11 13  1  0  0  0  0
 13 14  1  1  0  0  0
 13 15  1  0  0  0  0
 15 26  1  6  0  0  0
 17 18  2  0  0  0  0
 17 22  1  0  0  0  0
 18 19  1  0  0  0  0
 19 20  2  0  0  0  0
 20 21  1  0  0  0  0
 20 26  1  0  0  0  0
 21 22  2  0  0  0  0
 21 24  1  0  0  0  0
 22 23  1  0  0  0  0
 24 25  2  0  0  0  0
 25 26  1  0  0  0  0
M  END
>  <CHROM.1>
-2.65720485,-71.23011407,176.10548220,48.57679131,-24.17227089,170.98349912
110.21551642,-13.95185830,8.97089689,-19.52366528,-0.74422470,-1.17428912
-3.02109279

>  <Name>
ligand

>  <RI>
0

>  <Rbt.Current_Directory>
/home/itssahil/PROJECTS/Mol_Feturizer/New_Systems/rnas/3E5E

>  <Rbt.Executable>
rbdock ($Id: //depot/dev/client3/rdock/2013.1/src/exe/rbdock.cxx#4 $)

>  <Rbt.Library>
libRbt.so (2013.1, Build901 2013/11/27)

>  <Rbt.Parameter_File>
/export/apps/rDock/src/rDock_2013.1_src/data/scripts/dock_solv.prm

>  <Rbt.Receptor>
prm/pocket_docking_4.prm

>  <SCORE>
-11.327

>  <SCORE.INTER>
-8.22954

>  <SCORE.INTER.CONST>
1

>  <SCORE.INTER.POLAR>
0

>  <SCORE.INTER.ROT>
7

>  <SCORE.INTER.SOLV>
9.22418

>  <SCORE.INTER.VDW>
-16.8278

>  <SCORE.INTER.norm>
-0.316521

>  <SCORE.INTRA>
-3.09852

>  <SCORE.INTRA.DIHEDRAL>
-4.77909

>  <SCORE.INTRA.DIHEDRAL.0>
10.1225

>  <SCORE.INTRA.POLAR>
0

>  <SCORE.INTRA.POLAR.0>
0

>  <SCORE.INTRA.REPUL>
0

>  <SCORE.INTRA.REPUL.0>
0

>  <SCORE.INTRA.SOLV>
0.14006

>  <SCORE.INTRA.SOLV.lig_0>
-49.9393

>  <SCORE.INTRA.VDW>
-0.779008

>  <SCORE.INTRA.VDW.0>
-1.75437

>  <SCORE.INTRA.norm>
-0.119174

>  <SCORE.RESTR>
0.00102358

>  <SCORE.RESTR.CAVITY>
0.00102358

>  <SCORE.RESTR.norm>
3.93685e-05

>  <SCORE.SYSTEM>
0

>  <SCORE.SYSTEM.CONST>
0

>  <SCORE.SYSTEM.DIHEDRAL>
0

>  <SCORE.SYSTEM.SOLV>
0

>  <SCORE.SYSTEM.norm>
0

>  <SCORE.heavy>
26

>  <SCORE.norm>
-0.435656

>  <RMSD>
9.438

$$$$
ligand
 OpenBabel11021811473D
libRbt.so/2013.1/901 2013/11/27
 26 28  0  0  0  0  0  0  0  0999 V2000
   -5.8149   17.4394  -23.2337 N   0  0  0  0  0  0  0  0  0  0  0  0
   -7.2267   17.0764  -23.0586 C   0  0  2  0  0  0  0  0  0  0  0  0
   -8.0572   18.3288  -22.9582 C   0  0  0  0  0  0  0  0  0  0  0  0
   -7.5870   19.3291  -22.4690 O   0  0  0  0  0  0  0  0  0  0  0  0
   -7.3858   16.2538  -21.7789 C   0  0  0  0  0  0  0  0  0  0  0  0
   -8.8146   15.7209  -21.6891 C   0  0  0  0  0  0  0  0  0  0  0  0
   -9.4991   14.8619  -22.9844 S   0  0  0  0  0  0  0  0  0  0  0  0
  -10.7580   13.5836  -23.2337 C   0  0  0  0  0  0  0  0  0  0  0  0
  -12.0930   13.8515  -22.5283 C   0  0  1  0  0  0  0  0  0  0  0  0
  -13.0658   12.8648  -22.8196 O   0  0  0  0  0  0  0  0  0  0  0  0
  -11.9671   13.7732  -21.0252 C   0  0  1  0  0  0  0  0  0  0  0  0
  -13.0400   14.5441  -20.5301 O   0  0  0  0  0  0  0  0  0  0  0  0
  -12.2296   12.3256  -20.6808 C   0  0  1  0  0  0  0  0  0  0  0  0
  -13.0184   12.2501  -19.5134 O   0  0  0  0  0  0  0  0  0  0  0  0
  -13.0288   11.8222  -21.8633 C   0  0  2  0  0  0  0  0  0  0  0  0
   -9.3221   18.3349  -23.4097 O   0  0  0  0  0  0  0  0  0  0  0  0
  -14.0445    7.6353  -24.8047 N   0  0  0  0  0  0  0  0  0  0  0  0
  -14.9346    8.5547  -24.3021 C   0  0  0  0  0  0  0  0  0  0  0  0
  -14.4722    9.5927  -23.5296 N   0  0  0  0  0  0  0  0  0  0  0  0
  -13.1578    9.7190  -23.2622 C   0  0  0  0  0  0  0  0  0  0  0  0
  -12.2458    8.8065  -23.7583 C   0  0  0  0  0  0  0  0  0  0  0  0
  -12.7035    7.7508  -24.5380 C   0  0  0  0  0  0  0  0  0  0  0  0
  -11.8629    6.8497  -25.0310 N   0  0  0  0  0  0  0  0  0  0  0  0
  -11.0129    9.1699  -23.3396 N   0  0  0  0  0  0  0  0  0  0  0  0
  -11.1329   10.2897  -22.6001 C   0  0  0  0  0  0  0  0  0  0  0  0
  -12.4575   10.6388  -22.5318 N   0  0  0  0  0  0  0  0  0  0  0  0
  2  1  1  1  0  0  0
  2  3  1  0  0  0  0
  2  5  1  0  0  0  0
  3  4  1  0  0  0  0
  3 16  1  0  0  0  0
  5  6  1  0  0  0  0
  6  7  1  0  0  0  0
  7  8  1  0  0  0  0
  9  8  1  6  0  0  0
  9 10  1  0  0  0  0
  9 11  1  0  0  0  0
 10 15  1  0  0  0  0
 11 12  1  1  0  0  0
 11 13  1  0  0  0  0
 13 14  1  1  0  0  0
 13 15  1  0  0  0  0
 15 26  1  6  0  0  0
 17 18  2  0  0  0  0
 17 22  1  0  0  0  0
 18 19  1  0  0  0  0
 19 20  2  0  0  0  0
 20 21  1  0  0  0  0
 20 26  1  0  0  0  0
 21 22  2  0  0  0  0
 21 24  1  0  0  0  0
 22 23  1  0  0  0  0
 24 25  2  0  0  0  0
 25 26  1  0  0  0  0
M  END
>  <CHROM.1>
-31.38394547,-172.63345518,52.49159312,152.24208325,49.07812622,176.47486771
-86.22744184,-11.07984506,12.97506975,-22.71954487,-0.91384536,-0.57423458
-2.62639719

>  <Name>
ligand

>  <RI>
0

>  <Rbt.Current_Directory>
/home/itssahil/PROJECTS/Mol_Feturizer/New_Systems/rnas/3E5E

>  <Rbt.Executable>
rbdock ($Id: //depot/dev/client3/rdock/2013.1/src/exe/rbdock.cxx#4 $)

>  <Rbt.Library>
libRbt.so (2013.1, Build901 2013/11/27)

>  <Rbt.Parameter_File>
/export/apps/rDock/src/rDock_2013.1_src/data/scripts/dock_solv.prm

>  <Rbt.Receptor>
prm/pocket_docking_7.prm

>  <SCORE>
-20.79

>  <SCORE.INTER>
-17.0029

>  <SCORE.INTER.CONST>
1

>  <SCORE.INTER.POLAR>
0

>  <SCORE.INTER.ROT>
7

>  <SCORE.INTER.SOLV>
8.32396

>  <SCORE.INTER.VDW>
-22.3766

>  <SCORE.INTER.norm>
-0.653956

>  <SCORE.INTRA>
-3.78709

>  <SCORE.INTRA.DIHEDRAL>
-5.83655

>  <SCORE.INTRA.DIHEDRAL.0>
10.1225

>  <SCORE.INTRA.POLAR>
0

>  <SCORE.INTRA.POLAR.0>
0

>  <SCORE.INTRA.REPUL>
0

>  <SCORE.INTRA.REPUL.0>
0

>  <SCORE.INTRA.SOLV>
-0.399329

>  <SCORE.INTRA.SOLV.lig_0>
-49.9393

>  <SCORE.INTRA.VDW>
-0.669151

>  <SCORE.INTRA.VDW.0>
-1.75437

>  <SCORE.INTRA.norm>
-0.145657

>  <SCORE.RESTR>
0

>  <SCORE.RESTR.CAVITY>
0

>  <SCORE.RESTR.norm>
0

>  <SCORE.SYSTEM>
0

>  <SCORE.SYSTEM.CONST>
0

>  <SCORE.SYSTEM.DIHEDRAL>
0

>  <SCORE.SYSTEM.SOLV>
0

>  <SCORE.SYSTEM.norm>
0

>  <SCORE.heavy>
26

>  <SCORE.norm>
-0.799614

>  <RMSD>
9.439

$$$$
ligand
 OpenBabel11021811473D
libRbt.so/2013.1/901 2013/11/27
 26 28  0  0  0  0  0  0  0  0999 V2000
   -3.3122   16.7866  -22.0192 N   0  0  0  0  0  0  0  0  0  0  0  0
   -4.0424   16.0525  -23.0601 C   0  0  2  0  0  0  0  0  0  0  0  0
   -4.8166   17.0256  -23.9097 C   0  0  0  0  0  0  0  0  0  0  0  0
   -5.0005   18.1553  -23.5211 O   0  0  0  0  0  0  0  0  0  0  0  0
   -5.0093   15.0656  -22.4036 C   0  0  0  0  0  0  0  0  0  0  0  0
   -5.4715   14.0400  -23.4371 C   0  0  0  0  0  0  0  0  0  0  0  0
   -6.8769   13.1232  -23.1753 S   0  0  0  0  0  0  0  0  0  0  0  0
   -8.6662   13.3962  -23.1056 C   0  0  0  0  0  0  0  0  0  0  0  0
   -9.1045   14.5490  -22.1942 C   0  0  1  0  0  0  0  0  0  0  0  0
  -10.4938   14.8080  -22.2804 O   0  0  0  0  0  0  0  0  0  0  0  0
   -8.9080   14.2236  -20.7324 C   0  0  1  0  0  0  0  0  0  0  0  0
   -8.8142   15.4766  -20.0908 O   0  0  0  0  0  0  0  0  0  0  0  0
  -10.1971   13.5671  -20.2963 C   0  0  1  0  0  0  0  0  0  0  0  0
  -10.5526   14.0253  -19.0100 O   0  0  0  0  0  0  0  0  0  0  0  0
  -11.2062   14.0677  -21.3070 C   0  0  2  0  0  0  0  0  0  0  0  0
   -5.3059   16.6384  -25.0991 O   0  0  0  0  0  0  0  0  0  0  0  0
  -13.2640    9.2865  -20.9615 N   0  0  0  0  0  0  0  0  0  0  0  0
  -12.5508    9.9737  -20.0080 C   0  0  0  0  0  0  0  0  0  0  0  0
  -12.0751   11.2308  -20.2933 N   0  0  0  0  0  0  0  0  0  0  0  0
  -12.3019   11.7959  -21.4952 C   0  0  0  0  0  0  0  0  0  0  0  0
  -13.0173   11.1230  -22.4678 C   0  0  0  0  0  0  0  0  0  0  0  0
  -13.5001    9.8494  -22.1905 C   0  0  0  0  0  0  0  0  0  0  0  0
  -14.1883    9.1663  -23.0967 N   0  0  0  0  0  0  0  0  0  0  0  0
  -13.0925   11.9140  -23.5614 N   0  0  0  0  0  0  0  0  0  0  0  0
  -12.4472   13.0657  -23.2925 C   0  0  0  0  0  0  0  0  0  0  0  0
  -11.9405   13.0060  -22.0194 N   0  0  0  0  0  0  0  0  0  0  0  0
  2  1  1  1  0  0  0
  2  3  1  0  0  0  0
  2  5  1  0  0  0  0
  3  4  1  0  0  0  0
  3 16  1  0  0  0  0
  5  6  1  0  0  0  0
  6  7  1  0  0  0  0
  7  8  1  0  0  0  0
  9  8  1  6  0  0  0
  9 10  1  0  0  0  0
  9 11  1  0  0  0  0
 10 15  1  0  0  0  0
 11 12  1  1  0  0  0
 11 13  1  0  0  0  0
 13 14  1  1  0  0  0
 13 15  1  0  0  0  0
 15 26  1  6  0  0  0
 17 18  2  0  0  0  0
 17 22  1  0  0  0  0
 18 19  1  0  0  0  0
 19 20  2  0  0  0  0
 20 21  1  0  0  0  0
 20 26  1  0  0  0  0
 21 22  2  0  0  0  0
 21 24  1  0  0  0  0
 22 23  1  0  0  0  0
 24 25  2  0  0  0  0
 25 26  1  0  0  0  0
M  END
>  <CHROM.1>
-15.64861555,-164.06369392,-161.06328042,69.12861644,-50.38323190,173.95196778
152.37084242,-9.25165689,13.58934210,-22.16878931,0.10620316,0.59639954,1.10257321

>  <Name>
ligand

>  <RI>
0

>  <Rbt.Current_Directory>
/home/itssahil/PROJECTS/Mol_Feturizer/New_Systems/rnas/3E5E

>  <Rbt.Executable>
rbdock ($Id: //depot/dev/client3/rdock/2013.1/src/exe/rbdock.cxx#4 $)

>  <Rbt.Library>
libRbt.so (2013.1, Build901 2013/11/27)

>  <Rbt.Parameter_File>
/export/apps/rDock/src/rDock_2013.1_src/data/scripts/dock_solv.prm

>  <Rbt.Receptor>
prm/blind_docking_60.prm

>  <SCORE>
-17.3422

>  <SCORE.INTER>
-13.9606

>  <SCORE.INTER.CONST>
1

>  <SCORE.INTER.POLAR>
0

>  <SCORE.INTER.ROT>
7

>  <SCORE.INTER.SOLV>
14.9628

>  <SCORE.INTER.VDW>
-22.5613

>  <SCORE.INTER.norm>
-0.536945

>  <SCORE.INTRA>
-3.38159

>  <SCORE.INTRA.DIHEDRAL>
-4.93316

>  <SCORE.INTRA.DIHEDRAL.0>
10.1225

>  <SCORE.INTRA.POLAR>
0

>  <SCORE.INTRA.POLAR.0>
0

>  <SCORE.INTRA.REPUL>
0

>  <SCORE.INTRA.REPUL.0>
0

>  <SCORE.INTRA.SOLV>
-0.517997

>  <SCORE.INTRA.SOLV.lig_0>
-49.9393

>  <SCORE.INTRA.VDW>
-0.656012

>  <SCORE.INTRA.VDW.0>
-1.75437

>  <SCORE.INTRA.norm>
-0.130061

>  <SCORE.RESTR>
0

>  <SCORE.RESTR.CAVITY>
0

>  <SCORE.RESTR.norm>
0

>  <SCORE.SYSTEM>
0

>  <SCORE.SYSTEM.CONST>
0

>  <SCORE.SYSTEM.DIHEDRAL>
0

>  <SCORE.SYSTEM.SOLV>
0

>  <SCORE.SYSTEM.norm>
0

>  <SCORE.heavy>
26

>  <SCORE.norm>
-0.667006

>  <RMSD>
9.441

$$$$
ligand
 OpenBabel11021811473D
libRbt.so/2013.1/901 2013/11/27
 26 28  0  0  0  0  0  0  0  0999 V2000
   -6.1047   16.3712  -22.9233 N   0  0  0  0  0  0  0  0  0  0  0  0
   -7.4699   16.3401  -23.4626 C   0  0  2  0  0  0  0  0  0  0  0  0
   -7.5622   17.2673  -24.6458 C   0  0  0  0  0  0  0  0  0  0  0  0
   -8.6408   17.5392  -25.1189 O   0  0  0  0  0  0  0  0  0  0  0  0
   -8.4544   16.7909  -22.3821 C   0  0  0  0  0  0  0  0  0  0  0  0
   -8.4918   15.7538  -21.2611 C   0  0  0  0  0  0  0  0  0  0  0  0
   -9.0211   14.1695  -21.5674 S   0  0  0  0  0  0  0  0  0  0  0  0
  -10.3710   13.3516  -22.4562 C   0  0  0  0  0  0  0  0  0  0  0  0
  -11.7770   13.7189  -21.9665 C   0  0  1  0  0  0  0  0  0  0  0  0
  -12.7788   12.8915  -22.5293 O   0  0  0  0  0  0  0  0  0  0  0  0
  -11.9396   13.4900  -20.4823 C   0  0  1  0  0  0  0  0  0  0  0  0
  -12.9972   14.3405  -20.0972 O   0  0  0  0  0  0  0  0  0  0  0  0
  -12.4135   12.0612  -20.3518 C   0  0  1  0  0  0  0  0  0  0  0  0
  -13.4076   11.9793  -19.3539 O   0  0  0  0  0  0  0  0  0  0  0  0
  -13.0299   11.7703  -21.7031 C   0  0  2  0  0  0  0  0  0  0  0  0
   -6.4460   17.7910  -25.1784 O   0  0  0  0  0  0  0  0  0  0  0  0
  -14.0514    7.7820  -24.9068 N   0  0  0  0  0  0  0  0  0  0  0  0
  -14.9266    8.7231  -24.4185 C   0  0  0  0  0  0  0  0  0  0  0  0
  -14.4665    9.6988  -23.5675 N   0  0  0  0  0  0  0  0  0  0  0  0
  -13.1684    9.7431  -23.2092 C   0  0  0  0  0  0  0  0  0  0  0  0
  -12.2714    8.8074  -23.6892 C   0  0  0  0  0  0  0  0  0  0  0  0
  -12.7273    7.8142  -24.5480 C   0  0  0  0  0  0  0  0  0  0  0  0
  -11.9012    6.8935  -25.0291 N   0  0  0  0  0  0  0  0  0  0  0  0
  -11.0531    9.0857  -23.1739 N   0  0  0  0  0  0  0  0  0  0  0  0
  -11.1670   10.1752  -22.3896 C   0  0  0  0  0  0  0  0  0  0  0  0
  -12.4742   10.5902  -22.3904 N   0  0  0  0  0  0  0  0  0  0  0  0
  2  1  1  1  0  0  0
  2  3  1  0  0  0  0
  2  5  1  0  0  0  0
  3  4  1  0  0  0  0
  3 16  1  0  0  0  0
  5  6  1  0  0  0  0
  6  7  1  0  0  0  0
  7  8  1  0  0  0  0
  9  8  1  6  0  0  0
  9 10  1  0  0  0  0
  9 11  1  0  0  0  0
 10 15  1  0  0  0  0
 11 12  1  6  0  0  0
 11 13  1  0  0  0  0
 13 14  1  1  0  0  0
 13 15  1  0  0  0  0
 15 26  1  6  0  0  0
 17 18  2  0  0  0  0
 17 22  1  0  0  0  0
 18 19  1  0  0  0  0
 19 20  2  0  0  0  0
 20 21  1  0  0  0  0
 20 26  1  0  0  0  0
 21 22  2  0  0  0  0
 21 24  1  0  0  0  0
 22 23  1  0  0  0  0
 24 25  2  0  0  0  0
 25 26  1  0  0  0  0
M  END
>  <CHROM.1>
-169.31756702,-67.25882113,-62.74925603,-44.35526491,-59.85995843,-169.87796636
-94.36391140,-10.98153931,12.69588976,-22.71497343,-0.62440903,-0.77203305
-2.35936244

>  <Name>
ligand

>  <RI>
0

>  <Rbt.Current_Directory>
/home/itssahil/PROJECTS/Mol_Feturizer/New_Systems/rnas/3E5E

>  <Rbt.Executable>
rbdock ($Id: //depot/dev/client3/rdock/2013.1/src/exe/rbdock.cxx#4 $)

>  <Rbt.Library>
libRbt.so (2013.1, Build901 2013/11/27)

>  <Rbt.Parameter_File>
/export/apps/rDock/src/rDock_2013.1_src/data/scripts/dock_solv.prm

>  <Rbt.Receptor>
prm/blind_docking_100.prm

>  <SCORE>
-18.0869

>  <SCORE.INTER>
-14.9105

>  <SCORE.INTER.CONST>
1

>  <SCORE.INTER.POLAR>
0

>  <SCORE.INTER.ROT>
7

>  <SCORE.INTER.SOLV>
7.16629

>  <SCORE.INTER.VDW>
-20.5957

>  <SCORE.INTER.norm>
-0.57348

>  <SCORE.INTRA>
-3.17644

>  <SCORE.INTRA.DIHEDRAL>
-6.55665

>  <SCORE.INTRA.DIHEDRAL.0>
10.1225

>  <SCORE.INTRA.POLAR>
0

>  <SCORE.INTRA.POLAR.0>
0

>  <SCORE.INTRA.REPUL>
0

>  <SCORE.INTRA.REPUL.0>
0

>  <SCORE.INTRA.SOLV>
0.741439

>  <SCORE.INTRA.SOLV.lig_0>
-49.9393

>  <SCORE.INTRA.VDW>
-0.268832

>  <SCORE.INTRA.VDW.0>
-1.75437

>  <SCORE.INTRA.norm>
-0.122171

>  <SCORE.RESTR>
0

>  <SCORE.RESTR.CAVITY>
0

>  <SCORE.RESTR.norm>
0

>  <SCORE.SYSTEM>
0

>  <SCORE.SYSTEM.CONST>
0

>  <SCORE.SYSTEM.DIHEDRAL>
0

>  <SCORE.SYSTEM.SOLV>
0

>  <SCORE.SYSTEM.norm>
0

>  <SCORE.heavy>
26

>  <SCORE.norm>
-0.695651

>  <RMSD>
9.443

$$$$
ligand
 OpenBabel11021811473D
libRbt.so/2013.1/901 2013/11/27
 26 28  0  0  0  0  0  0  0  0999 V2000
  -10.4137   14.5321  -21.7124 N   0  0  0  0  0  0  0  0  0  0  0  0
  -10.9499   13.4141  -22.4986 C   0  0  2  0  0  0  0  0  0  0  0  0
  -12.3099   13.7825  -23.0303 C   0  0  0  0  0  0  0  0  0  0  0  0
  -13.0517   14.4713  -22.3697 O   0  0  0  0  0  0  0  0  0  0  0  0
  -11.0675   12.1759  -21.6082 C   0  0  0  0  0  0  0  0  0  0  0  0
  -12.0120   12.4719  -20.4447 C   0  0  0  0  0  0  0  0  0  0  0  0
  -12.3990   11.2624  -19.3171 S   0  0  0  0  0  0  0  0  0  0  0  0
  -12.7099    9.4779  -19.3136 C   0  0  0  0  0  0  0  0  0  0  0  0
  -13.7383    9.0038  -20.3476 C   0  0  1  0  0  0  0  0  0  0  0  0
  -14.0040    7.6165  -20.2489 O   0  0  0  0  0  0  0  0  0  0  0  0
  -15.0959    9.6278  -20.1260 C   0  0  1  0  0  0  0  0  0  0  0  0
  -15.7358    9.5608  -21.3816 O   0  0  0  0  0  0  0  0  0  0  0  0
  -15.8129    8.6908  -19.1821 C   0  0  1  0  0  0  0  0  0  0  0  0
  -17.1614    8.5593  -19.5758 O   0  0  0  0  0  0  0  0  0  0  0  0
  -15.0974    7.3726  -19.3841 C   0  0  2  0  0  0  0  0  0  0  0  0
  -12.7013   13.3438  -24.2379 O   0  0  0  0  0  0  0  0  0  0  0  0
  -16.1977    5.6795  -14.5740 N   0  0  0  0  0  0  0  0  0  0  0  0
  -17.0466    6.2698  -15.4801 C   0  0  0  0  0  0  0  0  0  0  0  0
  -16.5629    6.6632  -16.7046 N   0  0  0  0  0  0  0  0  0  0  0  0
  -15.2681    6.4749  -17.0257 C   0  0  0  0  0  0  0  0  0  0  0  0
  -14.3977    5.8826  -16.1300 C   0  0  0  0  0  0  0  0  0  0  0  0
  -14.8762    5.4839  -14.8874 C   0  0  0  0  0  0  0  0  0  0  0  0
  -14.0743    4.9150  -13.9958 N   0  0  0  0  0  0  0  0  0  0  0  0
  -13.1761    5.8197  -16.7054 N   0  0  0  0  0  0  0  0  0  0  0  0
  -13.2646    6.3524  -17.9397 C   0  0  0  0  0  0  0  0  0  0  0  0
  -14.5523    6.7744  -18.1516 N   0  0  0  0  0  0  0  0  0  0  0  0
  2  1  1  1  0  0  0
  2  3  1  0  0  0  0
  2  5  1  0  0  0  0
  3  4  1  0  0  0  0
  3 16  1  0  0  0  0
  5  6  1  0  0  0  0
  6  7  1  0  0  0  0
  7  8  1  0  0  0  0
  9  8  1  1  0  0  0
  9 10  1  0  0  0  0
  9 11  1  0  0  0  0
 10 15  1  0  0  0  0
 11 12  1  6  0  0  0
 11 13  1  0  0  0  0
 13 14  1  6  0  0  0
 13 15  1  0  0  0  0
 15 26  1  1  0  0  0
 17 18  2  0  0  0  0
 17 22  1  0  0  0  0
 18 19  1  0  0  0  0
 19 20  2  0  0  0  0
 20 21  1  0  0  0  0
 20 26  1  0  0  0  0
 21 22  2  0  0  0  0
 21 24  1  0  0  0  0
 22 23  1  0  0  0  0
 24 25  2  0  0  0  0
 25 26  1  0  0  0  0
M  END
>  <CHROM.1>
-34.96388085,60.27021791,177.27220068,-37.04876751,-50.75801508,-176.42021816
175.18018662,-13.90605515,9.26094200,-19.20541865,-1.21347903,0.40660318
2.29616313

>  <Name>
ligand

>  <RI>
0

>  <Rbt.Current_Directory>
/home/itssahil/PROJECTS/Mol_Feturizer/New_Systems/rnas/3E5E

>  <Rbt.Executable>
rbdock ($Id: //depot/dev/client3/rdock/2013.1/src/exe/rbdock.cxx#4 $)

>  <Rbt.Library>
libRbt.so (2013.1, Build901 2013/11/27)

>  <Rbt.Parameter_File>
/export/apps/rDock/src/rDock_2013.1_src/data/scripts/dock_solv.prm

>  <Rbt.Receptor>
prm/pocket_docking_4.prm

>  <SCORE>
-12.4619

>  <SCORE.INTER>
-9.56308

>  <SCORE.INTER.CONST>
1

>  <SCORE.INTER.POLAR>
0

>  <SCORE.INTER.ROT>
7

>  <SCORE.INTER.SOLV>
11.1656

>  <SCORE.INTER.VDW>
-18.3639

>  <SCORE.INTER.norm>
-0.367811

>  <SCORE.INTRA>
-2.89883

>  <SCORE.INTRA.DIHEDRAL>
-6.49397

>  <SCORE.INTRA.DIHEDRAL.0>
10.1225

>  <SCORE.INTRA.POLAR>
0

>  <SCORE.INTRA.POLAR.0>
0

>  <SCORE.INTRA.REPUL>
0

>  <SCORE.INTRA.REPUL.0>
0

>  <SCORE.INTRA.SOLV>
0.237978

>  <SCORE.INTRA.SOLV.lig_0>
-49.9393

>  <SCORE.INTRA.VDW>
0.229166

>  <SCORE.INTRA.VDW.0>
-1.75437

>  <SCORE.INTRA.norm>
-0.111494

>  <SCORE.RESTR>
0

>  <SCORE.RESTR.CAVITY>
0

>  <SCORE.RESTR.norm>
0

>  <SCORE.SYSTEM>
0

>  <SCORE.SYSTEM.CONST>
0

>  <SCORE.SYSTEM.DIHEDRAL>
0

>  <SCORE.SYSTEM.SOLV>
0

>  <SCORE.SYSTEM.norm>
0

>  <SCORE.heavy>
26

>  <SCORE.norm>
-0.479304

>  <RMSD>
9.451

$$$$
ligand
 OpenBabel11021811473D
libRbt.so/2013.1/901 2013/11/27
 26 28  0  0  0  0  0  0  0  0999 V2000
   -8.1497   17.8105  -26.2292 N   0  0  0  0  0  0  0  0  0  0  0  0
   -7.5464   17.7811  -24.8910 C   0  0  2  0  0  0  0  0  0  0  0  0
   -6.1304   17.2781  -24.9910 C   0  0  0  0  0  0  0  0  0  0  0  0
   -5.2988   17.6494  -24.1963 O   0  0  0  0  0  0  0  0  0  0  0  0
   -8.3569   16.8500  -23.9877 C   0  0  0  0  0  0  0  0  0  0  0  0
   -8.3563   15.4402  -24.5761 C   0  0  0  0  0  0  0  0  0  0  0  0
   -9.0863   14.1550  -23.7398 S   0  0  0  0  0  0  0  0  0  0  0  0
   -9.0503   13.4416  -22.0752 C   0  0  0  0  0  0  0  0  0  0  0  0
   -9.5659   14.3693  -20.9683 C   0  0  1  0  0  0  0  0  0  0  0  0
  -10.9800   14.4315  -20.9302 O   0  0  0  0  0  0  0  0  0  0  0  0
   -9.2094   13.8627  -19.5907 C   0  0  1  0  0  0  0  0  0  0  0  0
   -9.2351   15.0065  -18.7652 O   0  0  0  0  0  0  0  0  0  0  0  0
  -10.3578   12.9667  -19.1890 C   0  0  1  0  0  0  0  0  0  0  0  0
  -10.6669   13.1716  -17.8277 O   0  0  0  0  0  0  0  0  0  0  0  0
  -11.5040   13.4583  -20.0463 C   0  0  2  0  0  0  0  0  0  0  0  0
   -5.7893   16.4184  -25.9649 O   0  0  0  0  0  0  0  0  0  0  0  0
  -13.4192    8.6067  -20.1328 N   0  0  0  0  0  0  0  0  0  0  0  0
  -12.8083    9.2587  -19.0879 C   0  0  0  0  0  0  0  0  0  0  0  0
  -12.3543   10.5436  -19.2640 N   0  0  0  0  0  0  0  0  0  0  0  0
  -12.5033   11.1698  -20.4476 C   0  0  0  0  0  0  0  0  0  0  0  0
  -13.1153   10.5330  -21.5109 C   0  0  0  0  0  0  0  0  0  0  0  0
  -13.5752    9.2320  -21.3442 C   0  0  0  0  0  0  0  0  0  0  0  0
  -14.1650    8.5820  -22.3398 N   0  0  0  0  0  0  0  0  0  0  0  0
  -13.1297   11.3830  -22.5619 N   0  0  0  0  0  0  0  0  0  0  0  0
  -12.5474   12.5359  -22.1785 C   0  0  0  0  0  0  0  0  0  0  0  0
  -12.1425   12.4181  -20.8734 N   0  0  0  0  0  0  0  0  0  0  0  0
  2  1  1  6  0  0  0
  2  3  1  0  0  0  0
  2  5  1  0  0  0  0
  3  4  1  0  0  0  0
  3 16  1  0  0  0  0
  5  6  1  0  0  0  0
  6  7  1  0  0  0  0
  7  8  1  0  0  0  0
  9  8  1  6  0  0  0
  9 10  1  0  0  0  0
  9 11  1  0  0  0  0
 10 15  1  0  0  0  0
 11 12  1  1  0  0  0
 11 13  1  0  0  0  0
 13 14  1  1  0  0  0
 13 15  1  0  0  0  0
 15 26  1  6  0  0  0
 17 18  2  0  0  0  0
 17 22  1  0  0  0  0
 18 19  1  0  0  0  0
 19 20  2  0  0  0  0
 20 21  1  0  0  0  0
 20 26  1  0  0  0  0
 21 22  2  0  0  0  0
 21 24  1  0  0  0  0
 22 23  1  0  0  0  0
 24 25  2  0  0  0  0
 25 26  1  0  0  0  0
M  END
>  <CHROM.1>
150.32574063,60.06772111,175.75206053,-50.40771953,63.85027812,78.16827659
164.51497264,-10.19867154,13.52721330,-21.93848381,0.45625796,-0.84639155
-1.58538288

>  <Name>
ligand

>  <RI>
0

>  <Rbt.Current_Directory>
/home/itssahil/PROJECTS/Mol_Feturizer/New_Systems/rnas/3E5E

>  <Rbt.Executable>
rbdock ($Id: //depot/dev/client3/rdock/2013.1/src/exe/rbdock.cxx#4 $)

>  <Rbt.Library>
libRbt.so (2013.1, Build901 2013/11/27)

>  <Rbt.Parameter_File>
/export/apps/rDock/src/rDock_2013.1_src/data/scripts/dock_solv.prm

>  <Rbt.Receptor>
prm/pocket_docking_7.prm

>  <SCORE>
-14.9005

>  <SCORE.INTER>
-11.837

>  <SCORE.INTER.CONST>
1

>  <SCORE.INTER.POLAR>
0

>  <SCORE.INTER.ROT>
7

>  <SCORE.INTER.SOLV>
10.8507

>  <SCORE.INTER.VDW>
-19.7749

>  <SCORE.INTER.norm>
-0.45527

>  <SCORE.INTRA>
-3.06346

>  <SCORE.INTRA.DIHEDRAL>
-6.16906

>  <SCORE.INTRA.DIHEDRAL.0>
10.1225

>  <SCORE.INTRA.POLAR>
0

>  <SCORE.INTRA.POLAR.0>
0

>  <SCORE.INTRA.REPUL>
0

>  <SCORE.INTRA.REPUL.0>
0

>  <SCORE.INTRA.SOLV>
0.230424

>  <SCORE.INTRA.SOLV.lig_0>
-49.9393

>  <SCORE.INTRA.VDW>
-0.0941454

>  <SCORE.INTRA.VDW.0>
-1.75437

>  <SCORE.INTRA.norm>
-0.117826

>  <SCORE.RESTR>
0

>  <SCORE.RESTR.CAVITY>
0

>  <SCORE.RESTR.norm>
0

>  <SCORE.SYSTEM>
0

>  <SCORE.SYSTEM.CONST>
0

>  <SCORE.SYSTEM.DIHEDRAL>
0

>  <SCORE.SYSTEM.SOLV>
0

>  <SCORE.SYSTEM.norm>
0

>  <SCORE.heavy>
26

>  <SCORE.norm>
-0.573095

>  <RMSD>
9.453

$$$$
ligand
 OpenBabel11021811473D
libRbt.so/2013.1/901 2013/11/27
 26 28  0  0  0  0  0  0  0  0999 V2000
  -10.1331   13.8847  -21.6305 N   0  0  0  0  0  0  0  0  0  0  0  0
  -11.3346   13.3043  -22.2429 C   0  0  2  0  0  0  0  0  0  0  0  0
  -11.3262   13.5816  -23.7231 C   0  0  0  0  0  0  0  0  0  0  0  0
  -10.2793   13.7670  -24.2982 O   0  0  0  0  0  0  0  0  0  0  0  0
  -12.5800   13.9304  -21.6128 C   0  0  0  0  0  0  0  0  0  0  0  0
  -12.8171   13.3176  -20.2337 C   0  0  0  0  0  0  0  0  0  0  0  0
  -13.0513   11.6445  -20.0606 S   0  0  0  0  0  0  0  0  0  0  0  0
  -13.4418   10.4719  -18.7364 C   0  0  0  0  0  0  0  0  0  0  0  0
  -13.4465    8.9992  -19.1642 C   0  0  1  0  0  0  0  0  0  0  0  0
  -13.9499    8.1445  -18.1538 O   0  0  0  0  0  0  0  0  0  0  0  0
  -14.3828    8.7470  -20.3223 C   0  0  1  0  0  0  0  0  0  0  0  0
  -13.8952    7.5734  -20.9347 O   0  0  0  0  0  0  0  0  0  0  0  0
  -15.7176    8.4281  -19.6899 C   0  0  1  0  0  0  0  0  0  0  0  0
  -16.3373    7.3740  -20.3938 O   0  0  0  0  0  0  0  0  0  0  0  0
  -15.3449    7.9568  -18.3008 C   0  0  2  0  0  0  0  0  0  0  0  0
  -12.4822   13.6258  -24.4056 O   0  0  0  0  0  0  0  0  0  0  0  0
  -19.8795    9.7038  -16.4036 N   0  0  0  0  0  0  0  0  0  0  0  0
  -19.6545    9.0400  -17.5863 C   0  0  0  0  0  0  0  0  0  0  0  0
  -18.3749    8.6683  -17.9216 N   0  0  0  0  0  0  0  0  0  0  0  0
  -17.3411    8.9458  -17.1033 C   0  0  0  0  0  0  0  0  0  0  0  0
  -17.5451    9.6114  -15.9091 C   0  0  0  0  0  0  0  0  0  0  0  0
  -18.8353    9.9947  -15.5622 C   0  0  0  0  0  0  0  0  0  0  0  0
  -19.0757   10.6392  -14.4271 N   0  0  0  0  0  0  0  0  0  0  0  0
  -16.3494    9.7563  -15.2956 N   0  0  0  0  0  0  0  0  0  0  0  0
  -15.4059    9.1922  -16.0746 C   0  0  0  0  0  0  0  0  0  0  0  0
  -16.0010    8.6942  -17.2055 N   0  0  0  0  0  0  0  0  0  0  0  0
  2  1  1  1  0  0  0
  2  3  1  0  0  0  0
  2  5  1  0  0  0  0
  3  4  1  0  0  0  0
  3 16  1  0  0  0  0
  5  6  1  0  0  0  0
  6  7  1  0  0  0  0
  7  8  1  0  0  0  0
  9  8  1  1  0  0  0
  9 10  1  0  0  0  0
  9 11  1  0  0  0  0
 10 15  1  0  0  0  0
 11 12  1  1  0  0  0
 11 13  1  0  0  0  0
 13 14  1  6  0  0  0
 13 15  1  0  0  0  0
 15 26  1  1  0  0  0
 17 18  2  0  0  0  0
 17 22  1  0  0  0  0
 18 19  1  0  0  0  0
 19 20  2  0  0  0  0
 20 21  1  0  0  0  0
 20 26  1  0  0  0  0
 21 22  2  0  0  0  0
 21 24  1  0  0  0  0
 22 23  1  0  0  0  0
 24 25  2  0  0  0  0
 25 26  1  0  0  0  0
M  END
>  <CHROM.1>
25.38008011,-76.85848728,-58.92649334,-175.90320123,-176.29577858,-171.10324767
169.02996284,-14.78399853,10.42262182,-19.27813471,0.26416925,0.82722132
0.24043229

>  <Name>
ligand

>  <RI>
0

>  <Rbt.Current_Directory>
/home/itssahil/PROJECTS/Mol_Feturizer/New_Systems/rnas/3E5E

>  <Rbt.Executable>
rbdock ($Id: //depot/dev/client3/rdock/2013.1/src/exe/rbdock.cxx#4 $)

>  <Rbt.Library>
libRbt.so (2013.1, Build901 2013/11/27)

>  <Rbt.Parameter_File>
/export/apps/rDock/src/rDock_2013.1_src/data/scripts/dock_solv.prm

>  <Rbt.Receptor>
prm/pocket_docking_4.prm

>  <SCORE>
-12.4895

>  <SCORE.INTER>
-9.86662

>  <SCORE.INTER.CONST>
1

>  <SCORE.INTER.POLAR>
0

>  <SCORE.INTER.ROT>
7

>  <SCORE.INTER.SOLV>
10.2146

>  <SCORE.INTER.VDW>
-18.2493

>  <SCORE.INTER.norm>
-0.379485

>  <SCORE.INTRA>
-2.62292

>  <SCORE.INTRA.DIHEDRAL>
-6.0846

>  <SCORE.INTRA.DIHEDRAL.0>
10.1225

>  <SCORE.INTRA.POLAR>
0

>  <SCORE.INTRA.POLAR.0>
0

>  <SCORE.INTRA.REPUL>
0

>  <SCORE.INTRA.REPUL.0>
0

>  <SCORE.INTRA.SOLV>
0.570121

>  <SCORE.INTRA.SOLV.lig_0>
-49.9393

>  <SCORE.INTRA.VDW>
0.134321

>  <SCORE.INTRA.VDW.0>
-1.75437

>  <SCORE.INTRA.norm>
-0.100881

>  <SCORE.RESTR>
0

>  <SCORE.RESTR.CAVITY>
0

>  <SCORE.RESTR.norm>
0

>  <SCORE.SYSTEM>
0

>  <SCORE.SYSTEM.CONST>
0

>  <SCORE.SYSTEM.DIHEDRAL>
0

>  <SCORE.SYSTEM.SOLV>
0

>  <SCORE.SYSTEM.norm>
0

>  <SCORE.heavy>
26

>  <SCORE.norm>
-0.480367

>  <RMSD>
9.487

$$$$
ligand
 OpenBabel11021811473D
libRbt.so/2013.1/901 2013/11/27
 26 28  0  0  0  0  0  0  0  0999 V2000
   -9.0638   13.7319  -23.7944 N   0  0  0  0  0  0  0  0  0  0  0  0
  -10.2054   12.8123  -23.8764 C   0  0  2  0  0  0  0  0  0  0  0  0
  -10.3677   12.3409  -25.2975 C   0  0  0  0  0  0  0  0  0  0  0  0
  -10.3181   13.1346  -26.2078 O   0  0  0  0  0  0  0  0  0  0  0  0
  -11.4761   13.5374  -23.4302 C   0  0  0  0  0  0  0  0  0  0  0  0
  -12.6548   12.5661  -23.4590 C   0  0  0  0  0  0  0  0  0  0  0  0
  -12.5709   11.0816  -22.6386 S   0  0  0  0  0  0  0  0  0  0  0  0
  -12.2472   10.4918  -20.9568 C   0  0  0  0  0  0  0  0  0  0  0  0
  -13.3620   10.7894  -19.9467 C   0  0  1  0  0  0  0  0  0  0  0  0
  -14.5644   10.1069  -20.2521 O   0  0  0  0  0  0  0  0  0  0  0  0
  -13.0251   10.2847  -18.5635 C   0  0  1  0  0  0  0  0  0  0  0  0
  -13.8076   11.0689  -17.6900 O   0  0  0  0  0  0  0  0  0  0  0  0
  -13.5487    8.8680  -18.5206 C   0  0  1  0  0  0  0  0  0  0  0  0
  -14.1433    8.6187  -17.2656 O   0  0  0  0  0  0  0  0  0  0  0  0
  -14.6141    8.8542  -19.5954 C   0  0  2  0  0  0  0  0  0  0  0  0
  -10.5704   11.0383  -25.5549 O   0  0  0  0  0  0  0  0  0  0  0  0
  -13.3584    3.8738  -20.5078 N   0  0  0  0  0  0  0  0  0  0  0  0
  -13.3634    4.5405  -19.3055 C   0  0  0  0  0  0  0  0  0  0  0  0
  -13.7154    5.8682  -19.2688 N   0  0  0  0  0  0  0  0  0  0  0  0
  -14.0567    6.5210  -20.3969 C   0  0  0  0  0  0  0  0  0  0  0  0
  -14.0592    5.8696  -21.6160 C   0  0  0  0  0  0  0  0  0  0  0  0
  -13.7015    4.5274  -21.6646 C   0  0  0  0  0  0  0  0  0  0  0  0
  -13.6864    3.8645  -22.8144 N   0  0  0  0  0  0  0  0  0  0  0  0
  -14.4361    6.7530  -22.5673 N   0  0  0  0  0  0  0  0  0  0  0  0
  -14.6746    7.9373  -21.9707 C   0  0  0  0  0  0  0  0  0  0  0  0
  -14.4336    7.8153  -20.6260 N   0  0  0  0  0  0  0  0  0  0  0  0
  2  1  1  6  0  0  0
  2  3  1  0  0  0  0
  2  5  1  0  0  0  0
  3  4  1  0  0  0  0
  3 16  1  0  0  0  0
  5  6  1  0  0  0  0
  6  7  1  0  0  0  0
  7  8  1  0  0  0  0
  9  8  1  6  0  0  0
  9 10  1  0  0  0  0
  9 11  1  0  0  0  0
 10 15  1  0  0  0  0
 11 12  1  1  0  0  0
 11 13  1  0  0  0  0
 13 14  1  1  0  0  0
 13 15  1  0  0  0  0
 15 26  1  6  0  0  0
 17 18  2  0  0  0  0
 17 22  1  0  0  0  0
 18 19  1  0  0  0  0
 19 20  2  0  0  0  0
 20 21  1  0  0  0  0
 20 26  1  0  0  0  0
 21 22  2  0  0  0  0
 21 24  1  0  0  0  0
 22 23  1  0  0  0  0
 24 25  2  0  0  0  0
 25 26  1  0  0  0  0
M  END
>  <CHROM.1>
-45.94895216,-177.65199661,53.34740327,55.64245870,71.03783769,64.99729241
161.01613598,-12.88586635,9.30414762,-21.51865309,0.41339540,1.14702032,0.55263878

>  <Name>
ligand

>  <RI>
0

>  <Rbt.Current_Directory>
/home/itssahil/PROJECTS/Mol_Feturizer/New_Systems/rnas/3E5E

>  <Rbt.Executable>
rbdock ($Id: //depot/dev/client3/rdock/2013.1/src/exe/rbdock.cxx#4 $)

>  <Rbt.Library>
libRbt.so (2013.1, Build901 2013/11/27)

>  <Rbt.Parameter_File>
/export/apps/rDock/src/rDock_2013.1_src/data/scripts/dock_solv.prm

>  <Rbt.Receptor>
prm/pocket_docking_7.prm

>  <SCORE>
-16.082

>  <SCORE.INTER>
-11.5472

>  <SCORE.INTER.CONST>
1

>  <SCORE.INTER.POLAR>
0

>  <SCORE.INTER.ROT>
7

>  <SCORE.INTER.SOLV>
7.76169

>  <SCORE.INTER.VDW>
-18.552

>  <SCORE.INTER.norm>
-0.444121

>  <SCORE.INTRA>
-4.53482

>  <SCORE.INTRA.DIHEDRAL>
-7.02926

>  <SCORE.INTRA.DIHEDRAL.0>
10.1225

>  <SCORE.INTRA.POLAR>
0

>  <SCORE.INTRA.POLAR.0>
0

>  <SCORE.INTRA.REPUL>
0

>  <SCORE.INTRA.REPUL.0>
0

>  <SCORE.INTRA.SOLV>
-0.354338

>  <SCORE.INTRA.SOLV.lig_0>
-49.9393

>  <SCORE.INTRA.VDW>
-0.843023

>  <SCORE.INTRA.VDW.0>
-1.75437

>  <SCORE.INTRA.norm>
-0.174416

>  <SCORE.RESTR>
0

>  <SCORE.RESTR.CAVITY>
0

>  <SCORE.RESTR.norm>
0

>  <SCORE.SYSTEM>
0

>  <SCORE.SYSTEM.CONST>
0

>  <SCORE.SYSTEM.DIHEDRAL>
0

>  <SCORE.SYSTEM.SOLV>
0

>  <SCORE.SYSTEM.norm>
0

>  <SCORE.heavy>
26

>  <SCORE.norm>
-0.618538

>  <RMSD>
9.487

$$$$
ligand
 OpenBabel11021811473D
libRbt.so/2013.1/901 2013/11/27
 26 28  0  0  0  0  0  0  0  0999 V2000
   -7.6126   16.7260  -24.4547 N   0  0  0  0  0  0  0  0  0  0  0  0
   -8.2306   17.2635  -23.2362 C   0  0  2  0  0  0  0  0  0  0  0  0
   -8.1199   18.7654  -23.2391 C   0  0  0  0  0  0  0  0  0  0  0  0
   -9.1187   19.4460  -23.2212 O   0  0  0  0  0  0  0  0  0  0  0  0
   -7.5109   16.7004  -22.0095 C   0  0  0  0  0  0  0  0  0  0  0  0
   -7.8214   15.2107  -21.8748 C   0  0  0  0  0  0  0  0  0  0  0  0
   -9.4073   14.6827  -21.5742 S   0  0  0  0  0  0  0  0  0  0  0  0
  -10.6621   13.6633  -22.3910 C   0  0  0  0  0  0  0  0  0  0  0  0
  -12.0791   13.8131  -21.8241 C   0  0  1  0  0  0  0  0  0  0  0  0
  -12.9991   12.9206  -22.4256 O   0  0  0  0  0  0  0  0  0  0  0  0
  -12.1484   13.4405  -20.3620 C   0  0  1  0  0  0  0  0  0  0  0  0
  -13.2818   14.1198  -19.8674 O   0  0  0  0  0  0  0  0  0  0  0  0
  -12.4433   11.9587  -20.3447 C   0  0  1  0  0  0  0  0  0  0  0  0
  -13.3761   11.6715  -19.3259 O   0  0  0  0  0  0  0  0  0  0  0  0
  -13.0791   11.7109  -21.6956 C   0  0  2  0  0  0  0  0  0  0  0  0
   -6.9112   19.3505  -23.2642 O   0  0  0  0  0  0  0  0  0  0  0  0
  -13.7816    7.7671  -25.0373 N   0  0  0  0  0  0  0  0  0  0  0  0
  -14.7395    8.5300  -24.4124 C   0  0  0  0  0  0  0  0  0  0  0  0
  -14.3543    9.5256  -23.5473 N   0  0  0  0  0  0  0  0  0  0  0  0
  -13.0498    9.7621  -23.3075 C   0  0  0  0  0  0  0  0  0  0  0  0
  -12.0704    9.0077  -23.9258 C   0  0  0  0  0  0  0  0  0  0  0  0
  -12.4495    7.9959  -24.8002 C   0  0  0  0  0  0  0  0  0  0  0  0
  -11.5422    7.2449  -25.4121 N   0  0  0  0  0  0  0  0  0  0  0  0
  -10.8650    9.4544  -23.5079 N   0  0  0  0  0  0  0  0  0  0  0  0
  -11.0683   10.4725  -22.6492 C   0  0  0  0  0  0  0  0  0  0  0  0
  -12.4177   10.6702  -22.5041 N   0  0  0  0  0  0  0  0  0  0  0  0
  2  1  1  6  0  0  0
  2  3  1  0  0  0  0
  2  5  1  0  0  0  0
  3  4  1  0  0  0  0
  3 16  1  0  0  0  0
  5  6  1  0  0  0  0
  6  7  1  0  0  0  0
  7  8  1  0  0  0  0
  9  8  1  6  0  0  0
  9 10  1  0  0  0  0
  9 11  1  0  0  0  0
 10 15  1  0  0  0  0
 11 12  1  1  0  0  0
 11 13  1  0  0  0  0
 13 14  1  1  0  0  0
 13 15  1  0  0  0  0
 15 26  1  6  0  0  0
 17 18  2  0  0  0  0
 17 22  1  0  0  0  0
 18 19  1  0  0  0  0
 19 20  2  0  0  0  0
 20 21  1  0  0  0  0
 20 26  1  0  0  0  0
 21 22  2  0  0  0  0
 21 24  1  0  0  0  0
 22 23  1  0  0  0  0
 24 25  2  0  0  0  0
 25 26  1  0  0  0  0
M  END
>  <CHROM.1>
119.31335146,-69.62813467,-64.22808464,118.16832968,-164.75571105,-175.36452020
-98.78317076,-11.08139776,12.98231512,-22.60089943,-0.82272199,-0.76019117
-2.47733609

>  <Name>
ligand

>  <RI>
0

>  <Rbt.Current_Directory>
/home/itssahil/PROJECTS/Mol_Feturizer/New_Systems/rnas/3E5E

>  <Rbt.Executable>
rbdock ($Id: //depot/dev/client3/rdock/2013.1/src/exe/rbdock.cxx#4 $)

>  <Rbt.Library>
libRbt.so (2013.1, Build901 2013/11/27)

>  <Rbt.Parameter_File>
/export/apps/rDock/src/rDock_2013.1_src/data/scripts/dock_solv.prm

>  <Rbt.Receptor>
prm/blind_docking_40.prm

>  <SCORE>
-17.8082

>  <SCORE.INTER>
-15.4336

>  <SCORE.INTER.CONST>
1

>  <SCORE.INTER.POLAR>
0

>  <SCORE.INTER.ROT>
7

>  <SCORE.INTER.SOLV>
7.86858

>  <SCORE.INTER.VDW>
-21.1786

>  <SCORE.INTER.norm>
-0.593601

>  <SCORE.INTRA>
-2.39329

>  <SCORE.INTRA.DIHEDRAL>
-4.25887

>  <SCORE.INTRA.DIHEDRAL.0>
10.1225

>  <SCORE.INTRA.POLAR>
0

>  <SCORE.INTRA.POLAR.0>
0

>  <SCORE.INTRA.REPUL>
0

>  <SCORE.INTRA.REPUL.0>
0

>  <SCORE.INTRA.SOLV>
0.593892

>  <SCORE.INTRA.SOLV.lig_0>
-49.9393

>  <SCORE.INTRA.VDW>
-0.560801

>  <SCORE.INTRA.VDW.0>
-1.75437

>  <SCORE.INTRA.norm>
-0.0920496

>  <SCORE.RESTR>
0.01868

>  <SCORE.RESTR.CAVITY>
0.01868

>  <SCORE.RESTR.norm>
0.000718461

>  <SCORE.SYSTEM>
0

>  <SCORE.SYSTEM.CONST>
0

>  <SCORE.SYSTEM.DIHEDRAL>
0

>  <SCORE.SYSTEM.SOLV>
0

>  <SCORE.SYSTEM.norm>
0

>  <SCORE.heavy>
26

>  <SCORE.norm>
-0.684932

>  <RMSD>
9.489

$$$$
ligand
 OpenBabel11021811473D
libRbt.so/2013.1/901 2013/11/27
 26 28  0  0  0  0  0  0  0  0999 V2000
   -5.4059   14.0749  -24.6350 N   0  0  0  0  0  0  0  0  0  0  0  0
   -6.3470   15.0222  -24.0248 C   0  0  2  0  0  0  0  0  0  0  0  0
   -5.6554   16.3413  -23.8009 C   0  0  0  0  0  0  0  0  0  0  0  0
   -4.5195   16.3667  -23.3886 O   0  0  0  0  0  0  0  0  0  0  0  0
   -6.8324   14.4659  -22.6851 C   0  0  0  0  0  0  0  0  0  0  0  0
   -8.0687   15.2389  -22.2294 C   0  0  0  0  0  0  0  0  0  0  0  0
   -9.5577   15.0298  -23.0187 S   0  0  0  0  0  0  0  0  0  0  0  0
  -10.7943   13.7233  -23.2317 C   0  0  0  0  0  0  0  0  0  0  0  0
  -12.0749   13.9116  -22.4094 C   0  0  1  0  0  0  0  0  0  0  0  0
  -13.0360   12.9044  -22.6674 O   0  0  0  0  0  0  0  0  0  0  0  0
  -11.8236   13.7716  -20.9265 C   0  0  1  0  0  0  0  0  0  0  0  0
  -12.8765   14.4808  -20.3111 O   0  0  0  0  0  0  0  0  0  0  0  0
  -12.0101   12.3017  -20.6305 C   0  0  1  0  0  0  0  0  0  0  0  0
  -12.6976   12.1464  -19.4083 O   0  0  0  0  0  0  0  0  0  0  0  0
  -12.8870   11.8226  -21.7672 C   0  0  2  0  0  0  0  0  0  0  0  0
   -6.3010   17.4909  -24.0566 O   0  0  0  0  0  0  0  0  0  0  0  0
  -14.0003    7.7698  -24.8574 N   0  0  0  0  0  0  0  0  0  0  0  0
  -14.8757    8.6379  -24.2490 C   0  0  0  0  0  0  0  0  0  0  0  0
  -14.3868    9.6460  -23.4535 N   0  0  0  0  0  0  0  0  0  0  0  0
  -13.0607    9.7927  -23.2660 C   0  0  0  0  0  0  0  0  0  0  0  0
  -12.1631    8.9317  -23.8689 C   0  0  0  0  0  0  0  0  0  0  0  0
  -12.6475    7.9065  -24.6728 C   0  0  0  0  0  0  0  0  0  0  0  0
  -11.8213    7.0548  -25.2675 N   0  0  0  0  0  0  0  0  0  0  0  0
  -10.9137    9.3050  -23.5126 N   0  0  0  0  0  0  0  0  0  0  0  0
  -11.0098   10.3811  -22.7075 C   0  0  0  0  0  0  0  0  0  0  0  0
  -12.3346   10.6911  -22.5343 N   0  0  0  0  0  0  0  0  0  0  0  0
  2  1  1  1  0  0  0
  2  3  1  0  0  0  0
  2  5  1  0  0  0  0
  3  4  1  0  0  0  0
  3 16  1  0  0  0  0
  5  6  1  0  0  0  0
  6  7  1  0  0  0  0
  7  8  1  0  0  0  0
  9  8  1  6  0  0  0
  9 10  1  0  0  0  0
  9 11  1  0  0  0  0
 10 15  1  0  0  0  0
 11 12  1  1  0  0  0
 11 13  1  0  0  0  0
 13 14  1  1  0  0  0
 13 15  1  0  0  0  0
 15 26  1  6  0  0  0
 17 18  2  0  0  0  0
 17 22  1  0  0  0  0
 18 19  1  0  0  0  0
 19 20  2  0  0  0  0
 20 21  1  0  0  0  0
 20 26  1  0  0  0  0
 21 22  2  0  0  0  0
 21 24  1  0  0  0  0
 22 23  1  0  0  0  0
 24 25  2  0  0  0  0
 25 26  1  0  0  0  0
M  END
>  <CHROM.1>
-41.27262509,-164.89083271,71.76732977,67.05557818,104.97740778,176.75635216
-85.09995001,-10.58738501,12.52151153,-22.94727872,-0.63014033,-0.48479365
-2.56431784

>  <Name>
ligand

>  <RI>
0

>  <Rbt.Current_Directory>
/home/itssahil/PROJECTS/Mol_Feturizer/New_Systems/rnas/3E5E

>  <Rbt.Executable>
rbdock ($Id: //depot/dev/client3/rdock/2013.1/src/exe/rbdock.cxx#4 $)

>  <Rbt.Library>
libRbt.so (2013.1, Build901 2013/11/27)

>  <Rbt.Parameter_File>
/export/apps/rDock/src/rDock_2013.1_src/data/scripts/dock_solv.prm

>  <Rbt.Receptor>
prm/pocket_docking_7.prm

>  <SCORE>
-17.493

>  <SCORE.INTER>
-14.4178

>  <SCORE.INTER.CONST>
1

>  <SCORE.INTER.POLAR>
0

>  <SCORE.INTER.ROT>
7

>  <SCORE.INTER.SOLV>
7.38984

>  <SCORE.INTER.VDW>
-20.3418

>  <SCORE.INTER.norm>
-0.554533

>  <SCORE.INTRA>
-3.07512

>  <SCORE.INTRA.DIHEDRAL>
-4.00893

>  <SCORE.INTRA.DIHEDRAL.0>
10.1225

>  <SCORE.INTRA.POLAR>
0

>  <SCORE.INTRA.POLAR.0>
0

>  <SCORE.INTRA.REPUL>
0

>  <SCORE.INTRA.REPUL.0>
0

>  <SCORE.INTRA.SOLV>
-0.520129

>  <SCORE.INTRA.SOLV.lig_0>
-49.9393

>  <SCORE.INTRA.VDW>
-0.810589

>  <SCORE.INTRA.VDW.0>
-1.75437

>  <SCORE.INTRA.norm>
-0.118274

>  <SCORE.RESTR>
0

>  <SCORE.RESTR.CAVITY>
0

>  <SCORE.RESTR.norm>
0

>  <SCORE.SYSTEM>
0

>  <SCORE.SYSTEM.CONST>
0

>  <SCORE.SYSTEM.DIHEDRAL>
0

>  <SCORE.SYSTEM.SOLV>
0

>  <SCORE.SYSTEM.norm>
0

>  <SCORE.heavy>
26

>  <SCORE.norm>
-0.672806

>  <RMSD>
9.494

$$$$
ligand
 OpenBabel11021811473D
libRbt.so/2013.1/901 2013/11/27
 26 28  0  0  0  0  0  0  0  0999 V2000
   -5.4353   14.9018  -24.6802 N   0  0  0  0  0  0  0  0  0  0  0  0
   -5.4958   15.3378  -23.2796 C   0  0  2  0  0  0  0  0  0  0  0  0
   -4.2912   14.8172  -22.5405 C   0  0  0  0  0  0  0  0  0  0  0  0
   -3.9930   13.6483  -22.6166 O   0  0  0  0  0  0  0  0  0  0  0  0
   -6.7688   14.7915  -22.6309 C   0  0  0  0  0  0  0  0  0  0  0  0
   -7.9862   15.5058  -23.2151 C   0  0  0  0  0  0  0  0  0  0  0  0
   -9.5559   15.0705  -22.7349 S   0  0  0  0  0  0  0  0  0  0  0  0
  -10.7480   13.7499  -23.0754 C   0  0  0  0  0  0  0  0  0  0  0  0
  -12.1251   13.9465  -22.4297 C   0  0  1  0  0  0  0  0  0  0  0  0
  -13.0531   12.9518  -22.8224 O   0  0  0  0  0  0  0  0  0  0  0  0
  -12.0755   13.7931  -20.9279 C   0  0  1  0  0  0  0  0  0  0  0  0
  -13.1941   14.5094  -20.4525 O   0  0  0  0  0  0  0  0  0  0  0  0
  -12.3146   12.3233  -20.6720 C   0  0  1  0  0  0  0  0  0  0  0  0
  -13.1607   12.1668  -19.5538 O   0  0  0  0  0  0  0  0  0  0  0  0
  -13.0365   11.8620  -21.9196 C   0  0  2  0  0  0  0  0  0  0  0  0
   -3.5484   15.6507  -21.7937 O   0  0  0  0  0  0  0  0  0  0  0  0
  -13.8256    7.6031  -24.8271 N   0  0  0  0  0  0  0  0  0  0  0  0
  -14.7667    8.4452  -24.2836 C   0  0  0  0  0  0  0  0  0  0  0  0
  -14.3596    9.5188  -23.5288 N   0  0  0  0  0  0  0  0  0  0  0  0
  -13.0499    9.7546  -23.3180 C   0  0  0  0  0  0  0  0  0  0  0  0
  -12.0873    8.9211  -23.8558 C   0  0  0  0  0  0  0  0  0  0  0  0
  -12.4886    7.8304  -24.6182 C   0  0  0  0  0  0  0  0  0  0  0  0
  -11.5979    7.0024  -25.1499 N   0  0  0  0  0  0  0  0  0  0  0  0
  -10.8720    9.3865  -23.4897 N   0  0  0  0  0  0  0  0  0  0  0  0
  -11.0530   10.4928  -22.7423 C   0  0  0  0  0  0  0  0  0  0  0  0
  -12.3979   10.7300  -22.6158 N   0  0  0  0  0  0  0  0  0  0  0  0
  2  1  1  6  0  0  0
  2  3  1  0  0  0  0
  2  5  1  0  0  0  0
  3  4  1  0  0  0  0
  3 16  1  0  0  0  0
  5  6  1  0  0  0  0
  6  7  1  0  0  0  0
  7  8  1  0  0  0  0
  9  8  1  6  0  0  0
  9 10  1  0  0  0  0
  9 11  1  0  0  0  0
 10 15  1  0  0  0  0
 11 12  1  1  0  0  0
 11 13  1  0  0  0  0
 13 14  1  1  0  0  0
 13 15  1  0  0  0  0
 15 26  1  6  0  0  0
 17 18  2  0  0  0  0
 17 22  1  0  0  0  0
 18 19  1  0  0  0  0
 19 20  2  0  0  0  0
 20 21  1  0  0  0  0
 20 26  1  0  0  0  0
 21 22  2  0  0  0  0
 21 24  1  0  0  0  0
 22 23  1  0  0  0  0
 24 25  2  0  0  0  0
 25 26  1  0  0  0  0
M  END
>  <CHROM.1>
-50.06986468,-69.97817110,177.55028655,-77.81123061,-174.16852600,174.73315278
-93.24271156,-10.40338157,12.33999776,-22.78566012,-0.58308288,-0.27401335
-2.63961738

>  <Name>
ligand

>  <RI>
0

>  <Rbt.Current_Directory>
/home/itssahil/PROJECTS/Mol_Feturizer/New_Systems/rnas/3E5E

>  <Rbt.Executable>
rbdock ($Id: //depot/dev/client3/rdock/2013.1/src/exe/rbdock.cxx#4 $)

>  <Rbt.Library>
libRbt.so (2013.1, Build901 2013/11/27)

>  <Rbt.Parameter_File>
/export/apps/rDock/src/rDock_2013.1_src/data/scripts/dock_solv.prm

>  <Rbt.Receptor>
prm/blind_docking_60.prm

>  <SCORE>
-20.5533

>  <SCORE.INTER>
-16.8795

>  <SCORE.INTER.CONST>
1

>  <SCORE.INTER.POLAR>
0

>  <SCORE.INTER.ROT>
7

>  <SCORE.INTER.SOLV>
9.19613

>  <SCORE.INTER.VDW>
-22.585

>  <SCORE.INTER.norm>
-0.649211

>  <SCORE.INTRA>
-3.67385

>  <SCORE.INTRA.DIHEDRAL>
-6.5011

>  <SCORE.INTRA.DIHEDRAL.0>
10.1225

>  <SCORE.INTRA.POLAR>
0

>  <SCORE.INTRA.POLAR.0>
0

>  <SCORE.INTRA.REPUL>
0

>  <SCORE.INTRA.REPUL.0>
0

>  <SCORE.INTRA.SOLV>
0.00345544

>  <SCORE.INTRA.SOLV.lig_0>
-49.9393

>  <SCORE.INTRA.VDW>
-0.425029

>  <SCORE.INTRA.VDW.0>
-1.75437

>  <SCORE.INTRA.norm>
-0.141302

>  <SCORE.RESTR>
0

>  <SCORE.RESTR.CAVITY>
0

>  <SCORE.RESTR.norm>
0

>  <SCORE.SYSTEM>
0

>  <SCORE.SYSTEM.CONST>
0

>  <SCORE.SYSTEM.DIHEDRAL>
0

>  <SCORE.SYSTEM.SOLV>
0

>  <SCORE.SYSTEM.norm>
0

>  <SCORE.heavy>
26

>  <SCORE.norm>
-0.790513

>  <RMSD>
9.495

$$$$
ligand
 OpenBabel11021811473D
libRbt.so/2013.1/901 2013/11/27
 26 28  0  0  0  0  0  0  0  0999 V2000
   -9.7756    7.0551  -28.2182 N   0  0  0  0  0  0  0  0  0  0  0  0
  -10.5180    7.7966  -27.1913 C   0  0  2  0  0  0  0  0  0  0  0  0
  -11.6912    8.4946  -27.8274 C   0  0  0  0  0  0  0  0  0  0  0  0
  -12.8106    8.2908  -27.4194 O   0  0  0  0  0  0  0  0  0  0  0  0
   -9.5963    8.8322  -26.5450 C   0  0  0  0  0  0  0  0  0  0  0  0
  -10.3575    9.5822  -25.4534 C   0  0  0  0  0  0  0  0  0  0  0  0
  -11.0585    8.7409  -24.1555 S   0  0  0  0  0  0  0  0  0  0  0  0
  -12.3744    7.5233  -23.8968 C   0  0  0  0  0  0  0  0  0  0  0  0
  -13.7918    8.0433  -24.1661 C   0  0  1  0  0  0  0  0  0  0  0  0
  -14.7911    7.1588  -23.6928 O   0  0  0  0  0  0  0  0  0  0  0  0
  -14.0812    9.3199  -23.4124 C   0  0  1  0  0  0  0  0  0  0  0  0
  -15.1169    9.9440  -24.1393 O   0  0  0  0  0  0  0  0  0  0  0  0
  -14.6421    8.8753  -22.0817 C   0  0  1  0  0  0  0  0  0  0  0  0
  -15.7136    9.7160  -21.7127 O   0  0  0  0  0  0  0  0  0  0  0  0
  -15.1670    7.4850  -22.3680 C   0  0  2  0  0  0  0  0  0  0  0  0
  -11.4953    9.3423  -28.8506 O   0  0  0  0  0  0  0  0  0  0  0  0
  -13.0310    6.4308  -17.7269 N   0  0  0  0  0  0  0  0  0  0  0  0
  -13.3833    7.6569  -18.2394 C   0  0  0  0  0  0  0  0  0  0  0  0
  -13.9266    7.7336  -19.4992 N   0  0  0  0  0  0  0  0  0  0  0  0
  -14.1185    6.6212  -20.2346 C   0  0  0  0  0  0  0  0  0  0  0  0
  -13.7722    5.3785  -19.7383 C   0  0  0  0  0  0  0  0  0  0  0  0
  -13.2188    5.2902  -18.4663 C   0  0  0  0  0  0  0  0  0  0  0  0
  -12.8682    4.1177  -17.9526 N   0  0  0  0  0  0  0  0  0  0  0  0
  -14.0692    4.4506  -20.6753 N   0  0  0  0  0  0  0  0  0  0  0  0
  -14.5978    5.0832  -21.7410 C   0  0  0  0  0  0  0  0  0  0  0  0
  -14.6258    6.4313  -21.4902 N   0  0  0  0  0  0  0  0  0  0  0  0
  2  1  1  6  0  0  0
  2  3  1  0  0  0  0
  2  5  1  0  0  0  0
  3  4  1  0  0  0  0
  3 16  1  0  0  0  0
  5  6  1  0  0  0  0
  6  7  1  0  0  0  0
  7  8  1  0  0  0  0
  9  8  1  1  0  0  0
  9 10  1  0  0  0  0
  9 11  1  0  0  0  0
 10 15  1  0  0  0  0
 11 12  1  6  0  0  0
 11 13  1  0  0  0  0
 13 14  1  6  0  0  0
 13 15  1  0  0  0  0
 15 26  1  1  0  0  0
 17 18  2  0  0  0  0
 17 22  1  0  0  0  0
 18 19  1  0  0  0  0
 19 20  2  0  0  0  0
 20 21  1  0  0  0  0
 20 26  1  0  0  0  0
 21 22  2  0  0  0  0
 21 24  1  0  0  0  0
 22 23  1  0  0  0  0
 24 25  2  0  0  0  0
 25 26  1  0  0  0  0
M  END
>  <CHROM.1>
123.68449260,-178.67022299,57.90786938,-65.05450900,-67.68999510,-167.82772663
143.13849734,-13.00596636,7.63533640,-23.12350089,-1.18865651,-0.55442039
2.08909191

>  <Name>
ligand

>  <RI>
0

>  <Rbt.Current_Directory>
/home/itssahil/PROJECTS/Mol_Feturizer/New_Systems/rnas/3E5E

>  <Rbt.Executable>
rbdock ($Id: //depot/dev/client3/rdock/2013.1/src/exe/rbdock.cxx#4 $)

>  <Rbt.Library>
libRbt.so (2013.1, Build901 2013/11/27)

>  <Rbt.Parameter_File>
/export/apps/rDock/src/rDock_2013.1_src/data/scripts/dock_solv.prm

>  <Rbt.Receptor>
prm/pocket_docking_8.prm

>  <SCORE>
-14.7008

>  <SCORE.INTER>
-10.1942

>  <SCORE.INTER.CONST>
1

>  <SCORE.INTER.POLAR>
0

>  <SCORE.INTER.ROT>
7

>  <SCORE.INTER.SOLV>
9.99162

>  <SCORE.INTER.VDW>
-18.3933

>  <SCORE.INTER.norm>
-0.392085

>  <SCORE.INTRA>
-4.50654

>  <SCORE.INTRA.DIHEDRAL>
-6.84896

>  <SCORE.INTRA.DIHEDRAL.0>
10.1225

>  <SCORE.INTRA.POLAR>
0

>  <SCORE.INTRA.POLAR.0>
0

>  <SCORE.INTRA.REPUL>
0

>  <SCORE.INTRA.REPUL.0>
0

>  <SCORE.INTRA.SOLV>
-0.309719

>  <SCORE.INTRA.SOLV.lig_0>
-49.9393

>  <SCORE.INTRA.VDW>
-0.927198

>  <SCORE.INTRA.VDW.0>
-1.75437

>  <SCORE.INTRA.norm>
-0.173328

>  <SCORE.RESTR>
0

>  <SCORE.RESTR.CAVITY>
0

>  <SCORE.RESTR.norm>
0

>  <SCORE.SYSTEM>
0

>  <SCORE.SYSTEM.CONST>
0

>  <SCORE.SYSTEM.DIHEDRAL>
0

>  <SCORE.SYSTEM.SOLV>
0

>  <SCORE.SYSTEM.norm>
0

>  <SCORE.heavy>
26

>  <SCORE.norm>
-0.565414

>  <RMSD>
9.502

$$$$
ligand
 OpenBabel11021811473D
libRbt.so/2013.1/901 2013/11/27
 26 28  0  0  0  0  0  0  0  0999 V2000
   -5.7198   18.1301  -22.3282 N   0  0  0  0  0  0  0  0  0  0  0  0
   -5.1776   16.9451  -21.6518 C   0  0  2  0  0  0  0  0  0  0  0  0
   -3.9165   16.5046  -22.3472 C   0  0  0  0  0  0  0  0  0  0  0  0
   -2.8395   16.8642  -21.9327 O   0  0  0  0  0  0  0  0  0  0  0  0
   -6.2084   15.8159  -21.6991 C   0  0  0  0  0  0  0  0  0  0  0  0
   -7.4640   16.2390  -20.9389 C   0  0  0  0  0  0  0  0  0  0  0  0
   -8.8308   15.2317  -20.9003 S   0  0  0  0  0  0  0  0  0  0  0  0
   -9.8394   14.2892  -22.0731 C   0  0  0  0  0  0  0  0  0  0  0  0
  -11.2587   13.9706  -21.5874 C   0  0  1  0  0  0  0  0  0  0  0  0
  -12.0494   13.3608  -22.5914 O   0  0  0  0  0  0  0  0  0  0  0  0
  -11.2630   12.9441  -20.4794 C   0  0  1  0  0  0  0  0  0  0  0  0
  -12.4762   13.1571  -19.7916 O   0  0  0  0  0  0  0  0  0  0  0  0
  -11.3469   11.6073  -21.1786 C   0  0  1  0  0  0  0  0  0  0  0  0
  -12.2218   10.7553  -20.4719 O   0  0  0  0  0  0  0  0  0  0  0  0
  -11.9528   11.9506  -22.5222 C   0  0  2  0  0  0  0  0  0  0  0  0
   -3.9871   15.7138  -23.4306 O   0  0  0  0  0  0  0  0  0  0  0  0
  -10.1792    7.8515  -25.2177 N   0  0  0  0  0  0  0  0  0  0  0  0
  -10.9145    7.8487  -24.0560 C   0  0  0  0  0  0  0  0  0  0  0  0
  -11.2808    9.0428  -23.4835 N   0  0  0  0  0  0  0  0  0  0  0  0
  -10.9288   10.2138  -24.0493 C   0  0  0  0  0  0  0  0  0  0  0  0
  -10.1906   10.2394  -25.2176 C   0  0  0  0  0  0  0  0  0  0  0  0
   -9.8120    9.0370  -25.8031 C   0  0  0  0  0  0  0  0  0  0  0  0
   -9.0995    9.0156  -26.9227 N   0  0  0  0  0  0  0  0  0  0  0  0
   -9.9809   11.5308  -25.5577 N   0  0  0  0  0  0  0  0  0  0  0  0
  -10.5753   12.3108  -24.6338 C   0  0  0  0  0  0  0  0  0  0  0  0
  -11.1588   11.5114  -23.6844 N   0  0  0  0  0  0  0  0  0  0  0  0
  2  1  1  6  0  0  0
  2  3  1  0  0  0  0
  2  5  1  0  0  0  0
  3  4  1  0  0  0  0
  3 16  1  0  0  0  0
  5  6  1  0  0  0  0
  6  7  1  0  0  0  0
  7  8  1  0  0  0  0
  9  8  1  6  0  0  0
  9 10  1  0  0  0  0
  9 11  1  0  0  0  0
 10 15  1  0  0  0  0
 11 12  1  1  0  0  0
 11 13  1  0  0  0  0
 13 14  1  1  0  0  0
 13 15  1  0  0  0  0
 15 26  1  6  0  0  0
 17 18  2  0  0  0  0
 17 22  1  0  0  0  0
 18 19  1  0  0  0  0
 19 20  2  0  0  0  0
 20 21  1  0  0  0  0
 20 26  1  0  0  0  0
 21 22  2  0  0  0  0
 21 24  1  0  0  0  0
 22 23  1  0  0  0  0
 24 25  2  0  0  0  0
 25 26  1  0  0  0  0
M  END
>  <CHROM.1>
95.65135920,-62.60680892,175.98879940,-48.02935102,-158.06721417,173.66842874
-174.13814020,-9.20487690,12.96924525,-22.71086627,-0.77410978,-0.47137193
-2.41326164

>  <Name>
ligand

>  <RI>
0

>  <Rbt.Current_Directory>
/home/itssahil/PROJECTS/Mol_Feturizer/New_Systems/rnas/3E5E

>  <Rbt.Executable>
rbdock ($Id: //depot/dev/client3/rdock/2013.1/src/exe/rbdock.cxx#4 $)

>  <Rbt.Library>
libRbt.so (2013.1, Build901 2013/11/27)

>  <Rbt.Parameter_File>
/export/apps/rDock/src/rDock_2013.1_src/data/scripts/dock_solv.prm

>  <Rbt.Receptor>
prm/blind_docking_60.prm

>  <SCORE>
-18.5063

>  <SCORE.INTER>
-15.4907

>  <SCORE.INTER.CONST>
1

>  <SCORE.INTER.POLAR>
0

>  <SCORE.INTER.ROT>
7

>  <SCORE.INTER.SOLV>
6.06629

>  <SCORE.INTER.VDW>
-20.6159

>  <SCORE.INTER.norm>
-0.595797

>  <SCORE.INTRA>
-3.01561

>  <SCORE.INTRA.DIHEDRAL>
-6.25866

>  <SCORE.INTRA.DIHEDRAL.0>
10.1225

>  <SCORE.INTRA.POLAR>
0

>  <SCORE.INTRA.POLAR.0>
0

>  <SCORE.INTRA.REPUL>
0

>  <SCORE.INTRA.REPUL.0>
0

>  <SCORE.INTRA.SOLV>
0.170474

>  <SCORE.INTRA.SOLV.lig_0>
-49.9393

>  <SCORE.INTRA.VDW>
0.0284803

>  <SCORE.INTRA.VDW.0>
-1.75437

>  <SCORE.INTRA.norm>
-0.115985

>  <SCORE.RESTR>
0

>  <SCORE.RESTR.CAVITY>
0

>  <SCORE.RESTR.norm>
0

>  <SCORE.SYSTEM>
0

>  <SCORE.SYSTEM.CONST>
0

>  <SCORE.SYSTEM.DIHEDRAL>
0

>  <SCORE.SYSTEM.SOLV>
0

>  <SCORE.SYSTEM.norm>
0

>  <SCORE.heavy>
26

>  <SCORE.norm>
-0.711782

>  <RMSD>
9.518

$$$$
ligand
 OpenBabel11021811473D
libRbt.so/2013.1/901 2013/11/27
 26 28  0  0  0  0  0  0  0  0999 V2000
   -6.3612   16.9406  -20.8808 N   0  0  0  0  0  0  0  0  0  0  0  0
   -5.8595   15.7877  -21.6390 C   0  0  2  0  0  0  0  0  0  0  0  0
   -4.4818   16.0948  -22.1643 C   0  0  0  0  0  0  0  0  0  0  0  0
   -3.6070   15.2640  -22.0909 O   0  0  0  0  0  0  0  0  0  0  0  0
   -6.8005   15.5002  -22.8101 C   0  0  0  0  0  0  0  0  0  0  0  0
   -8.1422   15.0016  -22.2761 C   0  0  0  0  0  0  0  0  0  0  0  0
   -9.4306   14.6865  -23.3367 S   0  0  0  0  0  0  0  0  0  0  0  0
  -10.7904   13.4989  -23.4842 C   0  0  0  0  0  0  0  0  0  0  0  0
  -11.9700   13.7534  -22.5380 C   0  0  1  0  0  0  0  0  0  0  0  0
  -12.9705   12.7568  -22.6413 O   0  0  0  0  0  0  0  0  0  0  0  0
  -11.5606   13.6768  -21.0861 C   0  0  1  0  0  0  0  0  0  0  0  0
  -12.5279   14.4368  -20.3953 O   0  0  0  0  0  0  0  0  0  0  0  0
  -11.7386   12.2266  -20.7007 C   0  0  1  0  0  0  0  0  0  0  0  0
  -12.2909   12.1434  -19.4051 O   0  0  0  0  0  0  0  0  0  0  0  0
  -12.7424   11.7149  -21.7111 C   0  0  2  0  0  0  0  0  0  0  0  0
   -4.2229   17.2933  -22.7125 O   0  0  0  0  0  0  0  0  0  0  0  0
  -14.2081    7.8377  -24.8786 N   0  0  0  0  0  0  0  0  0  0  0  0
  -14.9995    8.7905  -24.2821 C   0  0  0  0  0  0  0  0  0  0  0  0
  -14.4250    9.7315  -23.4620 N   0  0  0  0  0  0  0  0  0  0  0  0
  -13.0963    9.7305  -23.2388 C   0  0  0  0  0  0  0  0  0  0  0  0
  -12.2822    8.7822  -23.8292 C   0  0  0  0  0  0  0  0  0  0  0  0
  -12.8538    7.8239  -24.6579 C   0  0  0  0  0  0  0  0  0  0  0  0
  -12.1098    6.8926  -25.2417 N   0  0  0  0  0  0  0  0  0  0  0  0
  -11.0095    9.0133  -23.4365 N   0  0  0  0  0  0  0  0  0  0  0  0
  -11.0092   10.0857  -22.6210 C   0  0  0  0  0  0  0  0  0  0  0  0
  -12.2964   10.5371  -22.4778 N   0  0  0  0  0  0  0  0  0  0  0  0
  2  1  1  6  0  0  0
  2  3  1  0  0  0  0
  2  5  1  0  0  0  0
  3  4  1  0  0  0  0
  3 16  1  0  0  0  0
  5  6  1  0  0  0  0
  6  7  1  0  0  0  0
  7  8  1  0  0  0  0
  9  8  1  6  0  0  0
  9 10  1  0  0  0  0
  9 11  1  0  0  0  0
 10 15  1  0  0  0  0
 11 12  1  1  0  0  0
 11 13  1  0  0  0  0
 13 14  1  1  0  0  0
 13 15  1  0  0  0  0
 15 26  1  6  0  0  0
 17 18  2  0  0  0  0
 17 22  1  0  0  0  0
 18 19  1  0  0  0  0
 19 20  2  0  0  0  0
 20 21  1  0  0  0  0
 20 26  1  0  0  0  0
 21 22  2  0  0  0  0
 21 24  1  0  0  0  0
 22 23  1  0  0  0  0
 24 25  2  0  0  0  0
 25 26  1  0  0  0  0
M  END
>  <CHROM.1>
136.19853810,-67.82320184,176.29333178,144.07415642,76.41996792,-176.72460837
-75.21177572,-10.40704645,12.52940777,-22.60616104,0.69795550,0.33008672
0.58460621

>  <Name>
ligand

>  <RI>
0

>  <Rbt.Current_Directory>
/home/itssahil/PROJECTS/Mol_Feturizer/New_Systems/rnas/3E5E

>  <Rbt.Executable>
rbdock ($Id: //depot/dev/client3/rdock/2013.1/src/exe/rbdock.cxx#4 $)

>  <Rbt.Library>
libRbt.so (2013.1, Build901 2013/11/27)

>  <Rbt.Parameter_File>
/export/apps/rDock/src/rDock_2013.1_src/data/scripts/dock_solv.prm

>  <Rbt.Receptor>
prm/pocket_docking_8.prm

>  <SCORE>
-18.2221

>  <SCORE.INTER>
-15.0968

>  <SCORE.INTER.CONST>
1

>  <SCORE.INTER.POLAR>
0

>  <SCORE.INTER.ROT>
7

>  <SCORE.INTER.SOLV>
9.79898

>  <SCORE.INTER.VDW>
-21.5975

>  <SCORE.INTER.norm>
-0.580647

>  <SCORE.INTRA>
-3.12527

>  <SCORE.INTRA.DIHEDRAL>
-5.19831

>  <SCORE.INTRA.DIHEDRAL.0>
10.1225

>  <SCORE.INTRA.POLAR>
0

>  <SCORE.INTRA.POLAR.0>
0

>  <SCORE.INTRA.REPUL>
0

>  <SCORE.INTRA.REPUL.0>
0

>  <SCORE.INTRA.SOLV>
0.150611

>  <SCORE.INTRA.SOLV.lig_0>
-49.9393

>  <SCORE.INTRA.VDW>
-0.601418

>  <SCORE.INTRA.VDW.0>
-1.75437

>  <SCORE.INTRA.norm>
-0.120203

>  <SCORE.RESTR>
0

>  <SCORE.RESTR.CAVITY>
0

>  <SCORE.RESTR.norm>
0

>  <SCORE.SYSTEM>
0

>  <SCORE.SYSTEM.CONST>
0

>  <SCORE.SYSTEM.DIHEDRAL>
0

>  <SCORE.SYSTEM.SOLV>
0

>  <SCORE.SYSTEM.norm>
0

>  <SCORE.heavy>
26

>  <SCORE.norm>
-0.70085

>  <RMSD>
9.526

$$$$
ligand
 OpenBabel11021811473D
libRbt.so/2013.1/901 2013/11/27
 26 28  0  0  0  0  0  0  0  0999 V2000
   -5.9510   17.5343  -23.4766 N   0  0  0  0  0  0  0  0  0  0  0  0
   -7.3652   17.1878  -23.2879 C   0  0  2  0  0  0  0  0  0  0  0  0
   -8.1679   18.4473  -23.0945 C   0  0  0  0  0  0  0  0  0  0  0  0
   -9.2939   18.5199  -23.5280 O   0  0  0  0  0  0  0  0  0  0  0  0
   -7.5102   16.2949  -22.0545 C   0  0  0  0  0  0  0  0  0  0  0  0
   -8.9162   15.6987  -22.0185 C   0  0  0  0  0  0  0  0  0  0  0  0
   -9.5059   14.7972  -23.3314 S   0  0  0  0  0  0  0  0  0  0  0  0
  -10.7281   13.4931  -23.6257 C   0  0  0  0  0  0  0  0  0  0  0  0
  -12.1097   13.7590  -23.0155 C   0  0  1  0  0  0  0  0  0  0  0  0
  -13.0485   12.7512  -23.3437 O   0  0  0  0  0  0  0  0  0  0  0  0
  -12.0810   13.7202  -21.5058 C   0  0  1  0  0  0  0  0  0  0  0  0
  -13.1939   14.4874  -21.1016 O   0  0  0  0  0  0  0  0  0  0  0  0
  -12.3466   12.2779  -21.1419 C   0  0  1  0  0  0  0  0  0  0  0  0
  -13.2088   12.2201  -20.0265 O   0  0  0  0  0  0  0  0  0  0  0  0
  -13.0604   11.7335  -22.3603 C   0  0  2  0  0  0  0  0  0  0  0  0
   -7.6327   19.4924  -22.4424 O   0  0  0  0  0  0  0  0  0  0  0  0
  -13.8879    7.2387  -24.8755 N   0  0  0  0  0  0  0  0  0  0  0  0
  -14.8216    8.1290  -24.4005 C   0  0  0  0  0  0  0  0  0  0  0  0
  -14.4047    9.2631  -23.7463 N   0  0  0  0  0  0  0  0  0  0  0  0
  -13.0925    9.5113  -23.5678 C   0  0  0  0  0  0  0  0  0  0  0  0
  -12.1371    8.6301  -24.0381 C   0  0  0  0  0  0  0  0  0  0  0  0
  -12.5484    7.4782  -24.6983 C   0  0  0  0  0  0  0  0  0  0  0  0
  -11.6650    6.6031  -25.1624 N   0  0  0  0  0  0  0  0  0  0  0  0
  -10.9173    9.1210  -23.7243 N   0  0  0  0  0  0  0  0  0  0  0  0
  -11.0884   10.2894  -23.0756 C   0  0  0  0  0  0  0  0  0  0  0  0
  -12.4314   10.5421  -22.9594 N   0  0  0  0  0  0  0  0  0  0  0  0
  2  1  1  1  0  0  0
  2  3  1  0  0  0  0
  2  5  1  0  0  0  0
  3  4  1  0  0  0  0
  3 16  1  0  0  0  0
  5  6  1  0  0  0  0
  6  7  1  0  0  0  0
  7  8  1  0  0  0  0
  9  8  1  6  0  0  0
  9 10  1  0  0  0  0
  9 11  1  0  0  0  0
 10 15  1  0  0  0  0
 11 12  1  1  0  0  0
 11 13  1  0  0  0  0
 13 14  1  1  0  0  0
 13 15  1  0  0  0  0
 15 26  1  6  0  0  0
 17 18  2  0  0  0  0
 17 22  1  0  0  0  0
 18 19  1  0  0  0  0
 19 20  2  0  0  0  0
 20 21  1  0  0  0  0
 20 26  1  0  0  0  0
 21 22  2  0  0  0  0
 21 24  1  0  0  0  0
 22 23  1  0  0  0  0
 24 25  2  0  0  0  0
 25 26  1  0  0  0  0
M  END
>  <CHROM.1>
145.21981312,-168.34410054,56.27952157,154.46286073,49.27398259,176.34908408
-94.78653098,-11.08969134,12.89821442,-23.03526541,-0.98405086,-0.50554117
-2.71034132

>  <Name>
ligand

>  <RI>
0

>  <Rbt.Current_Directory>
/home/itssahil/PROJECTS/Mol_Feturizer/New_Systems/rnas/3E5E

>  <Rbt.Executable>
rbdock ($Id: //depot/dev/client3/rdock/2013.1/src/exe/rbdock.cxx#4 $)

>  <Rbt.Library>
libRbt.so (2013.1, Build901 2013/11/27)

>  <Rbt.Parameter_File>
/export/apps/rDock/src/rDock_2013.1_src/data/scripts/dock_solv.prm

>  <Rbt.Receptor>
prm/blind_docking_80.prm

>  <SCORE>
-20.6597

>  <SCORE.INTER>
-16.7664

>  <SCORE.INTER.CONST>
1

>  <SCORE.INTER.POLAR>
0

>  <SCORE.INTER.ROT>
7

>  <SCORE.INTER.SOLV>
8.51726

>  <SCORE.INTER.VDW>
-22.2833

>  <SCORE.INTER.norm>
-0.644861

>  <SCORE.INTRA>
-3.89332

>  <SCORE.INTRA.DIHEDRAL>
-5.80495

>  <SCORE.INTRA.DIHEDRAL.0>
10.1225

>  <SCORE.INTRA.POLAR>
0

>  <SCORE.INTRA.POLAR.0>
0

>  <SCORE.INTRA.REPUL>
0

>  <SCORE.INTRA.REPUL.0>
0

>  <SCORE.INTRA.SOLV>
-0.370205

>  <SCORE.INTRA.SOLV.lig_0>
-49.9393

>  <SCORE.INTRA.VDW>
-0.805747

>  <SCORE.INTRA.VDW.0>
-1.75437

>  <SCORE.INTRA.norm>
-0.149743

>  <SCORE.RESTR>
0

>  <SCORE.RESTR.CAVITY>
0

>  <SCORE.RESTR.norm>
0

>  <SCORE.SYSTEM>
0

>  <SCORE.SYSTEM.CONST>
0

>  <SCORE.SYSTEM.DIHEDRAL>
0

>  <SCORE.SYSTEM.SOLV>
0

>  <SCORE.SYSTEM.norm>
0

>  <SCORE.heavy>
26

>  <SCORE.norm>
-0.794604

>  <RMSD>
9.552

$$$$
ligand
 OpenBabel11021811473D
libRbt.so/2013.1/901 2013/11/27
 26 28  0  0  0  0  0  0  0  0999 V2000
   -6.1322   17.3494  -24.1951 N   0  0  0  0  0  0  0  0  0  0  0  0
   -5.8869   16.9463  -22.8048 C   0  0  2  0  0  0  0  0  0  0  0  0
   -5.0060   15.7249  -22.7855 C   0  0  0  0  0  0  0  0  0  0  0  0
   -4.2845   15.5141  -21.8389 O   0  0  0  0  0  0  0  0  0  0  0  0
   -7.2193   16.6262  -22.1251 C   0  0  0  0  0  0  0  0  0  0  0  0
   -7.9432   15.5338  -22.9100 C   0  0  0  0  0  0  0  0  0  0  0  0
   -9.5049   15.0392  -22.4623 S   0  0  0  0  0  0  0  0  0  0  0  0
  -10.7372   13.8263  -23.0022 C   0  0  0  0  0  0  0  0  0  0  0  0
  -12.1238   13.9952  -22.3694 C   0  0  1  0  0  0  0  0  0  0  0  0
  -13.0400   13.0066  -22.8033 O   0  0  0  0  0  0  0  0  0  0  0  0
  -12.0929   13.7982  -20.8722 C   0  0  1  0  0  0  0  0  0  0  0  0
  -13.2224   14.4932  -20.3910 O   0  0  0  0  0  0  0  0  0  0  0  0
  -12.3255   12.3200  -20.6626 C   0  0  1  0  0  0  0  0  0  0  0  0
  -13.1851   12.1256  -19.5608 O   0  0  0  0  0  0  0  0  0  0  0  0
  -13.0280   11.8910  -21.9326 C   0  0  2  0  0  0  0  0  0  0  0  0
   -5.0190   14.8700  -23.8212 O   0  0  0  0  0  0  0  0  0  0  0  0
  -13.7572    7.6576  -24.8924 N   0  0  0  0  0  0  0  0  0  0  0  0
  -14.7101    8.4703  -24.3254 C   0  0  0  0  0  0  0  0  0  0  0  0
  -14.3179    9.5418  -23.5598 N   0  0  0  0  0  0  0  0  0  0  0  0
  -13.0114    9.8041  -23.3615 C   0  0  0  0  0  0  0  0  0  0  0  0
  -12.0369    9.0006  -23.9231 C   0  0  0  0  0  0  0  0  0  0  0  0
  -12.4231    7.9122  -24.6965 C   0  0  0  0  0  0  0  0  0  0  0  0
  -11.5207    7.1123  -25.2510 N   0  0  0  0  0  0  0  0  0  0  0  0
  -10.8280    9.4881  -23.5650 N   0  0  0  0  0  0  0  0  0  0  0  0
  -11.0245   10.5791  -22.7993 C   0  0  0  0  0  0  0  0  0  0  0  0
  -12.3727   10.7839  -22.6530 N   0  0  0  0  0  0  0  0  0  0  0  0
  2  1  1  6  0  0  0
  2  3  1  0  0  0  0
  2  5  1  0  0  0  0
  3  4  1  0  0  0  0
  3 16  1  0  0  0  0
  5  6  1  0  0  0  0
  6  7  1  0  0  0  0
  7  8  1  0  0  0  0
  9  8  1  6  0  0  0
  9 10  1  0  0  0  0
  9 11  1  0  0  0  0
 10 15  1  0  0  0  0
 11 12  1  1  0  0  0
 11 13  1  0  0  0  0
 13 14  1  1  0  0  0
 13 15  1  0  0  0  0
 15 26  1  6  0  0  0
 17 18  2  0  0  0  0
 17 22  1  0  0  0  0
 18 19  1  0  0  0  0
 19 20  2  0  0  0  0
 20 21  1  0  0  0  0
 20 26  1  0  0  0  0
 21 22  2  0  0  0  0
 21 24  1  0  0  0  0
 22 23  1  0  0  0  0
 24 25  2  0  0  0  0
 25 26  1  0  0  0  0
M  END
>  <CHROM.1>
152.28445111,57.27041335,-175.66668702,-178.50181564,-169.03794949,-178.75966227
-95.16587605,-10.53649903,12.65798672,-22.76961183,-0.69524084,-0.38619280
-2.60543039

>  <Name>
ligand

>  <RI>
0

>  <Rbt.Current_Directory>
/home/itssahil/PROJECTS/Mol_Feturizer/New_Systems/rnas/3E5E

>  <Rbt.Executable>
rbdock ($Id: //depot/dev/client3/rdock/2013.1/src/exe/rbdock.cxx#4 $)

>  <Rbt.Library>
libRbt.so (2013.1, Build901 2013/11/27)

>  <Rbt.Parameter_File>
/export/apps/rDock/src/rDock_2013.1_src/data/scripts/dock_solv.prm

>  <Rbt.Receptor>
prm/pocket_docking_6.prm

>  <SCORE>
-18.9521

>  <SCORE.INTER>
-15.7095

>  <SCORE.INTER.CONST>
1

>  <SCORE.INTER.POLAR>
0

>  <SCORE.INTER.ROT>
7

>  <SCORE.INTER.SOLV>
8.46428

>  <SCORE.INTER.VDW>
-21.5611

>  <SCORE.INTER.norm>
-0.604211

>  <SCORE.INTRA>
-3.24259

>  <SCORE.INTRA.DIHEDRAL>
-7.23179

>  <SCORE.INTRA.DIHEDRAL.0>
10.1225

>  <SCORE.INTRA.POLAR>
0

>  <SCORE.INTRA.POLAR.0>
0

>  <SCORE.INTRA.REPUL>
0

>  <SCORE.INTRA.REPUL.0>
0

>  <SCORE.INTRA.SOLV>
0.268603

>  <SCORE.INTRA.SOLV.lig_0>
-49.9393

>  <SCORE.INTRA.VDW>
0.239004

>  <SCORE.INTRA.VDW.0>
-1.75437

>  <SCORE.INTRA.norm>
-0.124715

>  <SCORE.RESTR>
0

>  <SCORE.RESTR.CAVITY>
0

>  <SCORE.RESTR.norm>
0

>  <SCORE.SYSTEM>
0

>  <SCORE.SYSTEM.CONST>
0

>  <SCORE.SYSTEM.DIHEDRAL>
0

>  <SCORE.SYSTEM.SOLV>
0

>  <SCORE.SYSTEM.norm>
0

>  <SCORE.heavy>
26

>  <SCORE.norm>
-0.728926

>  <RMSD>
9.557

$$$$
ligand
 OpenBabel11021811473D
libRbt.so/2013.1/901 2013/11/27
 26 28  0  0  0  0  0  0  0  0999 V2000
   -4.6840   16.8770  -22.1782 N   0  0  0  0  0  0  0  0  0  0  0  0
   -5.1269   16.6865  -23.5649 C   0  0  2  0  0  0  0  0  0  0  0  0
   -5.3281   18.0297  -24.2155 C   0  0  0  0  0  0  0  0  0  0  0  0
   -5.2877   19.0372  -23.5488 O   0  0  0  0  0  0  0  0  0  0  0  0
   -6.4451   15.9106  -23.5762 C   0  0  0  0  0  0  0  0  0  0  0  0
   -6.2369   14.5414  -22.9317 C   0  0  0  0  0  0  0  0  0  0  0  0
   -7.5071   13.4160  -22.8651 S   0  0  0  0  0  0  0  0  0  0  0  0
   -9.2861   13.4157  -22.5244 C   0  0  0  0  0  0  0  0  0  0  0  0
   -9.7206   14.3409  -21.3812 C   0  0  1  0  0  0  0  0  0  0  0  0
  -11.1229   14.3354  -21.1846 O   0  0  0  0  0  0  0  0  0  0  0  0
   -9.1869   13.8820  -20.0448 C   0  0  1  0  0  0  0  0  0  0  0  0
   -9.1777   15.0407  -19.2400 O   0  0  0  0  0  0  0  0  0  0  0  0
  -10.2363   12.9403  -19.5018 C   0  0  1  0  0  0  0  0  0  0  0  0
  -10.4010   13.1592  -18.1177 O   0  0  0  0  0  0  0  0  0  0  0  0
  -11.4947   13.3573  -20.2318 C   0  0  2  0  0  0  0  0  0  0  0  0
   -5.5552   18.1097  -25.5369 O   0  0  0  0  0  0  0  0  0  0  0  0
  -13.4469    8.5293  -19.9258 N   0  0  0  0  0  0  0  0  0  0  0  0
  -12.7961    9.2444  -18.9484 C   0  0  0  0  0  0  0  0  0  0  0  0
  -12.3390   10.5101  -19.2262 N   0  0  0  0  0  0  0  0  0  0  0  0
  -12.5236   11.0565  -20.4438 C   0  0  0  0  0  0  0  0  0  0  0  0
  -13.1760   10.3555  -21.4405 C   0  0  0  0  0  0  0  0  0  0  0  0
  -13.6394    9.0731  -21.1708 C   0  0  0  0  0  0  0  0  0  0  0  0
  -14.2674    8.3631  -22.0999 N   0  0  0  0  0  0  0  0  0  0  0  0
  -13.2199   11.1327  -22.5456 N   0  0  0  0  0  0  0  0  0  0  0  0
  -12.6166   12.3032  -22.2607 C   0  0  0  0  0  0  0  0  0  0  0  0
  -12.1685   12.2698  -20.9649 N   0  0  0  0  0  0  0  0  0  0  0  0
  2  1  1  1  0  0  0
  2  3  1  0  0  0  0
  2  5  1  0  0  0  0
  3  4  1  0  0  0  0
  3 16  1  0  0  0  0
  5  6  1  0  0  0  0
  6  7  1  0  0  0  0
  7  8  1  0  0  0  0
  9  8  1  6  0  0  0
  9 10  1  0  0  0  0
  9 11  1  0  0  0  0
 10 15  1  0  0  0  0
 11 12  1  1  0  0  0
 11 13  1  0  0  0  0
 13 14  1  1  0  0  0
 13 15  1  0  0  0  0
 15 26  1  6  0  0  0
 17 18  2  0  0  0  0
 17 22  1  0  0  0  0
 18 19  1  0  0  0  0
 19 20  2  0  0  0  0
 20 21  1  0  0  0  0
 20 26  1  0  0  0  0
 21 22  2  0  0  0  0
 21 24  1  0  0  0  0
 22 23  1  0  0  0  0
 24 25  2  0  0  0  0
 25 26  1  0  0  0  0
M  END
>  <CHROM.1>
-9.26400273,-60.74223146,-177.01329162,-41.57928175,-39.60464988,178.11822224
170.78929821,-9.68001564,13.41956535,-21.60166218,-0.16243976,0.78320619
1.38434556

>  <Name>
ligand

>  <RI>
0

>  <Rbt.Current_Directory>
/home/itssahil/PROJECTS/Mol_Feturizer/New_Systems/rnas/3E5E

>  <Rbt.Executable>
rbdock ($Id: //depot/dev/client3/rdock/2013.1/src/exe/rbdock.cxx#4 $)

>  <Rbt.Library>
libRbt.so (2013.1, Build901 2013/11/27)

>  <Rbt.Parameter_File>
/export/apps/rDock/src/rDock_2013.1_src/data/scripts/dock_solv.prm

>  <Rbt.Receptor>
prm/blind_docking_100.prm

>  <SCORE>
-15.4782

>  <SCORE.INTER>
-12.1472

>  <SCORE.INTER.CONST>
1

>  <SCORE.INTER.POLAR>
0

>  <SCORE.INTER.ROT>
7

>  <SCORE.INTER.SOLV>
9.53346

>  <SCORE.INTER.VDW>
-19.5426

>  <SCORE.INTER.norm>
-0.467198

>  <SCORE.INTRA>
-3.33101

>  <SCORE.INTRA.DIHEDRAL>
-6.31512

>  <SCORE.INTRA.DIHEDRAL.0>
10.1225

>  <SCORE.INTRA.POLAR>
0

>  <SCORE.INTRA.POLAR.0>
0

>  <SCORE.INTRA.REPUL>
0

>  <SCORE.INTRA.REPUL.0>
0

>  <SCORE.INTRA.SOLV>
0.230802

>  <SCORE.INTRA.SOLV.lig_0>
-49.9393

>  <SCORE.INTRA.VDW>
-0.28885

>  <SCORE.INTRA.VDW.0>
-1.75437

>  <SCORE.INTRA.norm>
-0.128116

>  <SCORE.RESTR>
0

>  <SCORE.RESTR.CAVITY>
0

>  <SCORE.RESTR.norm>
0

>  <SCORE.SYSTEM>
0

>  <SCORE.SYSTEM.CONST>
0

>  <SCORE.SYSTEM.DIHEDRAL>
0

>  <SCORE.SYSTEM.SOLV>
0

>  <SCORE.SYSTEM.norm>
0

>  <SCORE.heavy>
26

>  <SCORE.norm>
-0.595314

>  <RMSD>
9.569

$$$$
ligand
 OpenBabel11021811473D
libRbt.so/2013.1/901 2013/11/27
 26 28  0  0  0  0  0  0  0  0999 V2000
   -5.7392   15.1873  -22.2544 N   0  0  0  0  0  0  0  0  0  0  0  0
   -6.5090   16.3075  -22.8095 C   0  0  2  0  0  0  0  0  0  0  0  0
   -5.5887   17.4737  -23.0570 C   0  0  0  0  0  0  0  0  0  0  0  0
   -5.6841   18.1138  -24.0779 O   0  0  0  0  0  0  0  0  0  0  0  0
   -7.5983   16.7178  -21.8172 C   0  0  0  0  0  0  0  0  0  0  0  0
   -8.5707   15.5566  -21.6179 C   0  0  0  0  0  0  0  0  0  0  0  0
   -9.4735   14.9524  -22.9232 S   0  0  0  0  0  0  0  0  0  0  0  0
  -10.7160   13.6676  -23.2178 C   0  0  0  0  0  0  0  0  0  0  0  0
  -12.0628   13.9065  -22.5245 C   0  0  1  0  0  0  0  0  0  0  0  0
  -13.0182   12.9108  -22.8418 O   0  0  0  0  0  0  0  0  0  0  0  0
  -11.9534   13.8077  -21.0212 C   0  0  1  0  0  0  0  0  0  0  0  0
  -13.0428   14.5561  -20.5277 O   0  0  0  0  0  0  0  0  0  0  0  0
  -12.1995   12.3516  -20.7013 C   0  0  1  0  0  0  0  0  0  0  0  0
  -13.0007   12.2479  -19.5446 O   0  0  0  0  0  0  0  0  0  0  0  0
  -12.9777   11.8547  -21.9005 C   0  0  2  0  0  0  0  0  0  0  0  0
   -4.6592   17.8022  -22.1449 O   0  0  0  0  0  0  0  0  0  0  0  0
  -13.9129    7.6484  -24.8409 N   0  0  0  0  0  0  0  0  0  0  0  0
  -14.8219    8.5413  -24.3246 C   0  0  0  0  0  0  0  0  0  0  0  0
  -14.3791    9.5900  -23.5550 N   0  0  0  0  0  0  0  0  0  0  0  0
  -13.0654    9.7522  -23.3036 C   0  0  0  0  0  0  0  0  0  0  0  0
  -12.1346    8.8668  -23.8136 C   0  0  0  0  0  0  0  0  0  0  0  0
  -12.5724    7.8007  -24.5905 C   0  0  0  0  0  0  0  0  0  0  0  0
  -11.7133    6.9247  -25.0966 N   0  0  0  0  0  0  0  0  0  0  0  0
  -10.9072    9.2635  -23.4093 N   0  0  0  0  0  0  0  0  0  0  0  0
  -11.0491   10.3776  -22.6651 C   0  0  0  0  0  0  0  0  0  0  0  0
  -12.3820   10.6894  -22.5794 N   0  0  0  0  0  0  0  0  0  0  0  0
  2  1  1  1  0  0  0
  2  3  1  0  0  0  0
  2  5  1  0  0  0  0
  3  4  1  0  0  0  0
  3 16  1  0  0  0  0
  5  6  1  0  0  0  0
  6  7  1  0  0  0  0
  7  8  1  0  0  0  0
  9  8  1  6  0  0  0
  9 10  1  0  0  0  0
  9 11  1  0  0  0  0
 10 15  1  0  0  0  0
 11 12  1  1  0  0  0
 11 13  1  0  0  0  0
 13 14  1  1  0  0  0
 13 15  1  0  0  0  0
 15 26  1  6  0  0  0
 17 18  2  0  0  0  0
 17 22  1  0  0  0  0
 18 19  1  0  0  0  0
 19 20  2  0  0  0  0
 20 21  1  0  0  0  0
 20 26  1  0  0  0  0
 21 22  2  0  0  0  0
 21 24  1  0  0  0  0
 22 23  1  0  0  0  0
 24 25  2  0  0  0  0
 25 26  1  0  0  0  0
M  END
>  <CHROM.1>
137.12266979,-62.77040707,-61.64636225,-179.25601517,66.11840941,176.97847314
-87.97273803,-10.64360450,12.80759373,-22.70573708,-0.76523185,-0.45603439
-2.58431391

>  <Name>
ligand

>  <RI>
0

>  <Rbt.Current_Directory>
/home/itssahil/PROJECTS/Mol_Feturizer/New_Systems/rnas/3E5E

>  <Rbt.Executable>
rbdock ($Id: //depot/dev/client3/rdock/2013.1/src/exe/rbdock.cxx#4 $)

>  <Rbt.Library>
libRbt.so (2013.1, Build901 2013/11/27)

>  <Rbt.Parameter_File>
/export/apps/rDock/src/rDock_2013.1_src/data/scripts/dock_solv.prm

>  <Rbt.Receptor>
prm/blind_docking_60.prm

>  <SCORE>
-20.2455

>  <SCORE.INTER>
-16.2522

>  <SCORE.INTER.CONST>
1

>  <SCORE.INTER.POLAR>
0

>  <SCORE.INTER.ROT>
7

>  <SCORE.INTER.SOLV>
9.0737

>  <SCORE.INTER.VDW>
-22.126

>  <SCORE.INTER.norm>
-0.625083

>  <SCORE.INTRA>
-3.99333

>  <SCORE.INTRA.DIHEDRAL>
-7.41325

>  <SCORE.INTRA.DIHEDRAL.0>
10.1225

>  <SCORE.INTRA.POLAR>
0

>  <SCORE.INTRA.POLAR.0>
0

>  <SCORE.INTRA.REPUL>
0

>  <SCORE.INTRA.REPUL.0>
0

>  <SCORE.INTRA.SOLV>
0.782695

>  <SCORE.INTRA.SOLV.lig_0>
-49.9393

>  <SCORE.INTRA.VDW>
-0.678047

>  <SCORE.INTRA.VDW.0>
-1.75437

>  <SCORE.INTRA.norm>
-0.153589

>  <SCORE.RESTR>
0

>  <SCORE.RESTR.CAVITY>
0

>  <SCORE.RESTR.norm>
0

>  <SCORE.SYSTEM>
0

>  <SCORE.SYSTEM.CONST>
0

>  <SCORE.SYSTEM.DIHEDRAL>
0

>  <SCORE.SYSTEM.SOLV>
0

>  <SCORE.SYSTEM.norm>
0

>  <SCORE.heavy>
26

>  <SCORE.norm>
-0.778672

>  <RMSD>
9.578

$$$$
ligand
 OpenBabel11021811473D
libRbt.so/2013.1/901 2013/11/27
 26 28  0  0  0  0  0  0  0  0999 V2000
   -7.9469   17.0676  -26.4014 N   0  0  0  0  0  0  0  0  0  0  0  0
   -8.3775   16.8330  -25.0175 C   0  0  2  0  0  0  0  0  0  0  0  0
   -8.1820   18.0904  -24.2121 C   0  0  0  0  0  0  0  0  0  0  0  0
   -7.1360   18.6928  -24.2748 O   0  0  0  0  0  0  0  0  0  0  0  0
   -7.5450   15.7025  -24.4102 C   0  0  0  0  0  0  0  0  0  0  0  0
   -7.9889   15.4595  -22.9689 C   0  0  0  0  0  0  0  0  0  0  0  0
   -9.6045   15.0729  -22.6162 S   0  0  0  0  0  0  0  0  0  0  0  0
  -10.8043   13.7868  -23.0495 C   0  0  0  0  0  0  0  0  0  0  0  0
  -12.1901   13.9629  -22.4170 C   0  0  1  0  0  0  0  0  0  0  0  0
  -13.1013   12.9581  -22.8232 O   0  0  0  0  0  0  0  0  0  0  0  0
  -12.1537   13.8035  -20.9154 C   0  0  1  0  0  0  0  0  0  0  0  0
  -13.2862   14.5033  -20.4482 O   0  0  0  0  0  0  0  0  0  0  0  0
  -12.3764   12.3296  -20.6682 C   0  0  1  0  0  0  0  0  0  0  0  0
  -13.2317   12.1574  -19.5594 O   0  0  0  0  0  0  0  0  0  0  0  0
  -13.0798   11.8647  -21.9250 C   0  0  2  0  0  0  0  0  0  0  0  0
   -9.1689   18.5425  -23.4211 O   0  0  0  0  0  0  0  0  0  0  0  0
  -13.7877    7.5848  -24.8226 N   0  0  0  0  0  0  0  0  0  0  0  0
  -14.7447    8.4093  -24.2798 C   0  0  0  0  0  0  0  0  0  0  0  0
  -14.3581    9.4923  -23.5277 N   0  0  0  0  0  0  0  0  0  0  0  0
  -13.0531    9.7544  -23.3190 C   0  0  0  0  0  0  0  0  0  0  0  0
  -12.0747    8.9390  -23.8561 C   0  0  0  0  0  0  0  0  0  0  0  0
  -12.4552    7.8390  -24.6157 C   0  0  0  0  0  0  0  0  0  0  0  0
  -11.5489    7.0276  -25.1466 N   0  0  0  0  0  0  0  0  0  0  0  0
  -10.8685    9.4291  -23.4924 N   0  0  0  0  0  0  0  0  0  0  0  0
  -11.0705   10.5332  -22.7471 C   0  0  0  0  0  0  0  0  0  0  0  0
  -12.4197   10.7440  -22.6195 N   0  0  0  0  0  0  0  0  0  0  0  0
  2  1  1  6  0  0  0
  2  3  1  0  0  0  0
  2  5  1  0  0  0  0
  3  4  1  0  0  0  0
  3 16  1  0  0  0  0
  5  6  1  0  0  0  0
  6  7  1  0  0  0  0
  7  8  1  0  0  0  0
  9  8  1  6  0  0  0
  9 10  1  0  0  0  0
  9 11  1  0  0  0  0
 10 15  1  0  0  0  0
 11 12  1  1  0  0  0
 11 13  1  0  0  0  0
 13 14  1  1  0  0  0
 13 15  1  0  0  0  0
 15 26  1  6  0  0  0
 17 18  2  0  0  0  0
 17 22  1  0  0  0  0
 18 19  1  0  0  0  0
 19 20  2  0  0  0  0
 20 21  1  0  0  0  0
 20 26  1  0  0  0  0
 21 22  2  0  0  0  0
 21 24  1  0  0  0  0
 22 23  1  0  0  0  0
 24 25  2  0  0  0  0
 25 26  1  0  0  0  0
M  END
>  <CHROM.1>
-47.74789763,179.83887043,57.42074912,58.95190250,-179.24998824,177.99022017
-94.08474157,-11.14399016,12.95284465,-23.14907534,-0.78286423,-0.79016754
-2.57851343

>  <Name>
ligand

>  <RI>
0

>  <Rbt.Current_Directory>
/home/itssahil/PROJECTS/Mol_Feturizer/New_Systems/rnas/3E5E

>  <Rbt.Executable>
rbdock ($Id: //depot/dev/client3/rdock/2013.1/src/exe/rbdock.cxx#4 $)

>  <Rbt.Library>
libRbt.so (2013.1, Build901 2013/11/27)

>  <Rbt.Parameter_File>
/export/apps/rDock/src/rDock_2013.1_src/data/scripts/dock_solv.prm

>  <Rbt.Receptor>
prm/pocket_docking_7.prm

>  <SCORE>
-19.555

>  <SCORE.INTER>
-15.1474

>  <SCORE.INTER.CONST>
1

>  <SCORE.INTER.POLAR>
0

>  <SCORE.INTER.ROT>
7

>  <SCORE.INTER.SOLV>
10.466

>  <SCORE.INTER.VDW>
-21.8536

>  <SCORE.INTER.norm>
-0.582591

>  <SCORE.INTRA>
-4.4076

>  <SCORE.INTRA.DIHEDRAL>
-7.50642

>  <SCORE.INTRA.DIHEDRAL.0>
10.1225

>  <SCORE.INTRA.POLAR>
0

>  <SCORE.INTRA.POLAR.0>
0

>  <SCORE.INTRA.REPUL>
0

>  <SCORE.INTRA.REPUL.0>
0

>  <SCORE.INTRA.SOLV>
-0.506406

>  <SCORE.INTRA.SOLV.lig_0>
-49.9393

>  <SCORE.INTRA.VDW>
-0.401187

>  <SCORE.INTRA.VDW.0>
-1.75437

>  <SCORE.INTRA.norm>
-0.169523

>  <SCORE.RESTR>
0

>  <SCORE.RESTR.CAVITY>
0

>  <SCORE.RESTR.norm>
0

>  <SCORE.SYSTEM>
0

>  <SCORE.SYSTEM.CONST>
0

>  <SCORE.SYSTEM.DIHEDRAL>
0

>  <SCORE.SYSTEM.SOLV>
0

>  <SCORE.SYSTEM.norm>
0

>  <SCORE.heavy>
26

>  <SCORE.norm>
-0.752114

>  <RMSD>
9.579

$$$$
ligand
 OpenBabel11021811473D
libRbt.so/2013.1/901 2013/11/27
 26 28  0  0  0  0  0  0  0  0999 V2000
   -5.7728   17.8326  -23.1607 N   0  0  0  0  0  0  0  0  0  0  0  0
   -5.1412   17.0995  -22.0565 C   0  0  2  0  0  0  0  0  0  0  0  0
   -3.7763   16.6282  -22.4843 C   0  0  0  0  0  0  0  0  0  0  0  0
   -3.6699   15.7293  -23.2853 O   0  0  0  0  0  0  0  0  0  0  0  0
   -6.0057   15.8930  -21.6864 C   0  0  0  0  0  0  0  0  0  0  0  0
   -7.3318   16.3756  -21.1016 C   0  0  0  0  0  0  0  0  0  0  0  0
   -8.5879   15.2768  -20.7872 S   0  0  0  0  0  0  0  0  0  0  0  0
   -9.7606   14.2698  -21.7315 C   0  0  0  0  0  0  0  0  0  0  0  0
  -10.9874   13.8014  -20.9394 C   0  0  1  0  0  0  0  0  0  0  0  0
  -11.9547   13.1745  -21.7617 O   0  0  0  0  0  0  0  0  0  0  0  0
  -10.6404   12.7243  -19.9389 C   0  0  1  0  0  0  0  0  0  0  0  0
  -11.6575   12.7930  -18.9637 O   0  0  0  0  0  0  0  0  0  0  0  0
  -10.7954   11.4221  -20.6895 C   0  0  1  0  0  0  0  0  0  0  0  0
  -11.4018   10.4608  -19.8535 O   0  0  0  0  0  0  0  0  0  0  0  0
  -11.7394   11.7769  -21.8180 C   0  0  2  0  0  0  0  0  0  0  0  0
   -2.6755   17.2044  -21.9741 O   0  0  0  0  0  0  0  0  0  0  0  0
  -10.4755    7.9925  -25.1787 N   0  0  0  0  0  0  0  0  0  0  0  0
  -10.9094    7.8637  -23.8806 C   0  0  0  0  0  0  0  0  0  0  0  0
  -11.1829    8.9903  -23.1430 N   0  0  0  0  0  0  0  0  0  0  0  0
  -11.0320   10.2171  -23.6790 C   0  0  0  0  0  0  0  0  0  0  0  0
  -10.5979   10.3692  -24.9825 C   0  0  0  0  0  0  0  0  0  0  0  0
  -10.3153    9.2361  -25.7362 C   0  0  0  0  0  0  0  0  0  0  0  0
   -9.8921    9.3365  -26.9902 N   0  0  0  0  0  0  0  0  0  0  0  0
  -10.5365   11.6915  -25.2566 N   0  0  0  0  0  0  0  0  0  0  0  0
  -10.9274   12.3673  -24.1585 C   0  0  0  0  0  0  0  0  0  0  0  0
  -11.2280   11.4695  -23.1662 N   0  0  0  0  0  0  0  0  0  0  0  0
  2  1  1  6  0  0  0
  2  3  1  0  0  0  0
  2  5  1  0  0  0  0
  3  4  1  0  0  0  0
  3 16  1  0  0  0  0
  5  6  1  0  0  0  0
  6  7  1  0  0  0  0
  7  8  1  0  0  0  0
  9  8  1  6  0  0  0
  9 10  1  0  0  0  0
  9 11  1  0  0  0  0
 10 15  1  0  0  0  0
 11 12  1  1  0  0  0
 11 13  1  0  0  0  0
 13 14  1  1  0  0  0
 13 15  1  0  0  0  0
 15 26  1  6  0  0  0
 17 18  2  0  0  0  0
 17 22  1  0  0  0  0
 18 19  1  0  0  0  0
 19 20  2  0  0  0  0
 20 21  1  0  0  0  0
 20 26  1  0  0  0  0
 21 22  2  0  0  0  0
 21 24  1  0  0  0  0
 22 23  1  0  0  0  0
 24 25  2  0  0  0  0
 25 26  1  0  0  0  0
M  END
>  <CHROM.1>
-71.74677239,-66.49840790,171.78361109,-70.72388288,-160.64508499,172.07896812
-172.35987345,-9.11680759,12.96439363,-22.47492271,-0.64787883,-0.60440215
-2.26820584

>  <Name>
ligand

>  <RI>
0

>  <Rbt.Current_Directory>
/home/itssahil/PROJECTS/Mol_Feturizer/New_Systems/rnas/3E5E

>  <Rbt.Executable>
rbdock ($Id: //depot/dev/client3/rdock/2013.1/src/exe/rbdock.cxx#4 $)

>  <Rbt.Library>
libRbt.so (2013.1, Build901 2013/11/27)

>  <Rbt.Parameter_File>
/export/apps/rDock/src/rDock_2013.1_src/data/scripts/dock_solv.prm

>  <Rbt.Receptor>
prm/blind_docking_40.prm

>  <SCORE>
-17.7732

>  <SCORE.INTER>
-14.7704

>  <SCORE.INTER.CONST>
1

>  <SCORE.INTER.POLAR>
0

>  <SCORE.INTER.ROT>
7

>  <SCORE.INTER.SOLV>
8.2482

>  <SCORE.INTER.VDW>
-20.863

>  <SCORE.INTER.norm>
-0.568093

>  <SCORE.INTRA>
-3.00854

>  <SCORE.INTRA.DIHEDRAL>
-6.01896

>  <SCORE.INTRA.DIHEDRAL.0>
10.1225

>  <SCORE.INTRA.POLAR>
0

>  <SCORE.INTRA.POLAR.0>
0

>  <SCORE.INTRA.REPUL>
0

>  <SCORE.INTRA.REPUL.0>
0

>  <SCORE.INTRA.SOLV>
0.123736

>  <SCORE.INTRA.SOLV.lig_0>
-49.9393

>  <SCORE.INTRA.VDW>
-0.0609224

>  <SCORE.INTRA.VDW.0>
-1.75437

>  <SCORE.INTRA.norm>
-0.115713

>  <SCORE.RESTR>
0.00574854

>  <SCORE.RESTR.CAVITY>
0.00574854

>  <SCORE.RESTR.norm>
0.000221098

>  <SCORE.SYSTEM>
0

>  <SCORE.SYSTEM.CONST>
0

>  <SCORE.SYSTEM.DIHEDRAL>
0

>  <SCORE.SYSTEM.SOLV>
0

>  <SCORE.SYSTEM.norm>
0

>  <SCORE.heavy>
26

>  <SCORE.norm>
-0.683585

>  <RMSD>
9.597

$$$$
ligand
 OpenBabel11021811473D
libRbt.so/2013.1/901 2013/11/27
 26 28  0  0  0  0  0  0  0  0999 V2000
   -5.3979   16.9140  -25.0718 N   0  0  0  0  0  0  0  0  0  0  0  0
   -6.3669   17.6141  -24.2195 C   0  0  2  0  0  0  0  0  0  0  0  0
   -5.6379   18.5736  -23.3161 C   0  0  0  0  0  0  0  0  0  0  0  0
   -4.5108   18.3275  -22.9553 O   0  0  0  0  0  0  0  0  0  0  0  0
   -7.1299   16.5943  -23.3725 C   0  0  0  0  0  0  0  0  0  0  0  0
   -7.9474   15.6823  -24.2854 C   0  0  0  0  0  0  0  0  0  0  0  0
   -8.8025   14.3617  -23.6458 S   0  0  0  0  0  0  0  0  0  0  0  0
   -8.9771   13.5180  -22.0525 C   0  0  0  0  0  0  0  0  0  0  0  0
   -9.5576   14.3841  -20.9280 C   0  0  1  0  0  0  0  0  0  0  0  0
  -10.9692   14.4764  -20.9907 O   0  0  0  0  0  0  0  0  0  0  0  0
   -9.3153   13.7818  -19.5642 C   0  0  1  0  0  0  0  0  0  0  0  0
   -9.3823   14.8704  -18.6692 O   0  0  0  0  0  0  0  0  0  0  0  0
  -10.5069   12.8886  -19.3086 C   0  0  1  0  0  0  0  0  0  0  0  0
  -10.9141   13.0124  -17.9634 O   0  0  0  0  0  0  0  0  0  0  0  0
  -11.5760   13.4608  -20.2142 C   0  0  2  0  0  0  0  0  0  0  0  0
   -6.2402   19.7026  -22.9082 O   0  0  0  0  0  0  0  0  0  0  0  0
  -13.5845    8.6771  -20.7582 N   0  0  0  0  0  0  0  0  0  0  0  0
  -13.0448    9.2469  -19.6294 C   0  0  0  0  0  0  0  0  0  0  0  0
  -12.5500   10.5274  -19.6875 N   0  0  0  0  0  0  0  0  0  0  0  0
  -12.5902   11.2291  -20.8370 C   0  0  0  0  0  0  0  0  0  0  0  0
  -13.1293   10.6757  -21.9832 C   0  0  0  0  0  0  0  0  0  0  0  0
  -13.6295    9.3798  -21.9359 C   0  0  0  0  0  0  0  0  0  0  0  0
  -14.1522    8.8084  -23.0139 N   0  0  0  0  0  0  0  0  0  0  0  0
  -13.0410   11.5888  -22.9760 N   0  0  0  0  0  0  0  0  0  0  0  0
  -12.4659   12.6998  -22.4758 C   0  0  0  0  0  0  0  0  0  0  0  0
  -12.1692   12.4911  -21.1531 N   0  0  0  0  0  0  0  0  0  0  0  0
  2  1  1  6  0  0  0
  2  3  1  0  0  0  0
  2  5  1  0  0  0  0
  3  4  1  0  0  0  0
  3 16  1  0  0  0  0
  5  6  1  0  0  0  0
  6  7  1  0  0  0  0
  7  8  1  0  0  0  0
  9  8  1  6  0  0  0
  9 10  1  0  0  0  0
  9 11  1  0  0  0  0
 10 15  1  0  0  0  0
 11 12  1  1  0  0  0
 11 13  1  0  0  0  0
 13 14  1  1  0  0  0
 13 15  1  0  0  0  0
 15 26  1  6  0  0  0
 17 18  2  0  0  0  0
 17 22  1  0  0  0  0
 18 19  1  0  0  0  0
 19 20  2  0  0  0  0
 20 21  1  0  0  0  0
 20 26  1  0  0  0  0
 21 22  2  0  0  0  0
 21 24  1  0  0  0  0
 22 23  1  0  0  0  0
 24 25  2  0  0  0  0
 25 26  1  0  0  0  0
M  END
>  <CHROM.1>
-30.17671943,-64.00156120,174.84080017,-6.55945020,62.31582840,80.88628575
164.87783846,-9.98483330,13.73967842,-21.76794721,0.15172641,-0.83303977
-1.70101962

>  <Name>
ligand

>  <RI>
0

>  <Rbt.Current_Directory>
/home/itssahil/PROJECTS/Mol_Feturizer/New_Systems/rnas/3E5E

>  <Rbt.Executable>
rbdock ($Id: //depot/dev/client3/rdock/2013.1/src/exe/rbdock.cxx#4 $)

>  <Rbt.Library>
libRbt.so (2013.1, Build901 2013/11/27)

>  <Rbt.Parameter_File>
/export/apps/rDock/src/rDock_2013.1_src/data/scripts/dock_solv.prm

>  <Rbt.Receptor>
prm/blind_docking_100.prm

>  <SCORE>
-12.7561

>  <SCORE.INTER>
-10.4351

>  <SCORE.INTER.CONST>
1

>  <SCORE.INTER.POLAR>
0

>  <SCORE.INTER.ROT>
7

>  <SCORE.INTER.SOLV>
11.8698

>  <SCORE.INTER.VDW>
-19.18

>  <SCORE.INTER.norm>
-0.401348

>  <SCORE.INTRA>
-2.32105

>  <SCORE.INTRA.DIHEDRAL>
-3.5987

>  <SCORE.INTRA.DIHEDRAL.0>
10.1225

>  <SCORE.INTRA.POLAR>
0

>  <SCORE.INTRA.POLAR.0>
0

>  <SCORE.INTRA.REPUL>
0

>  <SCORE.INTRA.REPUL.0>
0

>  <SCORE.INTRA.SOLV>
0.177846

>  <SCORE.INTRA.SOLV.lig_0>
-49.9393

>  <SCORE.INTRA.VDW>
-0.610629

>  <SCORE.INTRA.VDW.0>
-1.75437

>  <SCORE.INTRA.norm>
-0.0892713

>  <SCORE.RESTR>
0

>  <SCORE.RESTR.CAVITY>
0

>  <SCORE.RESTR.norm>
0

>  <SCORE.SYSTEM>
0

>  <SCORE.SYSTEM.CONST>
0

>  <SCORE.SYSTEM.DIHEDRAL>
0

>  <SCORE.SYSTEM.SOLV>
0

>  <SCORE.SYSTEM.norm>
0

>  <SCORE.heavy>
26

>  <SCORE.norm>
-0.49062

>  <RMSD>
9.603

$$$$
ligand
 OpenBabel11021811473D
libRbt.so/2013.1/901 2013/11/27
 26 28  0  0  0  0  0  0  0  0999 V2000
   -5.7624   16.5234  -22.9611 N   0  0  0  0  0  0  0  0  0  0  0  0
   -5.3656   15.1210  -22.7843 C   0  0  2  0  0  0  0  0  0  0  0  0
   -3.9794   15.0627  -22.1984 C   0  0  0  0  0  0  0  0  0  0  0  0
   -3.7216   14.2595  -21.3327 O   0  0  0  0  0  0  0  0  0  0  0  0
   -5.3772   14.4140  -24.1407 C   0  0  0  0  0  0  0  0  0  0  0  0
   -5.2465   12.9064  -23.9314 C   0  0  0  0  0  0  0  0  0  0  0  0
   -6.5360   12.0088  -23.2868 S   0  0  0  0  0  0  0  0  0  0  0  0
   -8.2705   11.6715  -23.6852 C   0  0  0  0  0  0  0  0  0  0  0  0
   -9.2012   12.8856  -23.5786 C   0  0  1  0  0  0  0  0  0  0  0  0
  -10.4800   12.6367  -24.1332 O   0  0  0  0  0  0  0  0  0  0  0  0
   -9.5143   13.2372  -22.1434 C   0  0  1  0  0  0  0  0  0  0  0  0
   -9.8751   14.6007  -22.1738 O   0  0  0  0  0  0  0  0  0  0  0  0
  -10.7455   12.4323  -21.7982 C   0  0  1  0  0  0  0  0  0  0  0  0
  -11.6261   13.2183  -21.0253 O   0  0  0  0  0  0  0  0  0  0  0  0
  -11.3717   12.1515  -23.1472 C   0  0  2  0  0  0  0  0  0  0  0  0
   -3.0288   15.9050  -22.6352 O   0  0  0  0  0  0  0  0  0  0  0  0
  -14.9309    8.3548  -23.5091 N   0  0  0  0  0  0  0  0  0  0  0  0
  -15.1224    9.6639  -23.1354 C   0  0  0  0  0  0  0  0  0  0  0  0
  -14.0478   10.5189  -23.0879 N   0  0  0  0  0  0  0  0  0  0  0  0
  -12.8113   10.0880  -23.4051 C   0  0  0  0  0  0  0  0  0  0  0  0
  -12.5966    8.7763  -23.7843 C   0  0  0  0  0  0  0  0  0  0  0  0
  -13.6764    7.9024  -23.8324 C   0  0  0  0  0  0  0  0  0  0  0  0
  -13.5146    6.6337  -24.1872 N   0  0  0  0  0  0  0  0  0  0  0  0
  -11.2788    8.6204  -24.0421 N   0  0  0  0  0  0  0  0  0  0  0  0
  -10.6677    9.8038  -23.8391 C   0  0  0  0  0  0  0  0  0  0  0  0
  -11.6007   10.7232  -23.4327 N   0  0  0  0  0  0  0  0  0  0  0  0
  2  1  1  6  0  0  0
  2  3  1  0  0  0  0
  2  5  1  0  0  0  0
  3  4  1  0  0  0  0
  3 16  1  0  0  0  0
  5  6  1  0  0  0  0
  6  7  1  0  0  0  0
  7  8  1  0  0  0  0
  9  8  1  1  0  0  0
  9 10  1  0  0  0  0
  9 11  1  0  0  0  0
 10 15  1  0  0  0  0
 11 12  1  6  0  0  0
 11 13  1  0  0  0  0
 13 14  1  1  0  0  0
 13 15  1  0  0  0  0
 15 26  1  6  0  0  0
 17 18  2  0  0  0  0
 17 22  1  0  0  0  0
 18 19  1  0  0  0  0
 19 20  2  0  0  0  0
 20 21  1  0  0  0  0
 20 26  1  0  0  0  0
 21 22  2  0  0  0  0
 21 24  1  0  0  0  0
 22 23  1  0  0  0  0
 24 25  2  0  0  0  0
 25 26  1  0  0  0  0
M  END
>  <CHROM.1>
138.57438124,-168.54930149,71.57935413,58.02182720,-66.61030801,168.97860310
-136.08363567,-9.37573517,12.02839367,-23.10651571,0.56482669,0.15697034
0.37867931

>  <Name>
ligand

>  <RI>
0

>  <Rbt.Current_Directory>
/home/itssahil/PROJECTS/Mol_Feturizer/New_Systems/rnas/3E5E

>  <Rbt.Executable>
rbdock ($Id: //depot/dev/client3/rdock/2013.1/src/exe/rbdock.cxx#4 $)

>  <Rbt.Library>
libRbt.so (2013.1, Build901 2013/11/27)

>  <Rbt.Parameter_File>
/export/apps/rDock/src/rDock_2013.1_src/data/scripts/dock_solv.prm

>  <Rbt.Receptor>
prm/blind_docking_40.prm

>  <SCORE>
-18.9918

>  <SCORE.INTER>
-14.9875

>  <SCORE.INTER.CONST>
1

>  <SCORE.INTER.POLAR>
0

>  <SCORE.INTER.ROT>
7

>  <SCORE.INTER.SOLV>
5.23104

>  <SCORE.INTER.VDW>
-20.002

>  <SCORE.INTER.norm>
-0.576442

>  <SCORE.INTRA>
-4.0043

>  <SCORE.INTRA.DIHEDRAL>
-5.85069

>  <SCORE.INTRA.DIHEDRAL.0>
10.1225

>  <SCORE.INTRA.POLAR>
0

>  <SCORE.INTRA.POLAR.0>
0

>  <SCORE.INTRA.REPUL>
0

>  <SCORE.INTRA.REPUL.0>
0

>  <SCORE.INTRA.SOLV>
-0.51178

>  <SCORE.INTRA.SOLV.lig_0>
-49.9393

>  <SCORE.INTRA.VDW>
-0.823068

>  <SCORE.INTRA.VDW.0>
-1.75437

>  <SCORE.INTRA.norm>
-0.154012

>  <SCORE.RESTR>
0

>  <SCORE.RESTR.CAVITY>
0

>  <SCORE.RESTR.norm>
0

>  <SCORE.SYSTEM>
0

>  <SCORE.SYSTEM.CONST>
0

>  <SCORE.SYSTEM.DIHEDRAL>
0

>  <SCORE.SYSTEM.SOLV>
0

>  <SCORE.SYSTEM.norm>
0

>  <SCORE.heavy>
26

>  <SCORE.norm>
-0.730454

>  <RMSD>
9.607

$$$$
ligand
 OpenBabel11021811473D
libRbt.so/2013.1/901 2013/11/27
 26 28  0  0  0  0  0  0  0  0999 V2000
   -5.1790   17.4415  -22.2859 N   0  0  0  0  0  0  0  0  0  0  0  0
   -6.2503   17.0786  -23.2220 C   0  0  2  0  0  0  0  0  0  0  0  0
   -5.9284   17.6253  -24.5879 C   0  0  0  0  0  0  0  0  0  0  0  0
   -5.9462   16.8957  -25.5514 O   0  0  0  0  0  0  0  0  0  0  0  0
   -7.5743   17.6692  -22.7342 C   0  0  0  0  0  0  0  0  0  0  0  0
   -8.7253   17.0859  -23.5517 C   0  0  0  0  0  0  0  0  0  0  0  0
   -9.0955   15.4309  -23.4636 S   0  0  0  0  0  0  0  0  0  0  0  0
   -9.8251   14.2783  -22.2718 C   0  0  0  0  0  0  0  0  0  0  0  0
  -11.3578   14.2922  -22.2214 C   0  0  1  0  0  0  0  0  0  0  0  0
  -11.9426   13.9247  -23.4575 O   0  0  0  0  0  0  0  0  0  0  0  0
  -11.9041   13.2588  -21.2648 C   0  0  1  0  0  0  0  0  0  0  0  0
  -13.1854   13.7321  -20.9118 O   0  0  0  0  0  0  0  0  0  0  0  0
  -12.0767   12.0060  -22.0918 C   0  0  1  0  0  0  0  0  0  0  0  0
  -13.2821   11.3643  -21.7367 O   0  0  0  0  0  0  0  0  0  0  0  0
  -12.1825   12.5309  -23.5074 C   0  0  2  0  0  0  0  0  0  0  0  0
   -5.6186   18.9237  -24.7367 O   0  0  0  0  0  0  0  0  0  0  0  0
   -9.9156    8.1521  -25.2108 N   0  0  0  0  0  0  0  0  0  0  0  0
  -10.8234    8.2946  -24.1882 C   0  0  0  0  0  0  0  0  0  0  0  0
  -11.3021    9.5444  -23.8768 N   0  0  0  0  0  0  0  0  0  0  0  0
  -10.8926   10.6288  -24.5635 C   0  0  0  0  0  0  0  0  0  0  0  0
   -9.9813   10.5079  -25.5957 C   0  0  0  0  0  0  0  0  0  0  0  0
   -9.4884    9.2486  -25.9166 C   0  0  0  0  0  0  0  0  0  0  0  0
   -8.6091    9.0876  -26.8977 N   0  0  0  0  0  0  0  0  0  0  0  0
   -9.7505   11.7395  -26.1031 N   0  0  0  0  0  0  0  0  0  0  0  0
  -10.4999   12.6242  -25.4169 C   0  0  0  0  0  0  0  0  0  0  0  0
  -11.2064   11.9549  -24.4505 N   0  0  0  0  0  0  0  0  0  0  0  0
  2  1  1  1  0  0  0
  2  3  1  0  0  0  0
  2  5  1  0  0  0  0
  3  4  1  0  0  0  0
  3 16  1  0  0  0  0
  5  6  1  0  0  0  0
  6  7  1  0  0  0  0
  7  8  1  0  0  0  0
  9  8  1  6  0  0  0
  9 10  1  0  0  0  0
  9 11  1  0  0  0  0
 10 15  1  0  0  0  0
 11 12  1  6  0  0  0
 11 13  1  0  0  0  0
 13 14  1  1  0  0  0
 13 15  1  0  0  0  0
 15 26  1  6  0  0  0
 17 18  2  0  0  0  0
 17 22  1  0  0  0  0
 18 19  1  0  0  0  0
 19 20  2  0  0  0  0
 20 21  1  0  0  0  0
 20 26  1  0  0  0  0
 21 22  2  0  0  0  0
 21 24  1  0  0  0  0
 22 23  1  0  0  0  0
 24 25  2  0  0  0  0
 25 26  1  0  0  0  0
M  END
>  <CHROM.1>
127.91922438,-169.60752255,65.15538940,71.50453289,80.57458083,61.33760162
164.30357485,-9.68065311,13.48017137,-23.78566805,-0.87446802,-0.60050868
-2.64222299

>  <Name>
ligand

>  <RI>
0

>  <Rbt.Current_Directory>
/home/itssahil/PROJECTS/Mol_Feturizer/New_Systems/rnas/3E5E

>  <Rbt.Executable>
rbdock ($Id: //depot/dev/client3/rdock/2013.1/src/exe/rbdock.cxx#4 $)

>  <Rbt.Library>
libRbt.so (2013.1, Build901 2013/11/27)

>  <Rbt.Parameter_File>
/export/apps/rDock/src/rDock_2013.1_src/data/scripts/dock_solv.prm

>  <Rbt.Receptor>
prm/pocket_docking_8.prm

>  <SCORE>
-18.3794

>  <SCORE.INTER>
-14.0598

>  <SCORE.INTER.CONST>
1

>  <SCORE.INTER.POLAR>
0

>  <SCORE.INTER.ROT>
7

>  <SCORE.INTER.SOLV>
9.48787

>  <SCORE.INTER.VDW>
-20.8025

>  <SCORE.INTER.norm>
-0.540762

>  <SCORE.INTRA>
-4.3196

>  <SCORE.INTRA.DIHEDRAL>
-6.14679

>  <SCORE.INTRA.DIHEDRAL.0>
10.1225

>  <SCORE.INTRA.POLAR>
0

>  <SCORE.INTRA.POLAR.0>
0

>  <SCORE.INTRA.REPUL>
0

>  <SCORE.INTRA.REPUL.0>
0

>  <SCORE.INTRA.SOLV>
-0.371971

>  <SCORE.INTRA.SOLV.lig_0>
-49.9393

>  <SCORE.INTRA.VDW>
-1.06022

>  <SCORE.INTRA.VDW.0>
-1.75437

>  <SCORE.INTRA.norm>
-0.166138

>  <SCORE.RESTR>
0

>  <SCORE.RESTR.CAVITY>
0

>  <SCORE.RESTR.norm>
0

>  <SCORE.SYSTEM>
0

>  <SCORE.SYSTEM.CONST>
0

>  <SCORE.SYSTEM.DIHEDRAL>
0

>  <SCORE.SYSTEM.SOLV>
0

>  <SCORE.SYSTEM.norm>
0

>  <SCORE.heavy>
26

>  <SCORE.norm>
-0.7069

>  <RMSD>
9.609

$$$$
ligand
 OpenBabel11021811473D
libRbt.so/2013.1/901 2013/11/27
 26 28  0  0  0  0  0  0  0  0999 V2000
   -2.9834   11.0418  -28.0394 N   0  0  0  0  0  0  0  0  0  0  0  0
   -2.5869   11.7971  -26.8445 C   0  0  2  0  0  0  0  0  0  0  0  0
   -1.6517   10.9610  -26.0110 C   0  0  0  0  0  0  0  0  0  0  0  0
   -1.8386    9.7720  -25.9005 O   0  0  0  0  0  0  0  0  0  0  0  0
   -3.8312   12.1429  -26.0249 C   0  0  0  0  0  0  0  0  0  0  0  0
   -3.4678   13.1697  -24.9539 C   0  0  0  0  0  0  0  0  0  0  0  0
   -4.5728   13.5659  -23.7267 S   0  0  0  0  0  0  0  0  0  0  0  0
   -6.2729   14.1769  -23.5948 C   0  0  0  0  0  0  0  0  0  0  0  0
   -6.4327   15.6844  -23.8263 C   0  0  1  0  0  0  0  0  0  0  0  0
   -7.7867   16.0967  -23.7877 O   0  0  0  0  0  0  0  0  0  0  0  0
   -5.7965   16.4989  -22.7248 C   0  0  1  0  0  0  0  0  0  0  0  0
   -5.5330   17.7561  -23.3085 O   0  0  0  0  0  0  0  0  0  0  0  0
   -6.8814   16.6794  -21.6888 C   0  0  1  0  0  0  0  0  0  0  0  0
   -6.8372   17.9939  -21.1781 O   0  0  0  0  0  0  0  0  0  0  0  0
   -8.1578   16.4877  -22.4791 C   0  0  2  0  0  0  0  0  0  0  0  0
   -0.6105   11.5362  -25.3873 O   0  0  0  0  0  0  0  0  0  0  0  0
   -9.5155   13.7006  -18.2836 N   0  0  0  0  0  0  0  0  0  0  0  0
   -8.5036   14.6244  -18.3969 C   0  0  0  0  0  0  0  0  0  0  0  0
   -8.2910   15.2518  -19.6007 N   0  0  0  0  0  0  0  0  0  0  0  0
   -9.0640   14.9724  -20.6682 C   0  0  0  0  0  0  0  0  0  0  0  0
  -10.0873   14.0478  -20.5759 C   0  0  0  0  0  0  0  0  0  0  0  0
  -10.3087   13.4050  -19.3636 C   0  0  0  0  0  0  0  0  0  0  0  0
  -11.2775   12.5075  -19.2319 N   0  0  0  0  0  0  0  0  0  0  0  0
  -10.6925   13.9645  -21.7818 N   0  0  0  0  0  0  0  0  0  0  0  0
  -10.0760   14.8186  -22.6217 C   0  0  0  0  0  0  0  0  0  0  0  0
   -9.0561   15.4444  -21.9515 N   0  0  0  0  0  0  0  0  0  0  0  0
  2  1  1  6  0  0  0
  2  3  1  0  0  0  0
  2  5  1  0  0  0  0
  3  4  1  0  0  0  0
  3 16  1  0  0  0  0
  5  6  1  0  0  0  0
  6  7  1  0  0  0  0
  7  8  1  0  0  0  0
  9  8  1  1  0  0  0
  9 10  1  0  0  0  0
  9 11  1  0  0  0  0
 10 15  1  0  0  0  0
 11 12  1  6  0  0  0
 11 13  1  0  0  0  0
 13 14  1  6  0  0  0
 13 15  1  0  0  0  0
 15 26  1  1  0  0  0
 17 18  2  0  0  0  0
 17 22  1  0  0  0  0
 18 19  1  0  0  0  0
 19 20  2  0  0  0  0
 20 21  1  0  0  0  0
 20 26  1  0  0  0  0
 21 22  2  0  0  0  0
 21 24  1  0  0  0  0
 22 23  1  0  0  0  0
 24 25  2  0  0  0  0
 25 26  1  0  0  0  0
M  END
>  <CHROM.1>
-38.38308060,-168.02949554,-170.06577187,-55.98321317,-78.39792840,176.62069759
140.85208130,-6.42074794,14.13606325,-22.88213342,0.34285786,-0.68588290
3.13898374

>  <Name>
ligand

>  <RI>
0

>  <Rbt.Current_Directory>
/home/itssahil/PROJECTS/Mol_Feturizer/New_Systems/rnas/3E5E

>  <Rbt.Executable>
rbdock ($Id: //depot/dev/client3/rdock/2013.1/src/exe/rbdock.cxx#4 $)

>  <Rbt.Library>
libRbt.so (2013.1, Build901 2013/11/27)

>  <Rbt.Parameter_File>
/export/apps/rDock/src/rDock_2013.1_src/data/scripts/dock_solv.prm

>  <Rbt.Receptor>
prm/blind_docking_60.prm

>  <SCORE>
-18.0906

>  <SCORE.INTER>
-14.4377

>  <SCORE.INTER.CONST>
1

>  <SCORE.INTER.POLAR>
0

>  <SCORE.INTER.ROT>
7

>  <SCORE.INTER.SOLV>
11.4501

>  <SCORE.INTER.VDW>
-21.7085

>  <SCORE.INTER.norm>
-0.555297

>  <SCORE.INTRA>
-3.65289

>  <SCORE.INTRA.DIHEDRAL>
-6.03322

>  <SCORE.INTRA.DIHEDRAL.0>
10.1225

>  <SCORE.INTRA.POLAR>
0

>  <SCORE.INTRA.POLAR.0>
0

>  <SCORE.INTRA.REPUL>
0

>  <SCORE.INTRA.REPUL.0>
0

>  <SCORE.INTRA.SOLV>
-0.573987

>  <SCORE.INTRA.SOLV.lig_0>
-49.9393

>  <SCORE.INTRA.VDW>
-0.349289

>  <SCORE.INTRA.VDW.0>
-1.75437

>  <SCORE.INTRA.norm>
-0.140496

>  <SCORE.RESTR>
0

>  <SCORE.RESTR.CAVITY>
0

>  <SCORE.RESTR.norm>
0

>  <SCORE.SYSTEM>
0

>  <SCORE.SYSTEM.CONST>
0

>  <SCORE.SYSTEM.DIHEDRAL>
0

>  <SCORE.SYSTEM.SOLV>
0

>  <SCORE.SYSTEM.norm>
0

>  <SCORE.heavy>
26

>  <SCORE.norm>
-0.695793

>  <RMSD>
9.614

$$$$
ligand
 OpenBabel11021811473D
libRbt.so/2013.1/901 2013/11/27
 26 28  0  0  0  0  0  0  0  0999 V2000
   -5.3159   17.5844  -22.6893 N   0  0  0  0  0  0  0  0  0  0  0  0
   -5.9650   17.1530  -23.9335 C   0  0  2  0  0  0  0  0  0  0  0  0
   -5.7836   18.2139  -24.9870 C   0  0  0  0  0  0  0  0  0  0  0  0
   -5.8359   19.3829  -24.6840 O   0  0  0  0  0  0  0  0  0  0  0  0
   -7.4576   16.9348  -23.6797 C   0  0  0  0  0  0  0  0  0  0  0  0
   -7.6470   15.7443  -22.7415 C   0  0  0  0  0  0  0  0  0  0  0  0
   -9.2033   15.2578  -22.2668 S   0  0  0  0  0  0  0  0  0  0  0  0
   -9.9583   13.9269  -21.2973 C   0  0  0  0  0  0  0  0  0  0  0  0
  -11.4855   14.0041  -21.1818 C   0  0  1  0  0  0  0  0  0  0  0  0
  -12.1275   13.9273  -22.4415 O   0  0  0  0  0  0  0  0  0  0  0  0
  -12.0591   12.8238  -20.4339 C   0  0  1  0  0  0  0  0  0  0  0  0
  -13.3006   13.2757  -19.9391 O   0  0  0  0  0  0  0  0  0  0  0  0
  -12.3265   11.7776  -21.4908 C   0  0  1  0  0  0  0  0  0  0  0  0
  -13.5543   11.1355  -21.2243 O   0  0  0  0  0  0  0  0  0  0  0  0
  -12.4461   12.5867  -22.7642 C   0  0  2  0  0  0  0  0  0  0  0  0
   -5.5661   17.8623  -26.2649 O   0  0  0  0  0  0  0  0  0  0  0  0
  -10.1420    8.5489  -25.1309 N   0  0  0  0  0  0  0  0  0  0  0  0
  -10.9602    8.5301  -24.0262 C   0  0  0  0  0  0  0  0  0  0  0  0
  -11.4659    9.7107  -23.5379 N   0  0  0  0  0  0  0  0  0  0  0  0
  -11.1699   10.8836  -24.1310 C   0  0  0  0  0  0  0  0  0  0  0  0
  -10.3501   10.9251  -25.2431 C   0  0  0  0  0  0  0  0  0  0  0  0
   -9.8306    9.7368  -25.7431 C   0  0  0  0  0  0  0  0  0  0  0  0
   -9.0362    9.7312  -26.8063 N   0  0  0  0  0  0  0  0  0  0  0  0
  -10.2226   12.2149  -25.6271 N   0  0  0  0  0  0  0  0  0  0  0  0
  -10.9474   12.9779  -24.7858 C   0  0  0  0  0  0  0  0  0  0  0  0
  -11.5330   12.1704  -23.8445 N   0  0  0  0  0  0  0  0  0  0  0  0
  2  1  1  1  0  0  0
  2  3  1  0  0  0  0
  2  5  1  0  0  0  0
  3  4  1  0  0  0  0
  3 16  1  0  0  0  0
  5  6  1  0  0  0  0
  6  7  1  0  0  0  0
  7  8  1  0  0  0  0
  9  8  1  6  0  0  0
  9 10  1  0  0  0  0
  9 11  1  0  0  0  0
 10 15  1  0  0  0  0
 11 12  1  6  0  0  0
 11 13  1  0  0  0  0
 13 14  1  1  0  0  0
 13 15  1  0  0  0  0
 15 26  1  6  0  0  0
 17 18  2  0  0  0  0
 17 22  1  0  0  0  0
 18 19  1  0  0  0  0
 19 20  2  0  0  0  0
 20 21  1  0  0  0  0
 20 26  1  0  0  0  0
 21 22  2  0  0  0  0
 21 24  1  0  0  0  0
 22 23  1  0  0  0  0
 24 25  2  0  0  0  0
 25 26  1  0  0  0  0
M  END
>  <CHROM.1>
-37.92718228,-66.96303606,179.74690598,175.80386956,179.17586788,60.99077166
155.71442345,-9.79645481,13.52881356,-23.39915138,0.59516448,0.73401355,0.64055479

>  <Name>
ligand

>  <RI>
0

>  <Rbt.Current_Directory>
/home/itssahil/PROJECTS/Mol_Feturizer/New_Systems/rnas/3E5E

>  <Rbt.Executable>
rbdock ($Id: //depot/dev/client3/rdock/2013.1/src/exe/rbdock.cxx#4 $)

>  <Rbt.Library>
libRbt.so (2013.1, Build901 2013/11/27)

>  <Rbt.Parameter_File>
/export/apps/rDock/src/rDock_2013.1_src/data/scripts/dock_solv.prm

>  <Rbt.Receptor>
prm/pocket_docking_7.prm

>  <SCORE>
-18.4525

>  <SCORE.INTER>
-14.2034

>  <SCORE.INTER.CONST>
1

>  <SCORE.INTER.POLAR>
0

>  <SCORE.INTER.ROT>
7

>  <SCORE.INTER.SOLV>
7.60827

>  <SCORE.INTER.VDW>
-20.2717

>  <SCORE.INTER.norm>
-0.546285

>  <SCORE.INTRA>
-4.24909

>  <SCORE.INTRA.DIHEDRAL>
-7.32225

>  <SCORE.INTRA.DIHEDRAL.0>
10.1225

>  <SCORE.INTRA.POLAR>
0

>  <SCORE.INTRA.POLAR.0>
0

>  <SCORE.INTRA.REPUL>
0

>  <SCORE.INTRA.REPUL.0>
0

>  <SCORE.INTRA.SOLV>
0.163288

>  <SCORE.INTRA.SOLV.lig_0>
-49.9393

>  <SCORE.INTRA.VDW>
-0.669606

>  <SCORE.INTRA.VDW.0>
-1.75437

>  <SCORE.INTRA.norm>
-0.163426

>  <SCORE.RESTR>
0

>  <SCORE.RESTR.CAVITY>
0

>  <SCORE.RESTR.norm>
0

>  <SCORE.SYSTEM>
0

>  <SCORE.SYSTEM.CONST>
0

>  <SCORE.SYSTEM.DIHEDRAL>
0

>  <SCORE.SYSTEM.SOLV>
0

>  <SCORE.SYSTEM.norm>
0

>  <SCORE.heavy>
26

>  <SCORE.norm>
-0.709712

>  <RMSD>
9.633

$$$$
ligand
 OpenBabel11021811473D
libRbt.so/2013.1/901 2013/11/27
 26 28  0  0  0  0  0  0  0  0999 V2000
   -4.4904   16.9484  -21.9291 N   0  0  0  0  0  0  0  0  0  0  0  0
   -5.8669   17.0768  -22.4234 C   0  0  2  0  0  0  0  0  0  0  0  0
   -6.3543   18.4823  -22.1887 C   0  0  0  0  0  0  0  0  0  0  0  0
   -5.6324   19.2921  -21.6557 O   0  0  0  0  0  0  0  0  0  0  0  0
   -6.7693   16.0918  -21.6780 C   0  0  0  0  0  0  0  0  0  0  0  0
   -8.0725   15.9067  -22.4532 C   0  0  0  0  0  0  0  0  0  0  0  0
   -9.2468   14.8030  -21.9174 S   0  0  0  0  0  0  0  0  0  0  0  0
  -10.5590   13.7820  -22.6362 C   0  0  0  0  0  0  0  0  0  0  0  0
  -11.9527   14.0155  -22.0405 C   0  0  1  0  0  0  0  0  0  0  0  0
  -12.9209   13.1253  -22.5651 O   0  0  0  0  0  0  0  0  0  0  0  0
  -11.9925   13.7279  -20.5582 C   0  0  1  0  0  0  0  0  0  0  0  0
  -13.0862   14.4750  -20.0724 O   0  0  0  0  0  0  0  0  0  0  0  0
  -12.3389   12.2612  -20.4487 C   0  0  1  0  0  0  0  0  0  0  0  0
  -13.2511   12.0659  -19.3903 O   0  0  0  0  0  0  0  0  0  0  0  0
  -13.0222   11.9620  -21.7656 C   0  0  2  0  0  0  0  0  0  0  0  0
   -7.5927   18.8369  -22.5688 O   0  0  0  0  0  0  0  0  0  0  0  0
  -13.9554    7.9073  -24.9123 N   0  0  0  0  0  0  0  0  0  0  0  0
  -14.8676    8.7439  -24.3140 C   0  0  0  0  0  0  0  0  0  0  0  0
  -14.4241    9.7584  -23.5003 N   0  0  0  0  0  0  0  0  0  0  0  0
  -13.1069    9.9418  -23.2850 C   0  0  0  0  0  0  0  0  0  0  0  0
  -12.1728    9.1129  -23.8773 C   0  0  0  0  0  0  0  0  0  0  0  0
  -12.6110    8.0815  -24.6996 C   0  0  0  0  0  0  0  0  0  0  0  0
  -11.7487    7.2597  -25.2850 N   0  0  0  0  0  0  0  0  0  0  0  0
  -10.9421    9.5191  -23.4929 N   0  0  0  0  0  0  0  0  0  0  0  0
  -11.0855   10.5844  -22.6807 C   0  0  0  0  0  0  0  0  0  0  0  0
  -12.4218   10.8542  -22.5313 N   0  0  0  0  0  0  0  0  0  0  0  0
  2  1  1  1  0  0  0
  2  3  1  0  0  0  0
  2  5  1  0  0  0  0
  3  4  1  0  0  0  0
  3 16  1  0  0  0  0
  5  6  1  0  0  0  0
  6  7  1  0  0  0  0
  7  8  1  0  0  0  0
  9  8  1  6  0  0  0
  9 10  1  0  0  0  0
  9 11  1  0  0  0  0
 10 15  1  0  0  0  0
 11 12  1  1  0  0  0
 11 13  1  0  0  0  0
 13 14  1  1  0  0  0
 13 15  1  0  0  0  0
 15 26  1  6  0  0  0
 17 18  2  0  0  0  0
 17 22  1  0  0  0  0
 18 19  1  0  0  0  0
 19 20  2  0  0  0  0
 20 21  1  0  0  0  0
 20 26  1  0  0  0  0
 21 22  2  0  0  0  0
 21 24  1  0  0  0  0
 22 23  1  0  0  0  0
 24 25  2  0  0  0  0
 25 26  1  0  0  0  0
M  END
>  <CHROM.1>
-0.46507598,-162.76559901,176.66696038,-152.14672740,-124.12164040,-175.58970947
-97.45453244,-10.67331066,13.08751649,-22.41561357,-0.81097434,-0.46928723
-2.54423021

>  <Name>
ligand

>  <RI>
0

>  <Rbt.Current_Directory>
/home/itssahil/PROJECTS/Mol_Feturizer/New_Systems/rnas/3E5E

>  <Rbt.Executable>
rbdock ($Id: //depot/dev/client3/rdock/2013.1/src/exe/rbdock.cxx#4 $)

>  <Rbt.Library>
libRbt.so (2013.1, Build901 2013/11/27)

>  <Rbt.Parameter_File>
/export/apps/rDock/src/rDock_2013.1_src/data/scripts/dock_solv.prm

>  <Rbt.Receptor>
prm/blind_docking_100.prm

>  <SCORE>
-16.4893

>  <SCORE.INTER>
-14.7528

>  <SCORE.INTER.CONST>
1

>  <SCORE.INTER.POLAR>
0

>  <SCORE.INTER.ROT>
7

>  <SCORE.INTER.SOLV>
9.96512

>  <SCORE.INTER.VDW>
-21.4235

>  <SCORE.INTER.norm>
-0.567414

>  <SCORE.INTRA>
-1.7368

>  <SCORE.INTRA.DIHEDRAL>
-2.86214

>  <SCORE.INTRA.DIHEDRAL.0>
10.1225

>  <SCORE.INTRA.POLAR>
0

>  <SCORE.INTRA.POLAR.0>
0

>  <SCORE.INTRA.REPUL>
0

>  <SCORE.INTRA.REPUL.0>
0

>  <SCORE.INTRA.SOLV>
-0.599922

>  <SCORE.INTRA.SOLV.lig_0>
-49.9393

>  <SCORE.INTRA.VDW>
-0.0057681

>  <SCORE.INTRA.VDW.0>
-1.75437

>  <SCORE.INTRA.norm>
-0.0668001

>  <SCORE.RESTR>
0.000256809

>  <SCORE.RESTR.CAVITY>
0.000256809

>  <SCORE.RESTR.norm>
9.87729e-06

>  <SCORE.SYSTEM>
0

>  <SCORE.SYSTEM.CONST>
0

>  <SCORE.SYSTEM.DIHEDRAL>
0

>  <SCORE.SYSTEM.SOLV>
0

>  <SCORE.SYSTEM.norm>
0

>  <SCORE.heavy>
26

>  <SCORE.norm>
-0.634204

>  <RMSD>
9.634

$$$$
ligand
 OpenBabel11021811473D
libRbt.so/2013.1/901 2013/11/27
 26 28  0  0  0  0  0  0  0  0999 V2000
   -5.7397   16.1628  -21.9579 N   0  0  0  0  0  0  0  0  0  0  0  0
   -6.5768   16.3044  -23.1556 C   0  0  2  0  0  0  0  0  0  0  0  0
   -5.8798   17.1932  -24.1517 C   0  0  0  0  0  0  0  0  0  0  0  0
   -5.2034   18.1185  -23.7678 O   0  0  0  0  0  0  0  0  0  0  0  0
   -7.9194   16.9263  -22.7676 C   0  0  0  0  0  0  0  0  0  0  0  0
   -8.5892   16.0672  -21.6966 C   0  0  0  0  0  0  0  0  0  0  0  0
   -9.0855   14.4814  -22.0471 S   0  0  0  0  0  0  0  0  0  0  0  0
  -10.4578   13.6592  -22.8966 C   0  0  0  0  0  0  0  0  0  0  0  0
  -11.8463   13.9749  -22.3274 C   0  0  1  0  0  0  0  0  0  0  0  0
  -12.8417   13.0901  -22.8082 O   0  0  0  0  0  0  0  0  0  0  0  0
  -11.9059   13.7751  -20.8314 C   0  0  1  0  0  0  0  0  0  0  0  0
  -12.9759   14.5866  -20.3989 O   0  0  0  0  0  0  0  0  0  0  0  0
  -12.3044   12.3301  -20.6407 C   0  0  1  0  0  0  0  0  0  0  0  0
  -13.2299   12.2282  -19.5806 O   0  0  0  0  0  0  0  0  0  0  0  0
  -12.9891   11.9792  -21.9439 C   0  0  2  0  0  0  0  0  0  0  0  0
   -6.0110   16.9604  -25.4680 O   0  0  0  0  0  0  0  0  0  0  0  0
  -14.0378    7.8107  -24.8999 N   0  0  0  0  0  0  0  0  0  0  0  0
  -14.9239    8.7152  -24.3645 C   0  0  0  0  0  0  0  0  0  0  0  0
  -14.4523    9.7506  -23.5941 N   0  0  0  0  0  0  0  0  0  0  0  0
  -13.1327    9.8887  -23.3603 C   0  0  0  0  0  0  0  0  0  0  0  0
  -12.2244    8.9912  -23.8897 C   0  0  0  0  0  0  0  0  0  0  0  0
  -12.6914    7.9383  -24.6677 C   0  0  0  0  0  0  0  0  0  0  0  0
  -11.8546    7.0515  -25.1921 N   0  0  0  0  0  0  0  0  0  0  0  0
  -10.9848    9.3640  -23.5002 N   0  0  0  0  0  0  0  0  0  0  0  0
  -11.0971   10.4750  -22.7464 C   0  0  0  0  0  0  0  0  0  0  0  0
  -12.4231   10.8088  -22.6394 N   0  0  0  0  0  0  0  0  0  0  0  0
  2  1  1  1  0  0  0
  2  3  1  0  0  0  0
  2  5  1  0  0  0  0
  3  4  1  0  0  0  0
  3 16  1  0  0  0  0
  5  6  1  0  0  0  0
  6  7  1  0  0  0  0
  7  8  1  0  0  0  0
  9  8  1  6  0  0  0
  9 10  1  0  0  0  0
  9 11  1  0  0  0  0
 10 15  1  0  0  0  0
 11 12  1  6  0  0  0
 11 13  1  0  0  0  0
 13 14  1  1  0  0  0
 13 15  1  0  0  0  0
 15 26  1  6  0  0  0
 17 18  2  0  0  0  0
 17 22  1  0  0  0  0
 18 19  1  0  0  0  0
 19 20  2  0  0  0  0
 20 21  1  0  0  0  0
 20 26  1  0  0  0  0
 21 22  2  0  0  0  0
 21 24  1  0  0  0  0
 22 23  1  0  0  0  0
 24 25  2  0  0  0  0
 25 26  1  0  0  0  0
M  END
>  <CHROM.1>
-34.73007045,-56.75322215,-64.80770177,-78.12657407,-58.86815316,-166.35556011
-96.51550184,-10.68730885,12.84489786,-22.82581490,-0.66285531,-0.58888153
-2.47192640

>  <Name>
ligand

>  <RI>
0

>  <Rbt.Current_Directory>
/home/itssahil/PROJECTS/Mol_Feturizer/New_Systems/rnas/3E5E

>  <Rbt.Executable>
rbdock ($Id: //depot/dev/client3/rdock/2013.1/src/exe/rbdock.cxx#4 $)

>  <Rbt.Library>
libRbt.so (2013.1, Build901 2013/11/27)

>  <Rbt.Parameter_File>
/export/apps/rDock/src/rDock_2013.1_src/data/scripts/dock_solv.prm

>  <Rbt.Receptor>
prm/blind_docking_100.prm

>  <SCORE>
-18.1899

>  <SCORE.INTER>
-15.1418

>  <SCORE.INTER.CONST>
1

>  <SCORE.INTER.POLAR>
0

>  <SCORE.INTER.ROT>
7

>  <SCORE.INTER.SOLV>
8.21722

>  <SCORE.INTER.VDW>
-21.1002

>  <SCORE.INTER.norm>
-0.582375

>  <SCORE.INTRA>
-3.04812

>  <SCORE.INTRA.DIHEDRAL>
-6.25788

>  <SCORE.INTRA.DIHEDRAL.0>
10.1225

>  <SCORE.INTRA.POLAR>
0

>  <SCORE.INTRA.POLAR.0>
0

>  <SCORE.INTRA.REPUL>
0

>  <SCORE.INTRA.REPUL.0>
0

>  <SCORE.INTRA.SOLV>
0.893063

>  <SCORE.INTRA.SOLV.lig_0>
-49.9393

>  <SCORE.INTRA.VDW>
-0.365714

>  <SCORE.INTRA.VDW.0>
-1.75437

>  <SCORE.INTRA.norm>
-0.117235

>  <SCORE.RESTR>
0

>  <SCORE.RESTR.CAVITY>
0

>  <SCORE.RESTR.norm>
0

>  <SCORE.SYSTEM>
0

>  <SCORE.SYSTEM.CONST>
0

>  <SCORE.SYSTEM.DIHEDRAL>
0

>  <SCORE.SYSTEM.SOLV>
0

>  <SCORE.SYSTEM.norm>
0

>  <SCORE.heavy>
26

>  <SCORE.norm>
-0.699611

>  <RMSD>
9.637

$$$$
ligand
 OpenBabel11021811473D
libRbt.so/2013.1/901 2013/11/27
 26 28  0  0  0  0  0  0  0  0999 V2000
   -6.5063   17.7321  -25.6002 N   0  0  0  0  0  0  0  0  0  0  0  0
   -6.6435   17.7224  -24.1384 C   0  0  2  0  0  0  0  0  0  0  0  0
   -5.3630   18.2083  -23.5120 C   0  0  0  0  0  0  0  0  0  0  0  0
   -5.2749   19.3490  -23.1220 O   0  0  0  0  0  0  0  0  0  0  0  0
   -6.9361   16.2979  -23.6641 C   0  0  0  0  0  0  0  0  0  0  0  0
   -8.3089   15.8624  -24.1732 C   0  0  0  0  0  0  0  0  0  0  0  0
   -8.9957   14.3968  -23.6590 S   0  0  0  0  0  0  0  0  0  0  0  0
   -9.2668   13.5129  -22.1013 C   0  0  0  0  0  0  0  0  0  0  0  0
   -9.8053   14.3800  -20.9568 C   0  0  1  0  0  0  0  0  0  0  0  0
  -11.2195   14.3660  -20.8873 O   0  0  0  0  0  0  0  0  0  0  0  0
   -9.3919   13.8540  -19.6026 C   0  0  1  0  0  0  0  0  0  0  0  0
   -9.4590   14.9708  -18.7432 O   0  0  0  0  0  0  0  0  0  0  0  0
  -10.4825   12.8872  -19.2037 C   0  0  1  0  0  0  0  0  0  0  0  0
  -10.7713   13.0365  -17.8308 O   0  0  0  0  0  0  0  0  0  0  0  0
  -11.6718   13.3416  -20.0219 C   0  0  2  0  0  0  0  0  0  0  0  0
   -4.3166   17.3755  -23.3883 O   0  0  0  0  0  0  0  0  0  0  0  0
  -13.5570    8.4792  -20.1503 N   0  0  0  0  0  0  0  0  0  0  0  0
  -12.9892    9.1408  -19.0873 C   0  0  0  0  0  0  0  0  0  0  0  0
  -12.5356   10.4270  -19.2542 N   0  0  0  0  0  0  0  0  0  0  0  0
  -12.6433   11.0453  -20.4464 C   0  0  0  0  0  0  0  0  0  0  0  0
  -13.2116   10.3989  -21.5279 C   0  0  0  0  0  0  0  0  0  0  0  0
  -13.6706    9.0964  -21.3706 C   0  0  0  0  0  0  0  0  0  0  0  0
  -14.2192    8.4372  -22.3836 N   0  0  0  0  0  0  0  0  0  0  0  0
  -13.1909   11.2424  -22.5840 N   0  0  0  0  0  0  0  0  0  0  0  0
  -12.6295   12.4008  -22.1861 C   0  0  0  0  0  0  0  0  0  0  0  0
  -12.2733   12.2930  -20.8660 N   0  0  0  0  0  0  0  0  0  0  0  0
  2  1  1  6  0  0  0
  2  3  1  0  0  0  0
  2  5  1  0  0  0  0
  3  4  1  0  0  0  0
  3 16  1  0  0  0  0
  5  6  1  0  0  0  0
  6  7  1  0  0  0  0
  7  8  1  0  0  0  0
  9  8  1  6  0  0  0
  9 10  1  0  0  0  0
  9 11  1  0  0  0  0
 10 15  1  0  0  0  0
 11 12  1  1  0  0  0
 11 13  1  0  0  0  0
 13 14  1  1  0  0  0
 13 15  1  0  0  0  0
 15 26  1  6  0  0  0
 17 18  2  0  0  0  0
 17 22  1  0  0  0  0
 18 19  1  0  0  0  0
 19 20  2  0  0  0  0
 20 21  1  0  0  0  0
 20 26  1  0  0  0  0
 21 22  2  0  0  0  0
 21 24  1  0  0  0  0
 22 23  1  0  0  0  0
 24 25  2  0  0  0  0
 25 26  1  0  0  0  0
M  END
>  <CHROM.1>
99.99703615,-66.31009489,-172.73193631,47.44414559,45.01223939,92.50829864
169.30670804,-10.05225352,13.62179028,-21.65395546,0.26847891,-0.82604091
-1.62673187

>  <Name>
ligand

>  <RI>
0

>  <Rbt.Current_Directory>
/home/itssahil/PROJECTS/Mol_Feturizer/New_Systems/rnas/3E5E

>  <Rbt.Executable>
rbdock ($Id: //depot/dev/client3/rdock/2013.1/src/exe/rbdock.cxx#4 $)

>  <Rbt.Library>
libRbt.so (2013.1, Build901 2013/11/27)

>  <Rbt.Parameter_File>
/export/apps/rDock/src/rDock_2013.1_src/data/scripts/dock_solv.prm

>  <Rbt.Receptor>
prm/blind_docking_100.prm

>  <SCORE>
-14.0619

>  <SCORE.INTER>
-11.9261

>  <SCORE.INTER.CONST>
1

>  <SCORE.INTER.POLAR>
0

>  <SCORE.INTER.ROT>
7

>  <SCORE.INTER.SOLV>
9.51851

>  <SCORE.INTER.VDW>
-19.3903

>  <SCORE.INTER.norm>
-0.458698

>  <SCORE.INTRA>
-2.13589

>  <SCORE.INTRA.DIHEDRAL>
-3.59222

>  <SCORE.INTRA.DIHEDRAL.0>
10.1225

>  <SCORE.INTRA.POLAR>
0

>  <SCORE.INTRA.POLAR.0>
0

>  <SCORE.INTRA.REPUL>
0

>  <SCORE.INTRA.REPUL.0>
0

>  <SCORE.INTRA.SOLV>
0.0541713

>  <SCORE.INTRA.SOLV.lig_0>
-49.9393

>  <SCORE.INTRA.VDW>
-0.366867

>  <SCORE.INTRA.VDW.0>
-1.75437

>  <SCORE.INTRA.norm>
-0.0821496

>  <SCORE.RESTR>
0.000162687

>  <SCORE.RESTR.CAVITY>
0.000162687

>  <SCORE.RESTR.norm>
6.25718e-06

>  <SCORE.SYSTEM>
0

>  <SCORE.SYSTEM.CONST>
0

>  <SCORE.SYSTEM.DIHEDRAL>
0

>  <SCORE.SYSTEM.SOLV>
0

>  <SCORE.SYSTEM.norm>
0

>  <SCORE.heavy>
26

>  <SCORE.norm>
-0.540841

>  <RMSD>
9.637

$$$$
ligand
 OpenBabel11021811473D
libRbt.so/2013.1/901 2013/11/27
 26 28  0  0  0  0  0  0  0  0999 V2000
   -7.6684   17.3083  -27.0279 N   0  0  0  0  0  0  0  0  0  0  0  0
   -6.4920   16.5182  -26.6441 C   0  0  2  0  0  0  0  0  0  0  0  0
   -6.0774   15.6441  -27.7983 C   0  0  0  0  0  0  0  0  0  0  0  0
   -4.9562   15.1948  -27.8450 O   0  0  0  0  0  0  0  0  0  0  0  0
   -6.8382   15.6425  -25.4386 C   0  0  0  0  0  0  0  0  0  0  0  0
   -8.1055   14.8431  -25.7358 C   0  0  0  0  0  0  0  0  0  0  0  0
   -8.6681   13.6762  -24.6376 S   0  0  0  0  0  0  0  0  0  0  0  0
   -8.6040   13.3680  -22.8538 C   0  0  0  0  0  0  0  0  0  0  0  0
   -9.0886   14.5338  -21.9833 C   0  0  1  0  0  0  0  0  0  0  0  0
  -10.4647   14.8111  -22.1684 O   0  0  0  0  0  0  0  0  0  0  0  0
   -8.9995   14.2175  -20.5091 C   0  0  1  0  0  0  0  0  0  0  0  0
   -8.9331   15.4741  -19.8713 O   0  0  0  0  0  0  0  0  0  0  0  0
  -10.3252   13.5821  -20.1598 C   0  0  1  0  0  0  0  0  0  0  0  0
  -10.7632   14.0553  -18.9049 O   0  0  0  0  0  0  0  0  0  0  0  0
  -11.2539   14.0883  -21.2423 C   0  0  2  0  0  0  0  0  0  0  0  0
   -6.9521   15.3650  -28.7785 O   0  0  0  0  0  0  0  0  0  0  0  0
  -13.3120    9.2994  -21.0333 N   0  0  0  0  0  0  0  0  0  0  0  0
  -12.6455    9.9799  -20.0420 C   0  0  0  0  0  0  0  0  0  0  0  0
  -12.1607   11.2406  -20.2942 N   0  0  0  0  0  0  0  0  0  0  0  0
  -12.3333   11.8156  -21.5004 C   0  0  0  0  0  0  0  0  0  0  0  0
  -13.0011   11.1495  -22.5107 C   0  0  0  0  0  0  0  0  0  0  0  0
  -13.4926    9.8724  -22.2670 C   0  0  0  0  0  0  0  0  0  0  0  0
  -14.1362    9.1955  -23.2099 N   0  0  0  0  0  0  0  0  0  0  0  0
  -13.0279   11.9498  -23.5998 N   0  0  0  0  0  0  0  0  0  0  0  0
  -12.3989   13.1007  -23.2916 C   0  0  0  0  0  0  0  0  0  0  0  0
  -11.9515   13.0311  -21.9969 N   0  0  0  0  0  0  0  0  0  0  0  0
  2  1  1  6  0  0  0
  2  3  1  0  0  0  0
  2  5  1  0  0  0  0
  3  4  1  0  0  0  0
  3 16  1  0  0  0  0
  5  6  1  0  0  0  0
  6  7  1  0  0  0  0
  7  8  1  0  0  0  0
  9  8  1  6  0  0  0
  9 10  1  0  0  0  0
  9 11  1  0  0  0  0
 10 15  1  0  0  0  0
 11 12  1  1  0  0  0
 11 13  1  0  0  0  0
 13 14  1  1  0  0  0
 13 15  1  0  0  0  0
 15 26  1  6  0  0  0
 17 18  2  0  0  0  0
 17 22  1  0  0  0  0
 18 19  1  0  0  0  0
 19 20  2  0  0  0  0
 20 21  1  0  0  0  0
 20 26  1  0  0  0  0
 21 22  2  0  0  0  0
 21 24  1  0  0  0  0
 22 23  1  0  0  0  0
 24 25  2  0  0  0  0
 25 26  1  0  0  0  0
M  END
>  <CHROM.1>
159.89998993,52.17497248,174.66350182,28.08202274,53.61779766,64.89732896
150.46949276,-9.94957903,13.50757631,-23.23236167,0.49068680,-0.77432398
-1.83629913

>  <Name>
ligand

>  <RI>
0

>  <Rbt.Current_Directory>
/home/itssahil/PROJECTS/Mol_Feturizer/New_Systems/rnas/3E5E

>  <Rbt.Executable>
rbdock ($Id: //depot/dev/client3/rdock/2013.1/src/exe/rbdock.cxx#4 $)

>  <Rbt.Library>
libRbt.so (2013.1, Build901 2013/11/27)

>  <Rbt.Parameter_File>
/export/apps/rDock/src/rDock_2013.1_src/data/scripts/dock_solv.prm

>  <Rbt.Receptor>
prm/pocket_docking_8.prm

>  <SCORE>
-12.4641

>  <SCORE.INTER>
-9.53628

>  <SCORE.INTER.CONST>
1

>  <SCORE.INTER.POLAR>
0

>  <SCORE.INTER.ROT>
7

>  <SCORE.INTER.SOLV>
7.93912

>  <SCORE.INTER.VDW>
-17.2706

>  <SCORE.INTER.norm>
-0.36678

>  <SCORE.INTRA>
-2.92778

>  <SCORE.INTRA.DIHEDRAL>
-5.71496

>  <SCORE.INTRA.DIHEDRAL.0>
10.1225

>  <SCORE.INTRA.POLAR>
0

>  <SCORE.INTRA.POLAR.0>
0

>  <SCORE.INTRA.REPUL>
0

>  <SCORE.INTRA.REPUL.0>
0

>  <SCORE.INTRA.SOLV>
0.402978

>  <SCORE.INTRA.SOLV.lig_0>
-49.9393

>  <SCORE.INTRA.VDW>
-0.271789

>  <SCORE.INTRA.VDW.0>
-1.75437

>  <SCORE.INTRA.norm>
-0.112607

>  <SCORE.RESTR>
0

>  <SCORE.RESTR.CAVITY>
0

>  <SCORE.RESTR.norm>
0

>  <SCORE.SYSTEM>
0

>  <SCORE.SYSTEM.CONST>
0

>  <SCORE.SYSTEM.DIHEDRAL>
0

>  <SCORE.SYSTEM.SOLV>
0

>  <SCORE.SYSTEM.norm>
0

>  <SCORE.heavy>
26

>  <SCORE.norm>
-0.479387

>  <RMSD>
9.637

$$$$
ligand
 OpenBabel11021811473D
libRbt.so/2013.1/901 2013/11/27
 26 28  0  0  0  0  0  0  0  0999 V2000
   -5.5292   18.2604  -22.4711 N   0  0  0  0  0  0  0  0  0  0  0  0
   -4.8436   17.3600  -21.5357 C   0  0  2  0  0  0  0  0  0  0  0  0
   -3.5097   16.9620  -22.1104 C   0  0  0  0  0  0  0  0  0  0  0  0
   -2.8706   17.7547  -22.7619 O   0  0  0  0  0  0  0  0  0  0  0  0
   -5.6976   16.1106  -21.3136 C   0  0  0  0  0  0  0  0  0  0  0  0
   -5.9597   15.4266  -22.6541 C   0  0  0  0  0  0  0  0  0  0  0  0
   -7.0284   14.1109  -22.7581 S   0  0  0  0  0  0  0  0  0  0  0  0
   -8.8056   13.8058  -22.5861 C   0  0  0  0  0  0  0  0  0  0  0  0
   -9.4835   14.5846  -21.4522 C   0  0  1  0  0  0  0  0  0  0  0  0
  -10.8957   14.4969  -21.5053 O   0  0  0  0  0  0  0  0  0  0  0  0
   -9.1567   14.0102  -20.0940 C   0  0  1  0  0  0  0  0  0  0  0  0
   -9.3552   15.0763  -19.1915 O   0  0  0  0  0  0  0  0  0  0  0  0
  -10.2231   12.9712  -19.8367 C   0  0  1  0  0  0  0  0  0  0  0  0
  -10.6330   13.0345  -18.4881 O   0  0  0  0  0  0  0  0  0  0  0  0
  -11.3628   13.4079  -20.7316 C   0  0  2  0  0  0  0  0  0  0  0  0
   -3.0297   15.7251  -21.9020 O   0  0  0  0  0  0  0  0  0  0  0  0
  -14.7555    9.5217  -21.5073 N   0  0  0  0  0  0  0  0  0  0  0  0
  -14.5799   10.2807  -20.3745 C   0  0  0  0  0  0  0  0  0  0  0  0
  -13.6164   11.2601  -20.3581 N   0  0  0  0  0  0  0  0  0  0  0  0
  -12.8449   11.4845  -21.4396 C   0  0  0  0  0  0  0  0  0  0  0  0
  -13.0053   10.7338  -22.5890 C   0  0  0  0  0  0  0  0  0  0  0  0
  -13.9750    9.7383  -22.6149 C   0  0  0  0  0  0  0  0  0  0  0  0
  -14.1600    8.9913  -23.6963 N   0  0  0  0  0  0  0  0  0  0  0  0
  -12.1105   11.1662  -23.5054 N   0  0  0  0  0  0  0  0  0  0  0  0
  -11.4006   12.1719  -22.9580 C   0  0  0  0  0  0  0  0  0  0  0  0
  -11.8346   12.3759  -21.6731 N   0  0  0  0  0  0  0  0  0  0  0  0
  2  1  1  6  0  0  0
  2  3  1  0  0  0  0
  2  5  1  0  0  0  0
  3  4  1  0  0  0  0
  3 16  1  0  0  0  0
  5  6  1  0  0  0  0
  6  7  1  0  0  0  0
  7  8  1  0  0  0  0
  9  8  1  6  0  0  0
  9 10  1  0  0  0  0
  9 11  1  0  0  0  0
 10 15  1  0  0  0  0
 11 12  1  1  0  0  0
 11 13  1  0  0  0  0
 13 14  1  1  0  0  0
 13 15  1  0  0  0  0
 15 26  1  6  0  0  0
 17 18  2  0  0  0  0
 17 22  1  0  0  0  0
 18 19  1  0  0  0  0
 19 20  2  0  0  0  0
 20 21  1  0  0  0  0
 20 26  1  0  0  0  0
 21 22  2  0  0  0  0
 21 24  1  0  0  0  0
 22 23  1  0  0  0  0
 24 25  2  0  0  0  0
 25 26  1  0  0  0  0
M  END
>  <CHROM.1>
35.43767465,57.63728962,-172.93704240,67.92066926,-39.32028924,169.61046467
-149.22687728,-9.40154636,13.60707474,-21.65096175,0.21616989,0.55627826
1.11711534

>  <Name>
ligand

>  <RI>
0

>  <Rbt.Current_Directory>
/home/itssahil/PROJECTS/Mol_Feturizer/New_Systems/rnas/3E5E

>  <Rbt.Executable>
rbdock ($Id: //depot/dev/client3/rdock/2013.1/src/exe/rbdock.cxx#4 $)

>  <Rbt.Library>
libRbt.so (2013.1, Build901 2013/11/27)

>  <Rbt.Parameter_File>
/export/apps/rDock/src/rDock_2013.1_src/data/scripts/dock_solv.prm

>  <Rbt.Receptor>
prm/blind_docking_100.prm

>  <SCORE>
-15.0324

>  <SCORE.INTER>
-12.9807

>  <SCORE.INTER.CONST>
1

>  <SCORE.INTER.POLAR>
0

>  <SCORE.INTER.ROT>
7

>  <SCORE.INTER.SOLV>
12.7064

>  <SCORE.INTER.VDW>
-21.1559

>  <SCORE.INTER.norm>
-0.499257

>  <SCORE.INTRA>
-2.05174

>  <SCORE.INTRA.DIHEDRAL>
-6.00736

>  <SCORE.INTRA.DIHEDRAL.0>
10.1225

>  <SCORE.INTRA.POLAR>
0

>  <SCORE.INTRA.POLAR.0>
0

>  <SCORE.INTRA.REPUL>
0

>  <SCORE.INTRA.REPUL.0>
0

>  <SCORE.INTRA.SOLV>
0.260847

>  <SCORE.INTRA.SOLV.lig_0>
-49.9393

>  <SCORE.INTRA.VDW>
0.821518

>  <SCORE.INTRA.VDW.0>
-1.75437

>  <SCORE.INTRA.norm>
-0.0789131

>  <SCORE.RESTR>
0

>  <SCORE.RESTR.CAVITY>
0

>  <SCORE.RESTR.norm>
0

>  <SCORE.SYSTEM>
0

>  <SCORE.SYSTEM.CONST>
0

>  <SCORE.SYSTEM.DIHEDRAL>
0

>  <SCORE.SYSTEM.SOLV>
0

>  <SCORE.SYSTEM.norm>
0

>  <SCORE.heavy>
26

>  <SCORE.norm>
-0.57817

>  <RMSD>
9.661

$$$$
ligand
 OpenBabel11021811473D
libRbt.so/2013.1/901 2013/11/27
 26 28  0  0  0  0  0  0  0  0999 V2000
   -5.2754   16.9294  -22.7652 N   0  0  0  0  0  0  0  0  0  0  0  0
   -6.5920   16.5895  -23.3190 C   0  0  2  0  0  0  0  0  0  0  0  0
   -6.7288   17.1933  -24.6920 C   0  0  0  0  0  0  0  0  0  0  0  0
   -7.4703   16.6902  -25.5032 O   0  0  0  0  0  0  0  0  0  0  0  0
   -7.6868   17.1436  -22.4057 C   0  0  0  0  0  0  0  0  0  0  0  0
   -9.0384   16.5649  -22.8202 C   0  0  0  0  0  0  0  0  0  0  0  0
   -9.3473   14.9014  -22.6738 S   0  0  0  0  0  0  0  0  0  0  0  0
  -10.6580   13.7334  -23.1196 C   0  0  0  0  0  0  0  0  0  0  0  0
  -12.0042   13.9857  -22.4299 C   0  0  1  0  0  0  0  0  0  0  0  0
  -12.9818   13.0247  -22.7844 O   0  0  0  0  0  0  0  0  0  0  0  0
  -11.9101   13.8392  -20.9295 C   0  0  1  0  0  0  0  0  0  0  0  0
  -12.9843   14.6001  -20.4221 O   0  0  0  0  0  0  0  0  0  0  0  0
  -12.1957   12.3809  -20.6555 C   0  0  1  0  0  0  0  0  0  0  0  0
  -13.0091   12.2631  -19.5087 O   0  0  0  0  0  0  0  0  0  0  0  0
  -12.9760   11.9403  -21.8751 C   0  0  2  0  0  0  0  0  0  0  0  0
   -6.0251   18.2900  -25.0175 O   0  0  0  0  0  0  0  0  0  0  0  0
  -14.0036    7.8042  -24.8835 N   0  0  0  0  0  0  0  0  0  0  0  0
  -14.8942    8.6983  -24.3381 C   0  0  0  0  0  0  0  0  0  0  0  0
  -14.4279    9.7261  -23.5544 N   0  0  0  0  0  0  0  0  0  0  0  0
  -13.1091    9.8668  -23.3173 C   0  0  0  0  0  0  0  0  0  0  0  0
  -12.1965    8.9798  -23.8566 C   0  0  0  0  0  0  0  0  0  0  0  0
  -12.6581    7.9346  -24.6481 C   0  0  0  0  0  0  0  0  0  0  0  0
  -11.8170    7.0578  -25.1823 N   0  0  0  0  0  0  0  0  0  0  0  0
  -10.9589    9.3529  -23.4610 N   0  0  0  0  0  0  0  0  0  0  0  0
  -11.0768   10.4541  -22.6937 C   0  0  0  0  0  0  0  0  0  0  0  0
  -12.4043   10.7809  -22.5843 N   0  0  0  0  0  0  0  0  0  0  0  0
  2  1  1  1  0  0  0
  2  3  1  0  0  0  0
  2  5  1  0  0  0  0
  3  4  1  0  0  0  0
  3 16  1  0  0  0  0
  5  6  1  0  0  0  0
  6  7  1  0  0  0  0
  7  8  1  0  0  0  0
  9  8  1  6  0  0  0
  9 10  1  0  0  0  0
  9 11  1  0  0  0  0
 10 15  1  0  0  0  0
 11 12  1  1  0  0  0
 11 13  1  0  0  0  0
 13 14  1  1  0  0  0
 13 15  1  0  0  0  0
 15 26  1  6  0  0  0
 17 18  2  0  0  0  0
 17 22  1  0  0  0  0
 18 19  1  0  0  0  0
 19 20  2  0  0  0  0
 20 21  1  0  0  0  0
 20 26  1  0  0  0  0
 21 22  2  0  0  0  0
 21 24  1  0  0  0  0
 22 23  1  0  0  0  0
 24 25  2  0  0  0  0
 25 26  1  0  0  0  0
M  END
>  <CHROM.1>
153.89778588,-168.93449201,64.99177094,-173.89284561,-63.33478577,-178.38257300
-89.51882915,-10.82160007,12.94209106,-23.01442826,-0.67090275,-0.67192595
-2.48865211

>  <Name>
ligand

>  <RI>
0

>  <Rbt.Current_Directory>
/home/itssahil/PROJECTS/Mol_Feturizer/New_Systems/rnas/3E5E

>  <Rbt.Executable>
rbdock ($Id: //depot/dev/client3/rdock/2013.1/src/exe/rbdock.cxx#4 $)

>  <Rbt.Library>
libRbt.so (2013.1, Build901 2013/11/27)

>  <Rbt.Parameter_File>
/export/apps/rDock/src/rDock_2013.1_src/data/scripts/dock_solv.prm

>  <Rbt.Receptor>
prm/blind_docking_40.prm

>  <SCORE>
-19.7242

>  <SCORE.INTER>
-15.4573

>  <SCORE.INTER.CONST>
1

>  <SCORE.INTER.POLAR>
0

>  <SCORE.INTER.ROT>
7

>  <SCORE.INTER.SOLV>
8.33107

>  <SCORE.INTER.VDW>
-21.3485

>  <SCORE.INTER.norm>
-0.59451

>  <SCORE.INTRA>
-4.26695

>  <SCORE.INTRA.DIHEDRAL>
-6.87851

>  <SCORE.INTRA.DIHEDRAL.0>
10.1225

>  <SCORE.INTRA.POLAR>
0

>  <SCORE.INTRA.POLAR.0>
0

>  <SCORE.INTRA.REPUL>
0

>  <SCORE.INTRA.REPUL.0>
0

>  <SCORE.INTRA.SOLV>
-0.427027

>  <SCORE.INTRA.SOLV.lig_0>
-49.9393

>  <SCORE.INTRA.VDW>
-0.614187

>  <SCORE.INTRA.VDW.0>
-1.75437

>  <SCORE.INTRA.norm>
-0.164114

>  <SCORE.RESTR>
0

>  <SCORE.RESTR.CAVITY>
0

>  <SCORE.RESTR.norm>
0

>  <SCORE.SYSTEM>
0

>  <SCORE.SYSTEM.CONST>
0

>  <SCORE.SYSTEM.DIHEDRAL>
0

>  <SCORE.SYSTEM.SOLV>
0

>  <SCORE.SYSTEM.norm>
0

>  <SCORE.heavy>
26

>  <SCORE.norm>
-0.758623

>  <RMSD>
9.664

$$$$
ligand
 OpenBabel11021811473D
libRbt.so/2013.1/901 2013/11/27
 26 28  0  0  0  0  0  0  0  0999 V2000
   -2.8059   14.0626  -24.0357 N   0  0  0  0  0  0  0  0  0  0  0  0
   -4.2105   14.4039  -23.7782 C   0  0  2  0  0  0  0  0  0  0  0  0
   -4.2916   15.3320  -22.5948 C   0  0  0  0  0  0  0  0  0  0  0  0
   -3.4162   15.3277  -21.7613 O   0  0  0  0  0  0  0  0  0  0  0  0
   -4.9983   13.1269  -23.4809 C   0  0  0  0  0  0  0  0  0  0  0  0
   -6.4952   13.4266  -23.5341 C   0  0  0  0  0  0  0  0  0  0  0  0
   -7.6327   12.1991  -23.2454 S   0  0  0  0  0  0  0  0  0  0  0  0
   -9.4263   11.9742  -23.3618 C   0  0  0  0  0  0  0  0  0  0  0  0
  -10.2507   12.9305  -22.4913 C   0  0  1  0  0  0  0  0  0  0  0  0
  -11.6431   12.7004  -22.6051 O   0  0  0  0  0  0  0  0  0  0  0  0
   -9.9901   12.7249  -21.0178 C   0  0  1  0  0  0  0  0  0  0  0  0
  -10.3417   13.9497  -20.4123 O   0  0  0  0  0  0  0  0  0  0  0  0
  -10.9903   11.6799  -20.5810 C   0  0  1  0  0  0  0  0  0  0  0  0
  -11.5103   12.0198  -19.3142 O   0  0  0  0  0  0  0  0  0  0  0  0
  -12.0852   11.7849  -21.6206 C   0  0  2  0  0  0  0  0  0  0  0  0
   -5.3380   16.1636  -22.4629 O   0  0  0  0  0  0  0  0  0  0  0  0
  -15.6708    8.0718  -22.3755 N   0  0  0  0  0  0  0  0  0  0  0  0
  -15.7424    9.1629  -21.5422 C   0  0  0  0  0  0  0  0  0  0  0  0
  -14.6796   10.0308  -21.4699 N   0  0  0  0  0  0  0  0  0  0  0  0
  -13.5712    9.8242  -22.2075 C   0  0  0  0  0  0  0  0  0  0  0  0
  -13.4787    8.7342  -23.0523 C   0  0  0  0  0  0  0  0  0  0  0  0
  -14.5469    7.8483  -23.1303 C   0  0  0  0  0  0  0  0  0  0  0  0
  -14.4987    6.7866  -23.9254 N   0  0  0  0  0  0  0  0  0  0  0  0
  -12.2727    8.7723  -23.6619 N   0  0  0  0  0  0  0  0  0  0  0  0
  -11.6137    9.8623  -23.2228 C   0  0  0  0  0  0  0  0  0  0  0  0
  -12.3992   10.5209  -22.3116 N   0  0  0  0  0  0  0  0  0  0  0  0
  2  1  1  1  0  0  0
  2  3  1  0  0  0  0
  2  5  1  0  0  0  0
  3  4  1  0  0  0  0
  3 16  1  0  0  0  0
  5  6  1  0  0  0  0
  6  7  1  0  0  0  0
  7  8  1  0  0  0  0
  9  8  1  6  0  0  0
  9 10  1  0  0  0  0
  9 11  1  0  0  0  0
 10 15  1  0  0  0  0
 11 12  1  1  0  0  0
 11 13  1  0  0  0  0
 13 14  1  1  0  0  0
 13 15  1  0  0  0  0
 15 26  1  6  0  0  0
 17 18  2  0  0  0  0
 17 22  1  0  0  0  0
 18 19  1  0  0  0  0
 19 20  2  0  0  0  0
 20 21  1  0  0  0  0
 20 26  1  0  0  0  0
 21 22  2  0  0  0  0
 21 24  1  0  0  0  0
 22 23  1  0  0  0  0
 24 25  2  0  0  0  0
 25 26  1  0  0  0  0
M  END
>  <CHROM.1>
-25.12021787,-166.93124807,179.96949541,-171.46844933,-59.97320887,-179.17857188
-128.03613207,-9.92611683,11.79399012,-22.44109332,-0.33915843,-0.41526318
-2.38393014

>  <Name>
ligand

>  <RI>
0

>  <Rbt.Current_Directory>
/home/itssahil/PROJECTS/Mol_Feturizer/New_Systems/rnas/3E5E

>  <Rbt.Executable>
rbdock ($Id: //depot/dev/client3/rdock/2013.1/src/exe/rbdock.cxx#4 $)

>  <Rbt.Library>
libRbt.so (2013.1, Build901 2013/11/27)

>  <Rbt.Parameter_File>
/export/apps/rDock/src/rDock_2013.1_src/data/scripts/dock_solv.prm

>  <Rbt.Receptor>
prm/blind_docking_80.prm

>  <SCORE>
-14.3471

>  <SCORE.INTER>
-10.5185

>  <SCORE.INTER.CONST>
1

>  <SCORE.INTER.POLAR>
0

>  <SCORE.INTER.ROT>
7

>  <SCORE.INTER.SOLV>
10.9839

>  <SCORE.INTER.VDW>
-18.9403

>  <SCORE.INTER.norm>
-0.404556

>  <SCORE.INTRA>
-3.82863

>  <SCORE.INTRA.DIHEDRAL>
-6.59902

>  <SCORE.INTRA.DIHEDRAL.0>
10.1225

>  <SCORE.INTRA.POLAR>
0

>  <SCORE.INTRA.POLAR.0>
0

>  <SCORE.INTRA.REPUL>
0

>  <SCORE.INTRA.REPUL.0>
0

>  <SCORE.INTRA.SOLV>
-0.616426

>  <SCORE.INTRA.SOLV.lig_0>
-49.9393

>  <SCORE.INTRA.VDW>
-0.220905

>  <SCORE.INTRA.VDW.0>
-1.75437

>  <SCORE.INTRA.norm>
-0.147255

>  <SCORE.RESTR>
0

>  <SCORE.RESTR.CAVITY>
0

>  <SCORE.RESTR.norm>
0

>  <SCORE.SYSTEM>
0

>  <SCORE.SYSTEM.CONST>
0

>  <SCORE.SYSTEM.DIHEDRAL>
0

>  <SCORE.SYSTEM.SOLV>
0

>  <SCORE.SYSTEM.norm>
0

>  <SCORE.heavy>
26

>  <SCORE.norm>
-0.551811

>  <RMSD>
9.691

$$$$
ligand
 OpenBabel11021811473D
libRbt.so/2013.1/901 2013/11/27
 26 28  0  0  0  0  0  0  0  0999 V2000
   -8.1455   19.4379  -24.1047 N   0  0  0  0  0  0  0  0  0  0  0  0
   -7.6157   18.1878  -23.5459 C   0  0  2  0  0  0  0  0  0  0  0  0
   -6.7460   17.5097  -24.5716 C   0  0  0  0  0  0  0  0  0  0  0  0
   -7.1943   17.2378  -25.6607 O   0  0  0  0  0  0  0  0  0  0  0  0
   -8.7770   17.2657  -23.1707 C   0  0  0  0  0  0  0  0  0  0  0  0
   -8.2423   16.0581  -22.4030 C   0  0  0  0  0  0  0  0  0  0  0  0
   -9.2988   14.8483  -21.8514 S   0  0  0  0  0  0  0  0  0  0  0  0
  -10.5838   13.7712  -22.5366 C   0  0  0  0  0  0  0  0  0  0  0  0
  -11.9827   13.9852  -21.9458 C   0  0  1  0  0  0  0  0  0  0  0  0
  -12.9409   13.0956  -22.4893 O   0  0  0  0  0  0  0  0  0  0  0  0
  -12.0289   13.6754  -20.4682 C   0  0  1  0  0  0  0  0  0  0  0  0
  -13.1311   14.4068  -19.9779 O   0  0  0  0  0  0  0  0  0  0  0  0
  -12.3646   12.2046  -20.3825 C   0  0  1  0  0  0  0  0  0  0  0  0
  -13.2815   11.9867  -19.3325 O   0  0  0  0  0  0  0  0  0  0  0  0
  -13.0379   11.9198  -21.7077 C   0  0  2  0  0  0  0  0  0  0  0  0
   -5.4719   17.2039  -24.2764 O   0  0  0  0  0  0  0  0  0  0  0  0
  -13.9224    7.9003  -24.9132 N   0  0  0  0  0  0  0  0  0  0  0  0
  -14.8444    8.7204  -24.3070 C   0  0  0  0  0  0  0  0  0  0  0  0
  -14.4132    9.7276  -23.4778 N   0  0  0  0  0  0  0  0  0  0  0  0
  -13.0985    9.9200  -23.2550 C   0  0  0  0  0  0  0  0  0  0  0  0
  -12.1547    9.1077  -23.8549 C   0  0  0  0  0  0  0  0  0  0  0  0
  -12.5804    8.0838  -24.6929 C   0  0  0  0  0  0  0  0  0  0  0  0
  -11.7085    7.2780  -25.2861 N   0  0  0  0  0  0  0  0  0  0  0  0
  -10.9292    9.5197  -23.4602 N   0  0  0  0  0  0  0  0  0  0  0  0
  -11.0853   10.5725  -22.6341 C   0  0  0  0  0  0  0  0  0  0  0  0
  -12.4247   10.8281  -22.4861 N   0  0  0  0  0  0  0  0  0  0  0  0
  2  1  1  6  0  0  0
  2  3  1  0  0  0  0
  2  5  1  0  0  0  0
  3  4  1  0  0  0  0
  3 16  1  0  0  0  0
  5  6  1  0  0  0  0
  6  7  1  0  0  0  0
  7  8  1  0  0  0  0
  9  8  1  6  0  0  0
  9 10  1  0  0  0  0
  9 11  1  0  0  0  0
 10 15  1  0  0  0  0
 11 12  1  1  0  0  0
 11 13  1  0  0  0  0
 13 14  1  1  0  0  0
 13 15  1  0  0  0  0
 15 26  1  6  0  0  0
 17 18  2  0  0  0  0
 17 22  1  0  0  0  0
 18 19  1  0  0  0  0
 19 20  2  0  0  0  0
 20 21  1  0  0  0  0
 20 26  1  0  0  0  0
 21 22  2  0  0  0  0
 21 24  1  0  0  0  0
 22 23  1  0  0  0  0
 24 25  2  0  0  0  0
 25 26  1  0  0  0  0
M  END
>  <CHROM.1>
-56.40549124,-171.68193529,-179.88583864,53.19482890,-117.67176706,-178.42778497
-97.61294529,-10.94753333,13.06619793,-22.87234002,-0.67394993,-0.76185025
-2.46576054

>  <Name>
ligand

>  <RI>
0

>  <Rbt.Current_Directory>
/home/itssahil/PROJECTS/Mol_Feturizer/New_Systems/rnas/3E5E

>  <Rbt.Executable>
rbdock ($Id: //depot/dev/client3/rdock/2013.1/src/exe/rbdock.cxx#4 $)

>  <Rbt.Library>
libRbt.so (2013.1, Build901 2013/11/27)

>  <Rbt.Parameter_File>
/export/apps/rDock/src/rDock_2013.1_src/data/scripts/dock_solv.prm

>  <Rbt.Receptor>
prm/blind_docking_80.prm

>  <SCORE>
-18.4097

>  <SCORE.INTER>
-15.3413

>  <SCORE.INTER.CONST>
1

>  <SCORE.INTER.POLAR>
0

>  <SCORE.INTER.ROT>
7

>  <SCORE.INTER.SOLV>
8.76038

>  <SCORE.INTER.VDW>
-21.4143

>  <SCORE.INTER.norm>
-0.59005

>  <SCORE.INTRA>
-3.0684

>  <SCORE.INTRA.DIHEDRAL>
-4.78328

>  <SCORE.INTRA.DIHEDRAL.0>
10.1225

>  <SCORE.INTRA.POLAR>
0

>  <SCORE.INTRA.POLAR.0>
0

>  <SCORE.INTRA.REPUL>
0

>  <SCORE.INTRA.REPUL.0>
0

>  <SCORE.INTRA.SOLV>
-0.639959

>  <SCORE.INTRA.SOLV.lig_0>
-49.9393

>  <SCORE.INTRA.VDW>
-0.356782

>  <SCORE.INTRA.VDW.0>
-1.75437

>  <SCORE.INTRA.norm>
-0.118016

>  <SCORE.RESTR>
0

>  <SCORE.RESTR.CAVITY>
0

>  <SCORE.RESTR.norm>
0

>  <SCORE.SYSTEM>
0

>  <SCORE.SYSTEM.CONST>
0

>  <SCORE.SYSTEM.DIHEDRAL>
0

>  <SCORE.SYSTEM.SOLV>
0

>  <SCORE.SYSTEM.norm>
0

>  <SCORE.heavy>
26

>  <SCORE.norm>
-0.708066

>  <RMSD>
9.719

$$$$
ligand
 OpenBabel11021811473D
libRbt.so/2013.1/901 2013/11/27
 26 28  0  0  0  0  0  0  0  0999 V2000
   -5.7750   15.6782  -22.4227 N   0  0  0  0  0  0  0  0  0  0  0  0
   -6.5960   16.4299  -23.3801 C   0  0  2  0  0  0  0  0  0  0  0  0
   -5.7826   17.5563  -23.9614 C   0  0  0  0  0  0  0  0  0  0  0  0
   -5.0486   18.2021  -23.2507 O   0  0  0  0  0  0  0  0  0  0  0  0
   -7.8202   17.0011  -22.6624 C   0  0  0  0  0  0  0  0  0  0  0  0
   -8.7393   15.8588  -22.2335 C   0  0  0  0  0  0  0  0  0  0  0  0
   -9.5060   14.8848  -23.3943 S   0  0  0  0  0  0  0  0  0  0  0  0
  -10.6987   13.5220  -23.4294 C   0  0  0  0  0  0  0  0  0  0  0  0
  -12.0213   13.8080  -22.7078 C   0  0  1  0  0  0  0  0  0  0  0  0
  -13.0051   12.8246  -22.9724 O   0  0  0  0  0  0  0  0  0  0  0  0
  -11.8737   13.7474  -21.2058 C   0  0  1  0  0  0  0  0  0  0  0  0
  -12.9338   14.5319  -20.7047 O   0  0  0  0  0  0  0  0  0  0  0  0
  -12.1410   12.3060  -20.8396 C   0  0  1  0  0  0  0  0  0  0  0  0
  -12.9129   12.2506  -19.6599 O   0  0  0  0  0  0  0  0  0  0  0  0
  -12.9611   11.7937  -22.0039 C   0  0  2  0  0  0  0  0  0  0  0  0
   -5.8739   17.8461  -25.2696 O   0  0  0  0  0  0  0  0  0  0  0  0
  -14.0645    7.5153  -24.7772 N   0  0  0  0  0  0  0  0  0  0  0  0
  -14.9407    8.4389  -24.2584 C   0  0  0  0  0  0  0  0  0  0  0  0
  -14.4549    9.5031  -23.5377 N   0  0  0  0  0  0  0  0  0  0  0  0
  -13.1309    9.6508  -23.3366 C   0  0  0  0  0  0  0  0  0  0  0  0
  -12.2324    8.7345  -23.8501 C   0  0  0  0  0  0  0  0  0  0  0  0
  -12.7138    7.6525  -24.5778 C   0  0  0  0  0  0  0  0  0  0  0  0
  -11.8868    6.7469  -25.0852 N   0  0  0  0  0  0  0  0  0  0  0  0
  -10.9856    9.1225  -23.5007 N   0  0  0  0  0  0  0  0  0  0  0  0
  -11.0839   10.2613  -22.7874 C   0  0  0  0  0  0  0  0  0  0  0  0
  -12.4079   10.5981  -22.6659 N   0  0  0  0  0  0  0  0  0  0  0  0
  2  1  1  1  0  0  0
  2  3  1  0  0  0  0
  2  5  1  0  0  0  0
  3  4  1  0  0  0  0
  3 16  1  0  0  0  0
  5  6  1  0  0  0  0
  6  7  1  0  0  0  0
  7  8  1  0  0  0  0
  9  8  1  6  0  0  0
  9 10  1  0  0  0  0
  9 11  1  0  0  0  0
 10 15  1  0  0  0  0
 11 12  1  1  0  0  0
 11 13  1  0  0  0  0
 13 14  1  1  0  0  0
 13 15  1  0  0  0  0
 15 26  1  6  0  0  0
 17 18  2  0  0  0  0
 17 22  1  0  0  0  0
 18 19  1  0  0  0  0
 19 20  2  0  0  0  0
 20 21  1  0  0  0  0
 20 26  1  0  0  0  0
 21 22  2  0  0  0  0
 21 24  1  0  0  0  0
 22 23  1  0  0  0  0
 24 25  2  0  0  0  0
 25 26  1  0  0  0  0
M  END
>  <CHROM.1>
-41.02340337,-67.46842017,-64.96180650,-176.23490915,54.94234516,168.94898208
-88.54336620,-10.71333476,12.79257952,-23.00739372,-0.72665183,-0.56321823
-2.57509530

>  <Name>
ligand

>  <RI>
0

>  <Rbt.Current_Directory>
/home/itssahil/PROJECTS/Mol_Feturizer/New_Systems/rnas/3E5E

>  <Rbt.Executable>
rbdock ($Id: //depot/dev/client3/rdock/2013.1/src/exe/rbdock.cxx#4 $)

>  <Rbt.Library>
libRbt.so (2013.1, Build901 2013/11/27)

>  <Rbt.Parameter_File>
/export/apps/rDock/src/rDock_2013.1_src/data/scripts/dock_solv.prm

>  <Rbt.Receptor>
prm/blind_docking_40.prm

>  <SCORE>
-19.92

>  <SCORE.INTER>
-16.1313

>  <SCORE.INTER.CONST>
1

>  <SCORE.INTER.POLAR>
0

>  <SCORE.INTER.ROT>
7

>  <SCORE.INTER.SOLV>
7.92413

>  <SCORE.INTER.VDW>
-21.6622

>  <SCORE.INTER.norm>
-0.620434

>  <SCORE.INTRA>
-3.78876

>  <SCORE.INTRA.DIHEDRAL>
-6.7662

>  <SCORE.INTRA.DIHEDRAL.0>
10.1225

>  <SCORE.INTRA.POLAR>
0

>  <SCORE.INTRA.POLAR.0>
0

>  <SCORE.INTRA.REPUL>
0

>  <SCORE.INTRA.REPUL.0>
0

>  <SCORE.INTRA.SOLV>
0.579611

>  <SCORE.INTRA.SOLV.lig_0>
-49.9393

>  <SCORE.INTRA.VDW>
-0.695469

>  <SCORE.INTRA.VDW.0>
-1.75437

>  <SCORE.INTRA.norm>
-0.145722

>  <SCORE.RESTR>
0

>  <SCORE.RESTR.CAVITY>
0

>  <SCORE.RESTR.norm>
0

>  <SCORE.SYSTEM>
0

>  <SCORE.SYSTEM.CONST>
0

>  <SCORE.SYSTEM.DIHEDRAL>
0

>  <SCORE.SYSTEM.SOLV>
0

>  <SCORE.SYSTEM.norm>
0

>  <SCORE.heavy>
26

>  <SCORE.norm>
-0.766155

>  <RMSD>
9.748

$$$$
ligand
 OpenBabel11021811473D
libRbt.so/2013.1/901 2013/11/27
 26 28  0  0  0  0  0  0  0  0999 V2000
   -5.1368   15.7398  -22.9082 N   0  0  0  0  0  0  0  0  0  0  0  0
   -5.9585   16.9533  -22.9958 C   0  0  2  0  0  0  0  0  0  0  0  0
   -5.2590   18.0840  -22.2886 C   0  0  0  0  0  0  0  0  0  0  0  0
   -5.7184   19.2012  -22.3316 O   0  0  0  0  0  0  0  0  0  0  0  0
   -7.3145   16.6985  -22.3354 C   0  0  0  0  0  0  0  0  0  0  0  0
   -8.0373   15.5721  -23.0720 C   0  0  0  0  0  0  0  0  0  0  0  0
   -9.6046   15.1064  -22.6131 S   0  0  0  0  0  0  0  0  0  0  0  0
  -10.8180   13.8407  -23.0679 C   0  0  0  0  0  0  0  0  0  0  0  0
  -12.1846   13.9883  -22.3879 C   0  0  1  0  0  0  0  0  0  0  0  0
  -13.0940   12.9749  -22.7765 O   0  0  0  0  0  0  0  0  0  0  0  0
  -12.0962   13.8115  -20.8904 C   0  0  1  0  0  0  0  0  0  0  0  0
  -13.2226   14.4885  -20.3775 O   0  0  0  0  0  0  0  0  0  0  0  0
  -12.2890   12.3315  -20.6546 C   0  0  1  0  0  0  0  0  0  0  0  0
  -13.1044   12.1332  -19.5204 O   0  0  0  0  0  0  0  0  0  0  0  0
  -13.0267   11.8712  -21.8932 C   0  0  2  0  0  0  0  0  0  0  0  0
   -4.1223   17.8529  -21.6114 O   0  0  0  0  0  0  0  0  0  0  0  0
  -13.7638    7.6688  -24.8950 N   0  0  0  0  0  0  0  0  0  0  0  0
  -14.7152    8.4789  -24.3218 C   0  0  0  0  0  0  0  0  0  0  0  0
  -14.3210    9.5417  -23.5452 N   0  0  0  0  0  0  0  0  0  0  0  0
  -13.0140    9.7981  -23.3421 C   0  0  0  0  0  0  0  0  0  0  0  0
  -12.0411    8.9970  -23.9097 C   0  0  0  0  0  0  0  0  0  0  0  0
  -12.4293    7.9172  -24.6942 C   0  0  0  0  0  0  0  0  0  0  0  0
  -11.5284    7.1199  -25.2548 N   0  0  0  0  0  0  0  0  0  0  0  0
  -10.8314    9.4772  -23.5448 N   0  0  0  0  0  0  0  0  0  0  0  0
  -11.0258   10.5614  -22.7690 C   0  0  0  0  0  0  0  0  0  0  0  0
  -12.3737   10.7690  -22.6231 N   0  0  0  0  0  0  0  0  0  0  0  0
  2  1  1  1  0  0  0
  2  3  1  0  0  0  0
  2  5  1  0  0  0  0
  3  4  1  0  0  0  0
  3 16  1  0  0  0  0
  5  6  1  0  0  0  0
  6  7  1  0  0  0  0
  7  8  1  0  0  0  0
  9  8  1  6  0  0  0
  9 10  1  0  0  0  0
  9 11  1  0  0  0  0
 10 15  1  0  0  0  0
 11 12  1  1  0  0  0
 11 13  1  0  0  0  0
 13 14  1  1  0  0  0
 13 15  1  0  0  0  0
 15 26  1  6  0  0  0
 17 18  2  0  0  0  0
 17 22  1  0  0  0  0
 18 19  1  0  0  0  0
 19 20  2  0  0  0  0
 20 21  1  0  0  0  0
 20 26  1  0  0  0  0
 21 22  2  0  0  0  0
 21 24  1  0  0  0  0
 22 23  1  0  0  0  0
 24 25  2  0  0  0  0
 25 26  1  0  0  0  0
M  END
>  <CHROM.1>
174.28262925,-61.28846739,-177.21869144,-176.03129218,-173.88976169,-179.95338136
-92.29531033,-10.55266062,12.96637655,-22.66018361,-0.77787597,-0.41879588
-2.59747089

>  <Name>
ligand

>  <RI>
0

>  <Rbt.Current_Directory>
/home/itssahil/PROJECTS/Mol_Feturizer/New_Systems/rnas/3E5E

>  <Rbt.Executable>
rbdock ($Id: //depot/dev/client3/rdock/2013.1/src/exe/rbdock.cxx#4 $)

>  <Rbt.Library>
libRbt.so (2013.1, Build901 2013/11/27)

>  <Rbt.Parameter_File>
/export/apps/rDock/src/rDock_2013.1_src/data/scripts/dock_solv.prm

>  <Rbt.Receptor>
prm/blind_docking_60.prm

>  <SCORE>
-20.0655

>  <SCORE.INTER>
-16.425

>  <SCORE.INTER.CONST>
1

>  <SCORE.INTER.POLAR>
0

>  <SCORE.INTER.ROT>
7

>  <SCORE.INTER.SOLV>
8.79399

>  <SCORE.INTER.VDW>
-22.148

>  <SCORE.INTER.norm>
-0.631731

>  <SCORE.INTRA>
-3.64052

>  <SCORE.INTRA.DIHEDRAL>
-7.42146

>  <SCORE.INTRA.DIHEDRAL.0>
10.1225

>  <SCORE.INTRA.POLAR>
0

>  <SCORE.INTRA.POLAR.0>
0

>  <SCORE.INTRA.REPUL>
0

>  <SCORE.INTRA.REPUL.0>
0

>  <SCORE.INTRA.SOLV>
0.188339

>  <SCORE.INTRA.SOLV.lig_0>
-49.9393

>  <SCORE.INTRA.VDW>
-0.0239573

>  <SCORE.INTRA.VDW.0>
-1.75437

>  <SCORE.INTRA.norm>
-0.14002

>  <SCORE.RESTR>
0

>  <SCORE.RESTR.CAVITY>
0

>  <SCORE.RESTR.norm>
0

>  <SCORE.SYSTEM>
0

>  <SCORE.SYSTEM.CONST>
0

>  <SCORE.SYSTEM.DIHEDRAL>
0

>  <SCORE.SYSTEM.SOLV>
0

>  <SCORE.SYSTEM.norm>
0

>  <SCORE.heavy>
26

>  <SCORE.norm>
-0.771751

>  <RMSD>
9.749

$$$$
ligand
 OpenBabel11021811473D
libRbt.so/2013.1/901 2013/11/27
 26 28  0  0  0  0  0  0  0  0999 V2000
   -8.2047   19.4026  -24.6334 N   0  0  0  0  0  0  0  0  0  0  0  0
   -8.2270   18.5976  -23.4058 C   0  0  2  0  0  0  0  0  0  0  0  0
   -6.8505   18.5774  -22.7951 C   0  0  0  0  0  0  0  0  0  0  0  0
   -6.7188   18.6638  -21.5966 O   0  0  0  0  0  0  0  0  0  0  0  0
   -8.6579   17.1689  -23.7419 C   0  0  0  0  0  0  0  0  0  0  0  0
   -8.9070   16.3936  -22.4495 C   0  0  0  0  0  0  0  0  0  0  0  0
   -9.3194   14.7468  -22.4959 S   0  0  0  0  0  0  0  0  0  0  0  0
  -10.6832   13.7193  -23.1004 C   0  0  0  0  0  0  0  0  0  0  0  0
  -12.0260   13.9581  -22.3994 C   0  0  1  0  0  0  0  0  0  0  0  0
  -13.0024   12.9982  -22.7603 O   0  0  0  0  0  0  0  0  0  0  0  0
  -11.9224   13.7928  -20.9016 C   0  0  1  0  0  0  0  0  0  0  0  0
  -12.9961   14.5435  -20.3781 O   0  0  0  0  0  0  0  0  0  0  0  0
  -12.2014   12.3302  -20.6445 C   0  0  1  0  0  0  0  0  0  0  0  0
  -13.0075   12.1950  -19.4945 O   0  0  0  0  0  0  0  0  0  0  0  0
  -12.9875   11.9024  -21.8649 C   0  0  2  0  0  0  0  0  0  0  0  0
   -5.7674   18.4659  -23.5815 O   0  0  0  0  0  0  0  0  0  0  0  0
  -14.0226    7.7832  -24.8940 N   0  0  0  0  0  0  0  0  0  0  0  0
  -14.9129    8.6649  -24.3282 C   0  0  0  0  0  0  0  0  0  0  0  0
  -14.4442    9.6900  -23.5423 N   0  0  0  0  0  0  0  0  0  0  0  0
  -13.1234    9.8402  -23.3230 C   0  0  0  0  0  0  0  0  0  0  0  0
  -12.2111    8.9657  -23.8828 C   0  0  0  0  0  0  0  0  0  0  0  0
  -12.6750    7.9234  -24.6767 C   0  0  0  0  0  0  0  0  0  0  0  0
  -11.8341    7.0585  -25.2304 N   0  0  0  0  0  0  0  0  0  0  0  0
  -10.9712    9.3463  -23.5018 N   0  0  0  0  0  0  0  0  0  0  0  0
  -11.0875   10.4398  -22.7234 C   0  0  0  0  0  0  0  0  0  0  0  0
  -12.4160   10.7541  -22.5921 N   0  0  0  0  0  0  0  0  0  0  0  0
  2  1  1  6  0  0  0
  2  3  1  0  0  0  0
  2  5  1  0  0  0  0
  3  4  1  0  0  0  0
  3 16  1  0  0  0  0
  5  6  1  0  0  0  0
  6  7  1  0  0  0  0
  7  8  1  0  0  0  0
  9  8  1  6  0  0  0
  9 10  1  0  0  0  0
  9 11  1  0  0  0  0
 10 15  1  0  0  0  0
 11 12  1  1  0  0  0
 11 13  1  0  0  0  0
 13 14  1  1  0  0  0
 13 15  1  0  0  0  0
 15 26  1  6  0  0  0
 17 18  2  0  0  0  0
 17 22  1  0  0  0  0
 18 19  1  0  0  0  0
 19 20  2  0  0  0  0
 20 21  1  0  0  0  0
 20 26  1  0  0  0  0
 21 22  2  0  0  0  0
 21 24  1  0  0  0  0
 22 23  1  0  0  0  0
 24 25  2  0  0  0  0
 25 26  1  0  0  0  0
M  END
>  <CHROM.1>
139.58983038,-170.64701955,-176.70251980,-64.44003181,-64.57836603,-170.96123958
-90.12850523,-10.98678644,13.20213702,-22.81873042,-0.80453413,-0.72102880
-2.50103211

>  <Name>
ligand

>  <RI>
0

>  <Rbt.Current_Directory>
/home/itssahil/PROJECTS/Mol_Feturizer/New_Systems/rnas/3E5E

>  <Rbt.Executable>
rbdock ($Id: //depot/dev/client3/rdock/2013.1/src/exe/rbdock.cxx#4 $)

>  <Rbt.Library>
libRbt.so (2013.1, Build901 2013/11/27)

>  <Rbt.Parameter_File>
/export/apps/rDock/src/rDock_2013.1_src/data/scripts/dock_solv.prm

>  <Rbt.Receptor>
prm/blind_docking_80.prm

>  <SCORE>
-20.7042

>  <SCORE.INTER>
-16.4788

>  <SCORE.INTER.CONST>
1

>  <SCORE.INTER.POLAR>
0

>  <SCORE.INTER.ROT>
7

>  <SCORE.INTER.SOLV>
9.35687

>  <SCORE.INTER.VDW>
-22.3715

>  <SCORE.INTER.norm>
-0.633801

>  <SCORE.INTRA>
-4.22539

>  <SCORE.INTRA.DIHEDRAL>
-6.79245

>  <SCORE.INTRA.DIHEDRAL.0>
10.1225

>  <SCORE.INTRA.POLAR>
0

>  <SCORE.INTRA.POLAR.0>
0

>  <SCORE.INTRA.REPUL>
0

>  <SCORE.INTRA.REPUL.0>
0

>  <SCORE.INTRA.SOLV>
-0.550274

>  <SCORE.INTRA.SOLV.lig_0>
-49.9393

>  <SCORE.INTRA.VDW>
-0.554029

>  <SCORE.INTRA.VDW.0>
-1.75437

>  <SCORE.INTRA.norm>
-0.162515

>  <SCORE.RESTR>
0

>  <SCORE.RESTR.CAVITY>
0

>  <SCORE.RESTR.norm>
0

>  <SCORE.SYSTEM>
0

>  <SCORE.SYSTEM.CONST>
0

>  <SCORE.SYSTEM.DIHEDRAL>
0

>  <SCORE.SYSTEM.SOLV>
0

>  <SCORE.SYSTEM.norm>
0

>  <SCORE.heavy>
26

>  <SCORE.norm>
-0.796316

>  <RMSD>
9.749

$$$$
ligand
 OpenBabel11021811473D
libRbt.so/2013.1/901 2013/11/27
 26 28  0  0  0  0  0  0  0  0999 V2000
   -5.7677   15.4381  -22.7046 N   0  0  0  0  0  0  0  0  0  0  0  0
   -6.5763   16.3814  -23.4869 C   0  0  2  0  0  0  0  0  0  0  0  0
   -5.7051   17.5148  -23.9608 C   0  0  0  0  0  0  0  0  0  0  0  0
   -5.8630   17.9784  -25.0658 O   0  0  0  0  0  0  0  0  0  0  0  0
   -7.7025   16.9340  -22.6117 C   0  0  0  0  0  0  0  0  0  0  0  0
   -8.6400   15.7974  -22.2083 C   0  0  0  0  0  0  0  0  0  0  0  0
   -9.4973   14.9255  -23.3869 S   0  0  0  0  0  0  0  0  0  0  0  0
  -10.6923   13.5656  -23.4484 C   0  0  0  0  0  0  0  0  0  0  0  0
  -11.9949   13.8207  -22.6805 C   0  0  1  0  0  0  0  0  0  0  0  0
  -12.9775   12.8349  -22.9402 O   0  0  0  0  0  0  0  0  0  0  0  0
  -11.8014   13.7241  -21.1856 C   0  0  1  0  0  0  0  0  0  0  0  0
  -12.8528   14.4856  -20.6332 O   0  0  0  0  0  0  0  0  0  0  0  0
  -12.0447   12.2716  -20.8480 C   0  0  1  0  0  0  0  0  0  0  0  0
  -12.7801   12.1793  -19.6474 O   0  0  0  0  0  0  0  0  0  0  0  0
  -12.8951   11.7806  -21.9997 C   0  0  2  0  0  0  0  0  0  0  0  0
   -4.7498   18.0101  -23.1570 O   0  0  0  0  0  0  0  0  0  0  0  0
  -14.0430    7.5666  -24.8524 N   0  0  0  0  0  0  0  0  0  0  0  0
  -14.9114    8.4690  -24.2854 C   0  0  0  0  0  0  0  0  0  0  0  0
  -14.4137    9.5182  -23.5508 N   0  0  0  0  0  0  0  0  0  0  0  0
  -13.0857    9.6717  -23.3829 C   0  0  0  0  0  0  0  0  0  0  0  0
  -12.1951    8.7765  -23.9450 C   0  0  0  0  0  0  0  0  0  0  0  0
  -12.6884    7.7098  -24.6871 C   0  0  0  0  0  0  0  0  0  0  0  0
  -11.8690    6.8247  -25.2409 N   0  0  0  0  0  0  0  0  0  0  0  0
  -10.9419    9.1658  -23.6203 N   0  0  0  0  0  0  0  0  0  0  0  0
  -11.0289   10.2848  -22.8750 C   0  0  0  0  0  0  0  0  0  0  0  0
  -12.3515   10.6072  -22.7079 N   0  0  0  0  0  0  0  0  0  0  0  0
  2  1  1  1  0  0  0
  2  3  1  0  0  0  0
  2  5  1  0  0  0  0
  3  4  1  0  0  0  0
  3 16  1  0  0  0  0
  5  6  1  0  0  0  0
  6  7  1  0  0  0  0
  7  8  1  0  0  0  0
  9  8  1  6  0  0  0
  9 10  1  0  0  0  0
  9 11  1  0  0  0  0
 10 15  1  0  0  0  0
 11 12  1  1  0  0  0
 11 13  1  0  0  0  0
 13 14  1  1  0  0  0
 13 15  1  0  0  0  0
 15 26  1  6  0  0  0
 17 18  2  0  0  0  0
 17 22  1  0  0  0  0
 18 19  1  0  0  0  0
 19 20  2  0  0  0  0
 20 21  1  0  0  0  0
 20 26  1  0  0  0  0
 21 22  2  0  0  0  0
 21 24  1  0  0  0  0
 22 23  1  0  0  0  0
 24 25  2  0  0  0  0
 25 26  1  0  0  0  0
M  END
>  <CHROM.1>
141.51160686,-63.83598659,-62.01871124,-179.18675530,58.88914893,170.12401607
-88.38672399,-10.65536073,12.78467235,-23.02653948,-0.71552843,-0.56029651
-2.55755091

>  <Name>
ligand

>  <RI>
0

>  <Rbt.Current_Directory>
/home/itssahil/PROJECTS/Mol_Feturizer/New_Systems/rnas/3E5E

>  <Rbt.Executable>
rbdock ($Id: //depot/dev/client3/rdock/2013.1/src/exe/rbdock.cxx#4 $)

>  <Rbt.Library>
libRbt.so (2013.1, Build901 2013/11/27)

>  <Rbt.Parameter_File>
/export/apps/rDock/src/rDock_2013.1_src/data/scripts/dock_solv.prm

>  <Rbt.Receptor>
prm/blind_docking_100.prm

>  <SCORE>
-19.9872

>  <SCORE.INTER>
-16.0817

>  <SCORE.INTER.CONST>
1

>  <SCORE.INTER.POLAR>
0

>  <SCORE.INTER.ROT>
7

>  <SCORE.INTER.SOLV>
7.4382

>  <SCORE.INTER.VDW>
-21.4672

>  <SCORE.INTER.norm>
-0.618527

>  <SCORE.INTRA>
-3.90546

>  <SCORE.INTRA.DIHEDRAL>
-7.14097

>  <SCORE.INTRA.DIHEDRAL.0>
10.1225

>  <SCORE.INTRA.POLAR>
0

>  <SCORE.INTRA.POLAR.0>
0

>  <SCORE.INTRA.REPUL>
0

>  <SCORE.INTRA.REPUL.0>
0

>  <SCORE.INTRA.SOLV>
0.736023

>  <SCORE.INTRA.SOLV.lig_0>
-49.9393

>  <SCORE.INTRA.VDW>
-0.702983

>  <SCORE.INTRA.VDW.0>
-1.75437

>  <SCORE.INTRA.norm>
-0.15021

>  <SCORE.RESTR>
0

>  <SCORE.RESTR.CAVITY>
0

>  <SCORE.RESTR.norm>
0

>  <SCORE.SYSTEM>
0

>  <SCORE.SYSTEM.CONST>
0

>  <SCORE.SYSTEM.DIHEDRAL>
0

>  <SCORE.SYSTEM.SOLV>
0

>  <SCORE.SYSTEM.norm>
0

>  <SCORE.heavy>
26

>  <SCORE.norm>
-0.768737

>  <RMSD>
9.750

$$$$
ligand
 OpenBabel11021811473D
libRbt.so/2013.1/901 2013/11/27
 26 28  0  0  0  0  0  0  0  0999 V2000
   -6.5917   15.3015  -24.0146 N   0  0  0  0  0  0  0  0  0  0  0  0
   -6.8731   16.7420  -23.9750 C   0  0  2  0  0  0  0  0  0  0  0  0
   -5.5756   17.5064  -23.9944 C   0  0  0  0  0  0  0  0  0  0  0  0
   -5.4839   18.5267  -24.6360 O   0  0  0  0  0  0  0  0  0  0  0  0
   -7.6434   17.0751  -22.6962 C   0  0  0  0  0  0  0  0  0  0  0  0
   -9.0596   16.5106  -22.7918 C   0  0  0  0  0  0  0  0  0  0  0  0
   -9.3259   14.8339  -22.7481 S   0  0  0  0  0  0  0  0  0  0  0  0
  -10.6576   13.6735  -23.1493 C   0  0  0  0  0  0  0  0  0  0  0  0
  -11.9810   13.9390  -22.4215 C   0  0  1  0  0  0  0  0  0  0  0  0
  -12.9790   12.9902  -22.7511 O   0  0  0  0  0  0  0  0  0  0  0  0
  -11.8467   13.7872  -20.9248 C   0  0  1  0  0  0  0  0  0  0  0  0
  -12.8976   14.5587  -20.3856 O   0  0  0  0  0  0  0  0  0  0  0  0
  -12.1412   12.3315  -20.6466 C   0  0  1  0  0  0  0  0  0  0  0  0
  -12.9235   12.2196  -19.4778 O   0  0  0  0  0  0  0  0  0  0  0  0
  -12.9602   11.9032  -21.8450 C   0  0  2  0  0  0  0  0  0  0  0  0
   -4.5181   17.0539  -23.3010 O   0  0  0  0  0  0  0  0  0  0  0  0
  -14.1161    7.7992  -24.8509 N   0  0  0  0  0  0  0  0  0  0  0  0
  -14.9809    8.7032  -24.2810 C   0  0  0  0  0  0  0  0  0  0  0  0
  -14.4820    9.7198  -23.5026 N   0  0  0  0  0  0  0  0  0  0  0  0
  -13.1563    9.8398  -23.2946 C   0  0  0  0  0  0  0  0  0  0  0  0
  -12.2692    8.9424  -23.8588 C   0  0  0  0  0  0  0  0  0  0  0  0
  -12.7638    7.9085  -24.6451 C   0  0  0  0  0  0  0  0  0  0  0  0
  -11.9479    7.0224  -25.2026 N   0  0  0  0  0  0  0  0  0  0  0  0
  -11.0176    9.2952  -23.4892 N   0  0  0  0  0  0  0  0  0  0  0  0
  -11.1020   10.3937  -22.7137 C   0  0  0  0  0  0  0  0  0  0  0  0
  -12.4217   10.7394  -22.5728 N   0  0  0  0  0  0  0  0  0  0  0  0
  2  1  1  1  0  0  0
  2  3  1  0  0  0  0
  2  5  1  0  0  0  0
  3  4  1  0  0  0  0
  3 16  1  0  0  0  0
  5  6  1  0  0  0  0
  6  7  1  0  0  0  0
  7  8  1  0  0  0  0
  9  8  1  6  0  0  0
  9 10  1  0  0  0  0
  9 11  1  0  0  0  0
 10 15  1  0  0  0  0
 11 12  1  1  0  0  0
 11 13  1  0  0  0  0
 13 14  1  1  0  0  0
 13 15  1  0  0  0  0
 15 26  1  6  0  0  0
 17 18  2  0  0  0  0
 17 22  1  0  0  0  0
 18 19  1  0  0  0  0
 19 20  2  0  0  0  0
 20 21  1  0  0  0  0
 20 26  1  0  0  0  0
 21 22  2  0  0  0  0
 21 24  1  0  0  0  0
 22 23  1  0  0  0  0
 24 25  2  0  0  0  0
 25 26  1  0  0  0  0
M  END
>  <CHROM.1>
140.81745489,-70.42742341,69.48239621,-164.00080622,-56.73904232,-178.88109907
-89.11772133,-10.70381103,12.88800932,-22.95878755,-0.67809022,-0.57961752
-2.54445126

>  <Name>
ligand

>  <RI>
0

>  <Rbt.Current_Directory>
/home/itssahil/PROJECTS/Mol_Feturizer/New_Systems/rnas/3E5E

>  <Rbt.Executable>
rbdock ($Id: //depot/dev/client3/rdock/2013.1/src/exe/rbdock.cxx#4 $)

>  <Rbt.Library>
libRbt.so (2013.1, Build901 2013/11/27)

>  <Rbt.Parameter_File>
/export/apps/rDock/src/rDock_2013.1_src/data/scripts/dock_solv.prm

>  <Rbt.Receptor>
prm/pocket_docking_8.prm

>  <SCORE>
-19.7903

>  <SCORE.INTER>
-16.6077

>  <SCORE.INTER.CONST>
1

>  <SCORE.INTER.POLAR>
0

>  <SCORE.INTER.ROT>
7

>  <SCORE.INTER.SOLV>
7.8249

>  <SCORE.INTER.VDW>
-21.9468

>  <SCORE.INTER.norm>
-0.638757

>  <SCORE.INTRA>
-3.18259

>  <SCORE.INTRA.DIHEDRAL>
-6.36269

>  <SCORE.INTRA.DIHEDRAL.0>
10.1225

>  <SCORE.INTRA.POLAR>
0

>  <SCORE.INTRA.POLAR.0>
0

>  <SCORE.INTRA.REPUL>
0

>  <SCORE.INTRA.REPUL.0>
0

>  <SCORE.INTRA.SOLV>
1.44776

>  <SCORE.INTRA.SOLV.lig_0>
-49.9393

>  <SCORE.INTRA.VDW>
-0.72513

>  <SCORE.INTRA.VDW.0>
-1.75437

>  <SCORE.INTRA.norm>
-0.122407

>  <SCORE.RESTR>
0

>  <SCORE.RESTR.CAVITY>
0

>  <SCORE.RESTR.norm>
0

>  <SCORE.SYSTEM>
0

>  <SCORE.SYSTEM.CONST>
0

>  <SCORE.SYSTEM.DIHEDRAL>
0

>  <SCORE.SYSTEM.SOLV>
0

>  <SCORE.SYSTEM.norm>
0

>  <SCORE.heavy>
26

>  <SCORE.norm>
-0.761164

>  <RMSD>
9.764

$$$$
ligand
 OpenBabel11021811473D
libRbt.so/2013.1/901 2013/11/27
 26 28  0  0  0  0  0  0  0  0999 V2000
   -8.4697   19.3989  -23.8364 N   0  0  0  0  0  0  0  0  0  0  0  0
   -7.9907   18.3355  -22.9447 C   0  0  2  0  0  0  0  0  0  0  0  0
   -6.4975   18.1987  -23.0854 C   0  0  0  0  0  0  0  0  0  0  0  0
   -5.8564   17.6458  -22.2226 O   0  0  0  0  0  0  0  0  0  0  0  0
   -8.6627   17.0140  -23.3215 C   0  0  0  0  0  0  0  0  0  0  0  0
   -8.6093   16.0570  -22.1321 C   0  0  0  0  0  0  0  0  0  0  0  0
   -9.0331   14.4230  -22.3185 S   0  0  0  0  0  0  0  0  0  0  0  0
  -10.3874   13.4594  -23.0386 C   0  0  0  0  0  0  0  0  0  0  0  0
  -11.7829   13.8270  -22.5198 C   0  0  1  0  0  0  0  0  0  0  0  0
  -12.7903   12.9694  -23.0243 O   0  0  0  0  0  0  0  0  0  0  0  0
  -11.8988   13.6469  -21.0246 C   0  0  1  0  0  0  0  0  0  0  0  0
  -12.9553   14.4979  -20.6371 O   0  0  0  0  0  0  0  0  0  0  0  0
  -12.3508   12.2181  -20.8318 C   0  0  1  0  0  0  0  0  0  0  0  0
  -13.3139   12.1589  -19.8025 O   0  0  0  0  0  0  0  0  0  0  0  0
  -13.0029   11.8742  -22.1536 C   0  0  2  0  0  0  0  0  0  0  0  0
   -5.8760   18.6931  -24.1685 O   0  0  0  0  0  0  0  0  0  0  0  0
  -14.1365    7.4695  -24.7086 N   0  0  0  0  0  0  0  0  0  0  0  0
  -15.0083    8.3779  -24.1564 C   0  0  0  0  0  0  0  0  0  0  0  0
  -14.5134    9.4821  -23.5053 N   0  0  0  0  0  0  0  0  0  0  0  0
  -13.1850    9.6836  -23.4047 C   0  0  0  0  0  0  0  0  0  0  0  0
  -12.2910    8.7834  -23.9533 C   0  0  0  0  0  0  0  0  0  0  0  0
  -12.7813    7.6614  -24.6111 C   0  0  0  0  0  0  0  0  0  0  0  0
  -11.9584    6.7696  -25.1490 N   0  0  0  0  0  0  0  0  0  0  0  0
  -11.0382    9.2271  -23.7065 N   0  0  0  0  0  0  0  0  0  0  0  0
  -11.1290   10.3847  -23.0231 C   0  0  0  0  0  0  0  0  0  0  0  0
  -12.4529   10.6778  -22.8169 N   0  0  0  0  0  0  0  0  0  0  0  0
  2  1  1  6  0  0  0
  2  3  1  0  0  0  0
  2  5  1  0  0  0  0
  3  4  1  0  0  0  0
  3 16  1  0  0  0  0
  5  6  1  0  0  0  0
  6  7  1  0  0  0  0
  7  8  1  0  0  0  0
  9  8  1  6  0  0  0
  9 10  1  0  0  0  0
  9 11  1  0  0  0  0
 10 15  1  0  0  0  0
 11 12  1  6  0  0  0
 11 13  1  0  0  0  0
 13 14  1  1  0  0  0
 13 15  1  0  0  0  0
 15 26  1  6  0  0  0
 17 18  2  0  0  0  0
 17 22  1  0  0  0  0
 18 19  1  0  0  0  0
 19 20  2  0  0  0  0
 20 21  1  0  0  0  0
 20 26  1  0  0  0  0
 21 22  2  0  0  0  0
 21 24  1  0  0  0  0
 22 23  1  0  0  0  0
 24 25  2  0  0  0  0
 25 26  1  0  0  0  0
M  END
>  <CHROM.1>
160.89268424,-158.49376414,-169.49274441,-48.85994582,-54.78183156,-174.82608664
-105.42720596,-10.92500232,13.00443886,-22.86088925,0.85195672,0.59688897
0.53532787

>  <Name>
ligand

>  <RI>
0

>  <Rbt.Current_Directory>
/home/itssahil/PROJECTS/Mol_Feturizer/New_Systems/rnas/3E5E

>  <Rbt.Executable>
rbdock ($Id: //depot/dev/client3/rdock/2013.1/src/exe/rbdock.cxx#4 $)

>  <Rbt.Library>
libRbt.so (2013.1, Build901 2013/11/27)

>  <Rbt.Parameter_File>
/export/apps/rDock/src/rDock_2013.1_src/data/scripts/dock_solv.prm

>  <Rbt.Receptor>
prm/pocket_docking_7.prm

>  <SCORE>
-18.832

>  <SCORE.INTER>
-15.3927

>  <SCORE.INTER.CONST>
1

>  <SCORE.INTER.POLAR>
0

>  <SCORE.INTER.ROT>
7

>  <SCORE.INTER.SOLV>
8.97324

>  <SCORE.INTER.VDW>
-21.5195

>  <SCORE.INTER.norm>
-0.592027

>  <SCORE.INTRA>
-3.43934

>  <SCORE.INTRA.DIHEDRAL>
-5.07282

>  <SCORE.INTRA.DIHEDRAL.0>
10.1225

>  <SCORE.INTRA.POLAR>
0

>  <SCORE.INTRA.POLAR.0>
0

>  <SCORE.INTRA.REPUL>
0

>  <SCORE.INTRA.REPUL.0>
0

>  <SCORE.INTRA.SOLV>
-0.531489

>  <SCORE.INTRA.SOLV.lig_0>
-49.9393

>  <SCORE.INTRA.VDW>
-0.637189

>  <SCORE.INTRA.VDW.0>
-1.75437

>  <SCORE.INTRA.norm>
-0.132282

>  <SCORE.RESTR>
0

>  <SCORE.RESTR.CAVITY>
0

>  <SCORE.RESTR.norm>
0

>  <SCORE.SYSTEM>
0

>  <SCORE.SYSTEM.CONST>
0

>  <SCORE.SYSTEM.DIHEDRAL>
0

>  <SCORE.SYSTEM.SOLV>
0

>  <SCORE.SYSTEM.norm>
0

>  <SCORE.heavy>
26

>  <SCORE.norm>
-0.724309

>  <RMSD>
9.769

$$$$
ligand
 OpenBabel11021811473D
libRbt.so/2013.1/901 2013/11/27
 26 28  0  0  0  0  0  0  0  0999 V2000
   -6.5302   15.2243  -23.9475 N   0  0  0  0  0  0  0  0  0  0  0  0
   -6.8723   16.6478  -24.0578 C   0  0  2  0  0  0  0  0  0  0  0  0
   -5.6105   17.4561  -24.2084 C   0  0  0  0  0  0  0  0  0  0  0  0
   -4.6107   17.1342  -23.6102 O   0  0  0  0  0  0  0  0  0  0  0  0
   -7.6162   17.0917  -22.7971 C   0  0  0  0  0  0  0  0  0  0  0  0
   -9.0421   16.5444  -22.8265 C   0  0  0  0  0  0  0  0  0  0  0  0
   -9.3277   14.8727  -22.7371 S   0  0  0  0  0  0  0  0  0  0  0  0
  -10.6496   13.7103  -23.1639 C   0  0  0  0  0  0  0  0  0  0  0  0
  -11.9853   13.9697  -22.4566 C   0  0  1  0  0  0  0  0  0  0  0  0
  -12.9703   13.0095  -22.7923 O   0  0  0  0  0  0  0  0  0  0  0  0
  -11.8705   13.8308  -20.9570 C   0  0  1  0  0  0  0  0  0  0  0  0
  -12.9355   14.5971  -20.4385 O   0  0  0  0  0  0  0  0  0  0  0  0
  -12.1559   12.3747  -20.6714 C   0  0  1  0  0  0  0  0  0  0  0  0
  -12.9534   12.2650  -19.5126 O   0  0  0  0  0  0  0  0  0  0  0  0
  -12.9545   11.9298  -21.8775 C   0  0  2  0  0  0  0  0  0  0  0  0
   -5.5954   18.5370  -25.0054 O   0  0  0  0  0  0  0  0  0  0  0  0
  -14.0323    7.7928  -24.8670 N   0  0  0  0  0  0  0  0  0  0  0  0
  -14.9129    8.6936  -24.3164 C   0  0  0  0  0  0  0  0  0  0  0  0
  -14.4338    9.7204  -23.5391 N   0  0  0  0  0  0  0  0  0  0  0  0
  -13.1122    9.8537  -23.3135 C   0  0  0  0  0  0  0  0  0  0  0  0
  -12.2095    8.9598  -23.8581 C   0  0  0  0  0  0  0  0  0  0  0  0
  -12.6841    7.9155  -24.6432 C   0  0  0  0  0  0  0  0  0  0  0  0
  -11.8528    7.0323  -25.1822 N   0  0  0  0  0  0  0  0  0  0  0  0
  -10.9664    9.3264  -23.4738 N   0  0  0  0  0  0  0  0  0  0  0  0
  -11.0712   10.4300  -22.7083 C   0  0  0  0  0  0  0  0  0  0  0  0
  -12.3957   10.7652  -22.5886 N   0  0  0  0  0  0  0  0  0  0  0  0
  2  1  1  1  0  0  0
  2  3  1  0  0  0  0
  2  5  1  0  0  0  0
  3  4  1  0  0  0  0
  3 16  1  0  0  0  0
  5  6  1  0  0  0  0
  6  7  1  0  0  0  0
  7  8  1  0  0  0  0
  9  8  1  6  0  0  0
  9 10  1  0  0  0  0
  9 11  1  0  0  0  0
 10 15  1  0  0  0  0
 11 12  1  1  0  0  0
 11 13  1  0  0  0  0
 13 14  1  1  0  0  0
 13 15  1  0  0  0  0
 15 26  1  6  0  0  0
 17 18  2  0  0  0  0
 17 22  1  0  0  0  0
 18 19  1  0  0  0  0
 19 20  2  0  0  0  0
 20 21  1  0  0  0  0
 20 26  1  0  0  0  0
 21 22  2  0  0  0  0
 21 24  1  0  0  0  0
 22 23  1  0  0  0  0
 24 25  2  0  0  0  0
 25 26  1  0  0  0  0
M  END
>  <CHROM.1>
-36.68969224,-74.36986967,65.97804884,-158.84352208,-59.80077560,-178.12242334
-89.10250417,-10.69290419,12.90444212,-23.01212788,-0.67598375,-0.59055057
-2.55663100

>  <Name>
ligand

>  <RI>
0

>  <Rbt.Current_Directory>
/home/itssahil/PROJECTS/Mol_Feturizer/New_Systems/rnas/3E5E

>  <Rbt.Executable>
rbdock ($Id: //depot/dev/client3/rdock/2013.1/src/exe/rbdock.cxx#4 $)

>  <Rbt.Library>
libRbt.so (2013.1, Build901 2013/11/27)

>  <Rbt.Parameter_File>
/export/apps/rDock/src/rDock_2013.1_src/data/scripts/dock_solv.prm

>  <Rbt.Receptor>
prm/blind_docking_60.prm

>  <SCORE>
-19.6389

>  <SCORE.INTER>
-16.6848

>  <SCORE.INTER.CONST>
1

>  <SCORE.INTER.POLAR>
0

>  <SCORE.INTER.ROT>
7

>  <SCORE.INTER.SOLV>
7.99287

>  <SCORE.INTER.VDW>
-22.0542

>  <SCORE.INTER.norm>
-0.641725

>  <SCORE.INTRA>
-2.95404

>  <SCORE.INTRA.DIHEDRAL>
-5.94608

>  <SCORE.INTRA.DIHEDRAL.0>
10.1225

>  <SCORE.INTRA.POLAR>
0

>  <SCORE.INTRA.POLAR.0>
0

>  <SCORE.INTRA.REPUL>
0

>  <SCORE.INTRA.REPUL.0>
0

>  <SCORE.INTRA.SOLV>
1.37727

>  <SCORE.INTRA.SOLV.lig_0>
-49.9393

>  <SCORE.INTRA.VDW>
-0.66963

>  <SCORE.INTRA.VDW.0>
-1.75437

>  <SCORE.INTRA.norm>
-0.113617

>  <SCORE.RESTR>
0

>  <SCORE.RESTR.CAVITY>
0

>  <SCORE.RESTR.norm>
0

>  <SCORE.SYSTEM>
0

>  <SCORE.SYSTEM.CONST>
0

>  <SCORE.SYSTEM.DIHEDRAL>
0

>  <SCORE.SYSTEM.SOLV>
0

>  <SCORE.SYSTEM.norm>
0

>  <SCORE.heavy>
26

>  <SCORE.norm>
-0.755341

>  <RMSD>
9.770

$$$$
ligand
 OpenBabel11021811473D
libRbt.so/2013.1/901 2013/11/27
 26 28  0  0  0  0  0  0  0  0999 V2000
   -5.7858   15.3933  -21.9336 N   0  0  0  0  0  0  0  0  0  0  0  0
   -4.3242   15.4993  -22.0235 C   0  0  2  0  0  0  0  0  0  0  0  0
   -3.9600   16.6621  -22.9086 C   0  0  0  0  0  0  0  0  0  0  0  0
   -2.9806   17.3264  -22.6626 O   0  0  0  0  0  0  0  0  0  0  0  0
   -3.7558   14.2086  -22.6157 C   0  0  0  0  0  0  0  0  0  0  0  0
   -4.5238   13.8484  -23.8860 C   0  0  0  0  0  0  0  0  0  0  0  0
   -5.8682   12.8130  -23.8182 S   0  0  0  0  0  0  0  0  0  0  0  0
   -7.4820   12.7575  -22.9973 C   0  0  0  0  0  0  0  0  0  0  0  0
   -8.3967   13.9509  -23.2989 C   0  0  1  0  0  0  0  0  0  0  0  0
   -8.9815   13.8719  -24.5860 O   0  0  0  0  0  0  0  0  0  0  0  0
   -9.5957   13.9938  -22.3814 C   0  0  1  0  0  0  0  0  0  0  0  0
  -10.0077   15.3432  -22.3849 O   0  0  0  0  0  0  0  0  0  0  0  0
  -10.6575   13.1759  -23.0790 C   0  0  1  0  0  0  0  0  0  0  0  0
  -11.9121   13.8056  -22.9374 O   0  0  0  0  0  0  0  0  0  0  0  0
  -10.2340   13.2155  -24.5315 C   0  0  2  0  0  0  0  0  0  0  0  0
   -4.7245   16.9640  -23.9709 O   0  0  0  0  0  0  0  0  0  0  0  0
  -11.3935    8.1373  -24.2457 N   0  0  0  0  0  0  0  0  0  0  0  0
  -11.7358    9.1362  -23.3652 C   0  0  0  0  0  0  0  0  0  0  0  0
  -11.3224   10.4239  -23.6078 N   0  0  0  0  0  0  0  0  0  0  0  0
  -10.5881   10.7167  -24.6988 C   0  0  0  0  0  0  0  0  0  0  0  0
  -10.2338    9.7280  -25.5973 C   0  0  0  0  0  0  0  0  0  0  0  0
  -10.6441    8.4215  -25.3594 C   0  0  0  0  0  0  0  0  0  0  0  0
  -10.3227    7.4407  -26.1939 N   0  0  0  0  0  0  0  0  0  0  0  0
   -9.5063   10.2950  -26.5856 N   0  0  0  0  0  0  0  0  0  0  0  0
   -9.4036   11.6136  -26.3288 C   0  0  0  0  0  0  0  0  0  0  0  0
  -10.0590   11.8916  -25.1565 N   0  0  0  0  0  0  0  0  0  0  0  0
  2  1  1  6  0  0  0
  2  3  1  0  0  0  0
  2  5  1  0  0  0  0
  3  4  1  0  0  0  0
  3 16  1  0  0  0  0
  5  6  1  0  0  0  0
  6  7  1  0  0  0  0
  7  8  1  0  0  0  0
  9  8  1  1  0  0  0
  9 10  1  0  0  0  0
  9 11  1  0  0  0  0
 10 15  1  0  0  0  0
 11 12  1  6  0  0  0
 11 13  1  0  0  0  0
 13 14  1  6  0  0  0
 13 15  1  0  0  0  0
 15 26  1  1  0  0  0
 17 18  2  0  0  0  0
 17 22  1  0  0  0  0
 18 19  1  0  0  0  0
 19 20  2  0  0  0  0
 20 21  1  0  0  0  0
 20 26  1  0  0  0  0
 21 22  2  0  0  0  0
 21 24  1  0  0  0  0
 22 23  1  0  0  0  0
 24 25  2  0  0  0  0
 25 26  1  0  0  0  0
M  END
>  <CHROM.1>
144.83167494,49.45544530,-92.46169116,58.78604783,58.22827481,76.07432717
138.56804089,-8.22372105,12.83119535,-23.85626933,0.77411267,0.13196336,0.45068388

>  <Name>
ligand

>  <RI>
0

>  <Rbt.Current_Directory>
/home/itssahil/PROJECTS/Mol_Feturizer/New_Systems/rnas/3E5E

>  <Rbt.Executable>
rbdock ($Id: //depot/dev/client3/rdock/2013.1/src/exe/rbdock.cxx#4 $)

>  <Rbt.Library>
libRbt.so (2013.1, Build901 2013/11/27)

>  <Rbt.Parameter_File>
/export/apps/rDock/src/rDock_2013.1_src/data/scripts/dock_solv.prm

>  <Rbt.Receptor>
prm/blind_docking_80.prm

>  <SCORE>
-14.0777

>  <SCORE.INTER>
-13.6813

>  <SCORE.INTER.CONST>
1

>  <SCORE.INTER.POLAR>
0

>  <SCORE.INTER.ROT>
7

>  <SCORE.INTER.SOLV>
8.2903

>  <SCORE.INTER.VDW>
-20.151

>  <SCORE.INTER.norm>
-0.526204

>  <SCORE.INTRA>
-0.396365

>  <SCORE.INTRA.DIHEDRAL>
-3.07246

>  <SCORE.INTRA.DIHEDRAL.0>
10.1225

>  <SCORE.INTRA.POLAR>
0

>  <SCORE.INTRA.POLAR.0>
0

>  <SCORE.INTRA.REPUL>
0

>  <SCORE.INTRA.REPUL.0>
0

>  <SCORE.INTRA.SOLV>
3.45387

>  <SCORE.INTRA.SOLV.lig_0>
-49.9393

>  <SCORE.INTRA.VDW>
-0.587072

>  <SCORE.INTRA.VDW.0>
-1.75437

>  <SCORE.INTRA.norm>
-0.0152448

>  <SCORE.RESTR>
0

>  <SCORE.RESTR.CAVITY>
0

>  <SCORE.RESTR.norm>
0

>  <SCORE.SYSTEM>
0

>  <SCORE.SYSTEM.CONST>
0

>  <SCORE.SYSTEM.DIHEDRAL>
0

>  <SCORE.SYSTEM.SOLV>
0

>  <SCORE.SYSTEM.norm>
0

>  <SCORE.heavy>
26

>  <SCORE.norm>
-0.541449

>  <RMSD>
9.770

$$$$
ligand
 OpenBabel11021811473D
libRbt.so/2013.1/901 2013/11/27
 26 28  0  0  0  0  0  0  0  0999 V2000
   -5.1329   17.7471  -22.2193 N   0  0  0  0  0  0  0  0  0  0  0  0
   -5.8444   16.7175  -22.9869 C   0  0  2  0  0  0  0  0  0  0  0  0
   -5.7948   17.0614  -24.4523 C   0  0  0  0  0  0  0  0  0  0  0  0
   -5.7885   16.1812  -25.2807 O   0  0  0  0  0  0  0  0  0  0  0  0
   -7.3015   16.6549  -22.5257 C   0  0  0  0  0  0  0  0  0  0  0  0
   -7.9789   15.4308  -23.1391 C   0  0  0  0  0  0  0  0  0  0  0  0
   -9.5864   15.0468  -22.7487 S   0  0  0  0  0  0  0  0  0  0  0  0
  -10.8036   13.7723  -23.1672 C   0  0  0  0  0  0  0  0  0  0  0  0
  -12.1801   13.9620  -22.5186 C   0  0  1  0  0  0  0  0  0  0  0  0
  -13.0940   12.9433  -22.8821 O   0  0  0  0  0  0  0  0  0  0  0  0
  -12.1200   13.8453  -21.0138 C   0  0  1  0  0  0  0  0  0  0  0  0
  -13.2476   14.5546  -20.5491 O   0  0  0  0  0  0  0  0  0  0  0  0
  -12.3338   12.3783  -20.7217 C   0  0  1  0  0  0  0  0  0  0  0  0
  -13.1712   12.2350  -19.5952 O   0  0  0  0  0  0  0  0  0  0  0  0
  -13.0548   11.8758  -21.9538 C   0  0  2  0  0  0  0  0  0  0  0  0
   -5.7548   18.3466  -24.8404 O   0  0  0  0  0  0  0  0  0  0  0  0
  -13.7837    7.5831  -24.8269 N   0  0  0  0  0  0  0  0  0  0  0  0
  -14.7360    8.4285  -24.3088 C   0  0  0  0  0  0  0  0  0  0  0  0
  -14.3445    9.5114  -23.5591 N   0  0  0  0  0  0  0  0  0  0  0  0
  -13.0392    9.7531  -23.3288 C   0  0  0  0  0  0  0  0  0  0  0  0
  -12.0654    8.9164  -23.8410 C   0  0  0  0  0  0  0  0  0  0  0  0
  -12.4510    7.8163  -24.5979 C   0  0  0  0  0  0  0  0  0  0  0  0
  -11.5493    6.9849  -25.1053 N   0  0  0  0  0  0  0  0  0  0  0  0
  -10.8578    9.3891  -23.4595 N   0  0  0  0  0  0  0  0  0  0  0  0
  -11.0542   10.5030  -22.7276 C   0  0  0  0  0  0  0  0  0  0  0  0
  -12.4016   10.7380  -22.6264 N   0  0  0  0  0  0  0  0  0  0  0  0
  2  1  1  1  0  0  0
  2  3  1  0  0  0  0
  2  5  1  0  0  0  0
  3  4  1  0  0  0  0
  3 16  1  0  0  0  0
  5  6  1  0  0  0  0
  6  7  1  0  0  0  0
  7  8  1  0  0  0  0
  9  8  1  6  0  0  0
  9 10  1  0  0  0  0
  9 11  1  0  0  0  0
 10 15  1  0  0  0  0
 11 12  1  1  0  0  0
 11 13  1  0  0  0  0
 13 14  1  1  0  0  0
 13 15  1  0  0  0  0
 15 26  1  6  0  0  0
 17 18  2  0  0  0  0
 17 22  1  0  0  0  0
 18 19  1  0  0  0  0
 19 20  2  0  0  0  0
 20 21  1  0  0  0  0
 20 26  1  0  0  0  0
 21 22  2  0  0  0  0
 21 24  1  0  0  0  0
 22 23  1  0  0  0  0
 24 25  2  0  0  0  0
 25 26  1  0  0  0  0
M  END
>  <CHROM.1>
149.02465402,-170.11044890,176.90561119,-179.77555845,-178.04322726,179.76478816
-91.56824298,-10.64890606,12.86146452,-23.00181772,-0.68387394,-0.56923986
-2.56680720

>  <Name>
ligand

>  <RI>
0

>  <Rbt.Current_Directory>
/home/itssahil/PROJECTS/Mol_Feturizer/New_Systems/rnas/3E5E

>  <Rbt.Executable>
rbdock ($Id: //depot/dev/client3/rdock/2013.1/src/exe/rbdock.cxx#4 $)

>  <Rbt.Library>
libRbt.so (2013.1, Build901 2013/11/27)

>  <Rbt.Parameter_File>
/export/apps/rDock/src/rDock_2013.1_src/data/scripts/dock_solv.prm

>  <Rbt.Receptor>
prm/blind_docking_80.prm

>  <SCORE>
-19.7129

>  <SCORE.INTER>
-15.5282

>  <SCORE.INTER.CONST>
1

>  <SCORE.INTER.POLAR>
0

>  <SCORE.INTER.ROT>
7

>  <SCORE.INTER.SOLV>
9.89015

>  <SCORE.INTER.VDW>
-21.9155

>  <SCORE.INTER.norm>
-0.597237

>  <SCORE.INTRA>
-4.18476

>  <SCORE.INTRA.DIHEDRAL>
-7.11337

>  <SCORE.INTRA.DIHEDRAL.0>
10.1225

>  <SCORE.INTRA.POLAR>
0

>  <SCORE.INTRA.POLAR.0>
0

>  <SCORE.INTRA.REPUL>
0

>  <SCORE.INTRA.REPUL.0>
0

>  <SCORE.INTRA.SOLV>
-0.591485

>  <SCORE.INTRA.SOLV.lig_0>
-49.9393

>  <SCORE.INTRA.VDW>
-0.332334

>  <SCORE.INTRA.VDW.0>
-1.75437

>  <SCORE.INTRA.norm>
-0.160952

>  <SCORE.RESTR>
0

>  <SCORE.RESTR.CAVITY>
0

>  <SCORE.RESTR.norm>
0

>  <SCORE.SYSTEM>
0

>  <SCORE.SYSTEM.CONST>
0

>  <SCORE.SYSTEM.DIHEDRAL>
0

>  <SCORE.SYSTEM.SOLV>
0

>  <SCORE.SYSTEM.norm>
0

>  <SCORE.heavy>
26

>  <SCORE.norm>
-0.758189

>  <RMSD>
9.780

$$$$
ligand
 OpenBabel11021811473D
libRbt.so/2013.1/901 2013/11/27
 26 28  0  0  0  0  0  0  0  0999 V2000
   -5.0439   17.6603  -22.2543 N   0  0  0  0  0  0  0  0  0  0  0  0
   -5.7972   16.6741  -23.0389 C   0  0  2  0  0  0  0  0  0  0  0  0
   -5.8065   17.0877  -24.4870 C   0  0  0  0  0  0  0  0  0  0  0  0
   -5.8441   16.2483  -25.3560 O   0  0  0  0  0  0  0  0  0  0  0  0
   -7.2339   16.6004  -22.5192 C   0  0  0  0  0  0  0  0  0  0  0  0
   -7.9509   15.4173  -23.1671 C   0  0  0  0  0  0  0  0  0  0  0  0
   -9.5609   15.0571  -22.7642 S   0  0  0  0  0  0  0  0  0  0  0  0
  -10.7848   13.7745  -23.1358 C   0  0  0  0  0  0  0  0  0  0  0  0
  -12.1357   13.9536  -22.4325 C   0  0  1  0  0  0  0  0  0  0  0  0
  -13.0667   12.9470  -22.7859 O   0  0  0  0  0  0  0  0  0  0  0  0
  -12.0207   13.8013  -20.9342 C   0  0  1  0  0  0  0  0  0  0  0  0
  -13.1273   14.5033  -20.4117 O   0  0  0  0  0  0  0  0  0  0  0  0
  -12.2300   12.3285  -20.6688 C   0  0  1  0  0  0  0  0  0  0  0  0
  -13.0260   12.1616  -19.5159 O   0  0  0  0  0  0  0  0  0  0  0  0
  -12.9981   11.8578  -21.8849 C   0  0  2  0  0  0  0  0  0  0  0  0
   -5.7705   18.3898  -24.8147 O   0  0  0  0  0  0  0  0  0  0  0  0
  -13.8499    7.6448  -24.8410 N   0  0  0  0  0  0  0  0  0  0  0  0
  -14.7790    8.4821  -24.2702 C   0  0  0  0  0  0  0  0  0  0  0  0
  -14.3557    9.5430  -23.5065 N   0  0  0  0  0  0  0  0  0  0  0  0
  -13.0419    9.7711  -23.3135 C   0  0  0  0  0  0  0  0  0  0  0  0
  -12.0912    8.9423  -23.8789 C   0  0  0  0  0  0  0  0  0  0  0  0
  -12.5089    7.8643  -24.6505 C   0  0  0  0  0  0  0  0  0  0  0  0
  -11.6300    7.0410  -25.2086 N   0  0  0  0  0  0  0  0  0  0  0  0
  -10.8685    9.3979  -23.5258 N   0  0  0  0  0  0  0  0  0  0  0  0
  -11.0332   10.4938  -22.7595 C   0  0  0  0  0  0  0  0  0  0  0  0
  -12.3750   10.7338  -22.6077 N   0  0  0  0  0  0  0  0  0  0  0  0
  2  1  1  1  0  0  0
  2  3  1  0  0  0  0
  2  5  1  0  0  0  0
  3  4  1  0  0  0  0
  3 16  1  0  0  0  0
  5  6  1  0  0  0  0
  6  7  1  0  0  0  0
  7  8  1  0  0  0  0
  9  8  1  6  0  0  0
  9 10  1  0  0  0  0
  9 11  1  0  0  0  0
 10 15  1  0  0  0  0
 11 12  1  1  0  0  0
 11 13  1  0  0  0  0
 13 14  1  1  0  0  0
 13 15  1  0  0  0  0
 15 26  1  6  0  0  0
 17 18  2  0  0  0  0
 17 22  1  0  0  0  0
 18 19  1  0  0  0  0
 19 20  2  0  0  0  0
 20 21  1  0  0  0  0
 20 26  1  0  0  0  0
 21 22  2  0  0  0  0
 21 24  1  0  0  0  0
 22 23  1  0  0  0  0
 24 25  2  0  0  0  0
 25 26  1  0  0  0  0
M  END
>  <CHROM.1>
149.03880308,-170.44531564,178.82327191,-175.19146167,178.64276598,178.33721004
-91.28649640,-10.62664639,12.86145499,-22.99217882,-0.65763914,-0.59377844
-2.52745279

>  <Name>
ligand

>  <RI>
0

>  <Rbt.Current_Directory>
/home/itssahil/PROJECTS/Mol_Feturizer/New_Systems/rnas/3E5E

>  <Rbt.Executable>
rbdock ($Id: //depot/dev/client3/rdock/2013.1/src/exe/rbdock.cxx#4 $)

>  <Rbt.Library>
libRbt.so (2013.1, Build901 2013/11/27)

>  <Rbt.Parameter_File>
/export/apps/rDock/src/rDock_2013.1_src/data/scripts/dock_solv.prm

>  <Rbt.Receptor>
prm/pocket_docking_7.prm

>  <SCORE>
-19.7569

>  <SCORE.INTER>
-15.5632

>  <SCORE.INTER.CONST>
1

>  <SCORE.INTER.POLAR>
0

>  <SCORE.INTER.ROT>
7

>  <SCORE.INTER.SOLV>
9.29868

>  <SCORE.INTER.VDW>
-21.7417

>  <SCORE.INTER.norm>
-0.598584

>  <SCORE.INTRA>
-4.19368

>  <SCORE.INTRA.DIHEDRAL>
-7.12765

>  <SCORE.INTRA.DIHEDRAL.0>
10.1225

>  <SCORE.INTRA.POLAR>
0

>  <SCORE.INTRA.POLAR.0>
0

>  <SCORE.INTRA.REPUL>
0

>  <SCORE.INTRA.REPUL.0>
0

>  <SCORE.INTRA.SOLV>
-0.597113

>  <SCORE.INTRA.SOLV.lig_0>
-49.9393

>  <SCORE.INTRA.VDW>
-0.331304

>  <SCORE.INTRA.VDW.0>
-1.75437

>  <SCORE.INTRA.norm>
-0.161296

>  <SCORE.RESTR>
0

>  <SCORE.RESTR.CAVITY>
0

>  <SCORE.RESTR.norm>
0

>  <SCORE.SYSTEM>
0

>  <SCORE.SYSTEM.CONST>
0

>  <SCORE.SYSTEM.DIHEDRAL>
0

>  <SCORE.SYSTEM.SOLV>
0

>  <SCORE.SYSTEM.norm>
0

>  <SCORE.heavy>
26

>  <SCORE.norm>
-0.75988

>  <RMSD>
9.789

$$$$
ligand
 OpenBabel11021811473D
libRbt.so/2013.1/901 2013/11/27
 26 28  0  0  0  0  0  0  0  0999 V2000
   -5.1374   18.6577  -22.9969 N   0  0  0  0  0  0  0  0  0  0  0  0
   -4.8585   17.2569  -22.6570 C   0  0  2  0  0  0  0  0  0  0  0  0
   -3.3895   17.0948  -22.3669 C   0  0  0  0  0  0  0  0  0  0  0  0
   -2.6404   18.0350  -22.4932 O   0  0  0  0  0  0  0  0  0  0  0  0
   -5.2491   16.3603  -23.8331 C   0  0  0  0  0  0  0  0  0  0  0  0
   -6.7478   16.4906  -24.0984 C   0  0  0  0  0  0  0  0  0  0  0  0
   -7.8771   16.0507  -22.9087 S   0  0  0  0  0  0  0  0  0  0  0  0
   -8.1998   14.6414  -21.8175 C   0  0  0  0  0  0  0  0  0  0  0  0
   -9.5287   14.7112  -21.0554 C   0  0  1  0  0  0  0  0  0  0  0  0
  -10.6474   14.5110  -21.9000 O   0  0  0  0  0  0  0  0  0  0  0  0
   -9.6621   13.5982  -20.0430 C   0  0  1  0  0  0  0  0  0  0  0  0
  -10.5888   14.0793  -19.0942 O   0  0  0  0  0  0  0  0  0  0  0  0
  -10.3069   12.4560  -20.7931 C   0  0  1  0  0  0  0  0  0  0  0  0
  -11.2646   11.8270  -19.9697 O   0  0  0  0  0  0  0  0  0  0  0  0
  -11.0060   13.1428  -21.9463 C   0  0  2  0  0  0  0  0  0  0  0  0
   -2.9098   15.9047  -21.9701 O   0  0  0  0  0  0  0  0  0  0  0  0
  -10.7082    8.9481  -25.0333 N   0  0  0  0  0  0  0  0  0  0  0  0
  -11.1017    9.0063  -23.7173 C   0  0  0  0  0  0  0  0  0  0  0  0
  -11.1015   10.2146  -23.0632 N   0  0  0  0  0  0  0  0  0  0  0  0
  -10.7221   11.3407  -23.6982 C   0  0  0  0  0  0  0  0  0  0  0  0
  -10.3239   11.3049  -25.0213 C   0  0  0  0  0  0  0  0  0  0  0  0
  -10.3172   10.0870  -25.6912 C   0  0  0  0  0  0  0  0  0  0  0  0
   -9.9382   10.0065  -26.9606 N   0  0  0  0  0  0  0  0  0  0  0  0
  -10.0004   12.5615  -25.4002 N   0  0  0  0  0  0  0  0  0  0  0  0
  -10.1931   13.3808  -24.3481 C   0  0  0  0  0  0  0  0  0  0  0  0
  -10.6300   12.6394  -23.2802 N   0  0  0  0  0  0  0  0  0  0  0  0
  2  1  1  6  0  0  0
  2  3  1  0  0  0  0
  2  5  1  0  0  0  0
  3  4  1  0  0  0  0
  3 16  1  0  0  0  0
  5  6  1  0  0  0  0
  6  7  1  0  0  0  0
  7  8  1  0  0  0  0
  9  8  1  6  0  0  0
  9 10  1  0  0  0  0
  9 11  1  0  0  0  0
 10 15  1  0  0  0  0
 11 12  1  1  0  0  0
 11 13  1  0  0  0  0
 13 14  1  1  0  0  0
 13 15  1  0  0  0  0
 15 26  1  6  0  0  0
 17 18  2  0  0  0  0
 17 22  1  0  0  0  0
 18 19  1  0  0  0  0
 19 20  2  0  0  0  0
 20 21  1  0  0  0  0
 20 26  1  0  0  0  0
 21 22  2  0  0  0  0
 21 24  1  0  0  0  0
 22 23  1  0  0  0  0
 24 25  2  0  0  0  0
 25 26  1  0  0  0  0
M  END
>  <CHROM.1>
-3.25289725,-61.86267813,-61.52717410,-49.66120601,-171.46317180,71.35564757
175.14937739,-8.56290153,13.81995920,-22.86203564,-0.49425679,-0.65151009
-2.12999756

>  <Name>
ligand

>  <RI>
0

>  <Rbt.Current_Directory>
/home/itssahil/PROJECTS/Mol_Feturizer/New_Systems/rnas/3E5E

>  <Rbt.Executable>
rbdock ($Id: //depot/dev/client3/rdock/2013.1/src/exe/rbdock.cxx#4 $)

>  <Rbt.Library>
libRbt.so (2013.1, Build901 2013/11/27)

>  <Rbt.Parameter_File>
/export/apps/rDock/src/rDock_2013.1_src/data/scripts/dock_solv.prm

>  <Rbt.Receptor>
prm/blind_docking_80.prm

>  <SCORE>
-16.2805

>  <SCORE.INTER>
-12.8855

>  <SCORE.INTER.CONST>
1

>  <SCORE.INTER.POLAR>
0

>  <SCORE.INTER.ROT>
7

>  <SCORE.INTER.SOLV>
10.6852

>  <SCORE.INTER.VDW>
-20.4188

>  <SCORE.INTER.norm>
-0.495597

>  <SCORE.INTRA>
-3.39493

>  <SCORE.INTRA.DIHEDRAL>
-6.7015

>  <SCORE.INTRA.DIHEDRAL.0>
10.1225

>  <SCORE.INTRA.POLAR>
0

>  <SCORE.INTRA.POLAR.0>
0

>  <SCORE.INTRA.REPUL>
0

>  <SCORE.INTRA.REPUL.0>
0

>  <SCORE.INTRA.SOLV>
0.829853

>  <SCORE.INTRA.SOLV.lig_0>
-49.9393

>  <SCORE.INTRA.VDW>
-0.459107

>  <SCORE.INTRA.VDW.0>
-1.75437

>  <SCORE.INTRA.norm>
-0.130574

>  <SCORE.RESTR>
0

>  <SCORE.RESTR.CAVITY>
0

>  <SCORE.RESTR.norm>
0

>  <SCORE.SYSTEM>
0

>  <SCORE.SYSTEM.CONST>
0

>  <SCORE.SYSTEM.DIHEDRAL>
0

>  <SCORE.SYSTEM.SOLV>
0

>  <SCORE.SYSTEM.norm>
0

>  <SCORE.heavy>
26

>  <SCORE.norm>
-0.626172

>  <RMSD>
9.809

$$$$
ligand
 OpenBabel11021811473D
libRbt.so/2013.1/901 2013/11/27
 26 28  0  0  0  0  0  0  0  0999 V2000
   -4.9097   17.4119  -22.0492 N   0  0  0  0  0  0  0  0  0  0  0  0
   -5.7674   16.7124  -23.0139 C   0  0  2  0  0  0  0  0  0  0  0  0
   -5.7793   17.4705  -24.3152 C   0  0  0  0  0  0  0  0  0  0  0  0
   -5.9804   16.8863  -25.3541 O   0  0  0  0  0  0  0  0  0  0  0  0
   -7.1906   16.6254  -22.4601 C   0  0  0  0  0  0  0  0  0  0  0  0
   -7.9602   15.5329  -23.2002 C   0  0  0  0  0  0  0  0  0  0  0  0
   -9.5385   15.1185  -22.7298 S   0  0  0  0  0  0  0  0  0  0  0  0
  -10.7610   13.8365  -23.1082 C   0  0  0  0  0  0  0  0  0  0  0  0
  -12.1094   14.0059  -22.3977 C   0  0  1  0  0  0  0  0  0  0  0  0
  -13.0413   13.0035  -22.7607 O   0  0  0  0  0  0  0  0  0  0  0  0
  -11.9889   13.8342  -20.9019 C   0  0  1  0  0  0  0  0  0  0  0  0
  -13.0938   14.5289  -20.3664 O   0  0  0  0  0  0  0  0  0  0  0  0
  -12.1966   12.3581  -20.6549 C   0  0  1  0  0  0  0  0  0  0  0  0
  -12.9884   12.1759  -19.5014 O   0  0  0  0  0  0  0  0  0  0  0  0
  -12.9690   11.9028  -21.8742 C   0  0  2  0  0  0  0  0  0  0  0  0
   -5.5638   18.7962  -24.3231 O   0  0  0  0  0  0  0  0  0  0  0  0
  -13.8272    7.7524  -24.9159 N   0  0  0  0  0  0  0  0  0  0  0  0
  -14.7548    8.5851  -24.3360 C   0  0  0  0  0  0  0  0  0  0  0  0
  -14.3301    9.6284  -23.5492 N   0  0  0  0  0  0  0  0  0  0  0  0
  -13.0163    9.8439  -23.3425 C   0  0  0  0  0  0  0  0  0  0  0  0
  -12.0669    9.0195  -23.9168 C   0  0  0  0  0  0  0  0  0  0  0  0
  -12.4861    7.9592  -24.7117 C   0  0  0  0  0  0  0  0  0  0  0  0
  -11.6087    7.1408  -25.2790 N   0  0  0  0  0  0  0  0  0  0  0  0
  -10.8438    9.4601  -23.5463 N   0  0  0  0  0  0  0  0  0  0  0  0
  -11.0069   10.5423  -22.7605 C   0  0  0  0  0  0  0  0  0  0  0  0
  -12.3481   10.7886  -22.6138 N   0  0  0  0  0  0  0  0  0  0  0  0
  2  1  1  1  0  0  0
  2  3  1  0  0  0  0
  2  5  1  0  0  0  0
  3  4  1  0  0  0  0
  3 16  1  0  0  0  0
  5  6  1  0  0  0  0
  6  7  1  0  0  0  0
  7  8  1  0  0  0  0
  9  8  1  6  0  0  0
  9 10  1  0  0  0  0
  9 11  1  0  0  0  0
 10 15  1  0  0  0  0
 11 12  1  1  0  0  0
 11 13  1  0  0  0  0
 13 14  1  1  0  0  0
 13 15  1  0  0  0  0
 15 26  1  6  0  0  0
 17 18  2  0  0  0  0
 17 22  1  0  0  0  0
 18 19  1  0  0  0  0
 19 20  2  0  0  0  0
 20 21  1  0  0  0  0
 20 26  1  0  0  0  0
 21 22  2  0  0  0  0
 21 24  1  0  0  0  0
 22 23  1  0  0  0  0
 24 25  2  0  0  0  0
 25 26  1  0  0  0  0
M  END
>  <CHROM.1>
152.74498090,-161.35990989,175.43090653,-170.95231772,-177.09421047,178.09668040
-90.46713039,-10.59590592,12.96072833,-22.95962007,-0.66360446,-0.59700407
-2.50994101

>  <Name>
ligand

>  <RI>
0

>  <Rbt.Current_Directory>
/home/itssahil/PROJECTS/Mol_Feturizer/New_Systems/rnas/3E5E

>  <Rbt.Executable>
rbdock ($Id: //depot/dev/client3/rdock/2013.1/src/exe/rbdock.cxx#4 $)

>  <Rbt.Library>
libRbt.so (2013.1, Build901 2013/11/27)

>  <Rbt.Parameter_File>
/export/apps/rDock/src/rDock_2013.1_src/data/scripts/dock_solv.prm

>  <Rbt.Receptor>
prm/blind_docking_100.prm

>  <SCORE>
-19.2934

>  <SCORE.INTER>
-15.5107

>  <SCORE.INTER.CONST>
1

>  <SCORE.INTER.POLAR>
0

>  <SCORE.INTER.ROT>
7

>  <SCORE.INTER.SOLV>
9.57881

>  <SCORE.INTER.VDW>
-21.8001

>  <SCORE.INTER.norm>
-0.596566

>  <SCORE.INTRA>
-3.78344

>  <SCORE.INTRA.DIHEDRAL>
-6.01472

>  <SCORE.INTRA.DIHEDRAL.0>
10.1225

>  <SCORE.INTRA.POLAR>
0

>  <SCORE.INTRA.POLAR.0>
0

>  <SCORE.INTRA.REPUL>
0

>  <SCORE.INTRA.REPUL.0>
0

>  <SCORE.INTRA.SOLV>
-0.577626

>  <SCORE.INTRA.SOLV.lig_0>
-49.9393

>  <SCORE.INTRA.VDW>
-0.487266

>  <SCORE.INTRA.VDW.0>
-1.75437

>  <SCORE.INTRA.norm>
-0.145517

>  <SCORE.RESTR>
0.000719167

>  <SCORE.RESTR.CAVITY>
0.000719167

>  <SCORE.RESTR.norm>
2.76603e-05

>  <SCORE.SYSTEM>
0

>  <SCORE.SYSTEM.CONST>
0

>  <SCORE.SYSTEM.DIHEDRAL>
0

>  <SCORE.SYSTEM.SOLV>
0

>  <SCORE.SYSTEM.norm>
0

>  <SCORE.heavy>
26

>  <SCORE.norm>
-0.742055

>  <RMSD>
9.812

$$$$
ligand
 OpenBabel11021811473D
libRbt.so/2013.1/901 2013/11/27
 26 28  0  0  0  0  0  0  0  0999 V2000
   -4.9398   15.7251  -22.7729 N   0  0  0  0  0  0  0  0  0  0  0  0
   -5.7893   16.8614  -23.1506 C   0  0  2  0  0  0  0  0  0  0  0  0
   -5.1512   18.1420  -22.6805 C   0  0  0  0  0  0  0  0  0  0  0  0
   -5.3994   19.1834  -23.2416 O   0  0  0  0  0  0  0  0  0  0  0  0
   -7.1649   16.7069  -22.4997 C   0  0  0  0  0  0  0  0  0  0  0  0
   -7.9026   15.5316  -23.1384 C   0  0  0  0  0  0  0  0  0  0  0  0
   -9.4609   15.1035  -22.6164 S   0  0  0  0  0  0  0  0  0  0  0  0
  -10.7054   13.8423  -22.9930 C   0  0  0  0  0  0  0  0  0  0  0  0
  -12.0519   14.0382  -22.2857 C   0  0  1  0  0  0  0  0  0  0  0  0
  -13.0140   13.0766  -22.6789 O   0  0  0  0  0  0  0  0  0  0  0  0
  -11.9464   13.8252  -20.7941 C   0  0  1  0  0  0  0  0  0  0  0  0
  -13.0313   14.5424  -20.2471 O   0  0  0  0  0  0  0  0  0  0  0  0
  -12.2041   12.3510  -20.5856 C   0  0  1  0  0  0  0  0  0  0  0  0
  -13.0085   12.1662  -19.4413 O   0  0  0  0  0  0  0  0  0  0  0  0
  -12.9834   11.9522  -21.8202 C   0  0  2  0  0  0  0  0  0  0  0  0
   -4.3034   18.1279  -21.6388 O   0  0  0  0  0  0  0  0  0  0  0  0
  -13.9707    7.8103  -24.8341 N   0  0  0  0  0  0  0  0  0  0  0  0
  -14.8727    8.6453  -24.2184 C   0  0  0  0  0  0  0  0  0  0  0  0
  -14.4149    9.6857  -23.4464 N   0  0  0  0  0  0  0  0  0  0  0  0
  -13.0935    9.8961  -23.2889 C   0  0  0  0  0  0  0  0  0  0  0  0
  -12.1695    9.0692  -23.8997 C   0  0  0  0  0  0  0  0  0  0  0  0
  -12.6221    8.0118  -24.6801 C   0  0  0  0  0  0  0  0  0  0  0  0
  -11.7697    7.1912  -25.2813 N   0  0  0  0  0  0  0  0  0  0  0  0
  -10.9317    9.5047  -23.5748 N   0  0  0  0  0  0  0  0  0  0  0  0
  -11.0610   10.5861  -22.7817 C   0  0  0  0  0  0  0  0  0  0  0  0
  -12.3949   10.8370  -22.5843 N   0  0  0  0  0  0  0  0  0  0  0  0
  2  1  1  1  0  0  0
  2  3  1  0  0  0  0
  2  5  1  0  0  0  0
  3  4  1  0  0  0  0
  3 16  1  0  0  0  0
  5  6  1  0  0  0  0
  6  7  1  0  0  0  0
  7  8  1  0  0  0  0
  9  8  1  6  0  0  0
  9 10  1  0  0  0  0
  9 11  1  0  0  0  0
 10 15  1  0  0  0  0
 11 12  1  1  0  0  0
 11 13  1  0  0  0  0
 13 14  1  1  0  0  0
 13 15  1  0  0  0  0
 15 26  1  6  0  0  0
 17 18  2  0  0  0  0
 17 22  1  0  0  0  0
 18 19  1  0  0  0  0
 19 20  2  0  0  0  0
 20 21  1  0  0  0  0
 20 26  1  0  0  0  0
 21 22  2  0  0  0  0
 21 24  1  0  0  0  0
 22 23  1  0  0  0  0
 24 25  2  0  0  0  0
 25 26  1  0  0  0  0
M  END
>  <CHROM.1>
154.78165597,-68.92549676,179.64027821,-178.60374931,-173.35013311,176.23688994
-93.75364713,-10.51686274,13.01928340,-22.68353521,-0.72426497,-0.47039981
-2.55233250

>  <Name>
ligand

>  <RI>
0

>  <Rbt.Current_Directory>
/home/itssahil/PROJECTS/Mol_Feturizer/New_Systems/rnas/3E5E

>  <Rbt.Executable>
rbdock ($Id: //depot/dev/client3/rdock/2013.1/src/exe/rbdock.cxx#4 $)

>  <Rbt.Library>
libRbt.so (2013.1, Build901 2013/11/27)

>  <Rbt.Parameter_File>
/export/apps/rDock/src/rDock_2013.1_src/data/scripts/dock_solv.prm

>  <Rbt.Receptor>
prm/pocket_docking_7.prm

>  <SCORE>
-20.134

>  <SCORE.INTER>
-16.2404

>  <SCORE.INTER.CONST>
1

>  <SCORE.INTER.POLAR>
0

>  <SCORE.INTER.ROT>
7

>  <SCORE.INTER.SOLV>
8.40831

>  <SCORE.INTER.VDW>
-21.8963

>  <SCORE.INTER.norm>
-0.624629

>  <SCORE.INTRA>
-3.89368

>  <SCORE.INTRA.DIHEDRAL>
-7.10306

>  <SCORE.INTRA.DIHEDRAL.0>
10.1225

>  <SCORE.INTRA.POLAR>
0

>  <SCORE.INTRA.POLAR.0>
0

>  <SCORE.INTRA.REPUL>
0

>  <SCORE.INTRA.REPUL.0>
0

>  <SCORE.INTRA.SOLV>
0.0655696

>  <SCORE.INTRA.SOLV.lig_0>
-49.9393

>  <SCORE.INTRA.VDW>
-0.374937

>  <SCORE.INTRA.VDW.0>
-1.75437

>  <SCORE.INTRA.norm>
-0.149757

>  <SCORE.RESTR>
0

>  <SCORE.RESTR.CAVITY>
0

>  <SCORE.RESTR.norm>
0

>  <SCORE.SYSTEM>
0

>  <SCORE.SYSTEM.CONST>
0

>  <SCORE.SYSTEM.DIHEDRAL>
0

>  <SCORE.SYSTEM.SOLV>
0

>  <SCORE.SYSTEM.norm>
0

>  <SCORE.heavy>
26

>  <SCORE.norm>
-0.774386

>  <RMSD>
9.823

$$$$
ligand
 OpenBabel11021811473D
libRbt.so/2013.1/901 2013/11/27
 26 28  0  0  0  0  0  0  0  0999 V2000
   -7.2339   18.5764  -25.5310 N   0  0  0  0  0  0  0  0  0  0  0  0
   -7.5901   18.1658  -24.1671 C   0  0  2  0  0  0  0  0  0  0  0  0
   -6.3477   18.1208  -23.3170 C   0  0  0  0  0  0  0  0  0  0  0  0
   -6.3925   18.4706  -22.1609 O   0  0  0  0  0  0  0  0  0  0  0  0
   -8.2339   16.7788  -24.2049 C   0  0  0  0  0  0  0  0  0  0  0  0
   -8.8435   16.4618  -22.8405 C   0  0  0  0  0  0  0  0  0  0  0  0
   -9.4083   14.8993  -22.4889 S   0  0  0  0  0  0  0  0  0  0  0  0
  -10.6860   13.7649  -23.0903 C   0  0  0  0  0  0  0  0  0  0  0  0
  -12.0775   13.9869  -22.4854 C   0  0  1  0  0  0  0  0  0  0  0  0
  -13.0108   13.0071  -22.9024 O   0  0  0  0  0  0  0  0  0  0  0  0
  -12.0742   13.8371  -20.9824 C   0  0  1  0  0  0  0  0  0  0  0  0
  -13.1936   14.5739  -20.5414 O   0  0  0  0  0  0  0  0  0  0  0  0
  -12.3458   12.3723  -20.7300 C   0  0  1  0  0  0  0  0  0  0  0  0
  -13.2265   12.2338  -19.6365 O   0  0  0  0  0  0  0  0  0  0  0  0
  -13.0392   11.9199  -21.9969 C   0  0  2  0  0  0  0  0  0  0  0  0
   -5.1879   17.6944  -23.8433 O   0  0  0  0  0  0  0  0  0  0  0  0
  -13.8267    7.6094  -24.8277 N   0  0  0  0  0  0  0  0  0  0  0  0
  -14.7680    8.4618  -24.3010 C   0  0  0  0  0  0  0  0  0  0  0  0
  -14.3613    9.5486  -23.5651 N   0  0  0  0  0  0  0  0  0  0  0  0
  -13.0518    9.7874  -23.3568 C   0  0  0  0  0  0  0  0  0  0  0  0
  -12.0889    8.9438  -23.8780 C   0  0  0  0  0  0  0  0  0  0  0  0
  -12.4898    7.8397  -24.6210 C   0  0  0  0  0  0  0  0  0  0  0  0
  -11.5989    7.0016  -25.1363 N   0  0  0  0  0  0  0  0  0  0  0  0
  -10.8739    9.4150  -23.5186 N   0  0  0  0  0  0  0  0  0  0  0  0
  -11.0553   10.5348  -22.7917 C   0  0  0  0  0  0  0  0  0  0  0  0
  -12.4002   10.7750  -22.6714 N   0  0  0  0  0  0  0  0  0  0  0  0
  2  1  1  6  0  0  0
  2  3  1  0  0  0  0
  2  5  1  0  0  0  0
  3  4  1  0  0  0  0
  3 16  1  0  0  0  0
  5  6  1  0  0  0  0
  6  7  1  0  0  0  0
  7  8  1  0  0  0  0
  9  8  1  6  0  0  0
  9 10  1  0  0  0  0
  9 11  1  0  0  0  0
 10 15  1  0  0  0  0
 11 12  1  1  0  0  0
 11 13  1  0  0  0  0
 13 14  1  1  0  0  0
 13 15  1  0  0  0  0
 15 26  1  6  0  0  0
 17 18  2  0  0  0  0
 17 22  1  0  0  0  0
 18 19  1  0  0  0  0
 19 20  2  0  0  0  0
 20 21  1  0  0  0  0
 20 26  1  0  0  0  0
 21 22  2  0  0  0  0
 21 24  1  0  0  0  0
 22 23  1  0  0  0  0
 24 25  2  0  0  0  0
 25 26  1  0  0  0  0
M  END
>  <CHROM.1>
142.78042685,-169.29235352,-170.01147802,-62.94691052,-84.32417605,-175.04931192
-95.28781428,-10.85401076,13.09214897,-22.99279664,-0.76398736,-0.66436029
-2.55993865

>  <Name>
ligand

>  <RI>
0

>  <Rbt.Current_Directory>
/home/itssahil/PROJECTS/Mol_Feturizer/New_Systems/rnas/3E5E

>  <Rbt.Executable>
rbdock ($Id: //depot/dev/client3/rdock/2013.1/src/exe/rbdock.cxx#4 $)

>  <Rbt.Library>
libRbt.so (2013.1, Build901 2013/11/27)

>  <Rbt.Parameter_File>
/export/apps/rDock/src/rDock_2013.1_src/data/scripts/dock_solv.prm

>  <Rbt.Receptor>
prm/blind_docking_60.prm

>  <SCORE>
-19.705

>  <SCORE.INTER>
-16.0172

>  <SCORE.INTER.CONST>
1

>  <SCORE.INTER.POLAR>
0

>  <SCORE.INTER.ROT>
7

>  <SCORE.INTER.SOLV>
9.5489

>  <SCORE.INTER.VDW>
-22.1278

>  <SCORE.INTER.norm>
-0.616048

>  <SCORE.INTRA>
-3.68779

>  <SCORE.INTRA.DIHEDRAL>
-5.75991

>  <SCORE.INTRA.DIHEDRAL.0>
10.1225

>  <SCORE.INTRA.POLAR>
0

>  <SCORE.INTRA.POLAR.0>
0

>  <SCORE.INTRA.REPUL>
0

>  <SCORE.INTRA.REPUL.0>
0

>  <SCORE.INTRA.SOLV>
-0.571524

>  <SCORE.INTRA.SOLV.lig_0>
-49.9393

>  <SCORE.INTRA.VDW>
-0.522068

>  <SCORE.INTRA.VDW.0>
-1.75437

>  <SCORE.INTRA.norm>
-0.141838

>  <SCORE.RESTR>
0

>  <SCORE.RESTR.CAVITY>
0

>  <SCORE.RESTR.norm>
0

>  <SCORE.SYSTEM>
0

>  <SCORE.SYSTEM.CONST>
0

>  <SCORE.SYSTEM.DIHEDRAL>
0

>  <SCORE.SYSTEM.SOLV>
0

>  <SCORE.SYSTEM.norm>
0

>  <SCORE.heavy>
26

>  <SCORE.norm>
-0.757886

>  <RMSD>
9.826

$$$$
ligand
 OpenBabel11021811473D
libRbt.so/2013.1/901 2013/11/27
 26 28  0  0  0  0  0  0  0  0999 V2000
  -10.4933   12.5123  -23.8337 N   0  0  0  0  0  0  0  0  0  0  0  0
  -11.9371   12.7682  -23.7592 C   0  0  2  0  0  0  0  0  0  0  0  0
  -12.1903   13.9519  -22.8631 C   0  0  0  0  0  0  0  0  0  0  0  0
  -13.2926   14.4448  -22.8086 O   0  0  0  0  0  0  0  0  0  0  0  0
  -12.6436   11.5364  -23.1905 C   0  0  0  0  0  0  0  0  0  0  0  0
  -12.1391   11.2672  -21.7740 C   0  0  0  0  0  0  0  0  0  0  0  0
  -12.7306    9.9483  -20.8825 S   0  0  0  0  0  0  0  0  0  0  0  0
  -12.6979    9.3609  -19.1694 C   0  0  0  0  0  0  0  0  0  0  0  0
  -13.7269   10.0224  -18.2445 C   0  0  1  0  0  0  0  0  0  0  0  0
  -15.0562    9.8410  -18.6975 O   0  0  0  0  0  0  0  0  0  0  0  0
  -13.7452    9.3921  -16.8720 C   0  0  1  0  0  0  0  0  0  0  0  0
  -14.2748   10.3864  -16.0227 O   0  0  0  0  0  0  0  0  0  0  0  0
  -14.7512    8.2687  -16.9656 C   0  0  1  0  0  0  0  0  0  0  0  0
  -15.5244    8.2234  -15.7863 O   0  0  0  0  0  0  0  0  0  0  0  0
  -15.6286    8.6783  -18.1288 C   0  0  2  0  0  0  0  0  0  0  0  0
  -11.1909   14.4629  -22.1255 O   0  0  0  0  0  0  0  0  0  0  0  0
  -18.6252    6.7504  -21.9389 N   0  0  0  0  0  0  0  0  0  0  0  0
  -18.9307    7.7460  -21.0413 C   0  0  0  0  0  0  0  0  0  0  0  0
  -18.0054    8.1102  -20.0931 N   0  0  0  0  0  0  0  0  0  0  0  0
  -16.8037    7.5038  -20.0358 C   0  0  0  0  0  0  0  0  0  0  0  0
  -16.4757    6.5012  -20.9290 C   0  0  0  0  0  0  0  0  0  0  0  0
  -17.4059    6.1229  -21.8900 C   0  0  0  0  0  0  0  0  0  0  0  0
  -17.1340    5.1622  -22.7645 N   0  0  0  0  0  0  0  0  0  0  0  0
  -15.2247    6.0746  -20.6459 N   0  0  0  0  0  0  0  0  0  0  0  0
  -14.7622    6.7905  -19.6024 C   0  0  0  0  0  0  0  0  0  0  0  0
  -15.7323    7.6742  -19.2034 N   0  0  0  0  0  0  0  0  0  0  0  0
  2  1  1  1  0  0  0
  2  3  1  0  0  0  0
  2  5  1  0  0  0  0
  3  4  1  0  0  0  0
  3 16  1  0  0  0  0
  5  6  1  0  0  0  0
  6  7  1  0  0  0  0
  7  8  1  0  0  0  0
  9  8  1  6  0  0  0
  9 10  1  0  0  0  0
  9 11  1  0  0  0  0
 10 15  1  0  0  0  0
 11 12  1  1  0  0  0
 11 13  1  0  0  0  0
 13 14  1  1  0  0  0
 13 15  1  0  0  0  0
 15 26  1  6  0  0  0
 17 18  2  0  0  0  0
 17 22  1  0  0  0  0
 18 19  1  0  0  0  0
 19 20  2  0  0  0  0
 20 21  1  0  0  0  0
 20 26  1  0  0  0  0
 21 22  2  0  0  0  0
 21 24  1  0  0  0  0
 22 23  1  0  0  0  0
 24 25  2  0  0  0  0
 25 26  1  0  0  0  0
M  END
>  <CHROM.1>
169.88404313,61.83523456,-179.40556747,-167.14941528,81.00344939,58.57731280
-90.18283841,-14.50788271,9.48382817,-20.34637321,0.45545304,-0.84855746
-1.44497507

>  <Name>
ligand

>  <RI>
0

>  <Rbt.Current_Directory>
/home/itssahil/PROJECTS/Mol_Feturizer/New_Systems/rnas/3E5E

>  <Rbt.Executable>
rbdock ($Id: //depot/dev/client3/rdock/2013.1/src/exe/rbdock.cxx#4 $)

>  <Rbt.Library>
libRbt.so (2013.1, Build901 2013/11/27)

>  <Rbt.Parameter_File>
/export/apps/rDock/src/rDock_2013.1_src/data/scripts/dock_solv.prm

>  <Rbt.Receptor>
prm/pocket_docking_7.prm

>  <SCORE>
-15.9357

>  <SCORE.INTER>
-12.6947

>  <SCORE.INTER.CONST>
1

>  <SCORE.INTER.POLAR>
0

>  <SCORE.INTER.ROT>
7

>  <SCORE.INTER.SOLV>
9.20177

>  <SCORE.INTER.VDW>
-19.797

>  <SCORE.INTER.norm>
-0.488256

>  <SCORE.INTRA>
-3.241

>  <SCORE.INTRA.DIHEDRAL>
-6.60804

>  <SCORE.INTRA.DIHEDRAL.0>
10.1225

>  <SCORE.INTRA.POLAR>
0

>  <SCORE.INTRA.POLAR.0>
0

>  <SCORE.INTRA.REPUL>
0

>  <SCORE.INTRA.REPUL.0>
0

>  <SCORE.INTRA.SOLV>
0.230975

>  <SCORE.INTRA.SOLV.lig_0>
-49.9393

>  <SCORE.INTRA.VDW>
-0.0524666

>  <SCORE.INTRA.VDW.0>
-1.75437

>  <SCORE.INTRA.norm>
-0.124654

>  <SCORE.RESTR>
0

>  <SCORE.RESTR.CAVITY>
0

>  <SCORE.RESTR.norm>
0

>  <SCORE.SYSTEM>
0

>  <SCORE.SYSTEM.CONST>
0

>  <SCORE.SYSTEM.DIHEDRAL>
0

>  <SCORE.SYSTEM.SOLV>
0

>  <SCORE.SYSTEM.norm>
0

>  <SCORE.heavy>
26

>  <SCORE.norm>
-0.61291

>  <RMSD>
9.837

$$$$
ligand
 OpenBabel11021811473D
libRbt.so/2013.1/901 2013/11/27
 26 28  0  0  0  0  0  0  0  0999 V2000
   -7.0917   14.4822  -27.4448 N   0  0  0  0  0  0  0  0  0  0  0  0
   -6.5525   15.6762  -26.7821 C   0  0  2  0  0  0  0  0  0  0  0  0
   -5.3923   16.2109  -27.5797 C   0  0  0  0  0  0  0  0  0  0  0  0
   -4.7327   15.4639  -28.2637 O   0  0  0  0  0  0  0  0  0  0  0  0
   -6.0787   15.3072  -25.3753 C   0  0  0  0  0  0  0  0  0  0  0  0
   -5.7908   16.5813  -24.5832 C   0  0  0  0  0  0  0  0  0  0  0  0
   -5.2092   16.4950  -22.9900 S   0  0  0  0  0  0  0  0  0  0  0  0
   -5.6706   15.6938  -21.4323 C   0  0  0  0  0  0  0  0  0  0  0  0
   -6.6829   16.4739  -20.5847 C   0  0  1  0  0  0  0  0  0  0  0  0
   -7.8954   16.7137  -21.2756 O   0  0  0  0  0  0  0  0  0  0  0  0
   -7.1301   15.6927  -19.3718 C   0  0  1  0  0  0  0  0  0  0  0  0
   -7.5743   16.6684  -18.4547 O   0  0  0  0  0  0  0  0  0  0  0  0
   -8.3304   14.8991  -19.8326 C   0  0  1  0  0  0  0  0  0  0  0  0
   -9.3179   14.9023  -18.8248 O   0  0  0  0  0  0  0  0  0  0  0  0
   -8.8289   15.6788  -21.0301 C   0  0  2  0  0  0  0  0  0  0  0  0
   -5.0876   17.5181  -27.5298 O   0  0  0  0  0  0  0  0  0  0  0  0
  -10.0609   11.0462  -23.0879 N   0  0  0  0  0  0  0  0  0  0  0  0
  -10.0321   11.4039  -21.7607 C   0  0  0  0  0  0  0  0  0  0  0  0
   -9.6661   12.6814  -21.4115 N   0  0  0  0  0  0  0  0  0  0  0  0
   -9.3378   13.5853  -22.3551 C   0  0  0  0  0  0  0  0  0  0  0  0
   -9.3610   13.2470  -23.6950 C   0  0  0  0  0  0  0  0  0  0  0  0
   -9.7265   11.9563  -24.0588 C   0  0  0  0  0  0  0  0  0  0  0  0
   -9.7583   11.5878  -25.3335 N   0  0  0  0  0  0  0  0  0  0  0  0
   -8.9907   14.3315  -24.4120 N   0  0  0  0  0  0  0  0  0  0  0  0
   -8.7432   15.3393  -23.5527 C   0  0  0  0  0  0  0  0  0  0  0  0
   -8.9425   14.8917  -22.2717 N   0  0  0  0  0  0  0  0  0  0  0  0
  2  1  1  6  0  0  0
  2  3  1  0  0  0  0
  2  5  1  0  0  0  0
  3  4  1  0  0  0  0
  3 16  1  0  0  0  0
  5  6  1  0  0  0  0
  6  7  1  0  0  0  0
  7  8  1  0  0  0  0
  9  8  1  6  0  0  0
  9 10  1  0  0  0  0
  9 11  1  0  0  0  0
 10 15  1  0  0  0  0
 11 12  1  1  0  0  0
 11 13  1  0  0  0  0
 13 14  1  1  0  0  0
 13 15  1  0  0  0  0
 15 26  1  6  0  0  0
 17 18  2  0  0  0  0
 17 22  1  0  0  0  0
 18 19  1  0  0  0  0
 19 20  2  0  0  0  0
 20 21  1  0  0  0  0
 20 26  1  0  0  0  0
 21 22  2  0  0  0  0
 21 24  1  0  0  0  0
 22 23  1  0  0  0  0
 24 25  2  0  0  0  0
 25 26  1  0  0  0  0
M  END
>  <CHROM.1>
-27.49257256,-168.30688576,-178.50929586,-52.87471100,-85.86376218,58.69798053
155.59264464,-7.59442196,14.93601612,-23.18662227,0.92601958,-0.81613768
-1.87003969

>  <Name>
ligand

>  <RI>
0

>  <Rbt.Current_Directory>
/home/itssahil/PROJECTS/Mol_Feturizer/New_Systems/rnas/3E5E

>  <Rbt.Executable>
rbdock ($Id: //depot/dev/client3/rdock/2013.1/src/exe/rbdock.cxx#4 $)

>  <Rbt.Library>
libRbt.so (2013.1, Build901 2013/11/27)

>  <Rbt.Parameter_File>
/export/apps/rDock/src/rDock_2013.1_src/data/scripts/dock_solv.prm

>  <Rbt.Receptor>
prm/pocket_docking_8.prm

>  <SCORE>
-14.475

>  <SCORE.INTER>
-9.61007

>  <SCORE.INTER.CONST>
1

>  <SCORE.INTER.POLAR>
0

>  <SCORE.INTER.ROT>
7

>  <SCORE.INTER.SOLV>
9.52788

>  <SCORE.INTER.VDW>
-17.8493

>  <SCORE.INTER.norm>
-0.369618

>  <SCORE.INTRA>
-4.86498

>  <SCORE.INTRA.DIHEDRAL>
-5.97942

>  <SCORE.INTRA.DIHEDRAL.0>
10.1225

>  <SCORE.INTRA.POLAR>
0

>  <SCORE.INTRA.POLAR.0>
0

>  <SCORE.INTRA.REPUL>
0

>  <SCORE.INTRA.REPUL.0>
0

>  <SCORE.INTRA.SOLV>
-0.211713

>  <SCORE.INTRA.SOLV.lig_0>
-49.9393

>  <SCORE.INTRA.VDW>
-1.76941

>  <SCORE.INTRA.VDW.0>
-1.75437

>  <SCORE.INTRA.norm>
-0.187115

>  <SCORE.RESTR>
0

>  <SCORE.RESTR.CAVITY>
0

>  <SCORE.RESTR.norm>
0

>  <SCORE.SYSTEM>
0

>  <SCORE.SYSTEM.CONST>
0

>  <SCORE.SYSTEM.DIHEDRAL>
0

>  <SCORE.SYSTEM.SOLV>
0

>  <SCORE.SYSTEM.norm>
0

>  <SCORE.heavy>
26

>  <SCORE.norm>
-0.556733

>  <RMSD>
9.842

$$$$
ligand
 OpenBabel11021811473D
libRbt.so/2013.1/901 2013/11/27
 26 28  0  0  0  0  0  0  0  0999 V2000
   -2.1259   11.5503  -25.8741 N   0  0  0  0  0  0  0  0  0  0  0  0
   -2.3743   12.9973  -25.8882 C   0  0  2  0  0  0  0  0  0  0  0  0
   -1.0777   13.7303  -25.6654 C   0  0  0  0  0  0  0  0  0  0  0  0
   -0.5606   13.7270  -24.5728 O   0  0  0  0  0  0  0  0  0  0  0  0
   -3.3613   13.3550  -24.7757 C   0  0  0  0  0  0  0  0  0  0  0  0
   -4.6422   12.5408  -24.9485 C   0  0  0  0  0  0  0  0  0  0  0  0
   -5.7920   12.4643  -23.7010 S   0  0  0  0  0  0  0  0  0  0  0  0
   -7.3817   13.2290  -23.2896 C   0  0  0  0  0  0  0  0  0  0  0  0
   -7.3687   14.7622  -23.2641 C   0  0  1  0  0  0  0  0  0  0  0  0
   -8.6458   15.3091  -22.9903 O   0  0  0  0  0  0  0  0  0  0  0  0
   -6.5173   15.3046  -22.1406 C   0  0  1  0  0  0  0  0  0  0  0  0
   -6.1575   16.6051  -22.5526 O   0  0  0  0  0  0  0  0  0  0  0  0
   -7.4516   15.4269  -20.9594 C   0  0  1  0  0  0  0  0  0  0  0  0
   -7.1825   16.6238  -20.2624 O   0  0  0  0  0  0  0  0  0  0  0  0
   -8.8197   15.5130  -21.6007 C   0  0  2  0  0  0  0  0  0  0  0  0
   -0.4957   14.3907  -26.6798 O   0  0  0  0  0  0  0  0  0  0  0  0
  -12.8951   12.5248  -22.8951 N   0  0  0  0  0  0  0  0  0  0  0  0
  -12.2492   13.4596  -23.6691 C   0  0  0  0  0  0  0  0  0  0  0  0
  -11.1929   14.1625  -23.1416 N   0  0  0  0  0  0  0  0  0  0  0  0
  -10.7838   13.9436  -21.8768 C   0  0  0  0  0  0  0  0  0  0  0  0
  -11.4184   13.0078  -21.0817 C   0  0  0  0  0  0  0  0  0  0  0  0
  -12.4902   12.2937  -21.6045 C   0  0  0  0  0  0  0  0  0  0  0  0
  -13.1306   11.3888  -20.8747 N   0  0  0  0  0  0  0  0  0  0  0  0
  -10.8098   12.9953  -19.8747 N   0  0  0  0  0  0  0  0  0  0  0  0
   -9.8077   13.8956  -19.8996 C   0  0  0  0  0  0  0  0  0  0  0  0
   -9.7836   14.5015  -21.1298 N   0  0  0  0  0  0  0  0  0  0  0  0
  2  1  1  1  0  0  0
  2  3  1  0  0  0  0
  2  5  1  0  0  0  0
  3  4  1  0  0  0  0
  3 16  1  0  0  0  0
  5  6  1  0  0  0  0
  6  7  1  0  0  0  0
  7  8  1  0  0  0  0
  9  8  1  1  0  0  0
  9 10  1  0  0  0  0
  9 11  1  0  0  0  0
 10 15  1  0  0  0  0
 11 12  1  6  0  0  0
 11 13  1  0  0  0  0
 13 14  1  6  0  0  0
 13 15  1  0  0  0  0
 15 26  1  1  0  0  0
 17 18  2  0  0  0  0
 17 22  1  0  0  0  0
 18 19  1  0  0  0  0
 19 20  2  0  0  0  0
 20 21  1  0  0  0  0
 20 26  1  0  0  0  0
 21 22  2  0  0  0  0
 21 24  1  0  0  0  0
 22 23  1  0  0  0  0
 24 25  2  0  0  0  0
 25 26  1  0  0  0  0
M  END
>  <CHROM.1>
-72.15079735,-56.27451193,166.97717782,100.76452406,-55.02731828,177.64466458
-29.16126322,-7.26750121,13.80993530,-22.96619912,0.22555541,-0.31813337
-2.49664949

>  <Name>
ligand

>  <RI>
0

>  <Rbt.Current_Directory>
/home/itssahil/PROJECTS/Mol_Feturizer/New_Systems/rnas/3E5E

>  <Rbt.Executable>
rbdock ($Id: //depot/dev/client3/rdock/2013.1/src/exe/rbdock.cxx#4 $)

>  <Rbt.Library>
libRbt.so (2013.1, Build901 2013/11/27)

>  <Rbt.Parameter_File>
/export/apps/rDock/src/rDock_2013.1_src/data/scripts/dock_solv.prm

>  <Rbt.Receptor>
prm/blind_docking_60.prm

>  <SCORE>
-17.4077

>  <SCORE.INTER>
-15.2067

>  <SCORE.INTER.CONST>
1

>  <SCORE.INTER.POLAR>
0

>  <SCORE.INTER.ROT>
7

>  <SCORE.INTER.SOLV>
12.9105

>  <SCORE.INTER.VDW>
-22.708

>  <SCORE.INTER.norm>
-0.584874

>  <SCORE.INTRA>
-2.20101

>  <SCORE.INTRA.DIHEDRAL>
-4.74622

>  <SCORE.INTRA.DIHEDRAL.0>
10.1225

>  <SCORE.INTRA.POLAR>
0

>  <SCORE.INTRA.POLAR.0>
0

>  <SCORE.INTRA.REPUL>
0

>  <SCORE.INTRA.REPUL.0>
0

>  <SCORE.INTRA.SOLV>
0.371858

>  <SCORE.INTRA.SOLV.lig_0>
-49.9393

>  <SCORE.INTRA.VDW>
-0.0138296

>  <SCORE.INTRA.VDW.0>
-1.75437

>  <SCORE.INTRA.norm>
-0.0846542

>  <SCORE.RESTR>
6.10654e-05

>  <SCORE.RESTR.CAVITY>
6.10654e-05

>  <SCORE.RESTR.norm>
2.34867e-06

>  <SCORE.SYSTEM>
0

>  <SCORE.SYSTEM.CONST>
0

>  <SCORE.SYSTEM.DIHEDRAL>
0

>  <SCORE.SYSTEM.SOLV>
0

>  <SCORE.SYSTEM.norm>
0

>  <SCORE.heavy>
26

>  <SCORE.norm>
-0.669525

>  <RMSD>
9.844

$$$$
ligand
 OpenBabel11021811473D
libRbt.so/2013.1/901 2013/11/27
 26 28  0  0  0  0  0  0  0  0999 V2000
   -7.3544   18.5377  -24.2648 N   0  0  0  0  0  0  0  0  0  0  0  0
   -7.4919   18.5044  -22.8034 C   0  0  2  0  0  0  0  0  0  0  0  0
   -6.2656   19.1081  -22.1711 C   0  0  0  0  0  0  0  0  0  0  0  0
   -6.3778   20.0048  -21.3684 O   0  0  0  0  0  0  0  0  0  0  0  0
   -7.6450   17.0548  -22.3396 C   0  0  0  0  0  0  0  0  0  0  0  0
   -8.9477   16.4776  -22.8905 C   0  0  0  0  0  0  0  0  0  0  0  0
   -9.3560   14.8520  -22.6169 S   0  0  0  0  0  0  0  0  0  0  0  0
  -10.6601   13.6934  -23.1044 C   0  0  0  0  0  0  0  0  0  0  0  0
  -12.0265   13.9572  -22.4601 C   0  0  1  0  0  0  0  0  0  0  0  0
  -12.9968   12.9977  -22.8384 O   0  0  0  0  0  0  0  0  0  0  0  0
  -11.9812   13.8221  -20.9564 C   0  0  1  0  0  0  0  0  0  0  0  0
  -13.0676   14.5919  -20.4897 O   0  0  0  0  0  0  0  0  0  0  0  0
  -12.2824   12.3674  -20.6804 C   0  0  1  0  0  0  0  0  0  0  0  0
  -13.1326   12.2624  -19.5594 O   0  0  0  0  0  0  0  0  0  0  0  0
  -13.0253   11.9206  -21.9209 C   0  0  2  0  0  0  0  0  0  0  0  0
   -5.0457   18.6526  -22.5003 O   0  0  0  0  0  0  0  0  0  0  0  0
  -13.9953    7.6832  -24.8049 N   0  0  0  0  0  0  0  0  0  0  0  0
  -14.8989    8.5748  -24.2772 C   0  0  0  0  0  0  0  0  0  0  0  0
  -14.4467    9.6329  -23.5261 N   0  0  0  0  0  0  0  0  0  0  0  0
  -13.1291    9.8054  -23.3039 C   0  0  0  0  0  0  0  0  0  0  0  0
  -12.2035    8.9214  -23.8258 C   0  0  0  0  0  0  0  0  0  0  0  0
  -12.6508    7.8459  -24.5842 C   0  0  0  0  0  0  0  0  0  0  0  0
  -11.7969    6.9708  -25.1007 N   0  0  0  0  0  0  0  0  0  0  0  0
  -10.9704    9.3292  -23.4509 N   0  0  0  0  0  0  0  0  0  0  0  0
  -11.1038   10.4488  -22.7134 C   0  0  0  0  0  0  0  0  0  0  0  0
  -12.4365   10.7530  -22.6022 N   0  0  0  0  0  0  0  0  0  0  0  0
  2  1  1  6  0  0  0
  2  3  1  0  0  0  0
  2  5  1  0  0  0  0
  3  4  1  0  0  0  0
  3 16  1  0  0  0  0
  5  6  1  0  0  0  0
  6  7  1  0  0  0  0
  7  8  1  0  0  0  0
  9  8  1  6  0  0  0
  9 10  1  0  0  0  0
  9 11  1  0  0  0  0
 10 15  1  0  0  0  0
 11 12  1  1  0  0  0
 11 13  1  0  0  0  0
 13 14  1  1  0  0  0
 13 15  1  0  0  0  0
 15 26  1  6  0  0  0
 17 18  2  0  0  0  0
 17 22  1  0  0  0  0
 18 19  1  0  0  0  0
 19 20  2  0  0  0  0
 20 21  1  0  0  0  0
 20 26  1  0  0  0  0
 21 22  2  0  0  0  0
 21 24  1  0  0  0  0
 22 23  1  0  0  0  0
 24 25  2  0  0  0  0
 25 26  1  0  0  0  0
M  END
>  <CHROM.1>
126.56167671,-64.57252303,176.59045046,-175.40618713,-71.49489965,-177.97209694
-92.42099711,-10.84344087,13.24602290,-22.68325704,-0.85034502,-0.58905824
-2.56162105

>  <Name>
ligand

>  <RI>
0

>  <Rbt.Current_Directory>
/home/itssahil/PROJECTS/Mol_Feturizer/New_Systems/rnas/3E5E

>  <Rbt.Executable>
rbdock ($Id: //depot/dev/client3/rdock/2013.1/src/exe/rbdock.cxx#4 $)

>  <Rbt.Library>
libRbt.so (2013.1, Build901 2013/11/27)

>  <Rbt.Parameter_File>
/export/apps/rDock/src/rDock_2013.1_src/data/scripts/dock_solv.prm

>  <Rbt.Receptor>
prm/blind_docking_100.prm

>  <SCORE>
-20.6502

>  <SCORE.INTER>
-16.7162

>  <SCORE.INTER.CONST>
1

>  <SCORE.INTER.POLAR>
0

>  <SCORE.INTER.ROT>
7

>  <SCORE.INTER.SOLV>
8.73698

>  <SCORE.INTER.VDW>
-22.3231

>  <SCORE.INTER.norm>
-0.642931

>  <SCORE.INTRA>
-3.93398

>  <SCORE.INTRA.DIHEDRAL>
-7.15315

>  <SCORE.INTRA.DIHEDRAL.0>
10.1225

>  <SCORE.INTRA.POLAR>
0

>  <SCORE.INTRA.POLAR.0>
0

>  <SCORE.INTRA.REPUL>
0

>  <SCORE.INTRA.REPUL.0>
0

>  <SCORE.INTRA.SOLV>
0.163205

>  <SCORE.INTRA.SOLV.lig_0>
-49.9393

>  <SCORE.INTRA.VDW>
-0.439003

>  <SCORE.INTRA.VDW.0>
-1.75437

>  <SCORE.INTRA.norm>
-0.151307

>  <SCORE.RESTR>
0

>  <SCORE.RESTR.CAVITY>
0

>  <SCORE.RESTR.norm>
0

>  <SCORE.SYSTEM>
0

>  <SCORE.SYSTEM.CONST>
0

>  <SCORE.SYSTEM.DIHEDRAL>
0

>  <SCORE.SYSTEM.SOLV>
0

>  <SCORE.SYSTEM.norm>
0

>  <SCORE.heavy>
26

>  <SCORE.norm>
-0.794238

>  <RMSD>
9.849

$$$$
ligand
 OpenBabel11021811473D
libRbt.so/2013.1/901 2013/11/27
 26 28  0  0  0  0  0  0  0  0999 V2000
   -7.4585   18.5196  -24.4068 N   0  0  0  0  0  0  0  0  0  0  0  0
   -7.5497   18.4868  -22.9418 C   0  0  2  0  0  0  0  0  0  0  0  0
   -6.3085   19.1002  -22.3489 C   0  0  0  0  0  0  0  0  0  0  0  0
   -6.4023   19.9505  -21.4950 O   0  0  0  0  0  0  0  0  0  0  0  0
   -7.6776   17.0367  -22.4722 C   0  0  0  0  0  0  0  0  0  0  0  0
   -9.0117   16.4627  -22.9456 C   0  0  0  0  0  0  0  0  0  0  0  0
   -9.4017   14.8347  -22.6598 S   0  0  0  0  0  0  0  0  0  0  0  0
  -10.7051   13.6641  -23.1198 C   0  0  0  0  0  0  0  0  0  0  0  0
  -12.0600   13.9155  -22.4471 C   0  0  1  0  0  0  0  0  0  0  0  0
  -13.0236   12.9361  -22.7895 O   0  0  0  0  0  0  0  0  0  0  0  0
  -11.9775   13.8016  -20.9432 C   0  0  1  0  0  0  0  0  0  0  0  0
  -13.0646   14.5608  -20.4612 O   0  0  0  0  0  0  0  0  0  0  0  0
  -12.2491   12.3463  -20.6409 C   0  0  1  0  0  0  0  0  0  0  0  0
  -13.0711   12.2434  -19.4988 O   0  0  0  0  0  0  0  0  0  0  0  0
  -13.0137   11.8712  -21.8575 C   0  0  2  0  0  0  0  0  0  0  0  0
   -5.0960   18.7049  -22.7703 O   0  0  0  0  0  0  0  0  0  0  0  0
  -13.9688    7.6587  -24.7827 N   0  0  0  0  0  0  0  0  0  0  0  0
  -14.8741    8.5536  -24.2634 C   0  0  0  0  0  0  0  0  0  0  0  0
  -14.4261    9.6037  -23.4988 N   0  0  0  0  0  0  0  0  0  0  0  0
  -13.1110    9.7655  -23.2552 C   0  0  0  0  0  0  0  0  0  0  0  0
  -12.1837    8.8781  -23.7683 C   0  0  0  0  0  0  0  0  0  0  0  0
  -12.6267    7.8105  -24.5402 C   0  0  0  0  0  0  0  0  0  0  0  0
  -11.7712    6.9326  -25.0491 N   0  0  0  0  0  0  0  0  0  0  0  0
  -10.9537    9.2747  -23.3719 N   0  0  0  0  0  0  0  0  0  0  0  0
  -11.0906   10.3907  -22.6296 C   0  0  0  0  0  0  0  0  0  0  0  0
  -12.4227   10.7038  -22.5370 N   0  0  0  0  0  0  0  0  0  0  0  0
  2  1  1  6  0  0  0
  2  3  1  0  0  0  0
  2  5  1  0  0  0  0
  3  4  1  0  0  0  0
  3 16  1  0  0  0  0
  5  6  1  0  0  0  0
  6  7  1  0  0  0  0
  7  8  1  0  0  0  0
  9  8  1  6  0  0  0
  9 10  1  0  0  0  0
  9 11  1  0  0  0  0
 10 15  1  0  0  0  0
 11 12  1  1  0  0  0
 11 13  1  0  0  0  0
 13 14  1  1  0  0  0
 13 15  1  0  0  0  0
 15 26  1  6  0  0  0
 17 18  2  0  0  0  0
 17 22  1  0  0  0  0
 18 19  1  0  0  0  0
 19 20  2  0  0  0  0
 20 21  1  0  0  0  0
 20 26  1  0  0  0  0
 21 22  2  0  0  0  0
 21 24  1  0  0  0  0
 22 23  1  0  0  0  0
 24 25  2  0  0  0  0
 25 26  1  0  0  0  0
M  END
>  <CHROM.1>
130.25663185,-66.26421195,176.19269658,-172.79202347,-71.72431262,-177.11204886
-89.60456051,-10.85390617,13.21760747,-22.69975362,-0.84156883,-0.61537087
-2.56113924

>  <Name>
ligand

>  <RI>
0

>  <Rbt.Current_Directory>
/home/itssahil/PROJECTS/Mol_Feturizer/New_Systems/rnas/3E5E

>  <Rbt.Executable>
rbdock ($Id: //depot/dev/client3/rdock/2013.1/src/exe/rbdock.cxx#4 $)

>  <Rbt.Library>
libRbt.so (2013.1, Build901 2013/11/27)

>  <Rbt.Parameter_File>
/export/apps/rDock/src/rDock_2013.1_src/data/scripts/dock_solv.prm

>  <Rbt.Receptor>
prm/pocket_docking_7.prm

>  <SCORE>
-20.6244

>  <SCORE.INTER>
-16.7277

>  <SCORE.INTER.CONST>
1

>  <SCORE.INTER.POLAR>
0

>  <SCORE.INTER.ROT>
7

>  <SCORE.INTER.SOLV>
8.70606

>  <SCORE.INTER.VDW>
-22.3205

>  <SCORE.INTER.norm>
-0.643375

>  <SCORE.INTRA>
-3.89661

>  <SCORE.INTRA.DIHEDRAL>
-6.99679

>  <SCORE.INTRA.DIHEDRAL.0>
10.1225

>  <SCORE.INTRA.POLAR>
0

>  <SCORE.INTRA.POLAR.0>
0

>  <SCORE.INTRA.REPUL>
0

>  <SCORE.INTRA.REPUL.0>
0

>  <SCORE.INTRA.SOLV>
0.148564

>  <SCORE.INTRA.SOLV.lig_0>
-49.9393

>  <SCORE.INTRA.VDW>
-0.472498

>  <SCORE.INTRA.VDW.0>
-1.75437

>  <SCORE.INTRA.norm>
-0.14987

>  <SCORE.RESTR>
0

>  <SCORE.RESTR.CAVITY>
0

>  <SCORE.RESTR.norm>
0

>  <SCORE.SYSTEM>
0

>  <SCORE.SYSTEM.CONST>
0

>  <SCORE.SYSTEM.DIHEDRAL>
0

>  <SCORE.SYSTEM.SOLV>
0

>  <SCORE.SYSTEM.norm>
0

>  <SCORE.heavy>
26

>  <SCORE.norm>
-0.793244

>  <RMSD>
9.853

$$$$
ligand
 OpenBabel11021811473D
libRbt.so/2013.1/901 2013/11/27
 26 28  0  0  0  0  0  0  0  0999 V2000
   -6.4889   15.5426  -22.8040 N   0  0  0  0  0  0  0  0  0  0  0  0
   -5.2092   14.8304  -22.6999 C   0  0  2  0  0  0  0  0  0  0  0  0
   -4.0783   15.7938  -22.9472 C   0  0  0  0  0  0  0  0  0  0  0  0
   -2.9583   15.5179  -22.5858 O   0  0  0  0  0  0  0  0  0  0  0  0
   -5.1636   13.7108  -23.7412 C   0  0  0  0  0  0  0  0  0  0  0  0
   -6.2027   12.6468  -23.3922 C   0  0  0  0  0  0  0  0  0  0  0  0
   -7.8617   13.0014  -23.4696 S   0  0  0  0  0  0  0  0  0  0  0  0
   -9.4104   12.1213  -23.7980 C   0  0  0  0  0  0  0  0  0  0  0  0
  -10.6797   12.9561  -23.5887 C   0  0  1  0  0  0  0  0  0  0  0  0
  -11.8430   12.2972  -24.0552 O   0  0  0  0  0  0  0  0  0  0  0  0
  -10.9778   13.1794  -22.1249 C   0  0  1  0  0  0  0  0  0  0  0  0
  -11.7716   14.3452  -22.0896 O   0  0  0  0  0  0  0  0  0  0  0  0
  -11.8413   12.0096  -21.7138 C   0  0  1  0  0  0  0  0  0  0  0  0
  -12.8691   12.4556  -20.8562 O   0  0  0  0  0  0  0  0  0  0  0  0
  -12.4429   11.5402  -23.0208 C   0  0  2  0  0  0  0  0  0  0  0  0
   -4.3134   16.9619  -23.5671 O   0  0  0  0  0  0  0  0  0  0  0  0
  -14.6439    7.0163  -24.4008 N   0  0  0  0  0  0  0  0  0  0  0  0
  -15.2630    8.2155  -24.1387 C   0  0  0  0  0  0  0  0  0  0  0  0
  -14.5064    9.3028  -23.7736 N   0  0  0  0  0  0  0  0  0  0  0  0
  -13.1665    9.2058  -23.6720 C   0  0  0  0  0  0  0  0  0  0  0  0
  -12.5237    8.0100  -23.9320 C   0  0  0  0  0  0  0  0  0  0  0  0
  -13.2802    6.9031  -24.2988 C   0  0  0  0  0  0  0  0  0  0  0  0
  -12.7043    5.7348  -24.5534 N   0  0  0  0  0  0  0  0  0  0  0  0
  -11.1965    8.1956  -23.7550 N   0  0  0  0  0  0  0  0  0  0  0  0
  -10.9953    9.4789  -23.3972 C   0  0  0  0  0  0  0  0  0  0  0  0
  -12.2069   10.1179  -23.3297 N   0  0  0  0  0  0  0  0  0  0  0  0
  2  1  1  6  0  0  0
  2  3  1  0  0  0  0
  2  5  1  0  0  0  0
  3  4  1  0  0  0  0
  3 16  1  0  0  0  0
  5  6  1  0  0  0  0
  6  7  1  0  0  0  0
  7  8  1  0  0  0  0
  9  8  1  1  0  0  0
  9 10  1  0  0  0  0
  9 11  1  0  0  0  0
 10 15  1  0  0  0  0
 11 12  1  6  0  0  0
 11 13  1  0  0  0  0
 13 14  1  1  0  0  0
 13 15  1  0  0  0  0
 15 26  1  6  0  0  0
 17 18  2  0  0  0  0
 17 22  1  0  0  0  0
 18 19  1  0  0  0  0
 19 20  2  0  0  0  0
 20 21  1  0  0  0  0
 20 26  1  0  0  0  0
 21 22  2  0  0  0  0
 21 24  1  0  0  0  0
 22 23  1  0  0  0  0
 24 25  2  0  0  0  0
 25 26  1  0  0  0  0
M  END
>  <CHROM.1>
161.24280746,-66.81632055,66.71250739,150.26821048,174.00366590,170.73814458
-112.67490446,-9.98258997,11.76732395,-23.28199036,0.65920541,0.19223674
0.34903721

>  <Name>
ligand

>  <RI>
0

>  <Rbt.Current_Directory>
/home/itssahil/PROJECTS/Mol_Feturizer/New_Systems/rnas/3E5E

>  <Rbt.Executable>
rbdock ($Id: //depot/dev/client3/rdock/2013.1/src/exe/rbdock.cxx#4 $)

>  <Rbt.Library>
libRbt.so (2013.1, Build901 2013/11/27)

>  <Rbt.Parameter_File>
/export/apps/rDock/src/rDock_2013.1_src/data/scripts/dock_solv.prm

>  <Rbt.Receptor>
prm/pocket_docking_8.prm

>  <SCORE>
-16.1102

>  <SCORE.INTER>
-13.7694

>  <SCORE.INTER.CONST>
1

>  <SCORE.INTER.POLAR>
0

>  <SCORE.INTER.ROT>
7

>  <SCORE.INTER.SOLV>
5.85875

>  <SCORE.INTER.VDW>
-19.3992

>  <SCORE.INTER.norm>
-0.529591

>  <SCORE.INTRA>
-2.34079

>  <SCORE.INTRA.DIHEDRAL>
-5.58078

>  <SCORE.INTRA.DIHEDRAL.0>
10.1225

>  <SCORE.INTRA.POLAR>
0

>  <SCORE.INTRA.POLAR.0>
0

>  <SCORE.INTRA.REPUL>
0

>  <SCORE.INTRA.REPUL.0>
0

>  <SCORE.INTRA.SOLV>
1.40292

>  <SCORE.INTRA.SOLV.lig_0>
-49.9393

>  <SCORE.INTRA.VDW>
-0.251867

>  <SCORE.INTRA.VDW.0>
-1.75437

>  <SCORE.INTRA.norm>
-0.0900305

>  <SCORE.RESTR>
0

>  <SCORE.RESTR.CAVITY>
0

>  <SCORE.RESTR.norm>
0

>  <SCORE.SYSTEM>
0

>  <SCORE.SYSTEM.CONST>
0

>  <SCORE.SYSTEM.DIHEDRAL>
0

>  <SCORE.SYSTEM.SOLV>
0

>  <SCORE.SYSTEM.norm>
0

>  <SCORE.heavy>
26

>  <SCORE.norm>
-0.619622

>  <RMSD>
9.868

$$$$
ligand
 OpenBabel11021811473D
libRbt.so/2013.1/901 2013/11/27
 26 28  0  0  0  0  0  0  0  0999 V2000
   -7.3828   18.4603  -24.3389 N   0  0  0  0  0  0  0  0  0  0  0  0
   -7.4105   18.4843  -22.8712 C   0  0  2  0  0  0  0  0  0  0  0  0
   -6.1117   19.0452  -22.3548 C   0  0  0  0  0  0  0  0  0  0  0  0
   -5.0602   18.5979  -22.7489 O   0  0  0  0  0  0  0  0  0  0  0  0
   -7.5989   17.0614  -22.3424 C   0  0  0  0  0  0  0  0  0  0  0  0
   -8.9429   16.5136  -22.8189 C   0  0  0  0  0  0  0  0  0  0  0  0
   -9.3542   14.8868  -22.5575 S   0  0  0  0  0  0  0  0  0  0  0  0
  -10.6491   13.7287  -23.0703 C   0  0  0  0  0  0  0  0  0  0  0  0
  -12.0301   13.9993  -22.4608 C   0  0  1  0  0  0  0  0  0  0  0  0
  -12.9970   13.0490  -22.8695 O   0  0  0  0  0  0  0  0  0  0  0  0
  -12.0253   13.8561  -20.9571 C   0  0  1  0  0  0  0  0  0  0  0  0
  -13.1179   14.6314  -20.5150 O   0  0  0  0  0  0  0  0  0  0  0  0
  -12.3442   12.4023  -20.6969 C   0  0  1  0  0  0  0  0  0  0  0  0
  -13.2244   12.2977  -19.5992 O   0  0  0  0  0  0  0  0  0  0  0  0
  -13.0574   11.9674  -21.9589 C   0  0  2  0  0  0  0  0  0  0  0  0
   -6.1202   20.0412  -21.4538 O   0  0  0  0  0  0  0  0  0  0  0  0
  -13.9970    7.6833  -24.7834 N   0  0  0  0  0  0  0  0  0  0  0  0
  -14.9075    8.5700  -24.2592 C   0  0  0  0  0  0  0  0  0  0  0  0
  -14.4626    9.6427  -23.5247 N   0  0  0  0  0  0  0  0  0  0  0  0
  -13.1456    9.8344  -23.3153 C   0  0  0  0  0  0  0  0  0  0  0  0
  -12.2132    8.9557  -23.8339 C   0  0  0  0  0  0  0  0  0  0  0  0
  -12.6529    7.8655  -24.5756 C   0  0  0  0  0  0  0  0  0  0  0  0
  -11.7922    6.9949  -25.0884 N   0  0  0  0  0  0  0  0  0  0  0  0
  -10.9824    9.3833  -23.4740 N   0  0  0  0  0  0  0  0  0  0  0  0
  -11.1240   10.5102  -22.7491 C   0  0  0  0  0  0  0  0  0  0  0  0
  -12.4595   10.7990  -22.6308 N   0  0  0  0  0  0  0  0  0  0  0  0
  2  1  1  6  0  0  0
  2  3  1  0  0  0  0
  2  5  1  0  0  0  0
  3  4  1  0  0  0  0
  3 16  1  0  0  0  0
  5  6  1  0  0  0  0
  6  7  1  0  0  0  0
  7  8  1  0  0  0  0
  9  8  1  6  0  0  0
  9 10  1  0  0  0  0
  9 11  1  0  0  0  0
 10 15  1  0  0  0  0
 11 12  1  1  0  0  0
 11 13  1  0  0  0  0
 13 14  1  1  0  0  0
 13 15  1  0  0  0  0
 15 26  1  6  0  0  0
 17 18  2  0  0  0  0
 17 22  1  0  0  0  0
 18 19  1  0  0  0  0
 19 20  2  0  0  0  0
 20 21  1  0  0  0  0
 20 26  1  0  0  0  0
 21 22  2  0  0  0  0
 21 24  1  0  0  0  0
 22 23  1  0  0  0  0
 24 25  2  0  0  0  0
 25 26  1  0  0  0  0
M  END
>  <CHROM.1>
-50.89785946,-62.36319813,172.30485768,-170.44618250,-70.80070980,-178.65333287
-94.90516332,-10.83852307,13.26584748,-22.70714987,-0.84148767,-0.57990415
-2.56974715

>  <Name>
ligand

>  <RI>
0

>  <Rbt.Current_Directory>
/home/itssahil/PROJECTS/Mol_Feturizer/New_Systems/rnas/3E5E

>  <Rbt.Executable>
rbdock ($Id: //depot/dev/client3/rdock/2013.1/src/exe/rbdock.cxx#4 $)

>  <Rbt.Library>
libRbt.so (2013.1, Build901 2013/11/27)

>  <Rbt.Parameter_File>
/export/apps/rDock/src/rDock_2013.1_src/data/scripts/dock_solv.prm

>  <Rbt.Receptor>
prm/blind_docking_60.prm

>  <SCORE>
-20.3917

>  <SCORE.INTER>
-16.7266

>  <SCORE.INTER.CONST>
1

>  <SCORE.INTER.POLAR>
0

>  <SCORE.INTER.ROT>
7

>  <SCORE.INTER.SOLV>
8.87152

>  <SCORE.INTER.VDW>
-22.3749

>  <SCORE.INTER.norm>
-0.643331

>  <SCORE.INTRA>
-3.68537

>  <SCORE.INTRA.DIHEDRAL>
-6.95783

>  <SCORE.INTRA.DIHEDRAL.0>
10.1225

>  <SCORE.INTRA.POLAR>
0

>  <SCORE.INTRA.POLAR.0>
0

>  <SCORE.INTRA.REPUL>
0

>  <SCORE.INTRA.REPUL.0>
0

>  <SCORE.INTRA.SOLV>
0.190465

>  <SCORE.INTRA.SOLV.lig_0>
-49.9393

>  <SCORE.INTRA.VDW>
-0.301684

>  <SCORE.INTRA.VDW.0>
-1.75437

>  <SCORE.INTRA.norm>
-0.141745

>  <SCORE.RESTR>
0.0202253

>  <SCORE.RESTR.CAVITY>
0.0202253

>  <SCORE.RESTR.norm>
0.000777898

>  <SCORE.SYSTEM>
0

>  <SCORE.SYSTEM.CONST>
0

>  <SCORE.SYSTEM.DIHEDRAL>
0

>  <SCORE.SYSTEM.SOLV>
0

>  <SCORE.SYSTEM.norm>
0

>  <SCORE.heavy>
26

>  <SCORE.norm>
-0.784298

>  <RMSD>
9.875

$$$$
ligand
 OpenBabel11021811473D
libRbt.so/2013.1/901 2013/11/27
 26 28  0  0  0  0  0  0  0  0999 V2000
   -7.6735   18.6079  -24.4679 N   0  0  0  0  0  0  0  0  0  0  0  0
   -7.6268   18.5610  -23.0013 C   0  0  2  0  0  0  0  0  0  0  0  0
   -6.3520   19.2024  -22.5200 C   0  0  0  0  0  0  0  0  0  0  0  0
   -5.3198   19.0247  -23.1233 O   0  0  0  0  0  0  0  0  0  0  0  0
   -7.6729   17.1043  -22.5369 C   0  0  0  0  0  0  0  0  0  0  0  0
   -9.0217   16.4920  -22.9104 C   0  0  0  0  0  0  0  0  0  0  0  0
   -9.3212   14.8403  -22.6534 S   0  0  0  0  0  0  0  0  0  0  0  0
  -10.6025   13.6270  -23.0627 C   0  0  0  0  0  0  0  0  0  0  0  0
  -11.9717   13.9012  -22.4289 C   0  0  1  0  0  0  0  0  0  0  0  0
  -12.9449   12.9459  -22.8100 O   0  0  0  0  0  0  0  0  0  0  0  0
  -11.9376   13.7720  -20.9244 C   0  0  1  0  0  0  0  0  0  0  0  0
  -13.0226   14.5498  -20.4683 O   0  0  0  0  0  0  0  0  0  0  0  0
  -12.2490   12.3201  -20.6447 C   0  0  1  0  0  0  0  0  0  0  0  0
  -13.1076   12.2245  -19.5292 O   0  0  0  0  0  0  0  0  0  0  0  0
  -12.9859   11.8726  -21.8885 C   0  0  2  0  0  0  0  0  0  0  0  0
   -6.3600   19.9706  -21.4182 O   0  0  0  0  0  0  0  0  0  0  0  0
  -13.9568    7.6457  -24.7875 N   0  0  0  0  0  0  0  0  0  0  0  0
  -14.8589    8.5468  -24.2733 C   0  0  0  0  0  0  0  0  0  0  0  0
  -14.4069    9.6000  -23.5154 N   0  0  0  0  0  0  0  0  0  0  0  0
  -13.0911    9.7587  -23.2733 C   0  0  0  0  0  0  0  0  0  0  0  0
  -12.1671    8.8651  -23.7814 C   0  0  0  0  0  0  0  0  0  0  0  0
  -12.6141    7.7943  -24.5466 C   0  0  0  0  0  0  0  0  0  0  0  0
  -11.7618    6.9104  -25.0505 N   0  0  0  0  0  0  0  0  0  0  0  0
  -10.9356    9.2599  -23.3879 N   0  0  0  0  0  0  0  0  0  0  0  0
  -11.0683   10.3808  -22.6524 C   0  0  0  0  0  0  0  0  0  0  0  0
  -12.3993   10.6990  -22.5612 N   0  0  0  0  0  0  0  0  0  0  0  0
  2  1  1  6  0  0  0
  2  3  1  0  0  0  0
  2  5  1  0  0  0  0
  3  4  1  0  0  0  0
  3 16  1  0  0  0  0
  5  6  1  0  0  0  0
  6  7  1  0  0  0  0
  7  8  1  0  0  0  0
  9  8  1  6  0  0  0
  9 10  1  0  0  0  0
  9 11  1  0  0  0  0
 10 15  1  0  0  0  0
 11 12  1  1  0  0  0
 11 13  1  0  0  0  0
 13 14  1  1  0  0  0
 13 15  1  0  0  0  0
 15 26  1  6  0  0  0
 17 18  2  0  0  0  0
 17 22  1  0  0  0  0
 18 19  1  0  0  0  0
 19 20  2  0  0  0  0
 20 21  1  0  0  0  0
 20 26  1  0  0  0  0
 21 22  2  0  0  0  0
 21 24  1  0  0  0  0
 22 23  1  0  0  0  0
 24 25  2  0  0  0  0
 25 26  1  0  0  0  0
M  END
>  <CHROM.1>
-39.12661476,-65.35085291,174.34904453,-171.49886892,-64.26523943,178.35224685
-91.83453126,-10.84838928,13.23681616,-22.72678587,-0.83783795,-0.64573168
-2.55042082

>  <Name>
ligand

>  <RI>
0

>  <Rbt.Current_Directory>
/home/itssahil/PROJECTS/Mol_Feturizer/New_Systems/rnas/3E5E

>  <Rbt.Executable>
rbdock ($Id: //depot/dev/client3/rdock/2013.1/src/exe/rbdock.cxx#4 $)

>  <Rbt.Library>
libRbt.so (2013.1, Build901 2013/11/27)

>  <Rbt.Parameter_File>
/export/apps/rDock/src/rDock_2013.1_src/data/scripts/dock_solv.prm

>  <Rbt.Receptor>
prm/blind_docking_100.prm

>  <SCORE>
-20.3853

>  <SCORE.INTER>
-16.4625

>  <SCORE.INTER.CONST>
1

>  <SCORE.INTER.POLAR>
0

>  <SCORE.INTER.ROT>
7

>  <SCORE.INTER.SOLV>
8.60999

>  <SCORE.INTER.VDW>
-22.1117

>  <SCORE.INTER.norm>
-0.633174

>  <SCORE.INTRA>
-3.92274

>  <SCORE.INTRA.DIHEDRAL>
-7.16216

>  <SCORE.INTRA.DIHEDRAL.0>
10.1225

>  <SCORE.INTRA.POLAR>
0

>  <SCORE.INTRA.POLAR.0>
0

>  <SCORE.INTRA.REPUL>
0

>  <SCORE.INTRA.REPUL.0>
0

>  <SCORE.INTRA.SOLV>
0.1279

>  <SCORE.INTRA.SOLV.lig_0>
-49.9393

>  <SCORE.INTRA.VDW>
-0.40561

>  <SCORE.INTRA.VDW.0>
-1.75437

>  <SCORE.INTRA.norm>
-0.150875

>  <SCORE.RESTR>
0

>  <SCORE.RESTR.CAVITY>
0

>  <SCORE.RESTR.norm>
0

>  <SCORE.SYSTEM>
0

>  <SCORE.SYSTEM.CONST>
0

>  <SCORE.SYSTEM.DIHEDRAL>
0

>  <SCORE.SYSTEM.SOLV>
0

>  <SCORE.SYSTEM.norm>
0

>  <SCORE.heavy>
26

>  <SCORE.norm>
-0.784049

>  <RMSD>
9.882

$$$$
ligand
 OpenBabel11021811473D
libRbt.so/2013.1/901 2013/11/27
 26 28  0  0  0  0  0  0  0  0999 V2000
   -5.8911   17.5054  -23.0519 N   0  0  0  0  0  0  0  0  0  0  0  0
   -6.1664   16.6156  -24.1868 C   0  0  2  0  0  0  0  0  0  0  0  0
   -5.8226   17.3217  -25.4718 C   0  0  0  0  0  0  0  0  0  0  0  0
   -5.7514   18.5280  -25.4992 O   0  0  0  0  0  0  0  0  0  0  0  0
   -7.6492   16.2399  -24.1909 C   0  0  0  0  0  0  0  0  0  0  0  0
   -7.9838   15.4688  -22.9154 C   0  0  0  0  0  0  0  0  0  0  0  0
   -9.5892   15.0454  -22.5582 S   0  0  0  0  0  0  0  0  0  0  0  0
  -10.8130   13.8291  -23.1095 C   0  0  0  0  0  0  0  0  0  0  0  0
  -12.2012   13.9832  -22.4763 C   0  0  1  0  0  0  0  0  0  0  0  0
  -13.0947   12.9605  -22.8769 O   0  0  0  0  0  0  0  0  0  0  0  0
  -12.1604   13.8315  -20.9740 C   0  0  1  0  0  0  0  0  0  0  0  0
  -13.3047   14.5131  -20.5089 O   0  0  0  0  0  0  0  0  0  0  0  0
  -12.3565   12.3550  -20.7198 C   0  0  1  0  0  0  0  0  0  0  0  0
  -13.2074   12.1727  -19.6092 O   0  0  0  0  0  0  0  0  0  0  0  0
  -13.0527   11.8718  -21.9737 C   0  0  2  0  0  0  0  0  0  0  0  0
   -5.5975   16.6120  -26.5897 O   0  0  0  0  0  0  0  0  0  0  0  0
  -13.6862    7.5744  -24.8624 N   0  0  0  0  0  0  0  0  0  0  0  0
  -14.6573    8.3851  -24.3242 C   0  0  0  0  0  0  0  0  0  0  0  0
  -14.2896    9.4758  -23.5738 N   0  0  0  0  0  0  0  0  0  0  0  0
  -12.9894    9.7588  -23.3624 C   0  0  0  0  0  0  0  0  0  0  0  0
  -11.9970    8.9575  -23.8950 C   0  0  0  0  0  0  0  0  0  0  0  0
  -12.3583    7.8498  -24.6529 C   0  0  0  0  0  0  0  0  0  0  0  0
  -11.4381    7.0514  -25.1795 N   0  0  0  0  0  0  0  0  0  0  0  0
  -10.7996    9.4673  -23.5294 N   0  0  0  0  0  0  0  0  0  0  0  0
  -11.0207   10.5699  -22.7874 C   0  0  0  0  0  0  0  0  0  0  0  0
  -12.3733   10.7599  -22.6638 N   0  0  0  0  0  0  0  0  0  0  0  0
  2  1  1  1  0  0  0
  2  3  1  0  0  0  0
  2  5  1  0  0  0  0
  3  4  1  0  0  0  0
  3 16  1  0  0  0  0
  5  6  1  0  0  0  0
  6  7  1  0  0  0  0
  7  8  1  0  0  0  0
  9  8  1  6  0  0  0
  9 10  1  0  0  0  0
  9 11  1  0  0  0  0
 10 15  1  0  0  0  0
 11 12  1  1  0  0  0
 11 13  1  0  0  0  0
 13 14  1  1  0  0  0
 13 15  1  0  0  0  0
 15 26  1  6  0  0  0
 17 18  2  0  0  0  0
 17 22  1  0  0  0  0
 18 19  1  0  0  0  0
 19 20  2  0  0  0  0
 20 21  1  0  0  0  0
 20 26  1  0  0  0  0
 21 22  2  0  0  0  0
 21 24  1  0  0  0  0
 22 23  1  0  0  0  0
 24 25  2  0  0  0  0
 25 26  1  0  0  0  0
M  END
>  <CHROM.1>
-20.43537988,-62.56624908,173.99918921,75.49695004,-175.55364813,-176.33467758
-93.81160513,-10.67818816,12.87473880,-23.23849491,0.60379758,0.67224687
0.59215426

>  <Name>
ligand

>  <RI>
0

>  <Rbt.Current_Directory>
/home/itssahil/PROJECTS/Mol_Feturizer/New_Systems/rnas/3E5E

>  <Rbt.Executable>
rbdock ($Id: //depot/dev/client3/rdock/2013.1/src/exe/rbdock.cxx#4 $)

>  <Rbt.Library>
libRbt.so (2013.1, Build901 2013/11/27)

>  <Rbt.Parameter_File>
/export/apps/rDock/src/rDock_2013.1_src/data/scripts/dock_solv.prm

>  <Rbt.Receptor>
prm/pocket_docking_7.prm

>  <SCORE>
-19.4888

>  <SCORE.INTER>
-15.8983

>  <SCORE.INTER.CONST>
1

>  <SCORE.INTER.POLAR>
0

>  <SCORE.INTER.ROT>
7

>  <SCORE.INTER.SOLV>
8.9523

>  <SCORE.INTER.VDW>
-21.8496

>  <SCORE.INTER.norm>
-0.611471

>  <SCORE.INTRA>
-3.5905

>  <SCORE.INTRA.DIHEDRAL>
-6.92705

>  <SCORE.INTRA.DIHEDRAL.0>
10.1225

>  <SCORE.INTRA.POLAR>
0

>  <SCORE.INTRA.POLAR.0>
0

>  <SCORE.INTRA.REPUL>
0

>  <SCORE.INTRA.REPUL.0>
0

>  <SCORE.INTRA.SOLV>
0.177438

>  <SCORE.INTRA.SOLV.lig_0>
-49.9393

>  <SCORE.INTRA.VDW>
-0.215694

>  <SCORE.INTRA.VDW.0>
-1.75437

>  <SCORE.INTRA.norm>
-0.138096

>  <SCORE.RESTR>
0

>  <SCORE.RESTR.CAVITY>
0

>  <SCORE.RESTR.norm>
0

>  <SCORE.SYSTEM>
0

>  <SCORE.SYSTEM.CONST>
0

>  <SCORE.SYSTEM.DIHEDRAL>
0

>  <SCORE.SYSTEM.SOLV>
0

>  <SCORE.SYSTEM.norm>
0

>  <SCORE.heavy>
26

>  <SCORE.norm>
-0.749568

>  <RMSD>
9.918

$$$$
ligand
 OpenBabel11021811473D
libRbt.so/2013.1/901 2013/11/27
 26 28  0  0  0  0  0  0  0  0999 V2000
   -7.8497   18.6687  -23.9769 N   0  0  0  0  0  0  0  0  0  0  0  0
   -6.9038   17.6461  -23.5133 C   0  0  2  0  0  0  0  0  0  0  0  0
   -5.5588   17.8834  -24.1481 C   0  0  0  0  0  0  0  0  0  0  0  0
   -4.5529   17.5075  -23.5932 O   0  0  0  0  0  0  0  0  0  0  0  0
   -7.4179   16.2607  -23.9083 C   0  0  0  0  0  0  0  0  0  0  0  0
   -8.6527   15.9183  -23.0766 C   0  0  0  0  0  0  0  0  0  0  0  0
   -9.3359   14.3650  -23.1438 S   0  0  0  0  0  0  0  0  0  0  0  0
  -10.1715   13.2144  -22.0218 C   0  0  0  0  0  0  0  0  0  0  0  0
  -11.6018   13.6150  -21.6404 C   0  0  1  0  0  0  0  0  0  0  0  0
  -12.5771   12.9296  -22.4045 O   0  0  0  0  0  0  0  0  0  0  0  0
  -11.9424   13.2231  -20.2219 C   0  0  1  0  0  0  0  0  0  0  0  0
  -12.9892   14.0914  -19.8466 O   0  0  0  0  0  0  0  0  0  0  0  0
  -12.5046   11.8242  -20.3219 C   0  0  1  0  0  0  0  0  0  0  0  0
  -13.6075   11.6917  -19.4521 O   0  0  0  0  0  0  0  0  0  0  0  0
  -12.9798   11.7378  -21.7562 C   0  0  2  0  0  0  0  0  0  0  0  0
   -5.4753   18.5154  -25.3303 O   0  0  0  0  0  0  0  0  0  0  0  0
  -14.0463    7.6873  -24.8658 N   0  0  0  0  0  0  0  0  0  0  0  0
  -14.9314    8.5472  -24.2598 C   0  0  0  0  0  0  0  0  0  0  0  0
  -14.4542    9.5561  -23.4582 N   0  0  0  0  0  0  0  0  0  0  0  0
  -13.1303    9.7116  -23.2625 C   0  0  0  0  0  0  0  0  0  0  0  0
  -12.2232    8.8589  -23.8629 C   0  0  0  0  0  0  0  0  0  0  0  0
  -12.6956    7.8329  -24.6730 C   0  0  0  0  0  0  0  0  0  0  0  0
  -11.8599    6.9891  -25.2655 N   0  0  0  0  0  0  0  0  0  0  0  0
  -10.9785    9.2399  -23.4981 N   0  0  0  0  0  0  0  0  0  0  0  0
  -11.0870   10.3127  -22.6902 C   0  0  0  0  0  0  0  0  0  0  0  0
  -12.4148   10.6127  -22.5237 N   0  0  0  0  0  0  0  0  0  0  0  0
  2  1  1  6  0  0  0
  2  3  1  0  0  0  0
  2  5  1  0  0  0  0
  3  4  1  0  0  0  0
  3 16  1  0  0  0  0
  5  6  1  0  0  0  0
  6  7  1  0  0  0  0
  7  8  1  0  0  0  0
  9  8  1  6  0  0  0
  9 10  1  0  0  0  0
  9 11  1  0  0  0  0
 10 15  1  0  0  0  0
 11 12  1  6  0  0  0
 11 13  1  0  0  0  0
 13 14  1  1  0  0  0
 13 15  1  0  0  0  0
 15 26  1  6  0  0  0
 17 18  2  0  0  0  0
 17 22  1  0  0  0  0
 18 19  1  0  0  0  0
 19 20  2  0  0  0  0
 20 21  1  0  0  0  0
 20 26  1  0  0  0  0
 21 22  2  0  0  0  0
 21 24  1  0  0  0  0
 22 23  1  0  0  0  0
 24 25  2  0  0  0  0
 25 26  1  0  0  0  0
M  END
>  <CHROM.1>
153.60297672,-70.00353874,-172.16478606,145.39954076,72.40992663,98.98940869
-111.48213109,-10.71564545,12.83192114,-22.92959460,0.60224040,0.70697294
0.68297599

>  <Name>
ligand

>  <RI>
0

>  <Rbt.Current_Directory>
/home/itssahil/PROJECTS/Mol_Feturizer/New_Systems/rnas/3E5E

>  <Rbt.Executable>
rbdock ($Id: //depot/dev/client3/rdock/2013.1/src/exe/rbdock.cxx#4 $)

>  <Rbt.Library>
libRbt.so (2013.1, Build901 2013/11/27)

>  <Rbt.Parameter_File>
/export/apps/rDock/src/rDock_2013.1_src/data/scripts/dock_solv.prm

>  <Rbt.Receptor>
prm/blind_docking_100.prm

>  <SCORE>
-14.8154

>  <SCORE.INTER>
-13.7205

>  <SCORE.INTER.CONST>
1

>  <SCORE.INTER.POLAR>
0

>  <SCORE.INTER.ROT>
7

>  <SCORE.INTER.SOLV>
7.33363

>  <SCORE.INTER.VDW>
-19.8582

>  <SCORE.INTER.norm>
-0.527711

>  <SCORE.INTRA>
-1.11296

>  <SCORE.INTRA.DIHEDRAL>
-1.32309

>  <SCORE.INTRA.DIHEDRAL.0>
10.1225

>  <SCORE.INTRA.POLAR>
0

>  <SCORE.INTRA.POLAR.0>
0

>  <SCORE.INTRA.REPUL>
0

>  <SCORE.INTRA.REPUL.0>
0

>  <SCORE.INTRA.SOLV>
-0.035786

>  <SCORE.INTRA.SOLV.lig_0>
-49.9393

>  <SCORE.INTRA.VDW>
-0.43352

>  <SCORE.INTRA.VDW.0>
-1.75437

>  <SCORE.INTRA.norm>
-0.0428062

>  <SCORE.RESTR>
0.0179964

>  <SCORE.RESTR.CAVITY>
0.0179964

>  <SCORE.RESTR.norm>
0.00069217

>  <SCORE.SYSTEM>
0

>  <SCORE.SYSTEM.CONST>
0

>  <SCORE.SYSTEM.DIHEDRAL>
0

>  <SCORE.SYSTEM.SOLV>
0

>  <SCORE.SYSTEM.norm>
0

>  <SCORE.heavy>
26

>  <SCORE.norm>
-0.569825

>  <RMSD>
9.966

$$$$
ligand
 OpenBabel11021811473D
libRbt.so/2013.1/901 2013/11/27
 26 28  0  0  0  0  0  0  0  0999 V2000
   -1.7394   11.3136  -26.2215 N   0  0  0  0  0  0  0  0  0  0  0  0
   -1.9348   12.7629  -26.3518 C   0  0  2  0  0  0  0  0  0  0  0  0
   -0.5939   13.4474  -26.3928 C   0  0  0  0  0  0  0  0  0  0  0  0
   -0.3751   14.3008  -27.2204 O   0  0  0  0  0  0  0  0  0  0  0  0
   -2.7353   13.2782  -25.1546 C   0  0  0  0  0  0  0  0  0  0  0  0
   -4.1292   12.6533  -25.1655 C   0  0  0  0  0  0  0  0  0  0  0  0
   -5.2505   13.0217  -23.9445 S   0  0  0  0  0  0  0  0  0  0  0  0
   -5.9977   14.4976  -23.2066 C   0  0  0  0  0  0  0  0  0  0  0  0
   -6.6863   15.4359  -24.2052 C   0  0  1  0  0  0  0  0  0  0  0  0
   -7.9459   14.9458  -24.6272 O   0  0  0  0  0  0  0  0  0  0  0  0
   -7.0292   16.7707  -23.5871 C   0  0  1  0  0  0  0  0  0  0  0  0
   -7.1215   17.6625  -24.6765 O   0  0  0  0  0  0  0  0  0  0  0  0
   -8.4124   16.5939  -23.0053 C   0  0  1  0  0  0  0  0  0  0  0  0
   -9.1809   17.7524  -23.2458 O   0  0  0  0  0  0  0  0  0  0  0  0
   -8.9819   15.4370  -23.7976 C   0  0  2  0  0  0  0  0  0  0  0  0
    0.3612   13.1086  -25.5113 O   0  0  0  0  0  0  0  0  0  0  0  0
  -12.8972   12.1005  -22.9304 N   0  0  0  0  0  0  0  0  0  0  0  0
  -12.8499   13.1362  -23.8333 C   0  0  0  0  0  0  0  0  0  0  0  0
  -11.7239   13.9203  -23.9062 N   0  0  0  0  0  0  0  0  0  0  0  0
  -10.6674   13.6833  -23.1044 C   0  0  0  0  0  0  0  0  0  0  0  0
  -10.6935   12.6468  -22.1903 C   0  0  0  0  0  0  0  0  0  0  0  0
  -11.8291   11.8498  -22.1063 C   0  0  0  0  0  0  0  0  0  0  0  0
  -11.8984   10.8466  -21.2400 N   0  0  0  0  0  0  0  0  0  0  0  0
   -9.5166   12.6389  -21.5254 N   0  0  0  0  0  0  0  0  0  0  0  0
   -8.7550   13.6407  -22.0066 C   0  0  0  0  0  0  0  0  0  0  0  0
   -9.4567   14.3065  -22.9789 N   0  0  0  0  0  0  0  0  0  0  0  0
  2  1  1  1  0  0  0
  2  3  1  0  0  0  0
  2  5  1  0  0  0  0
  3  4  1  0  0  0  0
  3 16  1  0  0  0  0
  5  6  1  0  0  0  0
  6  7  1  0  0  0  0
  7  8  1  0  0  0  0
  9  8  1  1  0  0  0
  9 10  1  0  0  0  0
  9 11  1  0  0  0  0
 10 15  1  0  0  0  0
 11 12  1  6  0  0  0
 11 13  1  0  0  0  0
 13 14  1  6  0  0  0
 13 15  1  0  0  0  0
 15 26  1  1  0  0  0
 17 18  2  0  0  0  0
 17 22  1  0  0  0  0
 18 19  1  0  0  0  0
 19 20  2  0  0  0  0
 20 21  1  0  0  0  0
 20 26  1  0  0  0  0
 21 22  2  0  0  0  0
 21 24  1  0  0  0  0
 22 23  1  0  0  0  0
 24 25  2  0  0  0  0
 25 26  1  0  0  0  0
M  END
>  <CHROM.1>
133.99540622,-63.76774543,179.33887936,54.24496973,54.97245089,76.48121630
-109.88812001,-7.01776838,13.92156323,-23.97660063,-0.01622186,-0.32168986
3.04970753

>  <Name>
ligand

>  <RI>
0

>  <Rbt.Current_Directory>
/home/itssahil/PROJECTS/Mol_Feturizer/New_Systems/rnas/3E5E

>  <Rbt.Executable>
rbdock ($Id: //depot/dev/client3/rdock/2013.1/src/exe/rbdock.cxx#4 $)

>  <Rbt.Library>
libRbt.so (2013.1, Build901 2013/11/27)

>  <Rbt.Parameter_File>
/export/apps/rDock/src/rDock_2013.1_src/data/scripts/dock_solv.prm

>  <Rbt.Receptor>
prm/blind_docking_80.prm

>  <SCORE>
-16.1927

>  <SCORE.INTER>
-12.4196

>  <SCORE.INTER.CONST>
1

>  <SCORE.INTER.POLAR>
0

>  <SCORE.INTER.ROT>
7

>  <SCORE.INTER.SOLV>
9.61488

>  <SCORE.INTER.VDW>
-19.7514

>  <SCORE.INTER.norm>
-0.477677

>  <SCORE.INTRA>
-3.7731

>  <SCORE.INTRA.DIHEDRAL>
-6.39715

>  <SCORE.INTRA.DIHEDRAL.0>
10.1225

>  <SCORE.INTRA.POLAR>
0

>  <SCORE.INTRA.POLAR.0>
0

>  <SCORE.INTRA.REPUL>
0

>  <SCORE.INTRA.REPUL.0>
0

>  <SCORE.INTRA.SOLV>
0.1235

>  <SCORE.INTRA.SOLV.lig_0>
-49.9393

>  <SCORE.INTRA.VDW>
-0.636274

>  <SCORE.INTRA.VDW.0>
-1.75437

>  <SCORE.INTRA.norm>
-0.145119

>  <SCORE.RESTR>
0

>  <SCORE.RESTR.CAVITY>
0

>  <SCORE.RESTR.norm>
0

>  <SCORE.SYSTEM>
0

>  <SCORE.SYSTEM.CONST>
0

>  <SCORE.SYSTEM.DIHEDRAL>
0

>  <SCORE.SYSTEM.SOLV>
0

>  <SCORE.SYSTEM.norm>
0

>  <SCORE.heavy>
26

>  <SCORE.norm>
-0.622797

>  <RMSD>
10.300

$$$$
ligand
 OpenBabel11021811473D
libRbt.so/2013.1/901 2013/11/27
 26 28  0  0  0  0  0  0  0  0999 V2000
   -1.3938   11.1754  -25.6614 N   0  0  0  0  0  0  0  0  0  0  0  0
   -1.0059   12.5371  -26.0500 C   0  0  2  0  0  0  0  0  0  0  0  0
    0.4768   12.5803  -26.3108 C   0  0  0  0  0  0  0  0  0  0  0  0
    1.2551   12.3174  -25.4242 O   0  0  0  0  0  0  0  0  0  0  0  0
   -1.3545   13.5076  -24.9203 C   0  0  0  0  0  0  0  0  0  0  0  0
   -2.8695   13.5439  -24.7280 C   0  0  0  0  0  0  0  0  0  0  0  0
   -3.5567   14.4197  -23.4455 S   0  0  0  0  0  0  0  0  0  0  0  0
   -5.1950   15.0095  -22.9462 C   0  0  0  0  0  0  0  0  0  0  0  0
   -5.7400   16.1739  -23.7822 C   0  0  1  0  0  0  0  0  0  0  0  0
   -7.1199   16.3999  -23.5593 O   0  0  0  0  0  0  0  0  0  0  0  0
   -5.1117   17.4925  -23.3974 C   0  0  1  0  0  0  0  0  0  0  0  0
   -5.2619   18.3123  -24.5357 O   0  0  0  0  0  0  0  0  0  0  0  0
   -5.9914   18.0449  -22.3002 C   0  0  1  0  0  0  0  0  0  0  0  0
   -6.1560   19.4350  -22.4774 O   0  0  0  0  0  0  0  0  0  0  0  0
   -7.3153   17.3472  -22.5262 C   0  0  2  0  0  0  0  0  0  0  0  0
    0.9360   12.9135  -27.5282 O   0  0  0  0  0  0  0  0  0  0  0  0
  -10.7937   13.8473  -20.8334 N   0  0  0  0  0  0  0  0  0  0  0  0
  -10.6470   14.3509  -22.1042 C   0  0  0  0  0  0  0  0  0  0  0  0
   -9.6704   15.2846  -22.3542 N   0  0  0  0  0  0  0  0  0  0  0  0
   -8.8559   15.7091  -21.3685 C   0  0  0  0  0  0  0  0  0  0  0  0
   -8.9855   15.2152  -20.0841 C   0  0  0  0  0  0  0  0  0  0  0  0
   -9.9724   14.2728  -19.8198 C   0  0  0  0  0  0  0  0  0  0  0  0
  -10.1343   13.7753  -18.6000 N   0  0  0  0  0  0  0  0  0  0  0  0
   -8.0514   15.8073  -19.3066 N   0  0  0  0  0  0  0  0  0  0  0  0
   -7.3388   16.6533  -20.0758 C   0  0  0  0  0  0  0  0  0  0  0  0
   -7.8309   16.6140  -21.3554 N   0  0  0  0  0  0  0  0  0  0  0  0
  2  1  1  1  0  0  0
  2  3  1  0  0  0  0
  2  5  1  0  0  0  0
  3  4  1  0  0  0  0
  3 16  1  0  0  0  0
  5  6  1  0  0  0  0
  6  7  1  0  0  0  0
  7  8  1  0  0  0  0
  9  8  1  1  0  0  0
  9 10  1  0  0  0  0
  9 11  1  0  0  0  0
 10 15  1  0  0  0  0
 11 12  1  6  0  0  0
 11 13  1  0  0  0  0
 13 14  1  6  0  0  0
 13 15  1  0  0  0  0
 15 26  1  1  0  0  0
 17 18  2  0  0  0  0
 17 22  1  0  0  0  0
 18 19  1  0  0  0  0
 19 20  2  0  0  0  0
 20 21  1  0  0  0  0
 20 26  1  0  0  0  0
 21 22  2  0  0  0  0
 21 24  1  0  0  0  0
 22 23  1  0  0  0  0
 24 25  2  0  0  0  0
 25 26  1  0  0  0  0
M  END
>  <CHROM.1>
-61.28492479,-64.36721056,174.13078524,166.83376531,-72.13443718,166.72923549
-48.04821785,-5.46235155,15.08654365,-23.00916825,0.20977288,-0.54957485
3.02987243

>  <Name>
ligand

>  <RI>
0

>  <Rbt.Current_Directory>
/home/itssahil/PROJECTS/Mol_Feturizer/New_Systems/rnas/3E5E

>  <Rbt.Executable>
rbdock ($Id: //depot/dev/client3/rdock/2013.1/src/exe/rbdock.cxx#4 $)

>  <Rbt.Library>
libRbt.so (2013.1, Build901 2013/11/27)

>  <Rbt.Parameter_File>
/export/apps/rDock/src/rDock_2013.1_src/data/scripts/dock_solv.prm

>  <Rbt.Receptor>
prm/blind_docking_40.prm

>  <SCORE>
-18.8343

>  <SCORE.INTER>
-15.7097

>  <SCORE.INTER.CONST>
1

>  <SCORE.INTER.POLAR>
0

>  <SCORE.INTER.ROT>
7

>  <SCORE.INTER.SOLV>
18.5377

>  <SCORE.INTER.VDW>
-24.919

>  <SCORE.INTER.norm>
-0.604218

>  <SCORE.INTRA>
-3.12462

>  <SCORE.INTRA.DIHEDRAL>
-6.07888

>  <SCORE.INTRA.DIHEDRAL.0>
10.1225

>  <SCORE.INTRA.POLAR>
0

>  <SCORE.INTRA.POLAR.0>
0

>  <SCORE.INTRA.REPUL>
0

>  <SCORE.INTRA.REPUL.0>
0

>  <SCORE.INTRA.SOLV>
0.136865

>  <SCORE.INTRA.SOLV.lig_0>
-49.9393

>  <SCORE.INTRA.VDW>
-0.153612

>  <SCORE.INTRA.VDW.0>
-1.75437

>  <SCORE.INTRA.norm>
-0.120178

>  <SCORE.RESTR>
0

>  <SCORE.RESTR.CAVITY>
0

>  <SCORE.RESTR.norm>
0

>  <SCORE.SYSTEM>
0

>  <SCORE.SYSTEM.CONST>
0

>  <SCORE.SYSTEM.DIHEDRAL>
0

>  <SCORE.SYSTEM.SOLV>
0

>  <SCORE.SYSTEM.norm>
0

>  <SCORE.heavy>
26

>  <SCORE.norm>
-0.724395

>  <RMSD>
10.615

$$$$
ligand
 OpenBabel11021811473D
libRbt.so/2013.1/901 2013/11/27
 26 28  0  0  0  0  0  0  0  0999 V2000
  -11.7804   11.6377  -21.5125 N   0  0  0  0  0  0  0  0  0  0  0  0
  -12.7425   12.1740  -20.5419 C   0  0  2  0  0  0  0  0  0  0  0  0
  -12.5364   13.6592  -20.4007 C   0  0  0  0  0  0  0  0  0  0  0  0
  -11.4688   14.0897  -20.0318 O   0  0  0  0  0  0  0  0  0  0  0  0
  -12.5292   11.4974  -19.1868 C   0  0  0  0  0  0  0  0  0  0  0  0
  -12.8450   10.0075  -19.3049 C   0  0  0  0  0  0  0  0  0  0  0  0
  -14.4258    9.4833  -19.6372 S   0  0  0  0  0  0  0  0  0  0  0  0
  -15.2805    7.9236  -19.9804 C   0  0  0  0  0  0  0  0  0  0  0  0
  -14.6139    7.0482  -21.0487 C   0  0  1  0  0  0  0  0  0  0  0  0
  -15.3407    5.8603  -21.3047 O   0  0  0  0  0  0  0  0  0  0  0  0
  -14.5805    7.7254  -22.3984 C   0  0  1  0  0  0  0  0  0  0  0  0
  -13.5172    7.1068  -23.0890 O   0  0  0  0  0  0  0  0  0  0  0  0
  -15.8734    7.3287  -23.0724 C   0  0  1  0  0  0  0  0  0  0  0  0
  -15.6340    7.0537  -24.4354 O   0  0  0  0  0  0  0  0  0  0  0  0
  -16.2634    6.0513  -22.3607 C   0  0  2  0  0  0  0  0  0  0  0  0
  -13.5394   14.5070  -20.6820 O   0  0  0  0  0  0  0  0  0  0  0  0
  -19.5634    3.6324  -19.1246 N   0  0  0  0  0  0  0  0  0  0  0  0
  -18.2967    3.2432  -19.4908 C   0  0  0  0  0  0  0  0  0  0  0  0
  -17.5801    4.0141  -20.3740 N   0  0  0  0  0  0  0  0  0  0  0  0
  -18.1050    5.1462  -20.8821 C   0  0  0  0  0  0  0  0  0  0  0  0
  -19.3762    5.5562  -20.5267 C   0  0  0  0  0  0  0  0  0  0  0  0
  -20.1108    4.7818  -19.6365 C   0  0  0  0  0  0  0  0  0  0  0  0
  -21.3367    5.1363  -19.2713 N   0  0  0  0  0  0  0  0  0  0  0  0
  -19.6464    6.7098  -21.1775 N   0  0  0  0  0  0  0  0  0  0  0  0
  -18.5729    7.0323  -21.9250 C   0  0  0  0  0  0  0  0  0  0  0  0
  -17.6112    6.0680  -21.7631 N   0  0  0  0  0  0  0  0  0  0  0  0
  2  1  1  6  0  0  0
  2  3  1  0  0  0  0
  2  5  1  0  0  0  0
  3  4  1  0  0  0  0
  3 16  1  0  0  0  0
  5  6  1  0  0  0  0
  6  7  1  0  0  0  0
  7  8  1  0  0  0  0
  9  8  1  1  0  0  0
  9 10  1  0  0  0  0
  9 11  1  0  0  0  0
 10 15  1  0  0  0  0
 11 12  1  6  0  0  0
 11 13  1  0  0  0  0
 13 14  1  6  0  0  0
 13 15  1  0  0  0  0
 15 26  1  1  0  0  0
 17 18  2  0  0  0  0
 17 22  1  0  0  0  0
 18 19  1  0  0  0  0
 19 20  2  0  0  0  0
 20 21  1  0  0  0  0
 20 26  1  0  0  0  0
 21 22  2  0  0  0  0
 21 24  1  0  0  0  0
 22 23  1  0  0  0  0
 24 25  2  0  0  0  0
 25 26  1  0  0  0  0
M  END
>  <CHROM.1>
-59.57614558,-64.46384337,-65.50163930,174.63672689,-48.60717797,-178.36542519
-49.05505017,-15.71965920,8.03057701,-20.85737383,-0.62021377,-0.65912183
-2.41901054

>  <Name>
ligand

>  <RI>
0

>  <Rbt.Current_Directory>
/home/itssahil/PROJECTS/Mol_Feturizer/New_Systems/rnas/3E5E

>  <Rbt.Executable>
rbdock ($Id: //depot/dev/client3/rdock/2013.1/src/exe/rbdock.cxx#4 $)

>  <Rbt.Library>
libRbt.so (2013.1, Build901 2013/11/27)

>  <Rbt.Parameter_File>
/export/apps/rDock/src/rDock_2013.1_src/data/scripts/dock_solv.prm

>  <Rbt.Receptor>
prm/pocket_docking_8.prm

>  <SCORE>
-11.0375

>  <SCORE.INTER>
-7.53653

>  <SCORE.INTER.CONST>
1

>  <SCORE.INTER.POLAR>
0

>  <SCORE.INTER.ROT>
7

>  <SCORE.INTER.SOLV>
4.66473

>  <SCORE.INTER.VDW>
-14.8459

>  <SCORE.INTER.norm>
-0.289867

>  <SCORE.INTRA>
-3.50095

>  <SCORE.INTRA.DIHEDRAL>
-6.92203

>  <SCORE.INTRA.DIHEDRAL.0>
10.1225

>  <SCORE.INTRA.POLAR>
0

>  <SCORE.INTRA.POLAR.0>
0

>  <SCORE.INTRA.REPUL>
0

>  <SCORE.INTRA.REPUL.0>
0

>  <SCORE.INTRA.SOLV>
0.707368

>  <SCORE.INTRA.SOLV.lig_0>
-49.9393

>  <SCORE.INTRA.VDW>
-0.393615

>  <SCORE.INTRA.VDW.0>
-1.75437

>  <SCORE.INTRA.norm>
-0.134652

>  <SCORE.RESTR>
0

>  <SCORE.RESTR.CAVITY>
0

>  <SCORE.RESTR.norm>
0

>  <SCORE.SYSTEM>
0

>  <SCORE.SYSTEM.CONST>
0

>  <SCORE.SYSTEM.DIHEDRAL>
0

>  <SCORE.SYSTEM.SOLV>
0

>  <SCORE.SYSTEM.norm>
0

>  <SCORE.heavy>
26

>  <SCORE.norm>
-0.424518

>  <RMSD>
10.667

$$$$
ligand
 OpenBabel11021811473D
libRbt.so/2013.1/901 2013/11/27
 26 28  0  0  0  0  0  0  0  0999 V2000
   -1.5441   13.7848  -27.3297 N   0  0  0  0  0  0  0  0  0  0  0  0
   -1.4552   13.3874  -25.9191 C   0  0  2  0  0  0  0  0  0  0  0  0
   -0.0157   13.1258  -25.5621 C   0  0  0  0  0  0  0  0  0  0  0  0
    0.7250   12.6156  -26.3697 O   0  0  0  0  0  0  0  0  0  0  0  0
   -2.2762   12.1162  -25.6958 C   0  0  0  0  0  0  0  0  0  0  0  0
   -3.7587   12.4747  -25.6096 C   0  0  0  0  0  0  0  0  0  0  0  0
   -4.3878   13.2192  -24.2189 S   0  0  0  0  0  0  0  0  0  0  0  0
   -3.8132   14.3415  -22.9184 C   0  0  0  0  0  0  0  0  0  0  0  0
   -3.6571   15.8033  -23.3551 C   0  0  1  0  0  0  0  0  0  0  0  0
   -4.8824   16.3761  -23.7739 O   0  0  0  0  0  0  0  0  0  0  0  0
   -3.2362   16.6960  -22.2117 C   0  0  1  0  0  0  0  0  0  0  0  0
   -2.6204   17.8069  -22.8258 O   0  0  0  0  0  0  0  0  0  0  0  0
   -4.5263   17.1634  -21.5789 C   0  0  1  0  0  0  0  0  0  0  0  0
   -4.4181   18.5261  -21.2297 O   0  0  0  0  0  0  0  0  0  0  0  0
   -5.5406   17.0065  -22.6912 C   0  0  2  0  0  0  0  0  0  0  0  0
    0.4461   13.4566  -24.3451 O   0  0  0  0  0  0  0  0  0  0  0  0
   -8.5641   15.2282  -18.8298 N   0  0  0  0  0  0  0  0  0  0  0  0
   -7.4413   16.0157  -18.7336 C   0  0  0  0  0  0  0  0  0  0  0  0
   -6.7654   16.3739  -19.8751 N   0  0  0  0  0  0  0  0  0  0  0  0
   -7.1926   15.9632  -21.0851 C   0  0  0  0  0  0  0  0  0  0  0  0
   -8.3195   15.1718  -21.2046 C   0  0  0  0  0  0  0  0  0  0  0  0
   -9.0086   14.8011  -20.0558 C   0  0  0  0  0  0  0  0  0  0  0  0
  -10.0930   14.0389  -20.1243 N   0  0  0  0  0  0  0  0  0  0  0  0
   -8.5161   14.9102  -22.5162 N   0  0  0  0  0  0  0  0  0  0  0  0
   -7.5433   15.5240  -23.2178 C   0  0  0  0  0  0  0  0  0  0  0  0
   -6.7066   16.1728  -22.3460 N   0  0  0  0  0  0  0  0  0  0  0  0
  2  1  1  6  0  0  0
  2  3  1  0  0  0  0
  2  5  1  0  0  0  0
  3  4  1  0  0  0  0
  3 16  1  0  0  0  0
  5  6  1  0  0  0  0
  6  7  1  0  0  0  0
  7  8  1  0  0  0  0
  9  8  1  1  0  0  0
  9 10  1  0  0  0  0
  9 11  1  0  0  0  0
 10 15  1  0  0  0  0
 11 12  1  6  0  0  0
 11 13  1  0  0  0  0
 13 14  1  6  0  0  0
 13 15  1  0  0  0  0
 15 26  1  1  0  0  0
 17 18  2  0  0  0  0
 17 22  1  0  0  0  0
 18 19  1  0  0  0  0
 19 20  2  0  0  0  0
 20 21  1  0  0  0  0
 20 26  1  0  0  0  0
 21 22  2  0  0  0  0
 21 24  1  0  0  0  0
 22 23  1  0  0  0  0
 24 25  2  0  0  0  0
 25 26  1  0  0  0  0
M  END
>  <CHROM.1>
-36.39970247,-78.37066316,-74.57437177,30.10427901,74.42236072,61.85806291
144.32074783,-4.67888118,14.99594930,-22.95569184,0.57174139,-0.41371344
-2.56689176

>  <Name>
ligand

>  <RI>
0

>  <Rbt.Current_Directory>
/home/itssahil/PROJECTS/Mol_Feturizer/New_Systems/rnas/3E5E

>  <Rbt.Executable>
rbdock ($Id: //depot/dev/client3/rdock/2013.1/src/exe/rbdock.cxx#4 $)

>  <Rbt.Library>
libRbt.so (2013.1, Build901 2013/11/27)

>  <Rbt.Parameter_File>
/export/apps/rDock/src/rDock_2013.1_src/data/scripts/dock_solv.prm

>  <Rbt.Receptor>
prm/blind_docking_60.prm

>  <SCORE>
-22.6097

>  <SCORE.INTER>
-19.528

>  <SCORE.INTER.CONST>
1

>  <SCORE.INTER.POLAR>
0

>  <SCORE.INTER.ROT>
7

>  <SCORE.INTER.SOLV>
15.911

>  <SCORE.INTER.VDW>
-26.589

>  <SCORE.INTER.norm>
-0.751078

>  <SCORE.INTRA>
-3.08171

>  <SCORE.INTRA.DIHEDRAL>
-3.9863

>  <SCORE.INTRA.DIHEDRAL.0>
10.1225

>  <SCORE.INTRA.POLAR>
0

>  <SCORE.INTRA.POLAR.0>
0

>  <SCORE.INTRA.REPUL>
0

>  <SCORE.INTRA.REPUL.0>
0

>  <SCORE.INTRA.SOLV>
0.39408

>  <SCORE.INTRA.SOLV.lig_0>
-49.9393

>  <SCORE.INTRA.VDW>
-1.2856

>  <SCORE.INTRA.VDW.0>
-1.75437

>  <SCORE.INTRA.norm>
-0.118527

>  <SCORE.RESTR>
0

>  <SCORE.RESTR.CAVITY>
0

>  <SCORE.RESTR.norm>
0

>  <SCORE.SYSTEM>
0

>  <SCORE.SYSTEM.CONST>
0

>  <SCORE.SYSTEM.DIHEDRAL>
0

>  <SCORE.SYSTEM.SOLV>
0

>  <SCORE.SYSTEM.norm>
0

>  <SCORE.heavy>
26

>  <SCORE.norm>
-0.869605

>  <RMSD>
10.700

$$$$
ligand
 OpenBabel11021811473D
libRbt.so/2013.1/901 2013/11/27
 26 28  0  0  0  0  0  0  0  0999 V2000
  -12.1819   10.9790  -20.3864 N   0  0  0  0  0  0  0  0  0  0  0  0
  -12.7577    9.9337  -19.5312 C   0  0  2  0  0  0  0  0  0  0  0  0
  -13.9068    9.2760  -20.2489 C   0  0  0  0  0  0  0  0  0  0  0  0
  -13.9760    8.0704  -20.3032 O   0  0  0  0  0  0  0  0  0  0  0  0
  -13.2598   10.5606  -18.2294 C   0  0  0  0  0  0  0  0  0  0  0  0
  -13.7049    9.4579  -17.2704 C   0  0  0  0  0  0  0  0  0  0  0  0
  -14.1186    9.8247  -15.6647 S   0  0  0  0  0  0  0  0  0  0  0  0
  -15.1216    9.1076  -14.3378 C   0  0  0  0  0  0  0  0  0  0  0  0
  -16.6345    9.1440  -14.5857 C   0  0  1  0  0  0  0  0  0  0  0  0
  -17.3212    8.1203  -13.8890 O   0  0  0  0  0  0  0  0  0  0  0  0
  -17.2679   10.4060  -14.0495 C   0  0  1  0  0  0  0  0  0  0  0  0
  -18.4563   10.5607  -14.7940 O   0  0  0  0  0  0  0  0  0  0  0  0
  -17.6455   10.0837  -12.6223 C   0  0  1  0  0  0  0  0  0  0  0  0
  -18.9075   10.6412  -12.3270 O   0  0  0  0  0  0  0  0  0  0  0  0
  -17.7473    8.5737  -12.6179 C   0  0  2  0  0  0  0  0  0  0  0  0
  -14.8546   10.0282  -20.8317 O   0  0  0  0  0  0  0  0  0  0  0  0
  -13.8146    5.2363  -11.8370 N   0  0  0  0  0  0  0  0  0  0  0  0
  -14.3973    5.5964  -13.0290 C   0  0  0  0  0  0  0  0  0  0  0  0
  -15.4409    6.4901  -13.0301 N   0  0  0  0  0  0  0  0  0  0  0  0
  -15.8965    7.0172  -11.8769 C   0  0  0  0  0  0  0  0  0  0  0  0
  -15.3246    6.6697  -10.6675 C   0  0  0  0  0  0  0  0  0  0  0  0
  -14.2705    5.7638  -10.6551 C   0  0  0  0  0  0  0  0  0  0  0  0
  -13.6949    5.3994   -9.5160 N   0  0  0  0  0  0  0  0  0  0  0  0
  -15.9703    7.3386   -9.6861 N   0  0  0  0  0  0  0  0  0  0  0  0
  -16.9264    8.0991  -10.2542 C   0  0  0  0  0  0  0  0  0  0  0  0
  -16.9029    7.9042  -11.6116 N   0  0  0  0  0  0  0  0  0  0  0  0
  2  1  1  6  0  0  0
  2  3  1  0  0  0  0
  2  5  1  0  0  0  0
  3  4  1  0  0  0  0
  3 16  1  0  0  0  0
  5  6  1  0  0  0  0
  6  7  1  0  0  0  0
  7  8  1  0  0  0  0
  9  8  1  1  0  0  0
  9 10  1  0  0  0  0
  9 11  1  0  0  0  0
 10 15  1  0  0  0  0
 11 12  1  6  0  0  0
 11 13  1  0  0  0  0
 13 14  1  6  0  0  0
 13 15  1  0  0  0  0
 15 26  1  1  0  0  0
 17 18  2  0  0  0  0
 17 22  1  0  0  0  0
 18 19  1  0  0  0  0
 19 20  2  0  0  0  0
 20 21  1  0  0  0  0
 20 26  1  0  0  0  0
 21 22  2  0  0  0  0
 21 24  1  0  0  0  0
 22 23  1  0  0  0  0
 24 25  2  0  0  0  0
 25 26  1  0  0  0  0
M  END
>  <CHROM.1>
131.39586680,-173.25703304,171.81441277,156.56694638,-69.02763005,154.15587666
0.24139037,-15.37213448,8.59402845,-14.54233546,-1.25796351,-0.62434659,2.06602568

>  <Name>
ligand

>  <RI>
0

>  <Rbt.Current_Directory>
/home/itssahil/PROJECTS/Mol_Feturizer/New_Systems/rnas/3E5E

>  <Rbt.Executable>
rbdock ($Id: //depot/dev/client3/rdock/2013.1/src/exe/rbdock.cxx#4 $)

>  <Rbt.Library>
libRbt.so (2013.1, Build901 2013/11/27)

>  <Rbt.Parameter_File>
/export/apps/rDock/src/rDock_2013.1_src/data/scripts/dock_solv.prm

>  <Rbt.Receptor>
prm/pocket_docking_8.prm

>  <SCORE>
-12.8043

>  <SCORE.INTER>
-10.1446

>  <SCORE.INTER.CONST>
1

>  <SCORE.INTER.POLAR>
0

>  <SCORE.INTER.ROT>
7

>  <SCORE.INTER.SOLV>
6.09902

>  <SCORE.INTER.VDW>
-17.0628

>  <SCORE.INTER.norm>
-0.390178

>  <SCORE.INTRA>
-2.65964

>  <SCORE.INTRA.DIHEDRAL>
-4.05847

>  <SCORE.INTRA.DIHEDRAL.0>
10.1225

>  <SCORE.INTRA.POLAR>
0

>  <SCORE.INTRA.POLAR.0>
0

>  <SCORE.INTRA.REPUL>
0

>  <SCORE.INTRA.REPUL.0>
0

>  <SCORE.INTRA.SOLV>
-0.609849

>  <SCORE.INTRA.SOLV.lig_0>
-49.9393

>  <SCORE.INTRA.VDW>
-0.325479

>  <SCORE.INTRA.VDW.0>
-1.75437

>  <SCORE.INTRA.norm>
-0.102294

>  <SCORE.RESTR>
0

>  <SCORE.RESTR.CAVITY>
0

>  <SCORE.RESTR.norm>
0

>  <SCORE.SYSTEM>
0

>  <SCORE.SYSTEM.CONST>
0

>  <SCORE.SYSTEM.DIHEDRAL>
0

>  <SCORE.SYSTEM.SOLV>
0

>  <SCORE.SYSTEM.norm>
0

>  <SCORE.heavy>
26

>  <SCORE.norm>
-0.492472

>  <RMSD>
11.106

$$$$
ligand
 OpenBabel11021811473D
libRbt.so/2013.1/901 2013/11/27
 26 28  0  0  0  0  0  0  0  0999 V2000
  -13.9142    8.6567  -20.0455 N   0  0  0  0  0  0  0  0  0  0  0  0
  -13.6966   10.1026  -19.9125 C   0  0  2  0  0  0  0  0  0  0  0  0
  -12.7225   10.5614  -20.9655 C   0  0  0  0  0  0  0  0  0  0  0  0
  -13.0348   11.4364  -21.7388 O   0  0  0  0  0  0  0  0  0  0  0  0
  -13.1296   10.4065  -18.5247 C   0  0  0  0  0  0  0  0  0  0  0  0
  -14.1259    9.9582  -17.4571 C   0  0  0  0  0  0  0  0  0  0  0  0
  -13.7726   10.1573  -15.8079 S   0  0  0  0  0  0  0  0  0  0  0  0
  -14.5826    9.8631  -14.2147 C   0  0  0  0  0  0  0  0  0  0  0  0
  -15.9897   10.4599  -14.0904 C   0  0  1  0  0  0  0  0  0  0  0  0
  -16.8898    9.9254  -15.0438 O   0  0  0  0  0  0  0  0  0  0  0  0
  -16.6408   10.1103  -12.7730 C   0  0  1  0  0  0  0  0  0  0  0  0
  -17.6091   11.1157  -12.5683 O   0  0  0  0  0  0  0  0  0  0  0  0
  -17.3620    8.8061  -13.0218 C   0  0  1  0  0  0  0  0  0  0  0  0
  -18.6159    8.8254  -12.3752 O   0  0  0  0  0  0  0  0  0  0  0  0
  -17.5675    8.7983  -14.5212 C   0  0  2  0  0  0  0  0  0  0  0  0
  -11.5065    9.9971  -21.0483 O   0  0  0  0  0  0  0  0  0  0  0  0
  -18.4824    3.8558  -15.9172 N   0  0  0  0  0  0  0  0  0  0  0  0
  -19.2837    4.6890  -15.1730 C   0  0  0  0  0  0  0  0  0  0  0  0
  -18.8601    5.9664  -14.8960 N   0  0  0  0  0  0  0  0  0  0  0  0
  -17.6706    6.4099  -15.3472 C   0  0  0  0  0  0  0  0  0  0  0  0
  -16.8499    5.5893  -16.0979 C   0  0  0  0  0  0  0  0  0  0  0  0
  -17.2676    4.2941  -16.3809 C   0  0  0  0  0  0  0  0  0  0  0  0
  -16.5092    3.4713  -17.0947 N   0  0  0  0  0  0  0  0  0  0  0  0
  -15.7327    6.2819  -16.4132 N   0  0  0  0  0  0  0  0  0  0  0  0
  -15.8392    7.5159  -15.8830 C   0  0  0  0  0  0  0  0  0  0  0  0
  -17.0298    7.6099  -15.2087 N   0  0  0  0  0  0  0  0  0  0  0  0
  2  1  1  1  0  0  0
  2  3  1  0  0  0  0
  2  5  1  0  0  0  0
  3  4  1  0  0  0  0
  3 16  1  0  0  0  0
  5  6  1  0  0  0  0
  6  7  1  0  0  0  0
  7  8  1  0  0  0  0
  9  8  1  1  0  0  0
  9 10  1  0  0  0  0
  9 11  1  0  0  0  0
 10 15  1  0  0  0  0
 11 12  1  6  0  0  0
 11 13  1  0  0  0  0
 13 14  1  1  0  0  0
 13 15  1  0  0  0  0
 15 26  1  6  0  0  0
 17 18  2  0  0  0  0
 17 22  1  0  0  0  0
 18 19  1  0  0  0  0
 19 20  2  0  0  0  0
 20 21  1  0  0  0  0
 20 26  1  0  0  0  0
 21 22  2  0  0  0  0
 21 24  1  0  0  0  0
 22 23  1  0  0  0  0
 24 25  2  0  0  0  0
 25 26  1  0  0  0  0
M  END
>  <CHROM.1>
123.46080483,-60.80835976,179.66665726,177.61293950,-51.73776771,61.04128683
-156.90895460,-15.80840300,8.44599420,-16.24344067,0.10845070,-0.91457690
-2.45606047

>  <Name>
ligand

>  <RI>
0

>  <Rbt.Current_Directory>
/home/itssahil/PROJECTS/Mol_Feturizer/New_Systems/rnas/3E5E

>  <Rbt.Executable>
rbdock ($Id: //depot/dev/client3/rdock/2013.1/src/exe/rbdock.cxx#4 $)

>  <Rbt.Library>
libRbt.so (2013.1, Build901 2013/11/27)

>  <Rbt.Parameter_File>
/export/apps/rDock/src/rDock_2013.1_src/data/scripts/dock_solv.prm

>  <Rbt.Receptor>
prm/pocket_docking_8.prm

>  <SCORE>
-10.0163

>  <SCORE.INTER>
-5.66839

>  <SCORE.INTER.CONST>
1

>  <SCORE.INTER.POLAR>
0

>  <SCORE.INTER.ROT>
7

>  <SCORE.INTER.SOLV>
6.91385

>  <SCORE.INTER.VDW>
-14.3502

>  <SCORE.INTER.norm>
-0.218015

>  <SCORE.INTRA>
-4.34793

>  <SCORE.INTRA.DIHEDRAL>
-7.20237

>  <SCORE.INTRA.DIHEDRAL.0>
10.1225

>  <SCORE.INTRA.POLAR>
0

>  <SCORE.INTRA.POLAR.0>
0

>  <SCORE.INTRA.REPUL>
0

>  <SCORE.INTRA.REPUL.0>
0

>  <SCORE.INTRA.SOLV>
0.298622

>  <SCORE.INTRA.SOLV.lig_0>
-49.9393

>  <SCORE.INTRA.VDW>
-0.896055

>  <SCORE.INTRA.VDW.0>
-1.75437

>  <SCORE.INTRA.norm>
-0.167228

>  <SCORE.RESTR>
0

>  <SCORE.RESTR.CAVITY>
0

>  <SCORE.RESTR.norm>
0

>  <SCORE.SYSTEM>
0

>  <SCORE.SYSTEM.CONST>
0

>  <SCORE.SYSTEM.DIHEDRAL>
0

>  <SCORE.SYSTEM.SOLV>
0

>  <SCORE.SYSTEM.norm>
0

>  <SCORE.heavy>
26

>  <SCORE.norm>
-0.385243

>  <RMSD>
11.199

$$$$
ligand
 OpenBabel11021811473D
libRbt.so/2013.1/901 2013/11/27
 26 28  0  0  0  0  0  0  0  0999 V2000
   -0.0215   18.3639  -12.0320 N   0  0  0  0  0  0  0  0  0  0  0  0
   -0.2857   19.7934  -11.8264 C   0  0  2  0  0  0  0  0  0  0  0  0
   -1.3726   19.9589  -10.7970 C   0  0  0  0  0  0  0  0  0  0  0  0
   -1.1036   19.9098   -9.6196 O   0  0  0  0  0  0  0  0  0  0  0  0
   -0.7321   20.4236  -13.1467 C   0  0  0  0  0  0  0  0  0  0  0  0
   -0.9586   21.9210  -12.9467 C   0  0  0  0  0  0  0  0  0  0  0  0
   -1.8941   22.8083  -14.0520 S   0  0  0  0  0  0  0  0  0  0  0  0
   -2.4837   24.5092  -14.2527 C   0  0  0  0  0  0  0  0  0  0  0  0
   -1.4610   25.4750  -14.8634 C   0  0  1  0  0  0  0  0  0  0  0  0
   -1.0890   25.1073  -16.1792 O   0  0  0  0  0  0  0  0  0  0  0  0
   -2.0281   26.8632  -15.0445 C   0  0  1  0  0  0  0  0  0  0  0  0
   -0.9035   27.7146  -15.0701 O   0  0  0  0  0  0  0  0  0  0  0  0
   -2.6479   26.8609  -16.4225 C   0  0  1  0  0  0  0  0  0  0  0  0
   -2.3747   28.0850  -17.0687 O   0  0  0  0  0  0  0  0  0  0  0  0
   -1.9194   25.7412  -17.1339 C   0  0  2  0  0  0  0  0  0  0  0  0
   -2.6425   20.1586  -11.1862 O   0  0  0  0  0  0  0  0  0  0  0  0
   -4.4255   24.1006  -21.4049 N   0  0  0  0  0  0  0  0  0  0  0  0
   -3.6832   25.2466  -21.2450 C   0  0  0  0  0  0  0  0  0  0  0  0
   -3.1046   25.5144  -20.0278 N   0  0  0  0  0  0  0  0  0  0  0  0
   -3.2559   24.6657  -18.9924 C   0  0  0  0  0  0  0  0  0  0  0  0
   -3.9973   23.5074  -19.1318 C   0  0  0  0  0  0  0  0  0  0  0  0
   -4.5896   23.2288  -20.3580 C   0  0  0  0  0  0  0  0  0  0  0  0
   -5.3131   22.1302  -20.5344 N   0  0  0  0  0  0  0  0  0  0  0  0
   -3.9837   22.8513  -17.9500 N   0  0  0  0  0  0  0  0  0  0  0  0
   -3.2472   23.5686  -17.0792 C   0  0  0  0  0  0  0  0  0  0  0  0
   -2.7969   24.7029  -17.7049 N   0  0  0  0  0  0  0  0  0  0  0  0
  2  1  1  6  0  0  0
  2  3  1  0  0  0  0
  2  5  1  0  0  0  0
  3  4  1  0  0  0  0
  3 16  1  0  0  0  0
  5  6  1  0  0  0  0
  6  7  1  0  0  0  0
  7  8  1  0  0  0  0
  9  8  1  6  0  0  0
  9 10  1  0  0  0  0
  9 11  1  0  0  0  0
 10 15  1  0  0  0  0
 11 12  1  6  0  0  0
 11 13  1  0  0  0  0
 13 14  1  6  0  0  0
 13 15  1  0  0  0  0
 15 26  1  1  0  0  0
 17 18  2  0  0  0  0
 17 22  1  0  0  0  0
 18 19  1  0  0  0  0
 19 20  2  0  0  0  0
 20 21  1  0  0  0  0
 20 26  1  0  0  0  0
 21 22  2  0  0  0  0
 21 24  1  0  0  0  0
 22 23  1  0  0  0  0
 24 25  2  0  0  0  0
 25 26  1  0  0  0  0
M  END
>  <CHROM.1>
82.27792992,-177.95679923,-161.12343121,177.97701167,81.53626801,62.61390893
-146.60017628,-2.33076685,23.55283683,-15.80144866,0.90714491,1.13887176
2.73623661

>  <Name>
ligand

>  <RI>
0

>  <Rbt.Current_Directory>
/home/itssahil/PROJECTS/Mol_Feturizer/New_Systems/rnas/3E5E

>  <Rbt.Executable>
rbdock ($Id: //depot/dev/client3/rdock/2013.1/src/exe/rbdock.cxx#4 $)

>  <Rbt.Library>
libRbt.so (2013.1, Build901 2013/11/27)

>  <Rbt.Parameter_File>
/export/apps/rDock/src/rDock_2013.1_src/data/scripts/dock_solv.prm

>  <Rbt.Receptor>
prm/blind_docking_100.prm

>  <SCORE>
-17.4998

>  <SCORE.INTER>
-14.9019

>  <SCORE.INTER.CONST>
1

>  <SCORE.INTER.POLAR>
0

>  <SCORE.INTER.ROT>
7

>  <SCORE.INTER.SOLV>
9.3517

>  <SCORE.INTER.VDW>
-21.3185

>  <SCORE.INTER.norm>
-0.573149

>  <SCORE.INTRA>
-2.59794

>  <SCORE.INTRA.DIHEDRAL>
-5.34597

>  <SCORE.INTRA.DIHEDRAL.0>
10.1225

>  <SCORE.INTRA.POLAR>
0

>  <SCORE.INTRA.POLAR.0>
0

>  <SCORE.INTRA.REPUL>
0

>  <SCORE.INTRA.REPUL.0>
0

>  <SCORE.INTRA.SOLV>
-0.58711

>  <SCORE.INTRA.SOLV.lig_0>
-49.9393

>  <SCORE.INTRA.VDW>
0.368603

>  <SCORE.INTRA.VDW.0>
-1.75437

>  <SCORE.INTRA.norm>
-0.0999207

>  <SCORE.RESTR>
0

>  <SCORE.RESTR.CAVITY>
0

>  <SCORE.RESTR.norm>
0

>  <SCORE.SYSTEM>
0

>  <SCORE.SYSTEM.CONST>
0

>  <SCORE.SYSTEM.DIHEDRAL>
0

>  <SCORE.SYSTEM.SOLV>
0

>  <SCORE.SYSTEM.norm>
0

>  <SCORE.heavy>
26

>  <SCORE.norm>
-0.673069

>  <RMSD>
16.143

$$$$
ligand
 OpenBabel11021811473D
libRbt.so/2013.1/901 2013/11/27
 26 28  0  0  0  0  0  0  0  0999 V2000
    3.5855    3.2641   -7.7673 N   0  0  0  0  0  0  0  0  0  0  0  0
    4.3333    2.9409   -8.9887 C   0  0  2  0  0  0  0  0  0  0  0  0
    4.0193    3.9597  -10.0525 C   0  0  0  0  0  0  0  0  0  0  0  0
    4.7346    4.0631  -11.0214 O   0  0  0  0  0  0  0  0  0  0  0  0
    3.9302    1.5493   -9.4791 C   0  0  0  0  0  0  0  0  0  0  0  0
    4.9077    1.0852  -10.5574 C   0  0  0  0  0  0  0  0  0  0  0  0
    6.5580    1.4716  -10.4513 S   0  0  0  0  0  0  0  0  0  0  0  0
    7.5787    2.9390  -10.1587 C   0  0  0  0  0  0  0  0  0  0  0  0
    9.0891    2.6749  -10.1305 C   0  0  1  0  0  0  0  0  0  0  0  0
    9.5996    2.3202  -11.4027 O   0  0  0  0  0  0  0  0  0  0  0  0
    9.8764    3.9155   -9.7806 C   0  0  1  0  0  0  0  0  0  0  0  0
   11.0993    3.4364   -9.2655 O   0  0  0  0  0  0  0  0  0  0  0  0
   10.1556    4.5929  -11.1021 C   0  0  1  0  0  0  0  0  0  0  0  0
   11.4731    5.0977  -11.1085 O   0  0  0  0  0  0  0  0  0  0  0  0
   10.0421    3.4659  -12.1059 C   0  0  2  0  0  0  0  0  0  0  0  0
    2.9457    4.7565   -9.9246 O   0  0  0  0  0  0  0  0  0  0  0  0
    8.8288    6.4820  -16.1857 N   0  0  0  0  0  0  0  0  0  0  0  0
    9.8794    6.6223  -15.3101 C   0  0  0  0  0  0  0  0  0  0  0  0
   10.0267    5.7253  -14.2798 N   0  0  0  0  0  0  0  0  0  0  0  0
    9.1546    4.7108  -14.1207 C   0  0  0  0  0  0  0  0  0  0  0  0
    8.0919    4.5507  -14.9900 C   0  0  0  0  0  0  0  0  0  0  0  0
    7.9319    5.4546  -16.0337 C   0  0  0  0  0  0  0  0  0  0  0  0
    6.9235    5.3406  -16.8891 N   0  0  0  0  0  0  0  0  0  0  0  0
    7.3856    3.4661  -14.6001 N   0  0  0  0  0  0  0  0  0  0  0  0
    7.9850    2.9424  -13.5131 C   0  0  0  0  0  0  0  0  0  0  0  0
    9.0776    3.7078  -13.1945 N   0  0  0  0  0  0  0  0  0  0  0  0
  2  1  1  1  0  0  0
  2  3  1  0  0  0  0
  2  5  1  0  0  0  0
  3  4  1  0  0  0  0
  3 16  1  0  0  0  0
  5  6  1  0  0  0  0
  6  7  1  0  0  0  0
  7  8  1  0  0  0  0
  9  8  1  6  0  0  0
  9 10  1  0  0  0  0
  9 11  1  0  0  0  0
 10 15  1  0  0  0  0
 11 12  1  6  0  0  0
 11 13  1  0  0  0  0
 13 14  1  1  0  0  0
 13 15  1  0  0  0  0
 15 26  1  6  0  0  0
 17 18  2  0  0  0  0
 17 22  1  0  0  0  0
 18 19  1  0  0  0  0
 19 20  2  0  0  0  0
 20 21  1  0  0  0  0
 20 26  1  0  0  0  0
 21 22  2  0  0  0  0
 21 24  1  0  0  0  0
 22 23  1  0  0  0  0
 24 25  2  0  0  0  0
 25 26  1  0  0  0  0
M  END
>  <CHROM.1>
163.54842949,-167.83376632,36.42111765,-49.22463799,178.16993149,68.72411378
-178.90506821,7.59733368,3.73081806,-11.85885898,2.26604132,0.06056887,1.97866829

>  <Name>
ligand

>  <RI>
0

>  <Rbt.Current_Directory>
/home/itssahil/PROJECTS/Mol_Feturizer/New_Systems/rnas/3E5E

>  <Rbt.Executable>
rbdock ($Id: //depot/dev/client3/rdock/2013.1/src/exe/rbdock.cxx#4 $)

>  <Rbt.Library>
libRbt.so (2013.1, Build901 2013/11/27)

>  <Rbt.Parameter_File>
/export/apps/rDock/src/rDock_2013.1_src/data/scripts/dock_solv.prm

>  <Rbt.Receptor>
prm/blind_docking_20.prm

>  <SCORE>
-5.39732

>  <SCORE.INTER>
-3.48915

>  <SCORE.INTER.CONST>
1

>  <SCORE.INTER.POLAR>
0

>  <SCORE.INTER.ROT>
7

>  <SCORE.INTER.SOLV>
20.0126

>  <SCORE.INTER.VDW>
-17.2636

>  <SCORE.INTER.norm>
-0.134198

>  <SCORE.INTRA>
-3.13144

>  <SCORE.INTRA.DIHEDRAL>
-4.53885

>  <SCORE.INTRA.DIHEDRAL.0>
10.1225

>  <SCORE.INTRA.POLAR>
0

>  <SCORE.INTRA.POLAR.0>
0

>  <SCORE.INTRA.REPUL>
0

>  <SCORE.INTRA.REPUL.0>
0

>  <SCORE.INTRA.SOLV>
-0.13936

>  <SCORE.INTRA.SOLV.lig_0>
-49.9393

>  <SCORE.INTRA.VDW>
-0.792331

>  <SCORE.INTRA.VDW.0>
-1.75437

>  <SCORE.INTRA.norm>
-0.12044

>  <SCORE.RESTR>
1.22327

>  <SCORE.RESTR.CAVITY>
1.22327

>  <SCORE.RESTR.norm>
0.0470488

>  <SCORE.SYSTEM>
0

>  <SCORE.SYSTEM.CONST>
0

>  <SCORE.SYSTEM.DIHEDRAL>
0

>  <SCORE.SYSTEM.SOLV>
0

>  <SCORE.SYSTEM.norm>
0

>  <SCORE.heavy>
26

>  <SCORE.norm>
-0.207589

>  <RMSD>
22.634

$$$$
ligand
 OpenBabel11021811473D
libRbt.so/2013.1/901 2013/11/27
 26 28  0  0  0  0  0  0  0  0999 V2000
    3.8596    4.2460   -7.4995 N   0  0  0  0  0  0  0  0  0  0  0  0
    4.5877    3.3513   -8.4077 C   0  0  2  0  0  0  0  0  0  0  0  0
    4.0296    3.4884   -9.7998 C   0  0  0  0  0  0  0  0  0  0  0  0
    3.3721    4.4587  -10.0954 O   0  0  0  0  0  0  0  0  0  0  0  0
    4.4289    1.9057   -7.9336 C   0  0  0  0  0  0  0  0  0  0  0  0
    5.7598    1.1707   -8.0824 C   0  0  0  0  0  0  0  0  0  0  0  0
    6.7222    1.3977   -9.4631 S   0  0  0  0  0  0  0  0  0  0  0  0
    7.6297    2.7465  -10.2621 C   0  0  0  0  0  0  0  0  0  0  0  0
    9.1563    2.6088  -10.2154 C   0  0  1  0  0  0  0  0  0  0  0  0
    9.7151    2.3516  -11.4907 O   0  0  0  0  0  0  0  0  0  0  0  0
    9.8304    3.8952   -9.8006 C   0  0  1  0  0  0  0  0  0  0  0  0
   11.0811    3.4991   -9.2816 O   0  0  0  0  0  0  0  0  0  0  0  0
   10.0723    4.6483  -11.0880 C   0  0  1  0  0  0  0  0  0  0  0  0
   11.3424    5.2615  -11.0486 O   0  0  0  0  0  0  0  0  0  0  0  0
   10.0704    3.5587  -12.1384 C   0  0  2  0  0  0  0  0  0  0  0  0
    4.2596    2.5315  -10.7138 O   0  0  0  0  0  0  0  0  0  0  0  0
    8.8061    6.4970  -16.2593 N   0  0  0  0  0  0  0  0  0  0  0  0
    9.8480    6.6732  -15.3799 C   0  0  0  0  0  0  0  0  0  0  0  0
   10.0116    5.7919  -14.3384 N   0  0  0  0  0  0  0  0  0  0  0  0
    9.1637    4.7581  -14.1722 C   0  0  0  0  0  0  0  0  0  0  0  0
    8.1102    4.5620  -15.0452 C   0  0  0  0  0  0  0  0  0  0  0  0
    7.9339    5.4497  -16.1002 C   0  0  0  0  0  0  0  0  0  0  0  0
    6.9333    5.3011  -16.9594 N   0  0  0  0  0  0  0  0  0  0  0  0
    7.4286    3.4649  -14.6465 N   0  0  0  0  0  0  0  0  0  0  0  0
    8.0346    2.9686  -13.5503 C   0  0  0  0  0  0  0  0  0  0  0  0
    9.1062    3.7643  -13.2348 N   0  0  0  0  0  0  0  0  0  0  0  0
  2  1  1  1  0  0  0
  2  3  1  0  0  0  0
  2  5  1  0  0  0  0
  3  4  1  0  0  0  0
  3 16  1  0  0  0  0
  5  6  1  0  0  0  0
  6  7  1  0  0  0  0
  7  8  1  0  0  0  0
  9  8  1  6  0  0  0
  9 10  1  0  0  0  0
  9 11  1  0  0  0  0
 10 15  1  0  0  0  0
 11 12  1  6  0  0  0
 11 13  1  0  0  0  0
 13 14  1  1  0  0  0
 13 15  1  0  0  0  0
 15 26  1  6  0  0  0
 17 18  2  0  0  0  0
 17 22  1  0  0  0  0
 18 19  1  0  0  0  0
 19 20  2  0  0  0  0
 20 21  1  0  0  0  0
 20 26  1  0  0  0  0
 21 22  2  0  0  0  0
 21 24  1  0  0  0  0
 22 23  1  0  0  0  0
 24 25  2  0  0  0  0
 25 26  1  0  0  0  0
M  END
>  <CHROM.1>
18.50423396,-139.34519676,-41.58293819,63.64566376,110.87009919,110.94179864
-174.29256153,7.68161482,3.71261348,-11.60990656,2.11660539,0.03773533,1.96026463

>  <Name>
ligand

>  <RI>
0

>  <Rbt.Current_Directory>
/home/itssahil/PROJECTS/Mol_Feturizer/New_Systems/rnas/3E5E

>  <Rbt.Executable>
rbdock ($Id: //depot/dev/client3/rdock/2013.1/src/exe/rbdock.cxx#4 $)

>  <Rbt.Library>
libRbt.so (2013.1, Build901 2013/11/27)

>  <Rbt.Parameter_File>
/export/apps/rDock/src/rDock_2013.1_src/data/scripts/dock_solv.prm

>  <Rbt.Receptor>
prm/blind_docking_20.prm

>  <SCORE>
-0.0404791

>  <SCORE.INTER>
-3.06839

>  <SCORE.INTER.CONST>
1

>  <SCORE.INTER.POLAR>
0

>  <SCORE.INTER.ROT>
7

>  <SCORE.INTER.SOLV>
20.0202

>  <SCORE.INTER.VDW>
-16.9856

>  <SCORE.INTER.norm>
-0.118015

>  <SCORE.INTRA>
2.08343

>  <SCORE.INTRA.DIHEDRAL>
5.47385

>  <SCORE.INTRA.DIHEDRAL.0>
10.1225

>  <SCORE.INTRA.POLAR>
0

>  <SCORE.INTRA.POLAR.0>
0

>  <SCORE.INTRA.REPUL>
0

>  <SCORE.INTRA.REPUL.0>
0

>  <SCORE.INTRA.SOLV>
-0.285886

>  <SCORE.INTRA.SOLV.lig_0>
-49.9393

>  <SCORE.INTRA.VDW>
-0.510551

>  <SCORE.INTRA.VDW.0>
-1.75437

>  <SCORE.INTRA.norm>
0.0801319

>  <SCORE.RESTR>
0.94448

>  <SCORE.RESTR.CAVITY>
0.94448

>  <SCORE.RESTR.norm>
0.0363261

>  <SCORE.SYSTEM>
0

>  <SCORE.SYSTEM.CONST>
0

>  <SCORE.SYSTEM.DIHEDRAL>
0

>  <SCORE.SYSTEM.SOLV>
0

>  <SCORE.SYSTEM.norm>
0

>  <SCORE.heavy>
26

>  <SCORE.norm>
-0.00155689

>  <RMSD>
22.782

$$$$
ligand
 OpenBabel11021811473D
libRbt.so/2013.1/901 2013/11/27
 26 28  0  0  0  0  0  0  0  0999 V2000
    3.9320    2.4276   -7.1436 N   0  0  0  0  0  0  0  0  0  0  0  0
    4.2338    3.6993   -7.8124 C   0  0  2  0  0  0  0  0  0  0  0  0
    3.1455    4.0139   -8.8048 C   0  0  0  0  0  0  0  0  0  0  0  0
    3.1166    3.4462   -9.8715 O   0  0  0  0  0  0  0  0  0  0  0  0
    5.5733    3.5853   -8.5421 C   0  0  0  0  0  0  0  0  0  0  0  0
    5.8691    4.8935   -9.2733 C   0  0  0  0  0  0  0  0  0  0  0  0
    7.0523    4.9544  -10.4900 S   0  0  0  0  0  0  0  0  0  0  0  0
    8.7680    4.4228  -10.7243 C   0  0  0  0  0  0  0  0  0  0  0  0
    9.3522    4.7316  -12.1082 C   0  0  1  0  0  0  0  0  0  0  0  0
   10.0184    3.6179  -12.6745 O   0  0  0  0  0  0  0  0  0  0  0  0
    8.2766    5.0383  -13.1233 C   0  0  1  0  0  0  0  0  0  0  0  0
    8.9222    5.8047  -14.1164 O   0  0  0  0  0  0  0  0  0  0  0  0
    7.9082    3.7024  -13.7255 C   0  0  1  0  0  0  0  0  0  0  0  0
    7.7166    3.8444  -15.1162 O   0  0  0  0  0  0  0  0  0  0  0  0
    9.1331    2.8513  -13.4692 C   0  0  2  0  0  0  0  0  0  0  0  0
    2.2073    4.9277   -8.5068 O   0  0  0  0  0  0  0  0  0  0  0  0
    5.9222    0.3858  -10.1791 N   0  0  0  0  0  0  0  0  0  0  0  0
    5.8481    1.6851  -10.6223 C   0  0  0  0  0  0  0  0  0  0  0  0
    6.8044    2.1615  -11.4863 N   0  0  0  0  0  0  0  0  0  0  0  0
    7.8107    1.3689  -11.9038 C   0  0  0  0  0  0  0  0  0  0  0  0
    7.9036    0.0593  -11.4713 C   0  0  0  0  0  0  0  0  0  0  0  0
    6.9432   -0.4314  -10.5946 C   0  0  0  0  0  0  0  0  0  0  0  0
    6.9964   -1.6813  -10.1512 N   0  0  0  0  0  0  0  0  0  0  0  0
    8.9964   -0.4977  -12.0395 N   0  0  0  0  0  0  0  0  0  0  0  0
    9.5836    0.4302  -12.8203 C   0  0  0  0  0  0  0  0  0  0  0  0
    8.8684    1.5976  -12.7397 N   0  0  0  0  0  0  0  0  0  0  0  0
  2  1  1  6  0  0  0
  2  3  1  0  0  0  0
  2  5  1  0  0  0  0
  3  4  1  0  0  0  0
  3 16  1  0  0  0  0
  5  6  1  0  0  0  0
  6  7  1  0  0  0  0
  7  8  1  0  0  0  0
  9  8  1  1  0  0  0
  9 10  1  0  0  0  0
  9 11  1  0  0  0  0
 10 15  1  0  0  0  0
 11 12  1  6  0  0  0
 11 13  1  0  0  0  0
 13 14  1  6  0  0  0
 13 15  1  0  0  0  0
 15 26  1  1  0  0  0
 17 18  2  0  0  0  0
 17 22  1  0  0  0  0
 18 19  1  0  0  0  0
 19 20  2  0  0  0  0
 20 21  1  0  0  0  0
 20 26  1  0  0  0  0
 21 22  2  0  0  0  0
 21 24  1  0  0  0  0
 22 23  1  0  0  0  0
 24 25  2  0  0  0  0
 25 26  1  0  0  0  0
M  END
>  <CHROM.1>
-77.53152129,178.31039099,-163.79535994,-48.37328047,178.60809164,-132.62535660
94.35497081,6.93926379,2.91431637,-11.11935115,-3.11305237,0.74221455,-0.18683412

>  <Name>
ligand

>  <RI>
0

>  <Rbt.Current_Directory>
/home/itssahil/PROJECTS/Mol_Feturizer/New_Systems/rnas/3E5E

>  <Rbt.Executable>
rbdock ($Id: //depot/dev/client3/rdock/2013.1/src/exe/rbdock.cxx#4 $)

>  <Rbt.Library>
libRbt.so (2013.1, Build901 2013/11/27)

>  <Rbt.Parameter_File>
/export/apps/rDock/src/rDock_2013.1_src/data/scripts/dock_solv.prm

>  <Rbt.Receptor>
prm/blind_docking_20.prm

>  <SCORE>
1.93716

>  <SCORE.INTER>
-0.912374

>  <SCORE.INTER.CONST>
1

>  <SCORE.INTER.POLAR>
0

>  <SCORE.INTER.ROT>
7

>  <SCORE.INTER.SOLV>
10.3233

>  <SCORE.INTER.VDW>
-12.316

>  <SCORE.INTER.norm>
-0.0350913

>  <SCORE.INTRA>
-0.373176

>  <SCORE.INTRA.DIHEDRAL>
-1.4972

>  <SCORE.INTRA.DIHEDRAL.0>
10.1225

>  <SCORE.INTRA.POLAR>
0

>  <SCORE.INTRA.POLAR.0>
0

>  <SCORE.INTRA.REPUL>
0

>  <SCORE.INTRA.REPUL.0>
0

>  <SCORE.INTRA.SOLV>
-0.353431

>  <SCORE.INTRA.SOLV.lig_0>
-49.9393

>  <SCORE.INTRA.VDW>
0.55214

>  <SCORE.INTRA.VDW.0>
-1.75437

>  <SCORE.INTRA.norm>
-0.0143529

>  <SCORE.RESTR>
3.22271

>  <SCORE.RESTR.CAVITY>
3.22271

>  <SCORE.RESTR.norm>
0.12395

>  <SCORE.SYSTEM>
0

>  <SCORE.SYSTEM.CONST>
0

>  <SCORE.SYSTEM.DIHEDRAL>
0

>  <SCORE.SYSTEM.SOLV>
0

>  <SCORE.SYSTEM.norm>
0

>  <SCORE.heavy>
26

>  <SCORE.norm>
0.0745062

>  <RMSD>
22.967

$$$$
ligand
 OpenBabel11021811473D
libRbt.so/2013.1/901 2013/11/27
 26 28  0  0  0  0  0  0  0  0999 V2000
    5.2090    0.7509   -8.9719 N   0  0  0  0  0  0  0  0  0  0  0  0
    6.0088    1.9027   -8.5371 C   0  0  2  0  0  0  0  0  0  0  0  0
    5.3376    3.1753   -8.9823 C   0  0  0  0  0  0  0  0  0  0  0  0
    5.2594    4.1149   -8.2259 O   0  0  0  0  0  0  0  0  0  0  0  0
    7.4042    1.8168   -9.1578 C   0  0  0  0  0  0  0  0  0  0  0  0
    7.2800    1.6280  -10.6686 C   0  0  0  0  0  0  0  0  0  0  0  0
    8.6671    1.5095  -11.6412 S   0  0  0  0  0  0  0  0  0  0  0  0
    9.8130    2.6265  -12.4899 C   0  0  0  0  0  0  0  0  0  0  0  0
   10.6390    3.5251  -11.5616 C   0  0  1  0  0  0  0  0  0  0  0  0
   10.7376    4.8534  -12.0422 O   0  0  0  0  0  0  0  0  0  0  0  0
    9.9864    3.6987  -10.2105 C   0  0  1  0  0  0  0  0  0  0  0  0
   11.0416    4.0404   -9.3386 O   0  0  0  0  0  0  0  0  0  0  0  0
    9.0878    4.9046  -10.3569 C   0  0  1  0  0  0  0  0  0  0  0  0
    9.1635    5.6980   -9.1927 O   0  0  0  0  0  0  0  0  0  0  0  0
    9.6960    5.6571  -11.5208 C   0  0  2  0  0  0  0  0  0  0  0  0
    4.8227    3.2667  -10.2194 O   0  0  0  0  0  0  0  0  0  0  0  0
    8.9868    5.4980  -16.6866 N   0  0  0  0  0  0  0  0  0  0  0  0
   10.1169    5.1708  -15.9753 C   0  0  0  0  0  0  0  0  0  0  0  0
   10.1142    5.2914  -14.6065 N   0  0  0  0  0  0  0  0  0  0  0  0
    9.0167    5.7245  -13.9561 C   0  0  0  0  0  0  0  0  0  0  0  0
    7.8697    6.0579  -14.6517 C   0  0  0  0  0  0  0  0  0  0  0  0
    7.8630    5.9427  -16.0368 C   0  0  0  0  0  0  0  0  0  0  0  0
    6.7845    6.2559  -16.7442 N   0  0  0  0  0  0  0  0  0  0  0  0
    6.9350    6.4569  -13.7603 N   0  0  0  0  0  0  0  0  0  0  0  0
    7.4687    6.3745  -12.5260 C   0  0  0  0  0  0  0  0  0  0  0  0
    8.7630    5.9328  -12.6287 N   0  0  0  0  0  0  0  0  0  0  0  0
  2  1  1  6  0  0  0
  2  3  1  0  0  0  0
  2  5  1  0  0  0  0
  3  4  1  0  0  0  0
  3 16  1  0  0  0  0
  5  6  1  0  0  0  0
  6  7  1  0  0  0  0
  7  8  1  0  0  0  0
  9  8  1  6  0  0  0
  9 10  1  0  0  0  0
  9 11  1  0  0  0  0
 10 15  1  0  0  0  0
 11 12  1  1  0  0  0
 11 13  1  0  0  0  0
 13 14  1  1  0  0  0
 13 15  1  0  0  0  0
 15 26  1  6  0  0  0
 17 18  2  0  0  0  0
 17 22  1  0  0  0  0
 18 19  1  0  0  0  0
 19 20  2  0  0  0  0
 20 21  1  0  0  0  0
 20 26  1  0  0  0  0
 21 22  2  0  0  0  0
 21 24  1  0  0  0  0
 22 23  1  0  0  0  0
 24 25  2  0  0  0  0
 25 26  1  0  0  0  0
M  END
>  <CHROM.1>
136.62928808,52.15822504,179.55273664,-85.86614056,64.91528371,-137.79436905
-13.97596573,8.25162212,4.14012796,-11.84203350,1.87167407,0.07079001,2.05611668

>  <Name>
ligand

>  <RI>
0

>  <Rbt.Current_Directory>
/home/itssahil/PROJECTS/Mol_Feturizer/New_Systems/rnas/3E5E

>  <Rbt.Executable>
rbdock ($Id: //depot/dev/client3/rdock/2013.1/src/exe/rbdock.cxx#4 $)

>  <Rbt.Library>
libRbt.so (2013.1, Build901 2013/11/27)

>  <Rbt.Parameter_File>
/export/apps/rDock/src/rDock_2013.1_src/data/scripts/dock_solv.prm

>  <Rbt.Receptor>
prm/blind_docking_20.prm

>  <SCORE>
1.55104

>  <SCORE.INTER>
-1.52238

>  <SCORE.INTER.CONST>
1

>  <SCORE.INTER.POLAR>
0

>  <SCORE.INTER.ROT>
7

>  <SCORE.INTER.SOLV>
16.5255

>  <SCORE.INTER.VDW>
-14.7901

>  <SCORE.INTER.norm>
-0.0585532

>  <SCORE.INTRA>
-0.724225

>  <SCORE.INTRA.DIHEDRAL>
-1.95988

>  <SCORE.INTRA.DIHEDRAL.0>
10.1225

>  <SCORE.INTRA.POLAR>
0

>  <SCORE.INTRA.POLAR.0>
0

>  <SCORE.INTRA.REPUL>
0

>  <SCORE.INTRA.REPUL.0>
0

>  <SCORE.INTRA.SOLV>
0.720807

>  <SCORE.INTRA.SOLV.lig_0>
-49.9393

>  <SCORE.INTRA.VDW>
-0.104688

>  <SCORE.INTRA.VDW.0>
-1.75437

>  <SCORE.INTRA.norm>
-0.0278548

>  <SCORE.RESTR>
3.79765

>  <SCORE.RESTR.CAVITY>
3.79765

>  <SCORE.RESTR.norm>
0.146063

>  <SCORE.SYSTEM>
0

>  <SCORE.SYSTEM.CONST>
0

>  <SCORE.SYSTEM.DIHEDRAL>
0

>  <SCORE.SYSTEM.SOLV>
0

>  <SCORE.SYSTEM.norm>
0

>  <SCORE.heavy>
26

>  <SCORE.norm>
0.0596553

>  <RMSD>
22.975

$$$$
ligand
 OpenBabel11021811473D
libRbt.so/2013.1/901 2013/11/27
 26 28  0  0  0  0  0  0  0  0999 V2000
    3.9311    1.9700   -7.7648 N   0  0  0  0  0  0  0  0  0  0  0  0
    5.0909    2.2818   -8.6093 C   0  0  2  0  0  0  0  0  0  0  0  0
    6.3285    1.6722   -8.0054 C   0  0  0  0  0  0  0  0  0  0  0  0
    7.1896    1.2165   -8.7209 O   0  0  0  0  0  0  0  0  0  0  0  0
    5.2609    3.7992   -8.7003 C   0  0  0  0  0  0  0  0  0  0  0  0
    5.7615    4.1739  -10.0941 C   0  0  0  0  0  0  0  0  0  0  0  0
    7.4127    4.0673  -10.4763 S   0  0  0  0  0  0  0  0  0  0  0  0
    8.6814    2.7812  -10.6086 C   0  0  0  0  0  0  0  0  0  0  0  0
    8.2292    1.5055  -11.3296 C   0  0  1  0  0  0  0  0  0  0  0  0
    7.4121    1.7802  -12.4529 O   0  0  0  0  0  0  0  0  0  0  0  0
    9.3912    0.7497  -11.9295 C   0  0  1  0  0  0  0  0  0  0  0  0
    8.9369   -0.5807  -12.0481 O   0  0  0  0  0  0  0  0  0  0  0  0
    9.5561    1.3163  -13.3205 C   0  0  1  0  0  0  0  0  0  0  0  0
    9.8392    0.2737  -14.2280 O   0  0  0  0  0  0  0  0  0  0  0  0
    8.1925    1.8964  -13.6278 C   0  0  2  0  0  0  0  0  0  0  0  0
    6.4757    1.6317   -6.6710 O   0  0  0  0  0  0  0  0  0  0  0  0
   10.4974    6.5202  -12.9049 N   0  0  0  0  0  0  0  0  0  0  0  0
   10.7700    5.3290  -12.2748 C   0  0  0  0  0  0  0  0  0  0  0  0
   10.0386    4.2107  -12.5948 N   0  0  0  0  0  0  0  0  0  0  0  0
    9.0603    4.2697  -13.5194 C   0  0  0  0  0  0  0  0  0  0  0  0
    8.7705    5.4567  -14.1655 C   0  0  0  0  0  0  0  0  0  0  0  0
    9.5022    6.5946  -13.8466 C   0  0  0  0  0  0  0  0  0  0  0  0
    9.2544    7.7559  -14.4397 N   0  0  0  0  0  0  0  0  0  0  0  0
    7.7570    5.2310  -15.0311 N   0  0  0  0  0  0  0  0  0  0  0  0
    7.4120    3.9315  -14.9451 C   0  0  0  0  0  0  0  0  0  0  0  0
    8.2022    3.3219  -14.0043 N   0  0  0  0  0  0  0  0  0  0  0  0
  2  1  1  1  0  0  0
  2  3  1  0  0  0  0
  2  5  1  0  0  0  0
  3  4  1  0  0  0  0
  3 16  1  0  0  0  0
  5  6  1  0  0  0  0
  6  7  1  0  0  0  0
  7  8  1  0  0  0  0
  9  8  1  6  0  0  0
  9 10  1  0  0  0  0
  9 11  1  0  0  0  0
 10 15  1  0  0  0  0
 11 12  1  6  0  0  0
 11 13  1  0  0  0  0
 13 14  1  6  0  0  0
 13 15  1  0  0  0  0
 15 26  1  1  0  0  0
 17 18  2  0  0  0  0
 17 22  1  0  0  0  0
 18 19  1  0  0  0  0
 19 20  2  0  0  0  0
 20 21  1  0  0  0  0
 20 26  1  0  0  0  0
 21 22  2  0  0  0  0
 21 24  1  0  0  0  0
 22 23  1  0  0  0  0
 24 25  2  0  0  0  0
 25 26  1  0  0  0  0
M  END
>  <CHROM.1>
143.55358152,-144.61209895,-82.15708251,63.73481846,43.84399754,39.92998879
85.29282562,7.98470084,3.15700872,-11.66074767,2.55528014,-0.98356248,2.95903857

>  <Name>
ligand

>  <RI>
0

>  <Rbt.Current_Directory>
/home/itssahil/PROJECTS/Mol_Feturizer/New_Systems/rnas/3E5E

>  <Rbt.Executable>
rbdock ($Id: //depot/dev/client3/rdock/2013.1/src/exe/rbdock.cxx#4 $)

>  <Rbt.Library>
libRbt.so (2013.1, Build901 2013/11/27)

>  <Rbt.Parameter_File>
/export/apps/rDock/src/rDock_2013.1_src/data/scripts/dock_solv.prm

>  <Rbt.Receptor>
prm/blind_docking_20.prm

>  <SCORE>
0.644499

>  <SCORE.INTER>
0.4192

>  <SCORE.INTER.CONST>
1

>  <SCORE.INTER.POLAR>
0

>  <SCORE.INTER.ROT>
7

>  <SCORE.INTER.SOLV>
11.0258

>  <SCORE.INTER.VDW>
-11.6625

>  <SCORE.INTER.norm>
0.0161231

>  <SCORE.INTRA>
-2.62169

>  <SCORE.INTRA.DIHEDRAL>
-0.197393

>  <SCORE.INTRA.DIHEDRAL.0>
10.1225

>  <SCORE.INTRA.POLAR>
0

>  <SCORE.INTRA.POLAR.0>
0

>  <SCORE.INTRA.REPUL>
0

>  <SCORE.INTRA.REPUL.0>
0

>  <SCORE.INTRA.SOLV>
-0.0574803

>  <SCORE.INTRA.SOLV.lig_0>
-49.9393

>  <SCORE.INTRA.VDW>
-2.49425

>  <SCORE.INTRA.VDW.0>
-1.75437

>  <SCORE.INTRA.norm>
-0.100834

>  <SCORE.RESTR>
2.84699

>  <SCORE.RESTR.CAVITY>
2.84699

>  <SCORE.RESTR.norm>
0.1095

>  <SCORE.SYSTEM>
0

>  <SCORE.SYSTEM.CONST>
0

>  <SCORE.SYSTEM.DIHEDRAL>
0

>  <SCORE.SYSTEM.SOLV>
0

>  <SCORE.SYSTEM.norm>
0

>  <SCORE.heavy>
26

>  <SCORE.norm>
0.0247884

>  <RMSD>
23.138

$$$$
ligand
 OpenBabel11021811473D
libRbt.so/2013.1/901 2013/11/27
 26 28  0  0  0  0  0  0  0  0999 V2000
    7.5053    6.4589  -16.1002 N   0  0  0  0  0  0  0  0  0  0  0  0
    8.2082    5.2340  -15.6987 C   0  0  2  0  0  0  0  0  0  0  0  0
    7.2254    4.2700  -15.0879 C   0  0  0  0  0  0  0  0  0  0  0  0
    7.6229    3.2864  -14.5085 O   0  0  0  0  0  0  0  0  0  0  0  0
    9.2890    5.5804  -14.6732 C   0  0  0  0  0  0  0  0  0  0  0  0
    8.7014    6.4980  -13.6026 C   0  0  0  0  0  0  0  0  0  0  0  0
    8.9126    6.1481  -11.9543 S   0  0  0  0  0  0  0  0  0  0  0  0
    8.5064    4.8115  -10.8012 C   0  0  0  0  0  0  0  0  0  0  0  0
    9.3754    3.5558  -10.9426 C   0  0  1  0  0  0  0  0  0  0  0  0
    9.2188    2.6646   -9.8535 O   0  0  0  0  0  0  0  0  0  0  0  0
    8.9712    2.7162  -12.1314 C   0  0  1  0  0  0  0  0  0  0  0  0
   10.1212    1.9649  -12.4533 O   0  0  0  0  0  0  0  0  0  0  0  0
    7.9204    1.7661  -11.6060 C   0  0  1  0  0  0  0  0  0  0  0  0
    8.1151    0.4854  -12.1652 O   0  0  0  0  0  0  0  0  0  0  0  0
    8.2029    1.7161  -10.1200 C   0  0  2  0  0  0  0  0  0  0  0  0
    5.9061    4.5007  -15.1884 O   0  0  0  0  0  0  0  0  0  0  0  0
    3.5566    4.0782   -9.9036 N   0  0  0  0  0  0  0  0  0  0  0  0
    4.4250    4.0111  -10.9672 C   0  0  0  0  0  0  0  0  0  0  0  0
    5.6197    3.3472  -10.8253 N   0  0  0  0  0  0  0  0  0  0  0  0
    5.9466    2.7612   -9.6570 C   0  0  0  0  0  0  0  0  0  0  0  0
    5.0878    2.8158   -8.5754 C   0  0  0  0  0  0  0  0  0  0  0  0
    3.8783    3.4878   -8.7074 C   0  0  0  0  0  0  0  0  0  0  0  0
    3.0259    3.5681   -7.6931 N   0  0  0  0  0  0  0  0  0  0  0  0
    5.6611    2.1536   -7.5458 N   0  0  0  0  0  0  0  0  0  0  0  0
    6.8532    1.6822   -7.9605 C   0  0  0  0  0  0  0  0  0  0  0  0
    7.0522    2.0590   -9.2642 N   0  0  0  0  0  0  0  0  0  0  0  0
  2  1  1  1  0  0  0
  2  3  1  0  0  0  0
  2  5  1  0  0  0  0
  3  4  1  0  0  0  0
  3 16  1  0  0  0  0
  5  6  1  0  0  0  0
  6  7  1  0  0  0  0
  7  8  1  0  0  0  0
  9  8  1  1  0  0  0
  9 10  1  0  0  0  0
  9 11  1  0  0  0  0
 10 15  1  0  0  0  0
 11 12  1  1  0  0  0
 11 13  1  0  0  0  0
 13 14  1  6  0  0  0
 13 15  1  0  0  0  0
 15 26  1  1  0  0  0
 17 18  2  0  0  0  0
 17 22  1  0  0  0  0
 18 19  1  0  0  0  0
 19 20  2  0  0  0  0
 20 21  1  0  0  0  0
 20 26  1  0  0  0  0
 21 22  2  0  0  0  0
 21 24  1  0  0  0  0
 22 23  1  0  0  0  0
 24 25  2  0  0  0  0
 25 26  1  0  0  0  0
M  END
>  <CHROM.1>
-168.82311082,47.12182482,130.03417239,-60.03280371,74.68574470,167.36215342
98.75734121,7.25803974,3.64357648,-11.55456778,1.08168912,0.39121755,-0.97391344

>  <Name>
ligand

>  <RI>
0

>  <Rbt.Current_Directory>
/home/itssahil/PROJECTS/Mol_Feturizer/New_Systems/rnas/3E5E

>  <Rbt.Executable>
rbdock ($Id: //depot/dev/client3/rdock/2013.1/src/exe/rbdock.cxx#4 $)

>  <Rbt.Library>
libRbt.so (2013.1, Build901 2013/11/27)

>  <Rbt.Parameter_File>
/export/apps/rDock/src/rDock_2013.1_src/data/scripts/dock_solv.prm

>  <Rbt.Receptor>
prm/blind_docking_20.prm

>  <SCORE>
-8.21914

>  <SCORE.INTER>
-8.19481

>  <SCORE.INTER.CONST>
1

>  <SCORE.INTER.POLAR>
0

>  <SCORE.INTER.ROT>
7

>  <SCORE.INTER.SOLV>
12.8529

>  <SCORE.INTER.VDW>
-18.0142

>  <SCORE.INTER.norm>
-0.315185

>  <SCORE.INTRA>
-1.0204

>  <SCORE.INTRA.DIHEDRAL>
-0.671595

>  <SCORE.INTRA.DIHEDRAL.0>
10.1225

>  <SCORE.INTRA.POLAR>
0

>  <SCORE.INTRA.POLAR.0>
0

>  <SCORE.INTRA.REPUL>
0

>  <SCORE.INTRA.REPUL.0>
0

>  <SCORE.INTRA.SOLV>
0.607983

>  <SCORE.INTRA.SOLV.lig_0>
-49.9393

>  <SCORE.INTRA.VDW>
-0.988596

>  <SCORE.INTRA.VDW.0>
-1.75437

>  <SCORE.INTRA.norm>
-0.0392462

>  <SCORE.RESTR>
0.996075

>  <SCORE.RESTR.CAVITY>
0.996075

>  <SCORE.RESTR.norm>
0.0383106

>  <SCORE.SYSTEM>
0

>  <SCORE.SYSTEM.CONST>
0

>  <SCORE.SYSTEM.DIHEDRAL>
0

>  <SCORE.SYSTEM.SOLV>
0

>  <SCORE.SYSTEM.norm>
0

>  <SCORE.heavy>
26

>  <SCORE.norm>
-0.316121

>  <RMSD>
23.148

$$$$
ligand
 OpenBabel11021811473D
libRbt.so/2013.1/901 2013/11/27
 26 28  0  0  0  0  0  0  0  0999 V2000
    9.1079    6.8615  -16.3728 N   0  0  0  0  0  0  0  0  0  0  0  0
    8.8684    5.4627  -15.9967 C   0  0  2  0  0  0  0  0  0  0  0  0
    7.3930    5.1697  -16.0711 C   0  0  0  0  0  0  0  0  0  0  0  0
    6.9797    4.0690  -15.7903 O   0  0  0  0  0  0  0  0  0  0  0  0
    9.3648    5.2273  -14.5692 C   0  0  0  0  0  0  0  0  0  0  0  0
    8.6968    6.2256  -13.6254 C   0  0  0  0  0  0  0  0  0  0  0  0
    8.8727    6.0746  -11.9431 S   0  0  0  0  0  0  0  0  0  0  0  0
    8.5996    4.8145  -10.6708 C   0  0  0  0  0  0  0  0  0  0  0  0
    9.4203    3.5317  -10.8516 C   0  0  1  0  0  0  0  0  0  0  0  0
    9.2018    2.5988   -9.8091 O   0  0  0  0  0  0  0  0  0  0  0  0
    9.0113    2.7649  -12.0870 C   0  0  1  0  0  0  0  0  0  0  0  0
   10.1374    1.9822  -12.4181 O   0  0  0  0  0  0  0  0  0  0  0  0
    7.9106    1.8361  -11.6299 C   0  0  1  0  0  0  0  0  0  0  0  0
    8.0669    0.5754  -12.2440 O   0  0  0  0  0  0  0  0  0  0  0  0
    8.1551    1.7064  -10.1420 C   0  0  2  0  0  0  0  0  0  0  0  0
    6.5350    6.1302  -16.4521 O   0  0  0  0  0  0  0  0  0  0  0  0
    3.5519    4.1534   -9.9509 N   0  0  0  0  0  0  0  0  0  0  0  0
    4.4341    4.0873  -11.0033 C   0  0  0  0  0  0  0  0  0  0  0  0
    5.6137    3.3983  -10.8559 N   0  0  0  0  0  0  0  0  0  0  0  0
    5.9127    2.7868   -9.6932 C   0  0  0  0  0  0  0  0  0  0  0  0
    5.0397    2.8400   -8.6229 C   0  0  0  0  0  0  0  0  0  0  0  0
    3.8451    3.5372   -8.7605 C   0  0  0  0  0  0  0  0  0  0  0  0
    2.9800    3.6170   -7.7571 N   0  0  0  0  0  0  0  0  0  0  0  0
    5.5855    2.1498   -7.5966 N   0  0  0  0  0  0  0  0  0  0  0  0
    6.7742    1.6626   -8.0026 C   0  0  0  0  0  0  0  0  0  0  0  0
    6.9990    2.0570   -9.2967 N   0  0  0  0  0  0  0  0  0  0  0  0
  2  1  1  1  0  0  0
  2  3  1  0  0  0  0
  2  5  1  0  0  0  0
  3  4  1  0  0  0  0
  3 16  1  0  0  0  0
  5  6  1  0  0  0  0
  6  7  1  0  0  0  0
  7  8  1  0  0  0  0
  9  8  1  1  0  0  0
  9 10  1  0  0  0  0
  9 11  1  0  0  0  0
 10 15  1  0  0  0  0
 11 12  1  1  0  0  0
 11 13  1  0  0  0  0
 13 14  1  6  0  0  0
 13 15  1  0  0  0  0
 15 26  1  1  0  0  0
 17 18  2  0  0  0  0
 17 22  1  0  0  0  0
 18 19  1  0  0  0  0
 19 20  2  0  0  0  0
 20 21  1  0  0  0  0
 20 26  1  0  0  0  0
 21 22  2  0  0  0  0
 21 24  1  0  0  0  0
 22 23  1  0  0  0  0
 24 25  2  0  0  0  0
 25 26  1  0  0  0  0
M  END
>  <CHROM.1>
-179.52552171,55.43931309,171.17002191,-54.86364742,60.75948848,178.10597797
100.92311521,7.33424733,3.78462637,-11.71832098,1.13452294,0.36331821,-0.98858393

>  <Name>
ligand

>  <RI>
0

>  <Rbt.Current_Directory>
/home/itssahil/PROJECTS/Mol_Feturizer/New_Systems/rnas/3E5E

>  <Rbt.Executable>
rbdock ($Id: //depot/dev/client3/rdock/2013.1/src/exe/rbdock.cxx#4 $)

>  <Rbt.Library>
libRbt.so (2013.1, Build901 2013/11/27)

>  <Rbt.Parameter_File>
/export/apps/rDock/src/rDock_2013.1_src/data/scripts/dock_solv.prm

>  <Rbt.Receptor>
prm/blind_docking_20.prm

>  <SCORE>
-10.8012

>  <SCORE.INTER>
-8.02246

>  <SCORE.INTER.CONST>
1

>  <SCORE.INTER.POLAR>
0

>  <SCORE.INTER.ROT>
7

>  <SCORE.INTER.SOLV>
12.4751

>  <SCORE.INTER.VDW>
-17.7733

>  <SCORE.INTER.norm>
-0.308556

>  <SCORE.INTRA>
-3.80435

>  <SCORE.INTRA.DIHEDRAL>
-6.90558

>  <SCORE.INTRA.DIHEDRAL.0>
10.1225

>  <SCORE.INTRA.POLAR>
0

>  <SCORE.INTRA.POLAR.0>
0

>  <SCORE.INTRA.REPUL>
0

>  <SCORE.INTRA.REPUL.0>
0

>  <SCORE.INTRA.SOLV>
0.38869

>  <SCORE.INTRA.SOLV.lig_0>
-49.9393

>  <SCORE.INTRA.VDW>
-0.545907

>  <SCORE.INTRA.VDW.0>
-1.75437

>  <SCORE.INTRA.norm>
-0.146321

>  <SCORE.RESTR>
1.02563

>  <SCORE.RESTR.CAVITY>
1.02563

>  <SCORE.RESTR.norm>
0.0394475

>  <SCORE.SYSTEM>
0

>  <SCORE.SYSTEM.CONST>
0

>  <SCORE.SYSTEM.DIHEDRAL>
0

>  <SCORE.SYSTEM.SOLV>
0

>  <SCORE.SYSTEM.norm>
0

>  <SCORE.heavy>
26

>  <SCORE.norm>
-0.41543

>  <RMSD>
23.200

$$$$
ligand
 OpenBabel11021811473D
libRbt.so/2013.1/901 2013/11/27
 26 28  0  0  0  0  0  0  0  0999 V2000
    7.2176    4.7251  -13.4982 N   0  0  0  0  0  0  0  0  0  0  0  0
    7.9058    5.5383  -14.5084 C   0  0  2  0  0  0  0  0  0  0  0  0
    7.5736    5.0175  -15.8819 C   0  0  0  0  0  0  0  0  0  0  0  0
    8.0799    5.5191  -16.8582 O   0  0  0  0  0  0  0  0  0  0  0  0
    9.4166    5.4584  -14.2832 C   0  0  0  0  0  0  0  0  0  0  0  0
    9.8112    6.3857  -13.1351 C   0  0  0  0  0  0  0  0  0  0  0  0
    9.1613    6.1624  -11.5821 S   0  0  0  0  0  0  0  0  0  0  0  0
    8.6372    4.7843  -10.5298 C   0  0  0  0  0  0  0  0  0  0  0  0
    9.4335    3.4884  -10.7257 C   0  0  1  0  0  0  0  0  0  0  0  0
    9.1669    2.5323   -9.7159 O   0  0  0  0  0  0  0  0  0  0  0  0
    9.0400    2.7658  -11.9924 C   0  0  1  0  0  0  0  0  0  0  0  0
   10.1566    1.9668  -12.3165 O   0  0  0  0  0  0  0  0  0  0  0  0
    7.9072    1.8503  -11.5902 C   0  0  1  0  0  0  0  0  0  0  0  0
    8.0513    0.6039  -12.2355 O   0  0  0  0  0  0  0  0  0  0  0  0
    8.1096    1.6739  -10.1008 C   0  0  2  0  0  0  0  0  0  0  0  0
    6.7123    3.9967  -16.0239 O   0  0  0  0  0  0  0  0  0  0  0  0
    3.5412    4.1892   -9.9703 N   0  0  0  0  0  0  0  0  0  0  0  0
    4.4463    4.1280  -11.0033 C   0  0  0  0  0  0  0  0  0  0  0  0
    5.6116    3.4180  -10.8415 N   0  0  0  0  0  0  0  0  0  0  0  0
    5.8742    2.7813   -9.6836 C   0  0  0  0  0  0  0  0  0  0  0  0
    4.9776    2.8291   -8.6327 C   0  0  0  0  0  0  0  0  0  0  0  0
    3.7974    3.5473   -8.7848 C   0  0  0  0  0  0  0  0  0  0  0  0
    2.9107    3.6229   -7.8001 N   0  0  0  0  0  0  0  0  0  0  0  0
    5.4890    2.1123   -7.6070 N   0  0  0  0  0  0  0  0  0  0  0  0
    6.6792    1.6137   -7.9945 C   0  0  0  0  0  0  0  0  0  0  0  0
    6.9398    2.0276   -9.2758 N   0  0  0  0  0  0  0  0  0  0  0  0
  2  1  1  1  0  0  0
  2  3  1  0  0  0  0
  2  5  1  0  0  0  0
  3  4  1  0  0  0  0
  3 16  1  0  0  0  0
  5  6  1  0  0  0  0
  6  7  1  0  0  0  0
  7  8  1  0  0  0  0
  9  8  1  1  0  0  0
  9 10  1  0  0  0  0
  9 11  1  0  0  0  0
 10 15  1  0  0  0  0
 11 12  1  1  0  0  0
 11 13  1  0  0  0  0
 13 14  1  6  0  0  0
 13 15  1  0  0  0  0
 15 26  1  1  0  0  0
 17 18  2  0  0  0  0
 17 22  1  0  0  0  0
 18 19  1  0  0  0  0
 19 20  2  0  0  0  0
 20 21  1  0  0  0  0
 20 26  1  0  0  0  0
 21 22  2  0  0  0  0
 21 24  1  0  0  0  0
 22 23  1  0  0  0  0
 24 25  2  0  0  0  0
 25 26  1  0  0  0  0
M  END
>  <CHROM.1>
-177.28908613,-78.91203259,59.95286679,34.20583979,32.26266913,168.55303739
101.65347860,7.34235517,3.68945434,-11.49833717,1.05943919,0.26301866,-1.04213611

>  <Name>
ligand

>  <RI>
0

>  <Rbt.Current_Directory>
/home/itssahil/PROJECTS/Mol_Feturizer/New_Systems/rnas/3E5E

>  <Rbt.Executable>
rbdock ($Id: //depot/dev/client3/rdock/2013.1/src/exe/rbdock.cxx#4 $)

>  <Rbt.Library>
libRbt.so (2013.1, Build901 2013/11/27)

>  <Rbt.Parameter_File>
/export/apps/rDock/src/rDock_2013.1_src/data/scripts/dock_solv.prm

>  <Rbt.Receptor>
prm/blind_docking_20.prm

>  <SCORE>
-8.63085

>  <SCORE.INTER>
-7.935

>  <SCORE.INTER.CONST>
1

>  <SCORE.INTER.POLAR>
0

>  <SCORE.INTER.ROT>
7

>  <SCORE.INTER.SOLV>
11.7678

>  <SCORE.INTER.VDW>
-17.4793

>  <SCORE.INTER.norm>
-0.305192

>  <SCORE.INTRA>
-1.33176

>  <SCORE.INTRA.DIHEDRAL>
-3.57622

>  <SCORE.INTRA.DIHEDRAL.0>
10.1225

>  <SCORE.INTRA.POLAR>
0

>  <SCORE.INTRA.POLAR.0>
0

>  <SCORE.INTRA.REPUL>
0

>  <SCORE.INTRA.REPUL.0>
0

>  <SCORE.INTRA.SOLV>
4.80777

>  <SCORE.INTRA.SOLV.lig_0>
-49.9393

>  <SCORE.INTRA.VDW>
-1.94754

>  <SCORE.INTRA.VDW.0>
-1.75437

>  <SCORE.INTRA.norm>
-0.0512216

>  <SCORE.RESTR>
0.635918

>  <SCORE.RESTR.CAVITY>
0.635918

>  <SCORE.RESTR.norm>
0.0244584

>  <SCORE.SYSTEM>
0

>  <SCORE.SYSTEM.CONST>
0

>  <SCORE.SYSTEM.DIHEDRAL>
0

>  <SCORE.SYSTEM.SOLV>
0

>  <SCORE.SYSTEM.norm>
0

>  <SCORE.heavy>
26

>  <SCORE.norm>
-0.331956

>  <RMSD>
23.239

$$$$
ligand
 OpenBabel11021811473D
libRbt.so/2013.1/901 2013/11/27
 26 28  0  0  0  0  0  0  0  0999 V2000
    6.5022   -0.5600  -10.4326 N   0  0  0  0  0  0  0  0  0  0  0  0
    6.5277    0.8355   -9.9769 C   0  0  2  0  0  0  0  0  0  0  0  0
    7.1392    0.9024   -8.6022 C   0  0  0  0  0  0  0  0  0  0  0  0
    8.0604    1.6543   -8.3856 O   0  0  0  0  0  0  0  0  0  0  0  0
    5.0995    1.3811   -9.9281 C   0  0  0  0  0  0  0  0  0  0  0  0
    5.0678    2.7830  -10.5341 C   0  0  0  0  0  0  0  0  0  0  0  0
    6.0823    4.0061   -9.9351 S   0  0  0  0  0  0  0  0  0  0  0  0
    7.7156    4.6976  -10.3027 C   0  0  0  0  0  0  0  0  0  0  0  0
    8.8818    3.7174  -10.1269 C   0  0  1  0  0  0  0  0  0  0  0  0
    8.9504    2.7657  -11.1731 O   0  0  0  0  0  0  0  0  0  0  0  0
   10.2222    4.4091  -10.2064 C   0  0  1  0  0  0  0  0  0  0  0  0
   11.1100    3.5618   -9.5103 O   0  0  0  0  0  0  0  0  0  0  0  0
   10.5958    4.3813  -11.6702 C   0  0  1  0  0  0  0  0  0  0  0  0
   11.9720    4.1008  -11.8044 O   0  0  0  0  0  0  0  0  0  0  0  0
    9.7891    3.2235  -12.2171 C   0  0  2  0  0  0  0  0  0  0  0  0
    6.6633    0.1247   -7.6160 O   0  0  0  0  0  0  0  0  0  0  0  0
    8.8592    6.6444  -16.0442 N   0  0  0  0  0  0  0  0  0  0  0  0
    9.8242    6.7068  -15.0670 C   0  0  0  0  0  0  0  0  0  0  0  0
    9.9043    5.7055  -14.1294 N   0  0  0  0  0  0  0  0  0  0  0  0
    9.0493    4.6647  -14.1594 C   0  0  0  0  0  0  0  0  0  0  0  0
    8.0723    4.5819  -15.1336 C   0  0  0  0  0  0  0  0  0  0  0  0
    7.9806    5.5912  -16.0849 C   0  0  0  0  0  0  0  0  0  0  0  0
    7.0550    5.5534  -17.0354 N   0  0  0  0  0  0  0  0  0  0  0  0
    7.3640    3.4491  -14.9275 N   0  0  0  0  0  0  0  0  0  0  0  0
    7.8791    2.8206  -13.8529 C   0  0  0  0  0  0  0  0  0  0  0  0
    8.9181    3.5657  -13.3565 N   0  0  0  0  0  0  0  0  0  0  0  0
  2  1  1  1  0  0  0
  2  3  1  0  0  0  0
  2  5  1  0  0  0  0
  3  4  1  0  0  0  0
  3 16  1  0  0  0  0
  5  6  1  0  0  0  0
  6  7  1  0  0  0  0
  7  8  1  0  0  0  0
  9  8  1  6  0  0  0
  9 10  1  0  0  0  0
  9 11  1  0  0  0  0
 10 15  1  0  0  0  0
 11 12  1  1  0  0  0
 11 13  1  0  0  0  0
 13 14  1  1  0  0  0
 13 15  1  0  0  0  0
 15 26  1  6  0  0  0
 17 18  2  0  0  0  0
 17 22  1  0  0  0  0
 18 19  1  0  0  0  0
 19 20  2  0  0  0  0
 20 21  1  0  0  0  0
 20 26  1  0  0  0  0
 21 22  2  0  0  0  0
 21 24  1  0  0  0  0
 22 23  1  0  0  0  0
 24 25  2  0  0  0  0
 25 26  1  0  0  0  0
M  END
>  <CHROM.1>
127.20112337,-135.83465922,-55.51301777,93.44981149,-63.03181300,74.61742922
138.13094462,8.18900346,3.48589415,-11.80452280,1.86013991,0.36262739,2.04351878

>  <Name>
ligand

>  <RI>
0

>  <Rbt.Current_Directory>
/home/itssahil/PROJECTS/Mol_Feturizer/New_Systems/rnas/3E5E

>  <Rbt.Executable>
rbdock ($Id: //depot/dev/client3/rdock/2013.1/src/exe/rbdock.cxx#4 $)

>  <Rbt.Library>
libRbt.so (2013.1, Build901 2013/11/27)

>  <Rbt.Parameter_File>
/export/apps/rDock/src/rDock_2013.1_src/data/scripts/dock_solv.prm

>  <Rbt.Receptor>
prm/blind_docking_20.prm

>  <SCORE>
-1.48697

>  <SCORE.INTER>
-0.569734

>  <SCORE.INTER.CONST>
1

>  <SCORE.INTER.POLAR>
0

>  <SCORE.INTER.ROT>
7

>  <SCORE.INTER.SOLV>
18.3549

>  <SCORE.INTER.VDW>
-14.7648

>  <SCORE.INTER.norm>
-0.0219129

>  <SCORE.INTRA>
-2.43135

>  <SCORE.INTRA.DIHEDRAL>
-0.343456

>  <SCORE.INTRA.DIHEDRAL.0>
10.1225

>  <SCORE.INTRA.POLAR>
0

>  <SCORE.INTRA.POLAR.0>
0

>  <SCORE.INTRA.REPUL>
0

>  <SCORE.INTRA.REPUL.0>
0

>  <SCORE.INTRA.SOLV>
0.113269

>  <SCORE.INTRA.SOLV.lig_0>
-49.9393

>  <SCORE.INTRA.VDW>
-2.31625

>  <SCORE.INTRA.VDW.0>
-1.75437

>  <SCORE.INTRA.norm>
-0.0935133

>  <SCORE.RESTR>
1.51411

>  <SCORE.RESTR.CAVITY>
1.51411

>  <SCORE.RESTR.norm>
0.0582349

>  <SCORE.SYSTEM>
0

>  <SCORE.SYSTEM.CONST>
0

>  <SCORE.SYSTEM.DIHEDRAL>
0

>  <SCORE.SYSTEM.SOLV>
0

>  <SCORE.SYSTEM.norm>
0

>  <SCORE.heavy>
26

>  <SCORE.norm>
-0.0571913

>  <RMSD>
23.264

$$$$
ligand
 OpenBabel11021811473D
libRbt.so/2013.1/901 2013/11/27
 26 28  0  0  0  0  0  0  0  0999 V2000
    8.8778    5.5599  -16.5377 N   0  0  0  0  0  0  0  0  0  0  0  0
    8.8781    5.1760  -15.1206 C   0  0  2  0  0  0  0  0  0  0  0  0
    7.5415    4.5818  -14.7624 C   0  0  0  0  0  0  0  0  0  0  0  0
    6.7872    4.2189  -15.6344 O   0  0  0  0  0  0  0  0  0  0  0  0
    9.1351    6.4130  -14.2583 C   0  0  0  0  0  0  0  0  0  0  0  0
    9.9190    6.0112  -13.0103 C   0  0  0  0  0  0  0  0  0  0  0  0
    9.1122    5.6789  -11.5533 S   0  0  0  0  0  0  0  0  0  0  0  0
    8.2121    4.2994  -10.7997 C   0  0  0  0  0  0  0  0  0  0  0  0
    8.9767    2.9703  -10.7772 C   0  0  1  0  0  0  0  0  0  0  0  0
    8.7682    2.2470   -9.5779 O   0  0  0  0  0  0  0  0  0  0  0  0
    8.4878    2.0156  -11.8408 C   0  0  1  0  0  0  0  0  0  0  0  0
    9.5694    1.1382  -12.0661 O   0  0  0  0  0  0  0  0  0  0  0  0
    7.3740    1.2314  -11.1870 C   0  0  1  0  0  0  0  0  0  0  0  0
    7.4577   -0.1236  -11.5713 O   0  0  0  0  0  0  0  0  0  0  0  0
    7.6762    1.3564   -9.7094 C   0  0  2  0  0  0  0  0  0  0  0  0
    7.1848    4.4568  -13.4735 O   0  0  0  0  0  0  0  0  0  0  0  0
    3.3416    4.2588   -9.7498 N   0  0  0  0  0  0  0  0  0  0  0  0
    4.2006    4.0029  -10.7923 C   0  0  0  0  0  0  0  0  0  0  0  0
    5.3076    3.2169  -10.5804 N   0  0  0  0  0  0  0  0  0  0  0  0
    5.5577    2.6942   -9.3641 C   0  0  0  0  0  0  0  0  0  0  0  0
    4.7067    2.9380   -8.3026 C   0  0  0  0  0  0  0  0  0  0  0  0
    3.5858    3.7346   -8.5054 C   0  0  0  0  0  0  0  0  0  0  0  0
    2.7446    3.9976   -7.5131 N   0  0  0  0  0  0  0  0  0  0  0  0
    5.1930    2.2995   -7.2148 N   0  0  0  0  0  0  0  0  0  0  0  0
    6.3226    1.6587   -7.5734 C   0  0  0  0  0  0  0  0  0  0  0  0
    6.5706    1.9013   -8.9003 N   0  0  0  0  0  0  0  0  0  0  0  0
  2  1  1  6  0  0  0
  2  3  1  0  0  0  0
  2  5  1  0  0  0  0
  3  4  1  0  0  0  0
  3 16  1  0  0  0  0
  5  6  1  0  0  0  0
  6  7  1  0  0  0  0
  7  8  1  0  0  0  0
  9  8  1  1  0  0  0
  9 10  1  0  0  0  0
  9 11  1  0  0  0  0
 10 15  1  0  0  0  0
 11 12  1  1  0  0  0
 11 13  1  0  0  0  0
 13 14  1  6  0  0  0
 13 15  1  0  0  0  0
 15 26  1  1  0  0  0
 17 18  2  0  0  0  0
 17 22  1  0  0  0  0
 18 19  1  0  0  0  0
 19 20  2  0  0  0  0
 20 21  1  0  0  0  0
 20 26  1  0  0  0  0
 21 22  2  0  0  0  0
 21 24  1  0  0  0  0
 22 23  1  0  0  0  0
 24 25  2  0  0  0  0
 25 26  1  0  0  0  0
M  END
>  <CHROM.1>
16.05811538,-147.10186907,-95.35212037,80.81293137,53.14733005,141.26740243
94.87631720,7.14495103,3.48105887,-11.25513187,0.92264740,0.54394656,-0.80983275

>  <Name>
ligand

>  <RI>
0

>  <Rbt.Current_Directory>
/home/itssahil/PROJECTS/Mol_Feturizer/New_Systems/rnas/3E5E

>  <Rbt.Executable>
rbdock ($Id: //depot/dev/client3/rdock/2013.1/src/exe/rbdock.cxx#4 $)

>  <Rbt.Library>
libRbt.so (2013.1, Build901 2013/11/27)

>  <Rbt.Parameter_File>
/export/apps/rDock/src/rDock_2013.1_src/data/scripts/dock_solv.prm

>  <Rbt.Receptor>
prm/blind_docking_20.prm

>  <SCORE>
-5.14801

>  <SCORE.INTER>
-5.90695

>  <SCORE.INTER.CONST>
1

>  <SCORE.INTER.POLAR>
0

>  <SCORE.INTER.ROT>
7

>  <SCORE.INTER.SOLV>
14.9282

>  <SCORE.INTER.VDW>
-17.1807

>  <SCORE.INTER.norm>
-0.227191

>  <SCORE.INTRA>
0.294658

>  <SCORE.INTRA.DIHEDRAL>
4.02276

>  <SCORE.INTRA.DIHEDRAL.0>
10.1225

>  <SCORE.INTRA.POLAR>
0

>  <SCORE.INTRA.POLAR.0>
0

>  <SCORE.INTRA.REPUL>
0

>  <SCORE.INTRA.REPUL.0>
0

>  <SCORE.INTRA.SOLV>
-0.454685

>  <SCORE.INTRA.SOLV.lig_0>
-49.9393

>  <SCORE.INTRA.VDW>
-1.48938

>  <SCORE.INTRA.VDW.0>
-1.75437

>  <SCORE.INTRA.norm>
0.011333

>  <SCORE.RESTR>
0.464284

>  <SCORE.RESTR.CAVITY>
0.464284

>  <SCORE.RESTR.norm>
0.0178571

>  <SCORE.SYSTEM>
0

>  <SCORE.SYSTEM.CONST>
0

>  <SCORE.SYSTEM.DIHEDRAL>
0

>  <SCORE.SYSTEM.SOLV>
0

>  <SCORE.SYSTEM.norm>
0

>  <SCORE.heavy>
26

>  <SCORE.norm>
-0.198

>  <RMSD>
23.272

$$$$
ligand
 OpenBabel11021811473D
libRbt.so/2013.1/901 2013/11/27
 26 28  0  0  0  0  0  0  0  0999 V2000
    5.2161    2.2730   -9.5752 N   0  0  0  0  0  0  0  0  0  0  0  0
    6.2002    1.3505   -8.9955 C   0  0  2  0  0  0  0  0  0  0  0  0
    6.2460    1.5406   -7.5022 C   0  0  0  0  0  0  0  0  0  0  0  0
    7.2445    1.2510   -6.8856 O   0  0  0  0  0  0  0  0  0  0  0  0
    7.5798    1.6386   -9.5899 C   0  0  0  0  0  0  0  0  0  0  0  0
    7.5918    1.2452  -11.0660 C   0  0  0  0  0  0  0  0  0  0  0  0
    9.0148    1.3771  -11.9834 S   0  0  0  0  0  0  0  0  0  0  0  0
   10.1584    2.6792  -12.5105 C   0  0  0  0  0  0  0  0  0  0  0  0
   10.7300    3.5312  -11.3707 C   0  0  1  0  0  0  0  0  0  0  0  0
   11.0609    4.8426  -11.7897 O   0  0  0  0  0  0  0  0  0  0  0  0
    9.7172    3.7681  -10.2755 C   0  0  1  0  0  0  0  0  0  0  0  0
   10.4848    4.0479   -9.1253 O   0  0  0  0  0  0  0  0  0  0  0  0
    8.9905    5.0312  -10.6749 C   0  0  1  0  0  0  0  0  0  0  0  0
    8.7702    5.8334   -9.5353 O   0  0  0  0  0  0  0  0  0  0  0  0
    9.9701    5.7236  -11.5977 C   0  0  2  0  0  0  0  0  0  0  0  0
    5.1765    2.0298   -6.8535 O   0  0  0  0  0  0  0  0  0  0  0  0
    7.0421    4.0513  -15.5782 N   0  0  0  0  0  0  0  0  0  0  0  0
    7.3757    3.3756  -14.4283 C   0  0  0  0  0  0  0  0  0  0  0  0
    8.1760    3.9853  -13.4925 N   0  0  0  0  0  0  0  0  0  0  0  0
    8.6344    5.2368  -13.6896 C   0  0  0  0  0  0  0  0  0  0  0  0
    8.3104    5.9344  -14.8380 C   0  0  0  0  0  0  0  0  0  0  0  0
    7.5042    5.3255  -15.7926 C   0  0  0  0  0  0  0  0  0  0  0  0
    7.1720    5.9575  -16.9114 N   0  0  0  0  0  0  0  0  0  0  0  0
    8.8986    7.1499  -14.7751 N   0  0  0  0  0  0  0  0  0  0  0  0
    9.5760    7.2297  -13.6133 C   0  0  0  0  0  0  0  0  0  0  0  0
    9.4328    6.0481  -12.9319 N   0  0  0  0  0  0  0  0  0  0  0  0
  2  1  1  6  0  0  0
  2  3  1  0  0  0  0
  2  5  1  0  0  0  0
  3  4  1  0  0  0  0
  3 16  1  0  0  0  0
  5  6  1  0  0  0  0
  6  7  1  0  0  0  0
  7  8  1  0  0  0  0
  9  8  1  6  0  0  0
  9 10  1  0  0  0  0
  9 11  1  0  0  0  0
 10 15  1  0  0  0  0
 11 12  1  1  0  0  0
 11 13  1  0  0  0  0
 13 14  1  1  0  0  0
 13 15  1  0  0  0  0
 15 26  1  6  0  0  0
 17 18  2  0  0  0  0
 17 22  1  0  0  0  0
 18 19  1  0  0  0  0
 19 20  2  0  0  0  0
 20 21  1  0  0  0  0
 20 26  1  0  0  0  0
 21 22  2  0  0  0  0
 21 24  1  0  0  0  0
 22 23  1  0  0  0  0
 24 25  2  0  0  0  0
 25 26  1  0  0  0  0
M  END
>  <CHROM.1>
-154.88024353,-68.50870063,-176.98778357,-61.39411586,54.15639480,-151.77770740
77.59280838,8.35929794,3.78220954,-11.64496076,1.84078253,0.65822775,1.94526102

>  <Name>
ligand

>  <RI>
0

>  <Rbt.Current_Directory>
/home/itssahil/PROJECTS/Mol_Feturizer/New_Systems/rnas/3E5E

>  <Rbt.Executable>
rbdock ($Id: //depot/dev/client3/rdock/2013.1/src/exe/rbdock.cxx#4 $)

>  <Rbt.Library>
libRbt.so (2013.1, Build901 2013/11/27)

>  <Rbt.Parameter_File>
/export/apps/rDock/src/rDock_2013.1_src/data/scripts/dock_solv.prm

>  <Rbt.Receptor>
prm/blind_docking_20.prm

>  <SCORE>
-2.89606

>  <SCORE.INTER>
-4.25165

>  <SCORE.INTER.CONST>
1

>  <SCORE.INTER.POLAR>
0

>  <SCORE.INTER.ROT>
7

>  <SCORE.INTER.SOLV>
18.095

>  <SCORE.INTER.VDW>
-17.1328

>  <SCORE.INTER.norm>
-0.163525

>  <SCORE.INTRA>
-0.67317

>  <SCORE.INTRA.DIHEDRAL>
-4.59679

>  <SCORE.INTRA.DIHEDRAL.0>
10.1225

>  <SCORE.INTRA.POLAR>
0

>  <SCORE.INTRA.POLAR.0>
0

>  <SCORE.INTRA.REPUL>
0

>  <SCORE.INTRA.REPUL.0>
0

>  <SCORE.INTRA.SOLV>
0.542398

>  <SCORE.INTRA.SOLV.lig_0>
-49.9393

>  <SCORE.INTRA.VDW>
1.35403

>  <SCORE.INTRA.VDW.0>
-1.75437

>  <SCORE.INTRA.norm>
-0.0258912

>  <SCORE.RESTR>
2.02876

>  <SCORE.RESTR.CAVITY>
2.02876

>  <SCORE.RESTR.norm>
0.0780293

>  <SCORE.SYSTEM>
0

>  <SCORE.SYSTEM.CONST>
0

>  <SCORE.SYSTEM.DIHEDRAL>
0

>  <SCORE.SYSTEM.SOLV>
0

>  <SCORE.SYSTEM.norm>
0

>  <SCORE.heavy>
26

>  <SCORE.norm>
-0.111387

>  <RMSD>
23.295

$$$$
ligand
 OpenBabel11021811473D
libRbt.so/2013.1/901 2013/11/27
 26 28  0  0  0  0  0  0  0  0999 V2000
    9.9903    5.9841  -16.2845 N   0  0  0  0  0  0  0  0  0  0  0  0
    9.3299    5.4960  -15.0674 C   0  0  2  0  0  0  0  0  0  0  0  0
    7.9065    5.1209  -15.3860 C   0  0  0  0  0  0  0  0  0  0  0  0
    7.4156    4.1336  -14.8908 O   0  0  0  0  0  0  0  0  0  0  0  0
    9.3428    6.5965  -14.0051 C   0  0  0  0  0  0  0  0  0  0  0  0
    9.4373    5.9650  -12.6173 C   0  0  0  0  0  0  0  0  0  0  0  0
    8.2310    4.9036  -12.0674 S   0  0  0  0  0  0  0  0  0  0  0  0
    7.8680    3.9364  -10.5795 C   0  0  0  0  0  0  0  0  0  0  0  0
    8.5858    2.5834  -10.5027 C   0  0  1  0  0  0  0  0  0  0  0  0
    8.3601    1.9209   -9.2718 O   0  0  0  0  0  0  0  0  0  0  0  0
    8.0568    1.6011  -11.5209 C   0  0  1  0  0  0  0  0  0  0  0  0
    9.1055    0.6771  -11.7131 O   0  0  0  0  0  0  0  0  0  0  0  0
    6.9206    0.8858  -10.8278 C   0  0  1  0  0  0  0  0  0  0  0  0
    6.9543   -0.4867  -11.1528 O   0  0  0  0  0  0  0  0  0  0  0  0
    7.2368    1.0645   -9.3586 C   0  0  2  0  0  0  0  0  0  0  0  0
    7.1819    5.8815  -16.2229 O   0  0  0  0  0  0  0  0  0  0  0  0
    3.1139    4.2587   -9.4707 N   0  0  0  0  0  0  0  0  0  0  0  0
    3.9727    3.9462  -10.4978 C   0  0  0  0  0  0  0  0  0  0  0  0
    5.0187    3.0854  -10.2678 N   0  0  0  0  0  0  0  0  0  0  0  0
    5.2093    2.5444   -9.0487 C   0  0  0  0  0  0  0  0  0  0  0  0
    4.3572    2.8443   -8.0024 C   0  0  0  0  0  0  0  0  0  0  0  0
    3.2980    3.7166   -8.2237 C   0  0  0  0  0  0  0  0  0  0  0  0
    2.4583    4.0350   -7.2463 N   0  0  0  0  0  0  0  0  0  0  0  0
    4.7779    2.1717   -6.9079 N   0  0  0  0  0  0  0  0  0  0  0  0
    5.8672    1.4553   -7.2473 C   0  0  0  0  0  0  0  0  0  0  0  0
    6.1562    1.6827   -8.5686 N   0  0  0  0  0  0  0  0  0  0  0  0
  2  1  1  6  0  0  0
  2  3  1  0  0  0  0
  2  5  1  0  0  0  0
  3  4  1  0  0  0  0
  3 16  1  0  0  0  0
  5  6  1  0  0  0  0
  6  7  1  0  0  0  0
  7  8  1  0  0  0  0
  9  8  1  1  0  0  0
  9 10  1  0  0  0  0
  9 11  1  0  0  0  0
 10 15  1  0  0  0  0
 11 12  1  1  0  0  0
 11 13  1  0  0  0  0
 13 14  1  6  0  0  0
 13 15  1  0  0  0  0
 15 26  1  1  0  0  0
 17 18  2  0  0  0  0
 17 22  1  0  0  0  0
 18 19  1  0  0  0  0
 19 20  2  0  0  0  0
 20 21  1  0  0  0  0
 20 26  1  0  0  0  0
 21 22  2  0  0  0  0
 21 24  1  0  0  0  0
 22 23  1  0  0  0  0
 24 25  2  0  0  0  0
 25 26  1  0  0  0  0
M  END
>  <CHROM.1>
140.21764497,-147.72600412,-60.41364918,-179.53522907,-82.90196173,174.86840072
91.30325111,6.90968795,3.37560016,-11.16521829,0.92938463,0.62038170,-0.72702206

>  <Name>
ligand

>  <RI>
0

>  <Rbt.Current_Directory>
/home/itssahil/PROJECTS/Mol_Feturizer/New_Systems/rnas/3E5E

>  <Rbt.Executable>
rbdock ($Id: //depot/dev/client3/rdock/2013.1/src/exe/rbdock.cxx#4 $)

>  <Rbt.Library>
libRbt.so (2013.1, Build901 2013/11/27)

>  <Rbt.Parameter_File>
/export/apps/rDock/src/rDock_2013.1_src/data/scripts/dock_solv.prm

>  <Rbt.Receptor>
prm/blind_docking_20.prm

>  <SCORE>
-8.26239

>  <SCORE.INTER>
-5.83716

>  <SCORE.INTER.CONST>
1

>  <SCORE.INTER.POLAR>
0

>  <SCORE.INTER.ROT>
7

>  <SCORE.INTER.SOLV>
12.6541

>  <SCORE.INTER.VDW>
-16.3761

>  <SCORE.INTER.norm>
-0.224506

>  <SCORE.INTRA>
-3.3054

>  <SCORE.INTRA.DIHEDRAL>
-3.17497

>  <SCORE.INTRA.DIHEDRAL.0>
10.1225

>  <SCORE.INTRA.POLAR>
0

>  <SCORE.INTRA.POLAR.0>
0

>  <SCORE.INTRA.REPUL>
0

>  <SCORE.INTRA.REPUL.0>
0

>  <SCORE.INTRA.SOLV>
-0.343883

>  <SCORE.INTRA.SOLV.lig_0>
-49.9393

>  <SCORE.INTRA.VDW>
-1.54598

>  <SCORE.INTRA.VDW.0>
-1.75437

>  <SCORE.INTRA.norm>
-0.127131

>  <SCORE.RESTR>
0.880172

>  <SCORE.RESTR.CAVITY>
0.880172

>  <SCORE.RESTR.norm>
0.0338528

>  <SCORE.SYSTEM>
0

>  <SCORE.SYSTEM.CONST>
0

>  <SCORE.SYSTEM.DIHEDRAL>
0

>  <SCORE.SYSTEM.SOLV>
0

>  <SCORE.SYSTEM.norm>
0

>  <SCORE.heavy>
26

>  <SCORE.norm>
-0.317784

>  <RMSD>
23.310

$$$$
ligand
 OpenBabel11021811473D
libRbt.so/2013.1/901 2013/11/27
 26 28  0  0  0  0  0  0  0  0999 V2000
    9.2549    5.5963  -16.1615 N   0  0  0  0  0  0  0  0  0  0  0  0
    9.3170    5.2314  -14.7408 C   0  0  2  0  0  0  0  0  0  0  0  0
    8.1027    4.4172  -14.3792 C   0  0  0  0  0  0  0  0  0  0  0  0
    8.2168    3.2415  -14.1227 O   0  0  0  0  0  0  0  0  0  0  0  0
    9.3520    6.5022  -13.8900 C   0  0  0  0  0  0  0  0  0  0  0  0
    9.8047    6.1553  -12.4729 C   0  0  0  0  0  0  0  0  0  0  0  0
    8.7407    5.3977  -11.3874 S   0  0  0  0  0  0  0  0  0  0  0  0
    7.7999    3.8533  -11.2846 C   0  0  0  0  0  0  0  0  0  0  0  0
    8.6503    2.5979  -11.0552 C   0  0  1  0  0  0  0  0  0  0  0  0
    8.5795    2.1336   -9.7194 O   0  0  0  0  0  0  0  0  0  0  0  0
    8.1485    1.4180  -11.8536 C   0  0  1  0  0  0  0  0  0  0  0  0
    9.2662    0.5673  -11.9860 O   0  0  0  0  0  0  0  0  0  0  0  0
    7.1405    0.7348  -10.9592 C   0  0  1  0  0  0  0  0  0  0  0  0
    7.2850   -0.6649  -11.0624 O   0  0  0  0  0  0  0  0  0  0  0  0
    7.5421    1.1826   -9.5704 C   0  0  2  0  0  0  0  0  0  0  0  0
    6.8911    4.9959  -14.3439 O   0  0  0  0  0  0  0  0  0  0  0  0
    3.1762    4.0262   -9.8296 N   0  0  0  0  0  0  0  0  0  0  0  0
    3.9930    3.6304  -10.8622 C   0  0  0  0  0  0  0  0  0  0  0  0
    5.1170    2.8883  -10.5904 N   0  0  0  0  0  0  0  0  0  0  0  0
    5.4248    2.5440   -9.3247 C   0  0  0  0  0  0  0  0  0  0  0  0
    4.6170    2.9306   -8.2718 C   0  0  0  0  0  0  0  0  0  0  0  0
    3.4793    3.6844   -8.5356 C   0  0  0  0  0  0  0  0  0  0  0  0
    2.6781    4.0802   -7.5543 N   0  0  0  0  0  0  0  0  0  0  0  0
    5.1565    2.4549   -7.1273 N   0  0  0  0  0  0  0  0  0  0  0  0
    6.2772    1.7761   -7.4411 C   0  0  0  0  0  0  0  0  0  0  0  0
    6.4656    1.8302   -8.7986 N   0  0  0  0  0  0  0  0  0  0  0  0
  2  1  1  6  0  0  0
  2  3  1  0  0  0  0
  2  5  1  0  0  0  0
  3  4  1  0  0  0  0
  3 16  1  0  0  0  0
  5  6  1  0  0  0  0
  6  7  1  0  0  0  0
  7  8  1  0  0  0  0
  9  8  1  1  0  0  0
  9 10  1  0  0  0  0
  9 11  1  0  0  0  0
 10 15  1  0  0  0  0
 11 12  1  1  0  0  0
 11 13  1  0  0  0  0
 13 14  1  1  0  0  0
 13 15  1  0  0  0  0
 15 26  1  6  0  0  0
 17 18  2  0  0  0  0
 17 22  1  0  0  0  0
 18 19  1  0  0  0  0
 19 20  2  0  0  0  0
 20 21  1  0  0  0  0
 20 26  1  0  0  0  0
 21 22  2  0  0  0  0
 21 24  1  0  0  0  0
 22 23  1  0  0  0  0
 24 25  2  0  0  0  0
 25 26  1  0  0  0  0
M  END
>  <CHROM.1>
110.39864886,-164.26794305,-75.78037698,60.41255629,71.10464721,103.74362794
89.58697406,7.09349042,3.28974884,-11.13127794,0.75140585,0.67764620,-0.55750567

>  <Name>
ligand

>  <RI>
0

>  <Rbt.Current_Directory>
/home/itssahil/PROJECTS/Mol_Feturizer/New_Systems/rnas/3E5E

>  <Rbt.Executable>
rbdock ($Id: //depot/dev/client3/rdock/2013.1/src/exe/rbdock.cxx#4 $)

>  <Rbt.Library>
libRbt.so (2013.1, Build901 2013/11/27)

>  <Rbt.Parameter_File>
/export/apps/rDock/src/rDock_2013.1_src/data/scripts/dock_solv.prm

>  <Rbt.Receptor>
prm/blind_docking_20.prm

>  <SCORE>
-8.22373

>  <SCORE.INTER>
-6.10846

>  <SCORE.INTER.CONST>
1

>  <SCORE.INTER.POLAR>
0

>  <SCORE.INTER.ROT>
7

>  <SCORE.INTER.SOLV>
14.1235

>  <SCORE.INTER.VDW>
-17.0468

>  <SCORE.INTER.norm>
-0.234941

>  <SCORE.INTRA>
-2.5092

>  <SCORE.INTRA.DIHEDRAL>
-0.972712

>  <SCORE.INTRA.DIHEDRAL.0>
10.1225

>  <SCORE.INTRA.POLAR>
0

>  <SCORE.INTRA.POLAR.0>
0

>  <SCORE.INTRA.REPUL>
0

>  <SCORE.INTRA.REPUL.0>
0

>  <SCORE.INTRA.SOLV>
-0.388167

>  <SCORE.INTRA.SOLV.lig_0>
-49.9393

>  <SCORE.INTRA.VDW>
-1.82876

>  <SCORE.INTRA.VDW.0>
-1.75437

>  <SCORE.INTRA.norm>
-0.0965076

>  <SCORE.RESTR>
0.393919

>  <SCORE.RESTR.CAVITY>
0.393919

>  <SCORE.RESTR.norm>
0.0151507

>  <SCORE.SYSTEM>
0

>  <SCORE.SYSTEM.CONST>
0

>  <SCORE.SYSTEM.DIHEDRAL>
0

>  <SCORE.SYSTEM.SOLV>
0

>  <SCORE.SYSTEM.norm>
0

>  <SCORE.heavy>
26

>  <SCORE.norm>
-0.316297

>  <RMSD>
23.370

$$$$
ligand
 OpenBabel11021811473D
libRbt.so/2013.1/901 2013/11/27
 26 28  0  0  0  0  0  0  0  0999 V2000
    7.0651    5.1442  -16.3732 N   0  0  0  0  0  0  0  0  0  0  0  0
    7.8884    6.0443  -15.5562 C   0  0  2  0  0  0  0  0  0  0  0  0
    9.2976    6.0544  -16.0873 C   0  0  0  0  0  0  0  0  0  0  0  0
    9.7226    7.0320  -16.6572 O   0  0  0  0  0  0  0  0  0  0  0  0
    7.8921    5.5554  -14.1068 C   0  0  0  0  0  0  0  0  0  0  0  0
    8.7798    6.4680  -13.2626 C   0  0  0  0  0  0  0  0  0  0  0  0
    8.9265    6.2226  -11.5886 S   0  0  0  0  0  0  0  0  0  0  0  0
    8.6758    4.8789  -10.4000 C   0  0  0  0  0  0  0  0  0  0  0  0
    9.4801    3.6061  -10.6914 C   0  0  1  0  0  0  0  0  0  0  0  0
    9.2288    2.5802   -9.7484 O   0  0  0  0  0  0  0  0  0  0  0  0
    9.0817    2.9699  -12.0021 C   0  0  1  0  0  0  0  0  0  0  0  0
   10.2015    2.2042  -12.3894 O   0  0  0  0  0  0  0  0  0  0  0  0
    7.9590    2.0198  -11.6558 C   0  0  1  0  0  0  0  0  0  0  0  0
    8.1071    0.8223  -12.3871 O   0  0  0  0  0  0  0  0  0  0  0  0
    8.1748    1.7421  -10.1838 C   0  0  2  0  0  0  0  0  0  0  0  0
   10.0830    4.9762  -15.9308 O   0  0  0  0  0  0  0  0  0  0  0  0
    3.4942    4.0298   -9.9146 N   0  0  0  0  0  0  0  0  0  0  0  0
    4.3764    4.0251  -10.9690 C   0  0  0  0  0  0  0  0  0  0  0  0
    5.5782    3.3710  -10.8436 N   0  0  0  0  0  0  0  0  0  0  0  0
    5.8989    2.7341   -9.7005 C   0  0  0  0  0  0  0  0  0  0  0  0
    5.0263    2.7256   -8.6286 C   0  0  0  0  0  0  0  0  0  0  0  0
    3.8093    3.3871   -8.7439 C   0  0  0  0  0  0  0  0  0  0  0  0
    2.9437    3.4076   -7.7380 N   0  0  0  0  0  0  0  0  0  0  0  0
    5.5961    2.0224   -7.6245 N   0  0  0  0  0  0  0  0  0  0  0  0
    6.7994    1.5871   -8.0459 C   0  0  0  0  0  0  0  0  0  0  0  0
    7.0092    2.0285   -9.3274 N   0  0  0  0  0  0  0  0  0  0  0  0
  2  1  1  6  0  0  0
  2  3  1  0  0  0  0
  2  5  1  0  0  0  0
  3  4  1  0  0  0  0
  3 16  1  0  0  0  0
  5  6  1  0  0  0  0
  6  7  1  0  0  0  0
  7  8  1  0  0  0  0
  9  8  1  1  0  0  0
  9 10  1  0  0  0  0
  9 11  1  0  0  0  0
 10 15  1  0  0  0  0
 11 12  1  1  0  0  0
 11 13  1  0  0  0  0
 13 14  1  6  0  0  0
 13 15  1  0  0  0  0
 15 26  1  1  0  0  0
 17 18  2  0  0  0  0
 17 22  1  0  0  0  0
 18 19  1  0  0  0  0
 19 20  2  0  0  0  0
 20 21  1  0  0  0  0
 20 26  1  0  0  0  0
 21 22  2  0  0  0  0
 21 24  1  0  0  0  0
 22 23  1  0  0  0  0
 24 25  2  0  0  0  0
 25 26  1  0  0  0  0
M  END
>  <CHROM.1>
108.87309450,178.42375059,177.10541146,21.12310962,56.89561329,-178.88375645
105.76902783,7.51401027,3.88517883,-11.64305234,1.03468694,0.38650975,-0.89661598

>  <Name>
ligand

>  <RI>
0

>  <Rbt.Current_Directory>
/home/itssahil/PROJECTS/Mol_Feturizer/New_Systems/rnas/3E5E

>  <Rbt.Executable>
rbdock ($Id: //depot/dev/client3/rdock/2013.1/src/exe/rbdock.cxx#4 $)

>  <Rbt.Library>
libRbt.so (2013.1, Build901 2013/11/27)

>  <Rbt.Parameter_File>
/export/apps/rDock/src/rDock_2013.1_src/data/scripts/dock_solv.prm

>  <Rbt.Receptor>
prm/blind_docking_20.prm

>  <SCORE>
-8.10393

>  <SCORE.INTER>
-5.96971

>  <SCORE.INTER.CONST>
1

>  <SCORE.INTER.POLAR>
0

>  <SCORE.INTER.ROT>
7

>  <SCORE.INTER.SOLV>
15.0636

>  <SCORE.INTER.VDW>
-17.2677

>  <SCORE.INTER.norm>
-0.229604

>  <SCORE.INTRA>
-3.86665

>  <SCORE.INTRA.DIHEDRAL>
-5.55038

>  <SCORE.INTRA.DIHEDRAL.0>
10.1225

>  <SCORE.INTRA.POLAR>
0

>  <SCORE.INTRA.POLAR.0>
0

>  <SCORE.INTRA.REPUL>
0

>  <SCORE.INTRA.REPUL.0>
0

>  <SCORE.INTRA.SOLV>
-0.525021

>  <SCORE.INTRA.SOLV.lig_0>
-49.9393

>  <SCORE.INTRA.VDW>
-0.82895

>  <SCORE.INTRA.VDW.0>
-1.75437

>  <SCORE.INTRA.norm>
-0.148717

>  <SCORE.RESTR>
1.73243

>  <SCORE.RESTR.CAVITY>
1.73243

>  <SCORE.RESTR.norm>
0.0666318

>  <SCORE.SYSTEM>
0

>  <SCORE.SYSTEM.CONST>
0

>  <SCORE.SYSTEM.DIHEDRAL>
0

>  <SCORE.SYSTEM.SOLV>
0

>  <SCORE.SYSTEM.norm>
0

>  <SCORE.heavy>
26

>  <SCORE.norm>
-0.31169

>  <RMSD>
23.397

$$$$
ligand
 OpenBabel11021811473D
libRbt.so/2013.1/901 2013/11/27
 26 28  0  0  0  0  0  0  0  0999 V2000
    6.4249    6.7614  -14.7353 N   0  0  0  0  0  0  0  0  0  0  0  0
    7.0380    6.1789  -15.9355 C   0  0  2  0  0  0  0  0  0  0  0  0
    6.9960    4.6765  -15.8404 C   0  0  0  0  0  0  0  0  0  0  0  0
    6.9315    4.1400  -14.7591 O   0  0  0  0  0  0  0  0  0  0  0  0
    8.4915    6.6438  -16.0411 C   0  0  0  0  0  0  0  0  0  0  0  0
    9.1308    6.6397  -14.6537 C   0  0  0  0  0  0  0  0  0  0  0  0
    9.4445    5.1761  -13.8516 S   0  0  0  0  0  0  0  0  0  0  0  0
    9.0815    4.4181  -12.2470 C   0  0  0  0  0  0  0  0  0  0  0  0
    9.8108    3.0953  -11.9826 C   0  0  1  0  0  0  0  0  0  0  0  0
    9.4169    2.4954  -10.7620 O   0  0  0  0  0  0  0  0  0  0  0  0
    9.4655    2.0413  -13.0079 C   0  0  1  0  0  0  0  0  0  0  0  0
   10.5525    1.1422  -12.9850 O   0  0  0  0  0  0  0  0  0  0  0  0
    8.2544    1.3295  -12.4513 C   0  0  1  0  0  0  0  0  0  0  0  0
    8.3691   -0.0573  -12.6847 O   0  0  0  0  0  0  0  0  0  0  0  0
    8.3401    1.5997  -10.9647 C   0  0  2  0  0  0  0  0  0  0  0  0
    7.0328    3.9308  -16.9569 O   0  0  0  0  0  0  0  0  0  0  0  0
    5.3234    2.0075   -6.7283 N   0  0  0  0  0  0  0  0  0  0  0  0
    6.4288    1.2102   -6.9086 C   0  0  0  0  0  0  0  0  0  0  0  0
    7.0906    1.2323   -8.1126 N   0  0  0  0  0  0  0  0  0  0  0  0
    6.6687    2.0273   -9.1151 C   0  0  0  0  0  0  0  0  0  0  0  0
    5.5602    2.8374   -8.9548 C   0  0  0  0  0  0  0  0  0  0  0  0
    4.8816    2.8200   -7.7419 C   0  0  0  0  0  0  0  0  0  0  0  0
    3.8103    3.5788   -7.5464 N   0  0  0  0  0  0  0  0  0  0  0  0
    5.3641    3.5191  -10.1055 N   0  0  0  0  0  0  0  0  0  0  0  0
    6.3264    3.1589  -10.9770 C   0  0  0  0  0  0  0  0  0  0  0  0
    7.1381    2.2259  -10.3840 N   0  0  0  0  0  0  0  0  0  0  0  0
  2  1  1  1  0  0  0
  2  3  1  0  0  0  0
  2  5  1  0  0  0  0
  3  4  1  0  0  0  0
  3 16  1  0  0  0  0
  5  6  1  0  0  0  0
  6  7  1  0  0  0  0
  7  8  1  0  0  0  0
  9  8  1  6  0  0  0
  9 10  1  0  0  0  0
  9 11  1  0  0  0  0
 10 15  1  0  0  0  0
 11 12  1  1  0  0  0
 11 13  1  0  0  0  0
 13 14  1  1  0  0  0
 13 15  1  0  0  0  0
 15 26  1  6  0  0  0
 17 18  2  0  0  0  0
 17 22  1  0  0  0  0
 18 19  1  0  0  0  0
 19 20  2  0  0  0  0
 20 21  1  0  0  0  0
 20 26  1  0  0  0  0
 21 22  2  0  0  0  0
 21 24  1  0  0  0  0
 22 23  1  0  0  0  0
 24 25  2  0  0  0  0
 25 26  1  0  0  0  0
M  END
>  <CHROM.1>
-24.32107072,40.31725258,69.14482905,-126.63405115,-171.55878843,-175.55345286
-93.54986985,7.58757162,3.35092196,-11.97978753,1.21446535,0.67097443,-0.92285250

>  <Name>
ligand

>  <RI>
0

>  <Rbt.Current_Directory>
/home/itssahil/PROJECTS/Mol_Feturizer/New_Systems/rnas/3E5E

>  <Rbt.Executable>
rbdock ($Id: //depot/dev/client3/rdock/2013.1/src/exe/rbdock.cxx#4 $)

>  <Rbt.Library>
libRbt.so (2013.1, Build901 2013/11/27)

>  <Rbt.Parameter_File>
/export/apps/rDock/src/rDock_2013.1_src/data/scripts/dock_solv.prm

>  <Rbt.Receptor>
prm/blind_docking_20.prm

>  <SCORE>
-4.96327

>  <SCORE.INTER>
-5.90124

>  <SCORE.INTER.CONST>
1

>  <SCORE.INTER.POLAR>
0

>  <SCORE.INTER.ROT>
7

>  <SCORE.INTER.SOLV>
9.29423

>  <SCORE.INTER.VDW>
-15.2989

>  <SCORE.INTER.norm>
-0.226971

>  <SCORE.INTRA>
-0.947509

>  <SCORE.INTRA.DIHEDRAL>
-3.29069

>  <SCORE.INTRA.DIHEDRAL.0>
10.1225

>  <SCORE.INTRA.POLAR>
0

>  <SCORE.INTRA.POLAR.0>
0

>  <SCORE.INTRA.REPUL>
0

>  <SCORE.INTRA.REPUL.0>
0

>  <SCORE.INTRA.SOLV>
1.48738

>  <SCORE.INTRA.SOLV.lig_0>
-49.9393

>  <SCORE.INTRA.VDW>
-0.0458535

>  <SCORE.INTRA.VDW.0>
-1.75437

>  <SCORE.INTRA.norm>
-0.0364427

>  <SCORE.RESTR>
1.88548

>  <SCORE.RESTR.CAVITY>
1.88548

>  <SCORE.RESTR.norm>
0.0725183

>  <SCORE.SYSTEM>
0

>  <SCORE.SYSTEM.CONST>
0

>  <SCORE.SYSTEM.DIHEDRAL>
0

>  <SCORE.SYSTEM.SOLV>
0

>  <SCORE.SYSTEM.norm>
0

>  <SCORE.heavy>
26

>  <SCORE.norm>
-0.190895

>  <RMSD>
23.454

$$$$
ligand
 OpenBabel11021811473D
libRbt.so/2013.1/901 2013/11/27
 26 28  0  0  0  0  0  0  0  0999 V2000
    9.9644    5.8871  -12.8206 N   0  0  0  0  0  0  0  0  0  0  0  0
   10.0614    5.4128  -14.2067 C   0  0  2  0  0  0  0  0  0  0  0  0
    9.1652    6.2458  -15.0849 C   0  0  0  0  0  0  0  0  0  0  0  0
    9.4981    6.5038  -16.2178 O   0  0  0  0  0  0  0  0  0  0  0  0
    9.6259    3.9481  -14.2751 C   0  0  0  0  0  0  0  0  0  0  0  0
    8.1290    3.8469  -13.9878 C   0  0  0  0  0  0  0  0  0  0  0  0
    7.5226    4.1808  -12.4370 S   0  0  0  0  0  0  0  0  0  0  0  0
    7.9002    3.7371  -10.7219 C   0  0  0  0  0  0  0  0  0  0  0  0
    8.5580    2.3632  -10.5444 C   0  0  1  0  0  0  0  0  0  0  0  0
    8.3167    1.8098   -9.2637 O   0  0  0  0  0  0  0  0  0  0  0  0
    7.9747    1.3293  -11.4783 C   0  0  1  0  0  0  0  0  0  0  0  0
    8.9791    0.3467  -11.6052 O   0  0  0  0  0  0  0  0  0  0  0  0
    6.8156    0.7223  -10.7226 C   0  0  1  0  0  0  0  0  0  0  0  0
    6.7847   -0.6716  -10.9390 O   0  0  0  0  0  0  0  0  0  0  0  0
    7.1556    1.0008   -9.2744 C   0  0  2  0  0  0  0  0  0  0  0  0
    7.9961    6.7052  -14.6093 O   0  0  0  0  0  0  0  0  0  0  0  0
    3.2237    4.4141   -9.5950 N   0  0  0  0  0  0  0  0  0  0  0  0
    4.0632    3.9910  -10.5981 C   0  0  0  0  0  0  0  0  0  0  0  0
    5.0579    3.0870  -10.3125 N   0  0  0  0  0  0  0  0  0  0  0  0
    5.2167    2.6110   -9.0622 C   0  0  0  0  0  0  0  0  0  0  0  0
    4.3833    3.0224   -8.0391 C   0  0  0  0  0  0  0  0  0  0  0  0
    3.3760    3.9391   -8.3167 C   0  0  0  0  0  0  0  0  0  0  0  0
    2.5560    4.3641   -7.3635 N   0  0  0  0  0  0  0  0  0  0  0  0
    4.7643    2.3945   -6.9043 N   0  0  0  0  0  0  0  0  0  0  0  0
    5.8106    1.5972   -7.1956 C   0  0  0  0  0  0  0  0  0  0  0  0
    6.1124    1.7270   -8.5272 N   0  0  0  0  0  0  0  0  0  0  0  0
  2  1  1  1  0  0  0
  2  3  1  0  0  0  0
  2  5  1  0  0  0  0
  3  4  1  0  0  0  0
  3 16  1  0  0  0  0
  5  6  1  0  0  0  0
  6  7  1  0  0  0  0
  7  8  1  0  0  0  0
  9  8  1  1  0  0  0
  9 10  1  0  0  0  0
  9 11  1  0  0  0  0
 10 15  1  0  0  0  0
 11 12  1  1  0  0  0
 11 13  1  0  0  0  0
 13 14  1  1  0  0  0
 13 15  1  0  0  0  0
 15 26  1  6  0  0  0
 17 18  2  0  0  0  0
 17 22  1  0  0  0  0
 18 19  1  0  0  0  0
 19 20  2  0  0  0  0
 20 21  1  0  0  0  0
 20 26  1  0  0  0  0
 21 22  2  0  0  0  0
 21 24  1  0  0  0  0
 22 23  1  0  0  0  0
 24 25  2  0  0  0  0
 25 26  1  0  0  0  0
M  END
>  <CHROM.1>
144.86885311,68.06489209,-68.50164850,-47.85312820,-28.68187652,-154.38593583
89.89538103,6.98721720,3.29131266,-11.07691290,0.80604302,0.66518583,-0.59248426

>  <Name>
ligand

>  <RI>
0

>  <Rbt.Current_Directory>
/home/itssahil/PROJECTS/Mol_Feturizer/New_Systems/rnas/3E5E

>  <Rbt.Executable>
rbdock ($Id: //depot/dev/client3/rdock/2013.1/src/exe/rbdock.cxx#4 $)

>  <Rbt.Library>
libRbt.so (2013.1, Build901 2013/11/27)

>  <Rbt.Parameter_File>
/export/apps/rDock/src/rDock_2013.1_src/data/scripts/dock_solv.prm

>  <Rbt.Receptor>
prm/blind_docking_20.prm

>  <SCORE>
-4.74611

>  <SCORE.INTER>
-4.96

>  <SCORE.INTER.CONST>
1

>  <SCORE.INTER.POLAR>
0

>  <SCORE.INTER.ROT>
7

>  <SCORE.INTER.SOLV>
11.7218

>  <SCORE.INTER.VDW>
-15.4806

>  <SCORE.INTER.norm>
-0.190769

>  <SCORE.INTRA>
-0.91225

>  <SCORE.INTRA.DIHEDRAL>
-3.24224

>  <SCORE.INTRA.DIHEDRAL.0>
10.1225

>  <SCORE.INTRA.POLAR>
0

>  <SCORE.INTRA.POLAR.0>
0

>  <SCORE.INTRA.REPUL>
0

>  <SCORE.INTRA.REPUL.0>
0

>  <SCORE.INTRA.SOLV>
2.44717

>  <SCORE.INTRA.SOLV.lig_0>
-49.9393

>  <SCORE.INTRA.VDW>
-0.514718

>  <SCORE.INTRA.VDW.0>
-1.75437

>  <SCORE.INTRA.norm>
-0.0350865

>  <SCORE.RESTR>
1.12614

>  <SCORE.RESTR.CAVITY>
1.12614

>  <SCORE.RESTR.norm>
0.0433131

>  <SCORE.SYSTEM>
0

>  <SCORE.SYSTEM.CONST>
0

>  <SCORE.SYSTEM.DIHEDRAL>
0

>  <SCORE.SYSTEM.SOLV>
0

>  <SCORE.SYSTEM.norm>
0

>  <SCORE.heavy>
26

>  <SCORE.norm>
-0.182543

>  <RMSD>
23.459

$$$$
ligand
 OpenBabel11021811473D
libRbt.so/2013.1/901 2013/11/27
 26 28  0  0  0  0  0  0  0  0999 V2000
    9.7556    6.8192  -15.4976 N   0  0  0  0  0  0  0  0  0  0  0  0
    9.0663    6.0263  -14.4721 C   0  0  2  0  0  0  0  0  0  0  0  0
   10.0175    5.0058  -13.9047 C   0  0  0  0  0  0  0  0  0  0  0  0
   10.4782    4.1455  -14.6180 O   0  0  0  0  0  0  0  0  0  0  0  0
    7.8674    5.3136  -15.1004 C   0  0  0  0  0  0  0  0  0  0  0  0
    7.3555    4.2372  -14.1450 C   0  0  0  0  0  0  0  0  0  0  0  0
    7.0796    4.5956  -12.5080 S   0  0  0  0  0  0  0  0  0  0  0  0
    7.8700    4.2748  -10.9101 C   0  0  0  0  0  0  0  0  0  0  0  0
    8.7357    3.0098  -10.8649 C   0  0  1  0  0  0  0  0  0  0  0  0
    8.6489    2.3396   -9.6207 O   0  0  0  0  0  0  0  0  0  0  0  0
    8.2660    1.9645  -11.8490 C   0  0  1  0  0  0  0  0  0  0  0  0
    9.3988    1.1594  -12.0920 O   0  0  0  0  0  0  0  0  0  0  0  0
    7.2533    1.1361  -11.0932 C   0  0  1  0  0  0  0  0  0  0  0  0
    7.4213   -0.2279  -11.4129 O   0  0  0  0  0  0  0  0  0  0  0  0
    7.6240    1.3640   -9.6437 C   0  0  2  0  0  0  0  0  0  0  0  0
   10.3529    5.0488  -12.6049 O   0  0  0  0  0  0  0  0  0  0  0  0
    3.2175    4.1542   -9.5371 N   0  0  0  0  0  0  0  0  0  0  0  0
    4.0576    3.9362  -10.6033 C   0  0  0  0  0  0  0  0  0  0  0  0
    5.1889    3.1758  -10.4298 N   0  0  0  0  0  0  0  0  0  0  0  0
    5.4811    2.6416   -9.2280 C   0  0  0  0  0  0  0  0  0  0  0  0
    4.6497    2.8474   -8.1431 C   0  0  0  0  0  0  0  0  0  0  0  0
    3.5046    3.6179   -8.3071 C   0  0  0  0  0  0  0  0  0  0  0  0
    2.6808    3.8442   -7.2913 N   0  0  0  0  0  0  0  0  0  0  0  0
    5.1779    2.2054   -7.0771 N   0  0  0  0  0  0  0  0  0  0  0  0
    6.3145    1.5993   -7.4720 C   0  0  0  0  0  0  0  0  0  0  0  0
    6.5245    1.8681   -8.8005 N   0  0  0  0  0  0  0  0  0  0  0  0
  2  1  1  6  0  0  0
  2  3  1  0  0  0  0
  2  5  1  0  0  0  0
  3  4  1  0  0  0  0
  3 16  1  0  0  0  0
  5  6  1  0  0  0  0
  6  7  1  0  0  0  0
  7  8  1  0  0  0  0
  9  8  1  1  0  0  0
  9 10  1  0  0  0  0
  9 11  1  0  0  0  0
 10 15  1  0  0  0  0
 11 12  1  1  0  0  0
 11 13  1  0  0  0  0
 13 14  1  6  0  0  0
 13 15  1  0  0  0  0
 15 26  1  1  0  0  0
 17 18  2  0  0  0  0
 17 22  1  0  0  0  0
 18 19  1  0  0  0  0
 19 20  2  0  0  0  0
 20 21  1  0  0  0  0
 20 26  1  0  0  0  0
 21 22  2  0  0  0  0
 21 24  1  0  0  0  0
 22 23  1  0  0  0  0
 24 25  2  0  0  0  0
 25 26  1  0  0  0  0
M  END
>  <CHROM.1>
-62.79142092,166.31556323,48.59123564,-105.36184635,-25.86179943,-143.24489647
89.67146175,7.16488864,3.36109170,-11.18374592,0.78961127,0.55663403,-0.71673875

>  <Name>
ligand

>  <RI>
0

>  <Rbt.Current_Directory>
/home/itssahil/PROJECTS/Mol_Feturizer/New_Systems/rnas/3E5E

>  <Rbt.Executable>
rbdock ($Id: //depot/dev/client3/rdock/2013.1/src/exe/rbdock.cxx#4 $)

>  <Rbt.Library>
libRbt.so (2013.1, Build901 2013/11/27)

>  <Rbt.Parameter_File>
/export/apps/rDock/src/rDock_2013.1_src/data/scripts/dock_solv.prm

>  <Rbt.Receptor>
prm/blind_docking_20.prm

>  <SCORE>
-4.52479

>  <SCORE.INTER>
-5.82439

>  <SCORE.INTER.CONST>
1

>  <SCORE.INTER.POLAR>
0

>  <SCORE.INTER.ROT>
7

>  <SCORE.INTER.SOLV>
10.6548

>  <SCORE.INTER.VDW>
-15.7012

>  <SCORE.INTER.norm>
-0.224015

>  <SCORE.INTRA>
-0.0520026

>  <SCORE.INTRA.DIHEDRAL>
0.918304

>  <SCORE.INTRA.DIHEDRAL.0>
10.1225

>  <SCORE.INTRA.POLAR>
0

>  <SCORE.INTRA.POLAR.0>
0

>  <SCORE.INTRA.REPUL>
0

>  <SCORE.INTRA.REPUL.0>
0

>  <SCORE.INTRA.SOLV>
-0.0913496

>  <SCORE.INTRA.SOLV.lig_0>
-49.9393

>  <SCORE.INTRA.VDW>
-0.46548

>  <SCORE.INTRA.VDW.0>
-1.75437

>  <SCORE.INTRA.norm>
-0.0020001

>  <SCORE.RESTR>
1.3516

>  <SCORE.RESTR.CAVITY>
1.3516

>  <SCORE.RESTR.norm>
0.0519845

>  <SCORE.SYSTEM>
0

>  <SCORE.SYSTEM.CONST>
0

>  <SCORE.SYSTEM.DIHEDRAL>
0

>  <SCORE.SYSTEM.SOLV>
0

>  <SCORE.SYSTEM.norm>
0

>  <SCORE.heavy>
26

>  <SCORE.norm>
-0.174031

>  <RMSD>
23.486

$$$$
ligand
 OpenBabel11021811473D
libRbt.so/2013.1/901 2013/11/27
 26 28  0  0  0  0  0  0  0  0999 V2000
   10.0972    4.9196  -15.7403 N   0  0  0  0  0  0  0  0  0  0  0  0
    9.1720    5.2588  -14.6520 C   0  0  2  0  0  0  0  0  0  0  0  0
    7.7546    5.0476  -15.1154 C   0  0  0  0  0  0  0  0  0  0  0  0
    6.9169    4.6514  -14.3394 O   0  0  0  0  0  0  0  0  0  0  0  0
    9.3672    6.7232  -14.2558 C   0  0  0  0  0  0  0  0  0  0  0  0
    8.4859    7.0478  -13.0510 C   0  0  0  0  0  0  0  0  0  0  0  0
    8.9605    6.5913  -11.4857 S   0  0  0  0  0  0  0  0  0  0  0  0
    8.9534    5.0976  -10.4609 C   0  0  0  0  0  0  0  0  0  0  0  0
    9.7374    3.9157  -11.0441 C   0  0  1  0  0  0  0  0  0  0  0  0
    9.6841    2.7696  -10.2143 O   0  0  0  0  0  0  0  0  0  0  0  0
    9.1426    3.4247  -12.3428 C   0  0  1  0  0  0  0  0  0  0  0  0
   10.2045    2.7741  -13.0057 O   0  0  0  0  0  0  0  0  0  0  0  0
    8.1269    2.3799  -11.9429 C   0  0  1  0  0  0  0  0  0  0  0  0
    8.1873    1.2911  -12.8382 O   0  0  0  0  0  0  0  0  0  0  0  0
    8.5992    1.9356  -10.5754 C   0  0  2  0  0  0  0  0  0  0  0  0
    7.4205    5.2967  -16.3923 O   0  0  0  0  0  0  0  0  0  0  0  0
    3.9114    3.8220   -9.2797 N   0  0  0  0  0  0  0  0  0  0  0  0
    4.5926    3.9827  -10.4630 C   0  0  0  0  0  0  0  0  0  0  0  0
    5.8346    3.4141  -10.6120 N   0  0  0  0  0  0  0  0  0  0  0  0
    6.3891    2.7007   -9.6126 C   0  0  0  0  0  0  0  0  0  0  0  0
    5.7212    2.5260   -8.4152 C   0  0  0  0  0  0  0  0  0  0  0  0
    4.4657    3.0999   -8.2530 C   0  0  0  0  0  0  0  0  0  0  0  0
    3.7912    2.9606   -7.1184 N   0  0  0  0  0  0  0  0  0  0  0  0
    6.4999    1.7789   -7.6011 N   0  0  0  0  0  0  0  0  0  0  0  0
    7.6339    1.4782   -8.2635 C   0  0  0  0  0  0  0  0  0  0  0  0
    7.5878    2.0510   -9.5088 N   0  0  0  0  0  0  0  0  0  0  0  0
  2  1  1  6  0  0  0
  2  3  1  0  0  0  0
  2  5  1  0  0  0  0
  3  4  1  0  0  0  0
  3 16  1  0  0  0  0
  5  6  1  0  0  0  0
  6  7  1  0  0  0  0
  7  8  1  0  0  0  0
  9  8  1  1  0  0  0
  9 10  1  0  0  0  0
  9 11  1  0  0  0  0
 10 15  1  0  0  0  0
 11 12  1  6  0  0  0
 11 13  1  0  0  0  0
 13 14  1  6  0  0  0
 13 15  1  0  0  0  0
 15 26  1  1  0  0  0
 17 18  2  0  0  0  0
 17 22  1  0  0  0  0
 18 19  1  0  0  0  0
 19 20  2  0  0  0  0
 20 21  1  0  0  0  0
 20 26  1  0  0  0  0
 21 22  2  0  0  0  0
 21 24  1  0  0  0  0
 22 23  1  0  0  0  0
 24 25  2  0  0  0  0
 25 26  1  0  0  0  0
M  END
>  <CHROM.1>
145.21266401,-175.52186768,79.14045468,-79.60215259,59.29561807,-179.15854961
107.95225891,7.70579781,3.87999219,-11.49780595,-1.04382516,-0.46754462,2.26368734

>  <Name>
ligand

>  <RI>
0

>  <Rbt.Current_Directory>
/home/itssahil/PROJECTS/Mol_Feturizer/New_Systems/rnas/3E5E

>  <Rbt.Executable>
rbdock ($Id: //depot/dev/client3/rdock/2013.1/src/exe/rbdock.cxx#4 $)

>  <Rbt.Library>
libRbt.so (2013.1, Build901 2013/11/27)

>  <Rbt.Parameter_File>
/export/apps/rDock/src/rDock_2013.1_src/data/scripts/dock_solv.prm

>  <Rbt.Receptor>
prm/blind_docking_20.prm

>  <SCORE>
-10.1527

>  <SCORE.INTER>
-7.82543

>  <SCORE.INTER.CONST>
1

>  <SCORE.INTER.POLAR>
0

>  <SCORE.INTER.ROT>
7

>  <SCORE.INTER.SOLV>
10.2964

>  <SCORE.INTER.VDW>
-16.9158

>  <SCORE.INTER.norm>
-0.300978

>  <SCORE.INTRA>
-4.05719

>  <SCORE.INTRA.DIHEDRAL>
-5.41592

>  <SCORE.INTRA.DIHEDRAL.0>
10.1225

>  <SCORE.INTRA.POLAR>
0

>  <SCORE.INTRA.POLAR.0>
0

>  <SCORE.INTRA.REPUL>
0

>  <SCORE.INTRA.REPUL.0>
0

>  <SCORE.INTRA.SOLV>
1.18629

>  <SCORE.INTRA.SOLV.lig_0>
-49.9393

>  <SCORE.INTRA.VDW>
-1.94238

>  <SCORE.INTRA.VDW.0>
-1.75437

>  <SCORE.INTRA.norm>
-0.156046

>  <SCORE.RESTR>
1.72989

>  <SCORE.RESTR.CAVITY>
1.72989

>  <SCORE.RESTR.norm>
0.0665342

>  <SCORE.SYSTEM>
0

>  <SCORE.SYSTEM.CONST>
0

>  <SCORE.SYSTEM.DIHEDRAL>
0

>  <SCORE.SYSTEM.SOLV>
0

>  <SCORE.SYSTEM.norm>
0

>  <SCORE.heavy>
26

>  <SCORE.norm>
-0.39049

>  <RMSD>
23.497

$$$$
ligand
 OpenBabel11021811473D
libRbt.so/2013.1/901 2013/11/27
 26 28  0  0  0  0  0  0  0  0999 V2000
    9.0502    6.9298  -16.0077 N   0  0  0  0  0  0  0  0  0  0  0  0
    8.7859    5.5025  -15.7872 C   0  0  2  0  0  0  0  0  0  0  0  0
    7.3237    5.2229  -16.0151 C   0  0  0  0  0  0  0  0  0  0  0  0
    6.5994    6.0940  -16.4365 O   0  0  0  0  0  0  0  0  0  0  0  0
    9.1593    5.1317  -14.3510 C   0  0  0  0  0  0  0  0  0  0  0  0
    8.3576    5.9929  -13.3767 C   0  0  0  0  0  0  0  0  0  0  0  0
    8.3863    5.6666  -11.7103 S   0  0  0  0  0  0  0  0  0  0  0  0
    9.5154    4.9214  -10.5059 C   0  0  0  0  0  0  0  0  0  0  0  0
   10.0137    3.5190  -10.8757 C   0  0  1  0  0  0  0  0  0  0  0  0
    9.2813    2.4963  -10.2256 O   0  0  0  0  0  0  0  0  0  0  0  0
    9.8059    3.2099  -12.3395 C   0  0  1  0  0  0  0  0  0  0  0  0
   10.7525    2.2070  -12.6369 O   0  0  0  0  0  0  0  0  0  0  0  0
    8.4279    2.5956  -12.4225 C   0  0  1  0  0  0  0  0  0  0  0  0
    8.4423    1.5168  -13.3317 O   0  0  0  0  0  0  0  0  0  0  0  0
    8.1911    2.0724  -11.0223 C   0  0  2  0  0  0  0  0  0  0  0  0
    6.8221    4.0059  -15.7477 O   0  0  0  0  0  0  0  0  0  0  0  0
    5.2573    1.9976   -6.7094 N   0  0  0  0  0  0  0  0  0  0  0  0
    6.4121    1.2956   -6.9617 C   0  0  0  0  0  0  0  0  0  0  0  0
    7.0411    1.4400   -8.1748 N   0  0  0  0  0  0  0  0  0  0  0  0
    6.5391    2.2624   -9.1165 C   0  0  0  0  0  0  0  0  0  0  0  0
    5.3799    2.9782   -8.8833 C   0  0  0  0  0  0  0  0  0  0  0  0
    4.7340    2.8368   -7.6607 C   0  0  0  0  0  0  0  0  0  0  0  0
    3.6164    3.5020   -7.3963 N   0  0  0  0  0  0  0  0  0  0  0  0
    5.1076    3.7134   -9.9844 N   0  0  0  0  0  0  0  0  0  0  0  0
    6.0715    3.4786  -10.8960 C   0  0  0  0  0  0  0  0  0  0  0  0
    6.9621    2.5724  -10.3794 N   0  0  0  0  0  0  0  0  0  0  0  0
  2  1  1  1  0  0  0
  2  3  1  0  0  0  0
  2  5  1  0  0  0  0
  3  4  1  0  0  0  0
  3 16  1  0  0  0  0
  5  6  1  0  0  0  0
  6  7  1  0  0  0  0
  7  8  1  0  0  0  0
  9  8  1  6  0  0  0
  9 10  1  0  0  0  0
  9 11  1  0  0  0  0
 10 15  1  0  0  0  0
 11 12  1  1  0  0  0
 11 13  1  0  0  0  0
 13 14  1  6  0  0  0
 13 15  1  0  0  0  0
 15 26  1  1  0  0  0
 17 18  2  0  0  0  0
 17 22  1  0  0  0  0
 18 19  1  0  0  0  0
 19 20  2  0  0  0  0
 20 21  1  0  0  0  0
 20 26  1  0  0  0  0
 21 22  2  0  0  0  0
 21 24  1  0  0  0  0
 22 23  1  0  0  0  0
 24 25  2  0  0  0  0
 25 26  1  0  0  0  0
M  END
>  <CHROM.1>
6.17879382,58.15821542,171.26075076,27.41058929,-53.06760775,-98.23315507
-60.17122746,7.62994877,3.69604086,-11.60371281,1.22116826,0.35945376,-1.05223978

>  <Name>
ligand

>  <RI>
0

>  <Rbt.Current_Directory>
/home/itssahil/PROJECTS/Mol_Feturizer/New_Systems/rnas/3E5E

>  <Rbt.Executable>
rbdock ($Id: //depot/dev/client3/rdock/2013.1/src/exe/rbdock.cxx#4 $)

>  <Rbt.Library>
libRbt.so (2013.1, Build901 2013/11/27)

>  <Rbt.Parameter_File>
/export/apps/rDock/src/rDock_2013.1_src/data/scripts/dock_solv.prm

>  <Rbt.Receptor>
prm/blind_docking_20.prm

>  <SCORE>
-6.51128

>  <SCORE.INTER>
-9.24326

>  <SCORE.INTER.CONST>
1

>  <SCORE.INTER.POLAR>
0

>  <SCORE.INTER.ROT>
7

>  <SCORE.INTER.SOLV>
9.34462

>  <SCORE.INTER.VDW>
-17.5437

>  <SCORE.INTER.norm>
-0.35551

>  <SCORE.INTRA>
0.860185

>  <SCORE.INTRA.DIHEDRAL>
-2.05699

>  <SCORE.INTRA.DIHEDRAL.0>
10.1225

>  <SCORE.INTRA.POLAR>
0

>  <SCORE.INTRA.POLAR.0>
0

>  <SCORE.INTRA.REPUL>
0

>  <SCORE.INTRA.REPUL.0>
0

>  <SCORE.INTRA.SOLV>
0.920363

>  <SCORE.INTRA.SOLV.lig_0>
-49.9393

>  <SCORE.INTRA.VDW>
1.4285

>  <SCORE.INTRA.VDW.0>
-1.75437

>  <SCORE.INTRA.norm>
0.033084

>  <SCORE.RESTR>
1.87179

>  <SCORE.RESTR.CAVITY>
1.87179

>  <SCORE.RESTR.norm>
0.071992

>  <SCORE.SYSTEM>
0

>  <SCORE.SYSTEM.CONST>
0

>  <SCORE.SYSTEM.DIHEDRAL>
0

>  <SCORE.SYSTEM.SOLV>
0

>  <SCORE.SYSTEM.norm>
0

>  <SCORE.heavy>
26

>  <SCORE.norm>
-0.250434

>  <RMSD>
23.535

$$$$
ligand
 OpenBabel11021811473D
libRbt.so/2013.1/901 2013/11/27
 26 28  0  0  0  0  0  0  0  0999 V2000
    8.2006    2.3392  -14.2357 N   0  0  0  0  0  0  0  0  0  0  0  0
    7.8369    3.7376  -13.9757 C   0  0  2  0  0  0  0  0  0  0  0  0
    7.4410    4.4009  -15.2685 C   0  0  0  0  0  0  0  0  0  0  0  0
    6.3940    4.1140  -15.8000 O   0  0  0  0  0  0  0  0  0  0  0  0
    9.0353    4.4712  -13.3711 C   0  0  0  0  0  0  0  0  0  0  0  0
    9.3835    3.8520  -12.0187 C   0  0  0  0  0  0  0  0  0  0  0  0
    8.2891    3.9361  -10.7228 S   0  0  0  0  0  0  0  0  0  0  0  0
    7.0775    2.8591   -9.9146 C   0  0  0  0  0  0  0  0  0  0  0  0
    5.7134    2.7912  -10.6120 C   0  0  1  0  0  0  0  0  0  0  0  0
    4.8150    1.9137   -9.9580 O   0  0  0  0  0  0  0  0  0  0  0  0
    4.9877    4.1153  -10.5708 C   0  0  1  0  0  0  0  0  0  0  0  0
    4.0873    4.0700  -11.6560 O   0  0  0  0  0  0  0  0  0  0  0  0
    4.1844    4.0868   -9.2914 C   0  0  1  0  0  0  0  0  0  0  0  0
    2.9109    4.6506   -9.5171 O   0  0  0  0  0  0  0  0  0  0  0  0
    4.0377    2.6087   -9.0012 C   0  0  2  0  0  0  0  0  0  0  0  0
    8.2520    5.3101  -15.8338 O   0  0  0  0  0  0  0  0  0  0  0  0
    7.5642   -0.2016   -6.3782 N   0  0  0  0  0  0  0  0  0  0  0  0
    7.4032   -0.1002   -7.7398 C   0  0  0  0  0  0  0  0  0  0  0  0
    6.3985    0.6886   -8.2461 N   0  0  0  0  0  0  0  0  0  0  0  0
    5.5726    1.3635   -7.4230 C   0  0  0  0  0  0  0  0  0  0  0  0
    5.7174    1.2765   -6.0512 C   0  0  0  0  0  0  0  0  0  0  0  0
    6.7285    0.4787   -5.5286 C   0  0  0  0  0  0  0  0  0  0  0  0
    6.9005    0.3634   -4.2176 N   0  0  0  0  0  0  0  0  0  0  0  0
    4.7662    2.0453   -5.4755 N   0  0  0  0  0  0  0  0  0  0  0  0
    4.0359    2.6143   -6.4544 C   0  0  0  0  0  0  0  0  0  0  0  0
    4.5146    2.1941   -7.6690 N   0  0  0  0  0  0  0  0  0  0  0  0
  2  1  1  6  0  0  0
  2  3  1  0  0  0  0
  2  5  1  0  0  0  0
  3  4  1  0  0  0  0
  3 16  1  0  0  0  0
  5  6  1  0  0  0  0
  6  7  1  0  0  0  0
  7  8  1  0  0  0  0
  9  8  1  1  0  0  0
  9 10  1  0  0  0  0
  9 11  1  0  0  0  0
 10 15  1  0  0  0  0
 11 12  1  6  0  0  0
 11 13  1  0  0  0  0
 13 14  1  6  0  0  0
 13 15  1  0  0  0  0
 15 26  1  1  0  0  0
 17 18  2  0  0  0  0
 17 22  1  0  0  0  0
 18 19  1  0  0  0  0
 19 20  2  0  0  0  0
 20 21  1  0  0  0  0
 20 26  1  0  0  0  0
 21 22  2  0  0  0  0
 21 24  1  0  0  0  0
 22 23  1  0  0  0  0
 24 25  2  0  0  0  0
 25 26  1  0  0  0  0
M  END
>  <CHROM.1>
71.73277529,-63.47649815,-64.50006183,100.59805238,-81.83423663,178.64837979
4.09753602,6.32860703,2.80889293,-10.04054235,-1.33069889,-0.33630083,2.01410076

>  <Name>
ligand

>  <RI>
0

>  <Rbt.Current_Directory>
/home/itssahil/PROJECTS/Mol_Feturizer/New_Systems/rnas/3E5E

>  <Rbt.Executable>
rbdock ($Id: //depot/dev/client3/rdock/2013.1/src/exe/rbdock.cxx#4 $)

>  <Rbt.Library>
libRbt.so (2013.1, Build901 2013/11/27)

>  <Rbt.Parameter_File>
/export/apps/rDock/src/rDock_2013.1_src/data/scripts/dock_solv.prm

>  <Rbt.Receptor>
prm/blind_docking_20.prm

>  <SCORE>
-2.93349

>  <SCORE.INTER>
-4.74337

>  <SCORE.INTER.CONST>
1

>  <SCORE.INTER.POLAR>
0

>  <SCORE.INTER.ROT>
7

>  <SCORE.INTER.SOLV>
12.5861

>  <SCORE.INTER.VDW>
-15.6243

>  <SCORE.INTER.norm>
-0.182437

>  <SCORE.INTRA>
-1.44883

>  <SCORE.INTRA.DIHEDRAL>
-4.78658

>  <SCORE.INTRA.DIHEDRAL.0>
10.1225

>  <SCORE.INTRA.POLAR>
0

>  <SCORE.INTRA.POLAR.0>
0

>  <SCORE.INTRA.REPUL>
0

>  <SCORE.INTRA.REPUL.0>
0

>  <SCORE.INTRA.SOLV>
1.09243

>  <SCORE.INTRA.SOLV.lig_0>
-49.9393

>  <SCORE.INTRA.VDW>
0.398245

>  <SCORE.INTRA.VDW.0>
-1.75437

>  <SCORE.INTRA.norm>
-0.0557242

>  <SCORE.RESTR>
3.25872

>  <SCORE.RESTR.CAVITY>
3.25872

>  <SCORE.RESTR.norm>
0.125335

>  <SCORE.SYSTEM>
0

>  <SCORE.SYSTEM.CONST>
0

>  <SCORE.SYSTEM.DIHEDRAL>
0

>  <SCORE.SYSTEM.SOLV>
0

>  <SCORE.SYSTEM.norm>
0

>  <SCORE.heavy>
26

>  <SCORE.norm>
-0.112826

>  <RMSD>
23.545

$$$$
ligand
 OpenBabel11021811473D
libRbt.so/2013.1/901 2013/11/27
 26 28  0  0  0  0  0  0  0  0999 V2000
    7.5909    0.5417   -5.5024 N   0  0  0  0  0  0  0  0  0  0  0  0
    6.8751    0.9875   -6.7043 C   0  0  2  0  0  0  0  0  0  0  0  0
    5.4146    1.1631   -6.3812 C   0  0  0  0  0  0  0  0  0  0  0  0
    4.7680    2.0143   -6.9454 O   0  0  0  0  0  0  0  0  0  0  0  0
    7.0320   -0.0598   -7.8080 C   0  0  0  0  0  0  0  0  0  0  0  0
    6.2885    0.4026   -9.0598 C   0  0  0  0  0  0  0  0  0  0  0  0
    6.2738    2.0430   -9.4991 S   0  0  0  0  0  0  0  0  0  0  0  0
    7.4330    3.2680  -10.1599 C   0  0  0  0  0  0  0  0  0  0  0  0
    8.9106    2.8679  -10.0682 C   0  0  1  0  0  0  0  0  0  0  0  0
    9.4119    2.3664  -11.2938 O   0  0  0  0  0  0  0  0  0  0  0  0
    9.8044    4.0543   -9.7940 C   0  0  1  0  0  0  0  0  0  0  0  0
   10.9654    3.5068   -9.2085 O   0  0  0  0  0  0  0  0  0  0  0  0
   10.1742    4.5944  -11.1558 C   0  0  1  0  0  0  0  0  0  0  0  0
   11.5334    4.9727  -11.1641 O   0  0  0  0  0  0  0  0  0  0  0  0
    9.9756    3.4058  -12.0714 C   0  0  2  0  0  0  0  0  0  0  0  0
    4.8295    0.3757   -5.4638 O   0  0  0  0  0  0  0  0  0  0  0  0
    8.8830    6.4901  -16.1343 N   0  0  0  0  0  0  0  0  0  0  0  0
    9.8825    6.6380  -15.2020 C   0  0  0  0  0  0  0  0  0  0  0  0
   10.0037    5.7192  -14.1875 N   0  0  0  0  0  0  0  0  0  0  0  0
    9.1555    4.6762  -14.0988 C   0  0  0  0  0  0  0  0  0  0  0  0
    8.1442    4.5081  -15.0260 C   0  0  0  0  0  0  0  0  0  0  0  0
    8.0108    5.4338  -16.0543 C   0  0  0  0  0  0  0  0  0  0  0  0
    7.0515    5.3129  -16.9635 N   0  0  0  0  0  0  0  0  0  0  0  0
    7.4518    3.3939  -14.6999 N   0  0  0  0  0  0  0  0  0  0  0  0
    8.0101    2.8597  -13.5961 C   0  0  0  0  0  0  0  0  0  0  0  0
    9.0613    3.6479  -13.2025 N   0  0  0  0  0  0  0  0  0  0  0  0
  2  1  1  1  0  0  0
  2  3  1  0  0  0  0
  2  5  1  0  0  0  0
  3  4  1  0  0  0  0
  3 16  1  0  0  0  0
  5  6  1  0  0  0  0
  6  7  1  0  0  0  0
  7  8  1  0  0  0  0
  9  8  1  6  0  0  0
  9 10  1  0  0  0  0
  9 11  1  0  0  0  0
 10 15  1  0  0  0  0
 11 12  1  6  0  0  0
 11 13  1  0  0  0  0
 13 14  1  1  0  0  0
 13 15  1  0  0  0  0
 15 26  1  6  0  0  0
 17 18  2  0  0  0  0
 17 22  1  0  0  0  0
 18 19  1  0  0  0  0
 19 20  2  0  0  0  0
 20 21  1  0  0  0  0
 20 26  1  0  0  0  0
 21 22  2  0  0  0  0
 21 24  1  0  0  0  0
 22 23  1  0  0  0  0
 24 25  2  0  0  0  0
 25 26  1  0  0  0  0
M  END
>  <CHROM.1>
147.72969430,-179.96921624,37.30436966,71.28396678,-15.65343614,99.81056613
171.69673216,8.09059401,3.17131142,-11.01001163,-1.88463104,-0.35141225,-1.19587545

>  <Name>
ligand

>  <RI>
0

>  <Rbt.Current_Directory>
/home/itssahil/PROJECTS/Mol_Feturizer/New_Systems/rnas/3E5E

>  <Rbt.Executable>
rbdock ($Id: //depot/dev/client3/rdock/2013.1/src/exe/rbdock.cxx#4 $)

>  <Rbt.Library>
libRbt.so (2013.1, Build901 2013/11/27)

>  <Rbt.Parameter_File>
/export/apps/rDock/src/rDock_2013.1_src/data/scripts/dock_solv.prm

>  <Rbt.Receptor>
prm/blind_docking_20.prm

>  <SCORE>
-0.461129

>  <SCORE.INTER>
-1.51523

>  <SCORE.INTER.CONST>
1

>  <SCORE.INTER.POLAR>
0

>  <SCORE.INTER.ROT>
7

>  <SCORE.INTER.SOLV>
22.2209

>  <SCORE.INTER.VDW>
-16.6838

>  <SCORE.INTER.norm>
-0.0582779

>  <SCORE.INTRA>
-0.162311

>  <SCORE.INTRA.DIHEDRAL>
0.354737

>  <SCORE.INTRA.DIHEDRAL.0>
10.1225

>  <SCORE.INTRA.POLAR>
0

>  <SCORE.INTRA.POLAR.0>
0

>  <SCORE.INTRA.REPUL>
0

>  <SCORE.INTRA.REPUL.0>
0

>  <SCORE.INTRA.SOLV>
-0.249482

>  <SCORE.INTRA.SOLV.lig_0>
-49.9393

>  <SCORE.INTRA.VDW>
-0.214939

>  <SCORE.INTRA.VDW.0>
-1.75437

>  <SCORE.INTRA.norm>
-0.00624272

>  <SCORE.RESTR>
1.21641

>  <SCORE.RESTR.CAVITY>
1.21641

>  <SCORE.RESTR.norm>
0.0467849

>  <SCORE.SYSTEM>
0

>  <SCORE.SYSTEM.CONST>
0

>  <SCORE.SYSTEM.DIHEDRAL>
0

>  <SCORE.SYSTEM.SOLV>
0

>  <SCORE.SYSTEM.norm>
0

>  <SCORE.heavy>
26

>  <SCORE.norm>
-0.0177357

>  <RMSD>
23.548

$$$$
ligand
 OpenBabel11021811473D
libRbt.so/2013.1/901 2013/11/27
 26 28  0  0  0  0  0  0  0  0999 V2000
    8.0495    2.4874  -14.3139 N   0  0  0  0  0  0  0  0  0  0  0  0
    7.8976    3.9127  -13.9960 C   0  0  2  0  0  0  0  0  0  0  0  0
    7.1633    4.6004  -15.1168 C   0  0  0  0  0  0  0  0  0  0  0  0
    6.8435    5.7610  -15.0084 O   0  0  0  0  0  0  0  0  0  0  0  0
    9.2794    4.5463  -13.8259 C   0  0  0  0  0  0  0  0  0  0  0  0
    9.9588    3.9640  -12.5878 C   0  0  0  0  0  0  0  0  0  0  0  0
    9.1805    3.9985  -11.0788 S   0  0  0  0  0  0  0  0  0  0  0  0
    7.5931    4.5430  -10.3973 C   0  0  0  0  0  0  0  0  0  0  0  0
    6.3621    4.0625  -11.1754 C   0  0  1  0  0  0  0  0  0  0  0  0
    6.1789    2.6614  -11.0858 O   0  0  0  0  0  0  0  0  0  0  0  0
    5.0773    4.6120  -10.6019 C   0  0  1  0  0  0  0  0  0  0  0  0
    4.1544    4.5653  -11.6679 O   0  0  0  0  0  0  0  0  0  0  0  0
    4.6457    3.6049   -9.5614 C   0  0  1  0  0  0  0  0  0  0  0  0
    3.2477    3.4256   -9.6246 O   0  0  0  0  0  0  0  0  0  0  0  0
    5.3380    2.3314   -9.9963 C   0  0  2  0  0  0  0  0  0  0  0  0
    6.8606    3.9240  -16.2370 O   0  0  0  0  0  0  0  0  0  0  0  0
    5.7969    1.1726   -4.9307 N   0  0  0  0  0  0  0  0  0  0  0  0
    4.7856    1.8645   -5.5541 C   0  0  0  0  0  0  0  0  0  0  0  0
    4.8495    2.0826   -6.9092 N   0  0  0  0  0  0  0  0  0  0  0  0
    5.8904    1.6244   -7.6315 C   0  0  0  0  0  0  0  0  0  0  0  0
    6.9173    0.9257   -7.0250 C   0  0  0  0  0  0  0  0  0  0  0  0
    6.8639    0.7025   -5.6541 C   0  0  0  0  0  0  0  0  0  0  0  0
    7.8303    0.0400   -5.0306 N   0  0  0  0  0  0  0  0  0  0  0  0
    7.8193    0.5899   -7.9741 N   0  0  0  0  0  0  0  0  0  0  0  0
    7.3773    1.0565   -9.1582 C   0  0  0  0  0  0  0  0  0  0  0  0
    6.1877    1.7107   -8.9634 N   0  0  0  0  0  0  0  0  0  0  0  0
  2  1  1  6  0  0  0
  2  3  1  0  0  0  0
  2  5  1  0  0  0  0
  3  4  1  0  0  0  0
  3 16  1  0  0  0  0
  5  6  1  0  0  0  0
  6  7  1  0  0  0  0
  7  8  1  0  0  0  0
  9  8  1  1  0  0  0
  9 10  1  0  0  0  0
  9 11  1  0  0  0  0
 10 15  1  0  0  0  0
 11 12  1  6  0  0  0
 11 13  1  0  0  0  0
 13 14  1  6  0  0  0
 13 15  1  0  0  0  0
 15 26  1  1  0  0  0
 17 18  2  0  0  0  0
 17 22  1  0  0  0  0
 18 19  1  0  0  0  0
 19 20  2  0  0  0  0
 20 21  1  0  0  0  0
 20 26  1  0  0  0  0
 21 22  2  0  0  0  0
 21 24  1  0  0  0  0
 22 23  1  0  0  0  0
 24 25  2  0  0  0  0
 25 26  1  0  0  0  0
M  END
>  <CHROM.1>
174.36106513,-66.68945187,-54.02978523,1.82942495,48.95222969,67.58966386
158.42483771,6.72749623,2.98518185,-10.35353571,-1.38787015,-0.22454960,1.99616391

>  <Name>
ligand

>  <RI>
0

>  <Rbt.Current_Directory>
/home/itssahil/PROJECTS/Mol_Feturizer/New_Systems/rnas/3E5E

>  <Rbt.Executable>
rbdock ($Id: //depot/dev/client3/rdock/2013.1/src/exe/rbdock.cxx#4 $)

>  <Rbt.Library>
libRbt.so (2013.1, Build901 2013/11/27)

>  <Rbt.Parameter_File>
/export/apps/rDock/src/rDock_2013.1_src/data/scripts/dock_solv.prm

>  <Rbt.Receptor>
prm/blind_docking_20.prm

>  <SCORE>
-3.23546

>  <SCORE.INTER>
-4.24358

>  <SCORE.INTER.CONST>
1

>  <SCORE.INTER.POLAR>
0

>  <SCORE.INTER.ROT>
7

>  <SCORE.INTER.SOLV>
15.1692

>  <SCORE.INTER.VDW>
-16.1521

>  <SCORE.INTER.norm>
-0.163215

>  <SCORE.INTRA>
-2.64598

>  <SCORE.INTRA.DIHEDRAL>
-4.42554

>  <SCORE.INTRA.DIHEDRAL.0>
10.1225

>  <SCORE.INTRA.POLAR>
0

>  <SCORE.INTRA.POLAR.0>
0

>  <SCORE.INTRA.REPUL>
0

>  <SCORE.INTRA.REPUL.0>
0

>  <SCORE.INTRA.SOLV>
2.12938

>  <SCORE.INTRA.SOLV.lig_0>
-49.9393

>  <SCORE.INTRA.VDW>
-1.4979

>  <SCORE.INTRA.VDW.0>
-1.75437

>  <SCORE.INTRA.norm>
-0.101768

>  <SCORE.RESTR>
3.6541

>  <SCORE.RESTR.CAVITY>
3.6541

>  <SCORE.RESTR.norm>
0.140542

>  <SCORE.SYSTEM>
0

>  <SCORE.SYSTEM.CONST>
0

>  <SCORE.SYSTEM.DIHEDRAL>
0

>  <SCORE.SYSTEM.SOLV>
0

>  <SCORE.SYSTEM.norm>
0

>  <SCORE.heavy>
26

>  <SCORE.norm>
-0.124441

>  <RMSD>
23.593

$$$$
ligand
 OpenBabel11021811473D
libRbt.so/2013.1/901 2013/11/27
 26 28  0  0  0  0  0  0  0  0999 V2000
   10.0911    5.0045  -15.7113 N   0  0  0  0  0  0  0  0  0  0  0  0
    9.0908    5.2821  -14.6731 C   0  0  2  0  0  0  0  0  0  0  0  0
    7.7300    5.4000  -15.3075 C   0  0  0  0  0  0  0  0  0  0  0  0
    7.5341    6.2227  -16.1711 O   0  0  0  0  0  0  0  0  0  0  0  0
    9.4406    6.5930  -13.9668 C   0  0  0  0  0  0  0  0  0  0  0  0
    8.4741    6.8210  -12.8060 C   0  0  0  0  0  0  0  0  0  0  0  0
    8.4220    5.7370  -11.4997 S   0  0  0  0  0  0  0  0  0  0  0  0
    9.5937    4.8893  -10.4090 C   0  0  0  0  0  0  0  0  0  0  0  0
   10.0315    3.5014  -10.8924 C   0  0  1  0  0  0  0  0  0  0  0  0
    9.2689    2.4605  -10.3093 O   0  0  0  0  0  0  0  0  0  0  0  0
    9.7912    3.3130  -12.3717 C   0  0  1  0  0  0  0  0  0  0  0  0
   10.6936    2.3006  -12.7603 O   0  0  0  0  0  0  0  0  0  0  0  0
    8.3892    2.7596  -12.4775 C   0  0  1  0  0  0  0  0  0  0  0  0
    8.3486    1.7536  -13.4660 O   0  0  0  0  0  0  0  0  0  0  0  0
    8.1519    2.1404  -11.1172 C   0  0  2  0  0  0  0  0  0  0  0  0
    6.7317    4.5930  -14.9126 O   0  0  0  0  0  0  0  0  0  0  0  0
    5.3519    1.9503   -6.7197 N   0  0  0  0  0  0  0  0  0  0  0  0
    6.4855    1.2391   -7.0346 C   0  0  0  0  0  0  0  0  0  0  0  0
    7.0792    1.4190   -8.2606 N   0  0  0  0  0  0  0  0  0  0  0  0
    6.5632    2.2852   -9.1544 C   0  0  0  0  0  0  0  0  0  0  0  0
    5.4249    3.0110   -8.8579 C   0  0  0  0  0  0  0  0  0  0  0  0
    4.8147    2.8338   -7.6217 C   0  0  0  0  0  0  0  0  0  0  0  0
    3.7179    3.5072   -7.2973 N   0  0  0  0  0  0  0  0  0  0  0  0
    5.1320    3.7923   -9.9214 N   0  0  0  0  0  0  0  0  0  0  0  0
    6.0629    3.5762  -10.8711 C   0  0  0  0  0  0  0  0  0  0  0  0
    6.9525    2.6361  -10.4174 N   0  0  0  0  0  0  0  0  0  0  0  0
  2  1  1  6  0  0  0
  2  3  1  0  0  0  0
  2  5  1  0  0  0  0
  3  4  1  0  0  0  0
  3 16  1  0  0  0  0
  5  6  1  0  0  0  0
  6  7  1  0  0  0  0
  7  8  1  0  0  0  0
  9  8  1  1  0  0  0
  9 10  1  0  0  0  0
  9 11  1  0  0  0  0
 10 15  1  0  0  0  0
 11 12  1  1  0  0  0
 11 13  1  0  0  0  0
 13 14  1  6  0  0  0
 13 15  1  0  0  0  0
 15 26  1  1  0  0  0
 17 18  2  0  0  0  0
 17 22  1  0  0  0  0
 18 19  1  0  0  0  0
 19 20  2  0  0  0  0
 20 21  1  0  0  0  0
 20 26  1  0  0  0  0
 21 22  2  0  0  0  0
 21 24  1  0  0  0  0
 22 23  1  0  0  0  0
 24 25  2  0  0  0  0
 25 26  1  0  0  0  0
M  END
>  <CHROM.1>
-57.99767406,-175.01387989,62.97683013,46.26739592,-91.50699877,-95.73034985
-57.51599875,7.75572299,3.77264423,-11.44825118,-1.09396878,-0.49937808,2.22465674

>  <Name>
ligand

>  <RI>
0

>  <Rbt.Current_Directory>
/home/itssahil/PROJECTS/Mol_Feturizer/New_Systems/rnas/3E5E

>  <Rbt.Executable>
rbdock ($Id: //depot/dev/client3/rdock/2013.1/src/exe/rbdock.cxx#4 $)

>  <Rbt.Library>
libRbt.so (2013.1, Build901 2013/11/27)

>  <Rbt.Parameter_File>
/export/apps/rDock/src/rDock_2013.1_src/data/scripts/dock_solv.prm

>  <Rbt.Receptor>
prm/blind_docking_20.prm

>  <SCORE>
-7.18444

>  <SCORE.INTER>
-6.88345

>  <SCORE.INTER.CONST>
1

>  <SCORE.INTER.POLAR>
0

>  <SCORE.INTER.ROT>
7

>  <SCORE.INTER.SOLV>
9.83469

>  <SCORE.INTER.VDW>
-16.1339

>  <SCORE.INTER.norm>
-0.264748

>  <SCORE.INTRA>
-1.87997

>  <SCORE.INTRA.DIHEDRAL>
-2.37461

>  <SCORE.INTRA.DIHEDRAL.0>
10.1225

>  <SCORE.INTRA.POLAR>
0

>  <SCORE.INTRA.POLAR.0>
0

>  <SCORE.INTRA.REPUL>
0

>  <SCORE.INTRA.REPUL.0>
0

>  <SCORE.INTRA.SOLV>
1.35049

>  <SCORE.INTRA.SOLV.lig_0>
-49.9393

>  <SCORE.INTRA.VDW>
-1.36791

>  <SCORE.INTRA.VDW.0>
-1.75437

>  <SCORE.INTRA.norm>
-0.0723067

>  <SCORE.RESTR>
1.57898

>  <SCORE.RESTR.CAVITY>
1.57898

>  <SCORE.RESTR.norm>
0.0607301

>  <SCORE.SYSTEM>
0

>  <SCORE.SYSTEM.CONST>
0

>  <SCORE.SYSTEM.DIHEDRAL>
0

>  <SCORE.SYSTEM.SOLV>
0

>  <SCORE.SYSTEM.norm>
0

>  <SCORE.heavy>
26

>  <SCORE.norm>
-0.276325

>  <RMSD>
23.648

$$$$
ligand
 OpenBabel11021811473D
libRbt.so/2013.1/901 2013/11/27
 26 28  0  0  0  0  0  0  0  0999 V2000
    5.0032    4.5837   -8.0115 N   0  0  0  0  0  0  0  0  0  0  0  0
    4.4021    4.0076   -9.2207 C   0  0  2  0  0  0  0  0  0  0  0  0
    3.7491    2.6943   -8.8785 C   0  0  0  0  0  0  0  0  0  0  0  0
    4.0377    1.6959   -9.4958 O   0  0  0  0  0  0  0  0  0  0  0  0
    5.4905    3.7788  -10.2708 C   0  0  0  0  0  0  0  0  0  0  0  0
    5.3604    4.8245  -11.3768 C   0  0  0  0  0  0  0  0  0  0  0  0
    6.4907    4.8880  -12.6427 S   0  0  0  0  0  0  0  0  0  0  0  0
    8.2630    4.5969  -12.8779 C   0  0  0  0  0  0  0  0  0  0  0  0
    9.1654    5.2423  -11.8192 C   0  0  1  0  0  0  0  0  0  0  0  0
    8.8650    4.7972  -10.5090 O   0  0  0  0  0  0  0  0  0  0  0  0
   10.6134    4.8478  -11.9900 C   0  0  1  0  0  0  0  0  0  0  0  0
   11.3468    5.8787  -11.3656 O   0  0  0  0  0  0  0  0  0  0  0  0
   10.7800    3.5892  -11.1707 C   0  0  1  0  0  0  0  0  0  0  0  0
   12.0168    3.6237  -10.4925 O   0  0  0  0  0  0  0  0  0  0  0  0
    9.6511    3.6714  -10.1661 C   0  0  2  0  0  0  0  0  0  0  0  0
    2.8434    2.6314   -7.8887 O   0  0  0  0  0  0  0  0  0  0  0  0
    8.1734   -0.6430  -12.6990 N   0  0  0  0  0  0  0  0  0  0  0  0
    9.0910    0.3008  -13.0956 C   0  0  0  0  0  0  0  0  0  0  0  0
    9.3384    1.3856  -12.2893 N   0  0  0  0  0  0  0  0  0  0  0  0
    8.6931    1.5319  -11.1156 C   0  0  0  0  0  0  0  0  0  0  0  0
    7.7675    0.5944  -10.6974 C   0  0  0  0  0  0  0  0  0  0  0  0
    7.5075   -0.5050  -11.5072 C   0  0  0  0  0  0  0  0  0  0  0  0
    6.6235   -1.4269  -11.1462 N   0  0  0  0  0  0  0  0  0  0  0  0
    7.2789    0.9869   -9.4997 N   0  0  0  0  0  0  0  0  0  0  0  0
    7.8814    2.1424   -9.1579 C   0  0  0  0  0  0  0  0  0  0  0  0
    8.7537    2.5017  -10.1535 N   0  0  0  0  0  0  0  0  0  0  0  0
  2  1  1  1  0  0  0
  2  3  1  0  0  0  0
  2  5  1  0  0  0  0
  3  4  1  0  0  0  0
  3 16  1  0  0  0  0
  5  6  1  0  0  0  0
  6  7  1  0  0  0  0
  7  8  1  0  0  0  0
  9  8  1  6  0  0  0
  9 10  1  0  0  0  0
  9 11  1  0  0  0  0
 10 15  1  0  0  0  0
 11 12  1  1  0  0  0
 11 13  1  0  0  0  0
 13 14  1  1  0  0  0
 13 15  1  0  0  0  0
 15 26  1  6  0  0  0
 17 18  2  0  0  0  0
 17 22  1  0  0  0  0
 18 19  1  0  0  0  0
 19 20  2  0  0  0  0
 20 21  1  0  0  0  0
 20 26  1  0  0  0  0
 21 22  2  0  0  0  0
 21 24  1  0  0  0  0
 22 23  1  0  0  0  0
 24 25  2  0  0  0  0
 25 26  1  0  0  0  0
M  END
>  <CHROM.1>
-126.05488529,-106.43142169,176.27382164,-34.32448752,-46.68090091,58.63160828
104.69795696,7.59900917,2.93764330,-10.81996283,2.96717004,-0.38722976,-3.05524894

>  <Name>
ligand

>  <RI>
0

>  <Rbt.Current_Directory>
/home/itssahil/PROJECTS/Mol_Feturizer/New_Systems/rnas/3E5E

>  <Rbt.Executable>
rbdock ($Id: //depot/dev/client3/rdock/2013.1/src/exe/rbdock.cxx#4 $)

>  <Rbt.Library>
libRbt.so (2013.1, Build901 2013/11/27)

>  <Rbt.Parameter_File>
/export/apps/rDock/src/rDock_2013.1_src/data/scripts/dock_solv.prm

>  <Rbt.Receptor>
prm/blind_docking_20.prm

>  <SCORE>
0.376013

>  <SCORE.INTER>
-1.18583

>  <SCORE.INTER.CONST>
1

>  <SCORE.INTER.POLAR>
0

>  <SCORE.INTER.ROT>
7

>  <SCORE.INTER.SOLV>
12.5849

>  <SCORE.INTER.VDW>
-13.2522

>  <SCORE.INTER.norm>
-0.0456088

>  <SCORE.INTRA>
-2.052

>  <SCORE.INTRA.DIHEDRAL>
-0.910201

>  <SCORE.INTRA.DIHEDRAL.0>
10.1225

>  <SCORE.INTRA.POLAR>
0

>  <SCORE.INTRA.POLAR.0>
0

>  <SCORE.INTRA.REPUL>
0

>  <SCORE.INTRA.REPUL.0>
0

>  <SCORE.INTRA.SOLV>
-0.0818054

>  <SCORE.INTRA.SOLV.lig_0>
-49.9393

>  <SCORE.INTRA.VDW>
-1.55599

>  <SCORE.INTRA.VDW.0>
-1.75437

>  <SCORE.INTRA.norm>
-0.0789229

>  <SCORE.RESTR>
3.61384

>  <SCORE.RESTR.CAVITY>
3.61384

>  <SCORE.RESTR.norm>
0.138994

>  <SCORE.SYSTEM>
0

>  <SCORE.SYSTEM.CONST>
0

>  <SCORE.SYSTEM.DIHEDRAL>
0

>  <SCORE.SYSTEM.SOLV>
0

>  <SCORE.SYSTEM.norm>
0

>  <SCORE.heavy>
26

>  <SCORE.norm>
0.0144621

>  <RMSD>
23.671

$$$$
ligand
 OpenBabel11021811473D
libRbt.so/2013.1/901 2013/11/27
 26 28  0  0  0  0  0  0  0  0999 V2000
   11.2665    6.3128  -12.9604 N   0  0  0  0  0  0  0  0  0  0  0  0
    9.8395    5.9737  -13.0252 C   0  0  2  0  0  0  0  0  0  0  0  0
    9.3846    5.9940  -14.4607 C   0  0  0  0  0  0  0  0  0  0  0  0
   10.0189    6.6057  -15.2880 O   0  0  0  0  0  0  0  0  0  0  0  0
    9.0362    6.9967  -12.2201 C   0  0  0  0  0  0  0  0  0  0  0  0
    8.9704    6.5578  -10.7584 C   0  0  0  0  0  0  0  0  0  0  0  0
    8.6978    4.9303  -10.3568 S   0  0  0  0  0  0  0  0  0  0  0  0
    7.9016    3.4794  -11.0929 C   0  0  0  0  0  0  0  0  0  0  0  0
    8.6169    2.1497  -10.8245 C   0  0  1  0  0  0  0  0  0  0  0  0
    8.4193    1.6872   -9.5009 O   0  0  0  0  0  0  0  0  0  0  0  0
    8.0603    1.0253  -11.6656 C   0  0  1  0  0  0  0  0  0  0  0  0
    9.1011    0.0756  -11.7371 O   0  0  0  0  0  0  0  0  0  0  0  0
    6.9391    0.4336  -10.8433 C   0  0  1  0  0  0  0  0  0  0  0  0
    6.9607   -0.9729  -10.9525 O   0  0  0  0  0  0  0  0  0  0  0  0
    7.2916    0.8353   -9.4274 C   0  0  2  0  0  0  0  0  0  0  0  0
    8.2720    5.3345  -14.8229 O   0  0  0  0  0  0  0  0  0  0  0  0
    3.2714    4.1229   -9.9208 N   0  0  0  0  0  0  0  0  0  0  0  0
    4.1181    3.6653  -10.9026 C   0  0  0  0  0  0  0  0  0  0  0  0
    5.1368    2.8048  -10.5713 N   0  0  0  0  0  0  0  0  0  0  0  0
    5.3125    2.4046   -9.2969 C   0  0  0  0  0  0  0  0  0  0  0  0
    4.4722    2.8518   -8.2946 C   0  0  0  0  0  0  0  0  0  0  0  0
    3.4406    3.7252   -8.6185 C   0  0  0  0  0  0  0  0  0  0  0  0
    2.6132    4.1823   -7.6868 N   0  0  0  0  0  0  0  0  0  0  0  0
    4.8734    2.2992   -7.1279 N   0  0  0  0  0  0  0  0  0  0  0  0
    5.9390    1.5139   -7.3790 C   0  0  0  0  0  0  0  0  0  0  0  0
    6.2326    1.5757   -8.7173 N   0  0  0  0  0  0  0  0  0  0  0  0
  2  1  1  6  0  0  0
  2  3  1  0  0  0  0
  2  5  1  0  0  0  0
  3  4  1  0  0  0  0
  3 16  1  0  0  0  0
  5  6  1  0  0  0  0
  6  7  1  0  0  0  0
  7  8  1  0  0  0  0
  9  8  1  1  0  0  0
  9 10  1  0  0  0  0
  9 11  1  0  0  0  0
 10 15  1  0  0  0  0
 11 12  1  1  0  0  0
 11 13  1  0  0  0  0
 13 14  1  1  0  0  0
 13 15  1  0  0  0  0
 15 26  1  6  0  0  0
 17 18  2  0  0  0  0
 17 22  1  0  0  0  0
 18 19  1  0  0  0  0
 19 20  2  0  0  0  0
 20 21  1  0  0  0  0
 20 26  1  0  0  0  0
 21 22  2  0  0  0  0
 21 24  1  0  0  0  0
 22 23  1  0  0  0  0
 24 25  2  0  0  0  0
 25 26  1  0  0  0  0
M  END
>  <CHROM.1>
-20.78090536,-87.08920555,-42.11509833,-26.36552065,143.10716685,75.04312265
88.30574682,7.23928167,3.40142066,-10.76163984,-0.69523343,-0.64031349,2.88250820

>  <Name>
ligand

>  <RI>
0

>  <Rbt.Current_Directory>
/home/itssahil/PROJECTS/Mol_Feturizer/New_Systems/rnas/3E5E

>  <Rbt.Executable>
rbdock ($Id: //depot/dev/client3/rdock/2013.1/src/exe/rbdock.cxx#4 $)

>  <Rbt.Library>
libRbt.so (2013.1, Build901 2013/11/27)

>  <Rbt.Parameter_File>
/export/apps/rDock/src/rDock_2013.1_src/data/scripts/dock_solv.prm

>  <Rbt.Receptor>
prm/blind_docking_20.prm

>  <SCORE>
-2.76394

>  <SCORE.INTER>
-3.04337

>  <SCORE.INTER.CONST>
1

>  <SCORE.INTER.POLAR>
0

>  <SCORE.INTER.ROT>
7

>  <SCORE.INTER.SOLV>
14.2218

>  <SCORE.INTER.VDW>
-15.0362

>  <SCORE.INTER.norm>
-0.117053

>  <SCORE.INTRA>
-0.727508

>  <SCORE.INTRA.DIHEDRAL>
0.124738

>  <SCORE.INTRA.DIHEDRAL.0>
10.1225

>  <SCORE.INTRA.POLAR>
0

>  <SCORE.INTRA.POLAR.0>
0

>  <SCORE.INTRA.REPUL>
0

>  <SCORE.INTRA.REPUL.0>
0

>  <SCORE.INTRA.SOLV>
0.502123

>  <SCORE.INTRA.SOLV.lig_0>
-49.9393

>  <SCORE.INTRA.VDW>
-1.04094

>  <SCORE.INTRA.VDW.0>
-1.75437

>  <SCORE.INTRA.norm>
-0.0279811

>  <SCORE.RESTR>
1.00693

>  <SCORE.RESTR.CAVITY>
1.00693

>  <SCORE.RESTR.norm>
0.0387281

>  <SCORE.SYSTEM>
0

>  <SCORE.SYSTEM.CONST>
0

>  <SCORE.SYSTEM.DIHEDRAL>
0

>  <SCORE.SYSTEM.SOLV>
0

>  <SCORE.SYSTEM.norm>
0

>  <SCORE.heavy>
26

>  <SCORE.norm>
-0.106306

>  <RMSD>
23.690

$$$$
ligand
 OpenBabel11021811473D
libRbt.so/2013.1/901 2013/11/27
 26 28  0  0  0  0  0  0  0  0999 V2000
    7.3225    5.2113  -16.6815 N   0  0  0  0  0  0  0  0  0  0  0  0
    8.1016    5.2176  -15.4372 C   0  0  2  0  0  0  0  0  0  0  0  0
    7.5463    4.1838  -14.4933 C   0  0  0  0  0  0  0  0  0  0  0  0
    6.9515    4.5292  -13.4993 O   0  0  0  0  0  0  0  0  0  0  0  0
    8.0146    6.6005  -14.7892 C   0  0  0  0  0  0  0  0  0  0  0  0
    9.2642    6.8487  -13.9463 C   0  0  0  0  0  0  0  0  0  0  0  0
    9.7952    5.6878  -12.8263 S   0  0  0  0  0  0  0  0  0  0  0  0
    9.0652    4.5585  -11.6126 C   0  0  0  0  0  0  0  0  0  0  0  0
    9.7439    3.1863  -11.5235 C   0  0  1  0  0  0  0  0  0  0  0  0
    9.3270    2.4497  -10.3883 O   0  0  0  0  0  0  0  0  0  0  0  0
    9.3596    2.2865  -12.6741 C   0  0  1  0  0  0  0  0  0  0  0  0
   10.4119    1.3519  -12.7717 O   0  0  0  0  0  0  0  0  0  0  0  0
    8.1223    1.5549  -12.2083 C   0  0  1  0  0  0  0  0  0  0  0  0
    8.1847    0.2064  -12.6184 O   0  0  0  0  0  0  0  0  0  0  0  0
    8.2173    1.6285  -10.6997 C   0  0  2  0  0  0  0  0  0  0  0  0
    7.7136    2.8768  -14.7534 O   0  0  0  0  0  0  0  0  0  0  0  0
    5.4006    1.8356   -6.3136 N   0  0  0  0  0  0  0  0  0  0  0  0
    6.5021    1.0566   -6.5781 C   0  0  0  0  0  0  0  0  0  0  0  0
    7.1063    1.1338   -7.8098 N   0  0  0  0  0  0  0  0  0  0  0  0
    6.6318    1.9650   -8.7580 C   0  0  0  0  0  0  0  0  0  0  0  0
    5.5263    2.7577   -8.5128 C   0  0  0  0  0  0  0  0  0  0  0  0
    4.9057    2.6847   -7.2713 C   0  0  0  0  0  0  0  0  0  0  0  0
    3.8393    3.4250   -6.9948 N   0  0  0  0  0  0  0  0  0  0  0  0
    5.2713    3.4839   -9.6241 N   0  0  0  0  0  0  0  0  0  0  0  0
    6.1940    3.1683  -10.5537 C   0  0  0  0  0  0  0  0  0  0  0  0
    7.0395    2.2195  -10.0382 N   0  0  0  0  0  0  0  0  0  0  0  0
  2  1  1  6  0  0  0
  2  3  1  0  0  0  0
  2  5  1  0  0  0  0
  3  4  1  0  0  0  0
  3 16  1  0  0  0  0
  5  6  1  0  0  0  0
  6  7  1  0  0  0  0
  7  8  1  0  0  0  0
  9  8  1  6  0  0  0
  9 10  1  0  0  0  0
  9 11  1  0  0  0  0
 10 15  1  0  0  0  0
 11 12  1  1  0  0  0
 11 13  1  0  0  0  0
 13 14  1  1  0  0  0
 13 15  1  0  0  0  0
 15 26  1  6  0  0  0
 17 18  2  0  0  0  0
 17 22  1  0  0  0  0
 18 19  1  0  0  0  0
 19 20  2  0  0  0  0
 20 21  1  0  0  0  0
 20 26  1  0  0  0  0
 21 22  2  0  0  0  0
 21 24  1  0  0  0  0
 22 23  1  0  0  0  0
 24 25  2  0  0  0  0
 25 26  1  0  0  0  0
M  END
>  <CHROM.1>
-109.35218832,-152.90712507,-49.57049976,-40.53257854,141.71850973,167.75724038
-87.31021154,7.68345821,3.27860241,-11.44392560,1.04432135,0.78337066,-0.77904276

>  <Name>
ligand

>  <RI>
0

>  <Rbt.Current_Directory>
/home/itssahil/PROJECTS/Mol_Feturizer/New_Systems/rnas/3E5E

>  <Rbt.Executable>
rbdock ($Id: //depot/dev/client3/rdock/2013.1/src/exe/rbdock.cxx#4 $)

>  <Rbt.Library>
libRbt.so (2013.1, Build901 2013/11/27)

>  <Rbt.Parameter_File>
/export/apps/rDock/src/rDock_2013.1_src/data/scripts/dock_solv.prm

>  <Rbt.Receptor>
prm/blind_docking_20.prm

>  <SCORE>
-3.45933

>  <SCORE.INTER>
-3.13342

>  <SCORE.INTER.CONST>
1

>  <SCORE.INTER.POLAR>
0

>  <SCORE.INTER.ROT>
7

>  <SCORE.INTER.SOLV>
15.6919

>  <SCORE.INTER.VDW>
-15.5862

>  <SCORE.INTER.norm>
-0.120516

>  <SCORE.INTRA>
-1.30415

>  <SCORE.INTRA.DIHEDRAL>
-1.87594

>  <SCORE.INTRA.DIHEDRAL.0>
10.1225

>  <SCORE.INTRA.POLAR>
0

>  <SCORE.INTRA.POLAR.0>
0

>  <SCORE.INTRA.REPUL>
0

>  <SCORE.INTRA.REPUL.0>
0

>  <SCORE.INTRA.SOLV>
-0.207748

>  <SCORE.INTRA.SOLV.lig_0>
-49.9393

>  <SCORE.INTRA.VDW>
-0.262301

>  <SCORE.INTRA.VDW.0>
-1.75437

>  <SCORE.INTRA.norm>
-0.0501595

>  <SCORE.RESTR>
0.978238

>  <SCORE.RESTR.CAVITY>
0.978238

>  <SCORE.RESTR.norm>
0.0376245

>  <SCORE.SYSTEM>
0

>  <SCORE.SYSTEM.CONST>
0

>  <SCORE.SYSTEM.DIHEDRAL>
0

>  <SCORE.SYSTEM.SOLV>
0

>  <SCORE.SYSTEM.norm>
0

>  <SCORE.heavy>
26

>  <SCORE.norm>
-0.133051

>  <RMSD>
23.701

$$$$
ligand
 OpenBabel11021811473D
libRbt.so/2013.1/901 2013/11/27
 26 28  0  0  0  0  0  0  0  0999 V2000
    7.6725    3.2762  -14.6843 N   0  0  0  0  0  0  0  0  0  0  0  0
    6.8494    4.4444  -15.0210 C   0  0  2  0  0  0  0  0  0  0  0  0
    7.5777    5.2972  -16.0262 C   0  0  0  0  0  0  0  0  0  0  0  0
    8.7839    5.3709  -15.9965 O   0  0  0  0  0  0  0  0  0  0  0  0
    6.5830    5.2611  -13.7554 C   0  0  0  0  0  0  0  0  0  0  0  0
    7.9119    5.6762  -13.1267 C   0  0  0  0  0  0  0  0  0  0  0  0
    8.1320    5.6022  -11.4444 S   0  0  0  0  0  0  0  0  0  0  0  0
    9.4842    5.2997  -10.2778 C   0  0  0  0  0  0  0  0  0  0  0  0
   10.3143    4.0437  -10.5694 C   0  0  1  0  0  0  0  0  0  0  0  0
    9.7830    2.8881   -9.9471 O   0  0  0  0  0  0  0  0  0  0  0  0
   10.2984    3.6798  -12.0353 C   0  0  1  0  0  0  0  0  0  0  0  0
   11.4678    2.9156  -12.2326 O   0  0  0  0  0  0  0  0  0  0  0  0
    9.1060    2.7671  -12.2036 C   0  0  1  0  0  0  0  0  0  0  0  0
    9.4359    1.7103  -13.0782 O   0  0  0  0  0  0  0  0  0  0  0  0
    8.8835    2.2187  -10.8107 C   0  0  2  0  0  0  0  0  0  0  0  0
    6.8877    5.9791  -16.9551 O   0  0  0  0  0  0  0  0  0  0  0  0
    5.7270    1.5755   -6.7074 N   0  0  0  0  0  0  0  0  0  0  0  0
    7.0295    1.1588   -6.8489 C   0  0  0  0  0  0  0  0  0  0  0  0
    7.6984    1.4132   -8.0219 N   0  0  0  0  0  0  0  0  0  0  0  0
    7.0920    2.0672   -9.0318 C   0  0  0  0  0  0  0  0  0  0  0  0
    5.7835    2.4957   -8.9102 C   0  0  0  0  0  0  0  0  0  0  0  0
    5.0969    2.2404   -7.7290 C   0  0  0  0  0  0  0  0  0  0  0  0
    3.8380    2.6304   -7.5714 N   0  0  0  0  0  0  0  0  0  0  0  0
    5.4323    3.1147  -10.0595 N   0  0  0  0  0  0  0  0  0  0  0  0
    6.4912    3.0883  -10.8920 C   0  0  0  0  0  0  0  0  0  0  0  0
    7.5263    2.4326  -10.2758 N   0  0  0  0  0  0  0  0  0  0  0  0
  2  1  1  1  0  0  0
  2  3  1  0  0  0  0
  2  5  1  0  0  0  0
  3  4  1  0  0  0  0
  3 16  1  0  0  0  0
  5  6  1  0  0  0  0
  6  7  1  0  0  0  0
  7  8  1  0  0  0  0
  9  8  1  6  0  0  0
  9 10  1  0  0  0  0
  9 11  1  0  0  0  0
 10 15  1  0  0  0  0
 11 12  1  1  0  0  0
 11 13  1  0  0  0  0
 13 14  1  6  0  0  0
 13 15  1  0  0  0  0
 15 26  1  1  0  0  0
 17 18  2  0  0  0  0
 17 22  1  0  0  0  0
 18 19  1  0  0  0  0
 19 20  2  0  0  0  0
 20 21  1  0  0  0  0
 20 26  1  0  0  0  0
 21 22  2  0  0  0  0
 21 24  1  0  0  0  0
 22 23  1  0  0  0  0
 24 25  2  0  0  0  0
 25 26  1  0  0  0  0
M  END
>  <CHROM.1>
-33.20663606,57.54023991,-138.08245845,148.42119931,-49.79627832,-88.59993323
-59.04506548,7.80778276,3.54650354,-11.41824374,1.33275488,0.14141801,-1.13967759

>  <Name>
ligand

>  <RI>
0

>  <Rbt.Current_Directory>
/home/itssahil/PROJECTS/Mol_Feturizer/New_Systems/rnas/3E5E

>  <Rbt.Executable>
rbdock ($Id: //depot/dev/client3/rdock/2013.1/src/exe/rbdock.cxx#4 $)

>  <Rbt.Library>
libRbt.so (2013.1, Build901 2013/11/27)

>  <Rbt.Parameter_File>
/export/apps/rDock/src/rDock_2013.1_src/data/scripts/dock_solv.prm

>  <Rbt.Receptor>
prm/blind_docking_20.prm

>  <SCORE>
-3.3435

>  <SCORE.INTER>
-7.98893

>  <SCORE.INTER.CONST>
1

>  <SCORE.INTER.POLAR>
0

>  <SCORE.INTER.ROT>
7

>  <SCORE.INTER.SOLV>
11.9069

>  <SCORE.INTER.VDW>
-17.5616

>  <SCORE.INTER.norm>
-0.307267

>  <SCORE.INTRA>
2.05714

>  <SCORE.INTRA.DIHEDRAL>
0.793269

>  <SCORE.INTRA.DIHEDRAL.0>
10.1225

>  <SCORE.INTRA.POLAR>
0

>  <SCORE.INTRA.POLAR.0>
0

>  <SCORE.INTRA.REPUL>
0

>  <SCORE.INTRA.REPUL.0>
0

>  <SCORE.INTRA.SOLV>
4.11821

>  <SCORE.INTRA.SOLV.lig_0>
-49.9393

>  <SCORE.INTRA.VDW>
-0.398593

>  <SCORE.INTRA.VDW.0>
-1.75437

>  <SCORE.INTRA.norm>
0.079121

>  <SCORE.RESTR>
2.58829

>  <SCORE.RESTR.CAVITY>
2.58829

>  <SCORE.RESTR.norm>
0.0995495

>  <SCORE.SYSTEM>
0

>  <SCORE.SYSTEM.CONST>
0

>  <SCORE.SYSTEM.DIHEDRAL>
0

>  <SCORE.SYSTEM.SOLV>
0

>  <SCORE.SYSTEM.norm>
0

>  <SCORE.heavy>
26

>  <SCORE.norm>
-0.128596

>  <RMSD>
23.754

$$$$
ligand
 OpenBabel11021811473D
libRbt.so/2013.1/901 2013/11/27
 26 28  0  0  0  0  0  0  0  0999 V2000
   10.1019    5.1709  -15.9566 N   0  0  0  0  0  0  0  0  0  0  0  0
    9.3299    5.2660  -14.7114 C   0  0  2  0  0  0  0  0  0  0  0  0
    7.8766    4.9982  -15.0014 C   0  0  0  0  0  0  0  0  0  0  0  0
    7.1076    4.7850  -14.0935 O   0  0  0  0  0  0  0  0  0  0  0  0
    9.4835    6.6697  -14.1233 C   0  0  0  0  0  0  0  0  0  0  0  0
    8.8608    6.7097  -12.7289 C   0  0  0  0  0  0  0  0  0  0  0  0
    9.7261    6.1474  -11.3802 S   0  0  0  0  0  0  0  0  0  0  0  0
    9.6357    4.7743  -10.2022 C   0  0  0  0  0  0  0  0  0  0  0  0
   10.0280    3.4081  -10.7779 C   0  0  1  0  0  0  0  0  0  0  0  0
    9.2203    2.3585  -10.2772 O   0  0  0  0  0  0  0  0  0  0  0  0
    9.7994    3.3331  -12.2690 C   0  0  1  0  0  0  0  0  0  0  0  0
   10.6688    2.3171  -12.7191 O   0  0  0  0  0  0  0  0  0  0  0  0
    8.3794    2.8416  -12.4275 C   0  0  1  0  0  0  0  0  0  0  0  0
    8.3142    1.9095  -13.4848 O   0  0  0  0  0  0  0  0  0  0  0  0
    8.1025    2.1379  -11.1166 C   0  0  2  0  0  0  0  0  0  0  0  0
    7.4337    4.9933  -16.2694 O   0  0  0  0  0  0  0  0  0  0  0  0
    5.3717    1.9202   -6.6771 N   0  0  0  0  0  0  0  0  0  0  0  0
    6.5011    1.2123   -7.0135 C   0  0  0  0  0  0  0  0  0  0  0  0
    7.0754    1.3997   -8.2477 N   0  0  0  0  0  0  0  0  0  0  0  0
    6.5444    2.2699   -9.1286 C   0  0  0  0  0  0  0  0  0  0  0  0
    5.4099    2.9925   -8.8104 C   0  0  0  0  0  0  0  0  0  0  0  0
    4.8193    2.8079   -7.5658 C   0  0  0  0  0  0  0  0  0  0  0  0
    3.7268    3.4780   -7.2208 N   0  0  0  0  0  0  0  0  0  0  0  0
    5.0994    3.7791   -9.8650 N   0  0  0  0  0  0  0  0  0  0  0  0
    6.0157    3.5695  -10.8302 C   0  0  0  0  0  0  0  0  0  0  0  0
    6.9135    2.6282  -10.3956 N   0  0  0  0  0  0  0  0  0  0  0  0
  2  1  1  6  0  0  0
  2  3  1  0  0  0  0
  2  5  1  0  0  0  0
  3  4  1  0  0  0  0
  3 16  1  0  0  0  0
  5  6  1  0  0  0  0
  6  7  1  0  0  0  0
  7  8  1  0  0  0  0
  9  8  1  1  0  0  0
  9 10  1  0  0  0  0
  9 11  1  0  0  0  0
 10 15  1  0  0  0  0
 11 12  1  6  0  0  0
 11 13  1  0  0  0  0
 13 14  1  6  0  0  0
 13 15  1  0  0  0  0
 15 26  1  1  0  0  0
 17 18  2  0  0  0  0
 17 22  1  0  0  0  0
 18 19  1  0  0  0  0
 19 20  2  0  0  0  0
 20 21  1  0  0  0  0
 20 26  1  0  0  0  0
 21 22  2  0  0  0  0
 21 24  1  0  0  0  0
 22 23  1  0  0  0  0
 24 25  2  0  0  0  0
 25 26  1  0  0  0  0
M  END
>  <CHROM.1>
166.44276385,-171.47695788,81.68961212,-112.05008722,72.48373853,-141.90462371
-52.92144570,7.89970572,3.74719197,-11.37766349,1.09071602,0.24932549,-1.03538864

>  <Name>
ligand

>  <RI>
0

>  <Rbt.Current_Directory>
/home/itssahil/PROJECTS/Mol_Feturizer/New_Systems/rnas/3E5E

>  <Rbt.Executable>
rbdock ($Id: //depot/dev/client3/rdock/2013.1/src/exe/rbdock.cxx#4 $)

>  <Rbt.Library>
libRbt.so (2013.1, Build901 2013/11/27)

>  <Rbt.Parameter_File>
/export/apps/rDock/src/rDock_2013.1_src/data/scripts/dock_solv.prm

>  <Rbt.Receptor>
prm/blind_docking_20.prm

>  <SCORE>
-7.36035

>  <SCORE.INTER>
-7.96187

>  <SCORE.INTER.CONST>
1

>  <SCORE.INTER.POLAR>
0

>  <SCORE.INTER.ROT>
7

>  <SCORE.INTER.SOLV>
10.8945

>  <SCORE.INTER.VDW>
-17.2061

>  <SCORE.INTER.norm>
-0.306226

>  <SCORE.INTRA>
-0.7067

>  <SCORE.INTRA.DIHEDRAL>
0.712528

>  <SCORE.INTRA.DIHEDRAL.0>
10.1225

>  <SCORE.INTRA.POLAR>
0

>  <SCORE.INTRA.POLAR.0>
0

>  <SCORE.INTRA.REPUL>
0

>  <SCORE.INTRA.REPUL.0>
0

>  <SCORE.INTRA.SOLV>
0.637457

>  <SCORE.INTRA.SOLV.lig_0>
-49.9393

>  <SCORE.INTRA.VDW>
-1.38169

>  <SCORE.INTRA.VDW.0>
-1.75437

>  <SCORE.INTRA.norm>
-0.0271808

>  <SCORE.RESTR>
1.30822

>  <SCORE.RESTR.CAVITY>
1.30822

>  <SCORE.RESTR.norm>
0.0503162

>  <SCORE.SYSTEM>
0

>  <SCORE.SYSTEM.CONST>
0

>  <SCORE.SYSTEM.DIHEDRAL>
0

>  <SCORE.SYSTEM.SOLV>
0

>  <SCORE.SYSTEM.norm>
0

>  <SCORE.heavy>
26

>  <SCORE.norm>
-0.28309

>  <RMSD>
23.758

$$$$
ligand
 OpenBabel11021811473D
libRbt.so/2013.1/901 2013/11/27
 26 28  0  0  0  0  0  0  0  0999 V2000
    7.4187    5.2476  -15.0681 N   0  0  0  0  0  0  0  0  0  0  0  0
    8.3947    6.3234  -15.2817 C   0  0  2  0  0  0  0  0  0  0  0  0
    9.7371    5.7242  -15.6091 C   0  0  0  0  0  0  0  0  0  0  0  0
   10.4767    6.2835  -16.3844 O   0  0  0  0  0  0  0  0  0  0  0  0
    8.5080    7.1675  -14.0111 C   0  0  0  0  0  0  0  0  0  0  0  0
    9.1271    6.3285  -12.8946 C   0  0  0  0  0  0  0  0  0  0  0  0
    8.4355    4.8440  -12.4449 S   0  0  0  0  0  0  0  0  0  0  0  0
    8.3661    3.1475  -13.0760 C   0  0  0  0  0  0  0  0  0  0  0  0
    9.2030    2.1342  -12.2858 C   0  0  1  0  0  0  0  0  0  0  0  0
    9.0018    2.2398  -10.8882 O   0  0  0  0  0  0  0  0  0  0  0  0
    8.7986    0.7094  -12.5820 C   0  0  1  0  0  0  0  0  0  0  0  0
    9.9336   -0.0646  -12.2607 O   0  0  0  0  0  0  0  0  0  0  0  0
    7.7126    0.3900  -11.5812 C   0  0  1  0  0  0  0  0  0  0  0  0
    7.8829   -0.9248  -11.0984 O   0  0  0  0  0  0  0  0  0  0  0  0
    7.9656    1.3757  -10.4611 C   0  0  2  0  0  0  0  0  0  0  0  0
   10.1128    4.5661  -15.0419 O   0  0  0  0  0  0  0  0  0  0  0  0
    4.4765    2.5911   -6.7783 N   0  0  0  0  0  0  0  0  0  0  0  0
    5.4541    1.6255   -6.7347 C   0  0  0  0  0  0  0  0  0  0  0  0
    6.2769    1.4451   -7.8203 N   0  0  0  0  0  0  0  0  0  0  0  0
    6.1363    2.2050   -8.9239 C   0  0  0  0  0  0  0  0  0  0  0  0
    5.1607    3.1820   -8.9886 C   0  0  0  0  0  0  0  0  0  0  0  0
    4.3210    3.3703   -7.8971 C   0  0  0  0  0  0  0  0  0  0  0  0
    3.3683    4.2943   -7.9181 N   0  0  0  0  0  0  0  0  0  0  0  0
    5.2438    3.7840  -10.1961 N   0  0  0  0  0  0  0  0  0  0  0  0
    6.2509    3.2108  -10.8834 C   0  0  0  0  0  0  0  0  0  0  0  0
    6.8089    2.2216  -10.1144 N   0  0  0  0  0  0  0  0  0  0  0  0
  2  1  1  1  0  0  0
  2  3  1  0  0  0  0
  2  5  1  0  0  0  0
  3  4  1  0  0  0  0
  3 16  1  0  0  0  0
  5  6  1  0  0  0  0
  6  7  1  0  0  0  0
  7  8  1  0  0  0  0
  9  8  1  6  0  0  0
  9 10  1  0  0  0  0
  9 11  1  0  0  0  0
 10 15  1  0  0  0  0
 11 12  1  1  0  0  0
 11 13  1  0  0  0  0
 13 14  1  1  0  0  0
 13 15  1  0  0  0  0
 15 26  1  6  0  0  0
 17 18  2  0  0  0  0
 17 22  1  0  0  0  0
 18 19  1  0  0  0  0
 19 20  2  0  0  0  0
 20 21  1  0  0  0  0
 20 26  1  0  0  0  0
 21 22  2  0  0  0  0
 21 24  1  0  0  0  0
 22 23  1  0  0  0  0
 24 25  2  0  0  0  0
 25 26  1  0  0  0  0
M  END
>  <CHROM.1>
145.48360685,66.77344093,-55.26165662,76.66086346,107.32496464,47.41997952
-126.18434364,7.61201027,3.27973959,-11.56350031,0.80039300,0.82909876,-0.48158765

>  <Name>
ligand

>  <RI>
0

>  <Rbt.Current_Directory>
/home/itssahil/PROJECTS/Mol_Feturizer/New_Systems/rnas/3E5E

>  <Rbt.Executable>
rbdock ($Id: //depot/dev/client3/rdock/2013.1/src/exe/rbdock.cxx#4 $)

>  <Rbt.Library>
libRbt.so (2013.1, Build901 2013/11/27)

>  <Rbt.Parameter_File>
/export/apps/rDock/src/rDock_2013.1_src/data/scripts/dock_solv.prm

>  <Rbt.Receptor>
prm/blind_docking_20.prm

>  <SCORE>
-0.462434

>  <SCORE.INTER>
-2.12337

>  <SCORE.INTER.CONST>
1

>  <SCORE.INTER.POLAR>
0

>  <SCORE.INTER.ROT>
7

>  <SCORE.INTER.SOLV>
11.0667

>  <SCORE.INTER.VDW>
-13.3711

>  <SCORE.INTER.norm>
-0.0816681

>  <SCORE.INTRA>
-0.310795

>  <SCORE.INTRA.DIHEDRAL>
-4.01613

>  <SCORE.INTRA.DIHEDRAL.0>
10.1225

>  <SCORE.INTRA.POLAR>
0

>  <SCORE.INTRA.POLAR.0>
0

>  <SCORE.INTRA.REPUL>
0

>  <SCORE.INTRA.REPUL.0>
0

>  <SCORE.INTRA.SOLV>
2.80343

>  <SCORE.INTRA.SOLV.lig_0>
-49.9393

>  <SCORE.INTRA.VDW>
0.295557

>  <SCORE.INTRA.VDW.0>
-1.75437

>  <SCORE.INTRA.norm>
-0.0119537

>  <SCORE.RESTR>
1.97173

>  <SCORE.RESTR.CAVITY>
1.97173

>  <SCORE.RESTR.norm>
0.0758359

>  <SCORE.SYSTEM>
0

>  <SCORE.SYSTEM.CONST>
0

>  <SCORE.SYSTEM.DIHEDRAL>
0

>  <SCORE.SYSTEM.SOLV>
0

>  <SCORE.SYSTEM.norm>
0

>  <SCORE.heavy>
26

>  <SCORE.norm>
-0.0177859

>  <RMSD>
23.783

$$$$
ligand
 OpenBabel11021811473D
libRbt.so/2013.1/901 2013/11/27
 26 28  0  0  0  0  0  0  0  0999 V2000
    7.6187    3.2071  -14.6571 N   0  0  0  0  0  0  0  0  0  0  0  0
    7.5947    4.6667  -14.8138 C   0  0  2  0  0  0  0  0  0  0  0  0
    7.0530    5.0154  -16.1751 C   0  0  0  0  0  0  0  0  0  0  0  0
    7.1430    4.2231  -17.0834 O   0  0  0  0  0  0  0  0  0  0  0  0
    9.0148    5.2172  -14.6724 C   0  0  0  0  0  0  0  0  0  0  0  0
    8.9807    6.5175  -13.8714 C   0  0  0  0  0  0  0  0  0  0  0  0
    9.2062    6.5012  -12.1883 S   0  0  0  0  0  0  0  0  0  0  0  0
    9.0231    5.3298  -10.8188 C   0  0  0  0  0  0  0  0  0  0  0  0
    9.9477    4.1086  -10.8911 C   0  0  1  0  0  0  0  0  0  0  0  0
    9.5872    3.1019   -9.9629 O   0  0  0  0  0  0  0  0  0  0  0  0
    9.8481    3.3984  -12.2205 C   0  0  1  0  0  0  0  0  0  0  0  0
   11.0678    2.7018  -12.3526 O   0  0  0  0  0  0  0  0  0  0  0  0
    8.7430    2.3830  -12.0450 C   0  0  1  0  0  0  0  0  0  0  0  0
    9.1039    1.1737  -12.6757 O   0  0  0  0  0  0  0  0  0  0  0  0
    8.6913    2.1750  -10.5468 C   0  0  2  0  0  0  0  0  0  0  0  0
    6.4717    6.2084  -16.3821 O   0  0  0  0  0  0  0  0  0  0  0  0
    5.6682    1.3503   -6.3761 N   0  0  0  0  0  0  0  0  0  0  0  0
    6.9422    0.8870   -6.6050 C   0  0  0  0  0  0  0  0  0  0  0  0
    7.5768    1.2037   -7.7818 N   0  0  0  0  0  0  0  0  0  0  0  0
    6.9647    1.9637   -8.7107 C   0  0  0  0  0  0  0  0  0  0  0  0
    5.6845    2.4406   -8.5006 C   0  0  0  0  0  0  0  0  0  0  0  0
    5.0323    2.1232   -7.3149 C   0  0  0  0  0  0  0  0  0  0  0  0
    3.8012    2.5567   -7.0739 N   0  0  0  0  0  0  0  0  0  0  0  0
    5.3199    3.1653   -9.5819 N   0  0  0  0  0  0  0  0  0  0  0  0
    6.3432    3.1571  -10.4582 C   0  0  0  0  0  0  0  0  0  0  0  0
    7.3679    2.4074   -9.9397 N   0  0  0  0  0  0  0  0  0  0  0  0
  2  1  1  6  0  0  0
  2  3  1  0  0  0  0
  2  5  1  0  0  0  0
  3  4  1  0  0  0  0
  3 16  1  0  0  0  0
  5  6  1  0  0  0  0
  6  7  1  0  0  0  0
  7  8  1  0  0  0  0
  9  8  1  6  0  0  0
  9 10  1  0  0  0  0
  9 11  1  0  0  0  0
 10 15  1  0  0  0  0
 11 12  1  1  0  0  0
 11 13  1  0  0  0  0
 13 14  1  6  0  0  0
 13 15  1  0  0  0  0
 15 26  1  1  0  0  0
 17 18  2  0  0  0  0
 17 22  1  0  0  0  0
 18 19  1  0  0  0  0
 19 20  2  0  0  0  0
 20 21  1  0  0  0  0
 20 26  1  0  0  0  0
 21 22  2  0  0  0  0
 21 24  1  0  0  0  0
 22 23  1  0  0  0  0
 24 25  2  0  0  0  0
 25 26  1  0  0  0  0
M  END
>  <CHROM.1>
-25.10475696,-139.85880637,92.93433067,-23.53328767,63.72721633,-168.08370693
-79.31970191,7.81031088,3.53260762,-11.44554659,1.31998800,0.02037654,-1.14547159

>  <Name>
ligand

>  <RI>
0

>  <Rbt.Current_Directory>
/home/itssahil/PROJECTS/Mol_Feturizer/New_Systems/rnas/3E5E

>  <Rbt.Executable>
rbdock ($Id: //depot/dev/client3/rdock/2013.1/src/exe/rbdock.cxx#4 $)

>  <Rbt.Library>
libRbt.so (2013.1, Build901 2013/11/27)

>  <Rbt.Parameter_File>
/export/apps/rDock/src/rDock_2013.1_src/data/scripts/dock_solv.prm

>  <Rbt.Receptor>
prm/blind_docking_20.prm

>  <SCORE>
-6.42874

>  <SCORE.INTER>
-8.50638

>  <SCORE.INTER.CONST>
1

>  <SCORE.INTER.POLAR>
0

>  <SCORE.INTER.ROT>
7

>  <SCORE.INTER.SOLV>
13.1252

>  <SCORE.INTER.VDW>
-18.3126

>  <SCORE.INTER.norm>
-0.327168

>  <SCORE.INTRA>
0.853949

>  <SCORE.INTRA.DIHEDRAL>
2.1964

>  <SCORE.INTRA.DIHEDRAL.0>
10.1225

>  <SCORE.INTRA.POLAR>
0

>  <SCORE.INTRA.POLAR.0>
0

>  <SCORE.INTRA.REPUL>
0

>  <SCORE.INTRA.REPUL.0>
0

>  <SCORE.INTRA.SOLV>
3.22176

>  <SCORE.INTRA.SOLV.lig_0>
-49.9393

>  <SCORE.INTRA.VDW>
-1.85513

>  <SCORE.INTRA.VDW.0>
-1.75437

>  <SCORE.INTRA.norm>
0.0328442

>  <SCORE.RESTR>
1.22368

>  <SCORE.RESTR.CAVITY>
1.22368

>  <SCORE.RESTR.norm>
0.0470647

>  <SCORE.SYSTEM>
0

>  <SCORE.SYSTEM.CONST>
0

>  <SCORE.SYSTEM.DIHEDRAL>
0

>  <SCORE.SYSTEM.SOLV>
0

>  <SCORE.SYSTEM.norm>
0

>  <SCORE.heavy>
26

>  <SCORE.norm>
-0.247259

>  <RMSD>
23.797

$$$$
ligand
 OpenBabel11021811473D
libRbt.so/2013.1/901 2013/11/27
 26 28  0  0  0  0  0  0  0  0999 V2000
    9.0169    6.9838  -16.5567 N   0  0  0  0  0  0  0  0  0  0  0  0
    8.8342    5.6049  -16.0866 C   0  0  2  0  0  0  0  0  0  0  0  0
    7.3656    5.2719  -16.0700 C   0  0  0  0  0  0  0  0  0  0  0  0
    6.5539    6.0969  -16.4188 O   0  0  0  0  0  0  0  0  0  0  0  0
    9.4051    5.4690  -14.6740 C   0  0  0  0  0  0  0  0  0  0  0  0
    8.7346    6.4864  -13.7526 C   0  0  0  0  0  0  0  0  0  0  0  0
    9.0218    6.4567  -12.0790 S   0  0  0  0  0  0  0  0  0  0  0  0
    8.9633    5.2533  -10.7264 C   0  0  0  0  0  0  0  0  0  0  0  0
    9.8301    4.0063  -10.9390 C   0  0  1  0  0  0  0  0  0  0  0  0
    9.4565    2.9370  -10.0894 O   0  0  0  0  0  0  0  0  0  0  0  0
    9.6550    3.4215  -12.3206 C   0  0  1  0  0  0  0  0  0  0  0  0
   10.8377    2.6898  -12.5580 O   0  0  0  0  0  0  0  0  0  0  0  0
    8.5125    2.4409  -12.1935 C   0  0  1  0  0  0  0  0  0  0  0  0
    8.7985    1.2784  -12.9402 O   0  0  0  0  0  0  0  0  0  0  0  0
    8.5016    2.1031  -10.7183 C   0  0  2  0  0  0  0  0  0  0  0  0
    6.9558    4.0586  -15.6650 O   0  0  0  0  0  0  0  0  0  0  0  0
    5.7388    1.3849   -6.3519 N   0  0  0  0  0  0  0  0  0  0  0  0
    7.0067    0.9359   -6.6367 C   0  0  0  0  0  0  0  0  0  0  0  0
    7.5666    1.2186   -7.8592 N   0  0  0  0  0  0  0  0  0  0  0  0
    6.8873    1.9315   -8.7788 C   0  0  0  0  0  0  0  0  0  0  0  0
    5.6119    2.3932   -8.5128 C   0  0  0  0  0  0  0  0  0  0  0  0
    5.0351    2.1099   -7.2803 C   0  0  0  0  0  0  0  0  0  0  0  0
    3.8113    2.5303   -6.9848 N   0  0  0  0  0  0  0  0  0  0  0  0
    5.1717    3.0694   -9.5974 N   0  0  0  0  0  0  0  0  0  0  0  0
    6.1432    3.0460  -10.5305 C   0  0  0  0  0  0  0  0  0  0  0  0
    7.2107    2.3350  -10.0446 N   0  0  0  0  0  0  0  0  0  0  0  0
  2  1  1  1  0  0  0
  2  3  1  0  0  0  0
  2  5  1  0  0  0  0
  3  4  1  0  0  0  0
  3 16  1  0  0  0  0
  5  6  1  0  0  0  0
  6  7  1  0  0  0  0
  7  8  1  0  0  0  0
  9  8  1  6  0  0  0
  9 10  1  0  0  0  0
  9 11  1  0  0  0  0
 10 15  1  0  0  0  0
 11 12  1  1  0  0  0
 11 13  1  0  0  0  0
 13 14  1  6  0  0  0
 13 15  1  0  0  0  0
 15 26  1  1  0  0  0
 17 18  2  0  0  0  0
 17 22  1  0  0  0  0
 18 19  1  0  0  0  0
 19 20  2  0  0  0  0
 20 21  1  0  0  0  0
 20 26  1  0  0  0  0
 21 22  2  0  0  0  0
 21 24  1  0  0  0  0
 22 23  1  0  0  0  0
 24 25  2  0  0  0  0
 25 26  1  0  0  0  0
M  END
>  <CHROM.1>
0.25032721,56.63259330,172.60463918,-52.01780136,56.35267235,-162.04124075
-71.19113362,7.82683854,3.68742245,-11.53076856,1.28475229,0.18114629,-1.04318554

>  <Name>
ligand

>  <RI>
0

>  <Rbt.Current_Directory>
/home/itssahil/PROJECTS/Mol_Feturizer/New_Systems/rnas/3E5E

>  <Rbt.Executable>
rbdock ($Id: //depot/dev/client3/rdock/2013.1/src/exe/rbdock.cxx#4 $)

>  <Rbt.Library>
libRbt.so (2013.1, Build901 2013/11/27)

>  <Rbt.Parameter_File>
/export/apps/rDock/src/rDock_2013.1_src/data/scripts/dock_solv.prm

>  <Rbt.Receptor>
prm/blind_docking_20.prm

>  <SCORE>
-11.5034

>  <SCORE.INTER>
-10.4082

>  <SCORE.INTER.CONST>
1

>  <SCORE.INTER.POLAR>
0

>  <SCORE.INTER.ROT>
7

>  <SCORE.INTER.SOLV>
10.3584

>  <SCORE.INTER.VDW>
-18.6583

>  <SCORE.INTER.norm>
-0.400316

>  <SCORE.INTRA>
-2.83184

>  <SCORE.INTRA.DIHEDRAL>
-6.04483

>  <SCORE.INTRA.DIHEDRAL.0>
10.1225

>  <SCORE.INTRA.POLAR>
0

>  <SCORE.INTRA.POLAR.0>
0

>  <SCORE.INTRA.REPUL>
0

>  <SCORE.INTRA.REPUL.0>
0

>  <SCORE.INTRA.SOLV>
0.487466

>  <SCORE.INTRA.SOLV.lig_0>
-49.9393

>  <SCORE.INTRA.VDW>
-0.0531569

>  <SCORE.INTRA.VDW.0>
-1.75437

>  <SCORE.INTRA.norm>
-0.108917

>  <SCORE.RESTR>
1.73662

>  <SCORE.RESTR.CAVITY>
1.73662

>  <SCORE.RESTR.norm>
0.066793

>  <SCORE.SYSTEM>
0

>  <SCORE.SYSTEM.CONST>
0

>  <SCORE.SYSTEM.DIHEDRAL>
0

>  <SCORE.SYSTEM.SOLV>
0

>  <SCORE.SYSTEM.norm>
0

>  <SCORE.heavy>
26

>  <SCORE.norm>
-0.44244

>  <RMSD>
23.804

$$$$
ligand
 OpenBabel11021811473D
libRbt.so/2013.1/901 2013/11/27
 26 28  0  0  0  0  0  0  0  0999 V2000
    6.6323    6.1019  -15.5277 N   0  0  0  0  0  0  0  0  0  0  0  0
    8.0741    5.8381  -15.6138 C   0  0  2  0  0  0  0  0  0  0  0  0
    8.3912    4.5507  -14.8997 C   0  0  0  0  0  0  0  0  0  0  0  0
    7.4974    3.8129  -14.5565 O   0  0  0  0  0  0  0  0  0  0  0  0
    8.8418    6.9880  -14.9595 C   0  0  0  0  0  0  0  0  0  0  0  0
    8.4788    7.0661  -13.4777 C   0  0  0  0  0  0  0  0  0  0  0  0
    9.1682    5.9876  -12.3616 S   0  0  0  0  0  0  0  0  0  0  0  0
    8.6072    4.7269  -11.1881 C   0  0  0  0  0  0  0  0  0  0  0  0
    9.4243    3.4292  -11.2012 C   0  0  1  0  0  0  0  0  0  0  0  0
    9.0873    2.5674  -10.1295 O   0  0  0  0  0  0  0  0  0  0  0  0
    9.1334    2.5869  -12.4208 C   0  0  1  0  0  0  0  0  0  0  0  0
   10.2765    1.7763  -12.5836 O   0  0  0  0  0  0  0  0  0  0  0  0
    7.9789    1.6976  -12.0215 C   0  0  1  0  0  0  0  0  0  0  0  0
    8.1798    0.3988  -12.5346 O   0  0  0  0  0  0  0  0  0  0  0  0
    8.0680    1.6629  -10.5111 C   0  0  2  0  0  0  0  0  0  0  0  0
    9.6676    4.2220  -14.6409 O   0  0  0  0  0  0  0  0  0  0  0  0
    5.4508    1.5916   -5.9989 N   0  0  0  0  0  0  0  0  0  0  0  0
    6.6567    0.9987   -6.2892 C   0  0  0  0  0  0  0  0  0  0  0  0
    7.1847    1.1204   -7.5520 N   0  0  0  0  0  0  0  0  0  0  0  0
    6.5342    1.8151   -8.5057 C   0  0  0  0  0  0  0  0  0  0  0  0
    5.3212    2.4198   -8.2349 C   0  0  0  0  0  0  0  0  0  0  0  0
    4.7768    2.2999   -6.9616 C   0  0  0  0  0  0  0  0  0  0  0  0
    3.6125    2.8611   -6.6597 N   0  0  0  0  0  0  0  0  0  0  0  0
    4.8976    3.0408   -9.3584 N   0  0  0  0  0  0  0  0  0  0  0  0
    5.8194    2.8435  -10.3210 C   0  0  0  0  0  0  0  0  0  0  0  0
    6.8364    2.0759   -9.8135 N   0  0  0  0  0  0  0  0  0  0  0  0
  2  1  1  1  0  0  0
  2  3  1  0  0  0  0
  2  5  1  0  0  0  0
  3  4  1  0  0  0  0
  3 16  1  0  0  0  0
  5  6  1  0  0  0  0
  6  7  1  0  0  0  0
  7  8  1  0  0  0  0
  9  8  1  6  0  0  0
  9 10  1  0  0  0  0
  9 11  1  0  0  0  0
 10 15  1  0  0  0  0
 11 12  1  1  0  0  0
 11 13  1  0  0  0  0
 13 14  1  6  0  0  0
 13 15  1  0  0  0  0
 15 26  1  1  0  0  0
 17 18  2  0  0  0  0
 17 22  1  0  0  0  0
 18 19  1  0  0  0  0
 19 20  2  0  0  0  0
 20 21  1  0  0  0  0
 20 26  1  0  0  0  0
 21 22  2  0  0  0  0
 21 24  1  0  0  0  0
 22 23  1  0  0  0  0
 24 25  2  0  0  0  0
 25 26  1  0  0  0  0
M  END
>  <CHROM.1>
11.60486479,62.48804625,78.45657753,-120.05064442,135.94395243,170.49077135
-78.92346398,7.62990209,3.39000547,-11.24222927,1.05325289,0.77159921,-0.72093739

>  <Name>
ligand

>  <RI>
0

>  <Rbt.Current_Directory>
/home/itssahil/PROJECTS/Mol_Feturizer/New_Systems/rnas/3E5E

>  <Rbt.Executable>
rbdock ($Id: //depot/dev/client3/rdock/2013.1/src/exe/rbdock.cxx#4 $)

>  <Rbt.Library>
libRbt.so (2013.1, Build901 2013/11/27)

>  <Rbt.Parameter_File>
/export/apps/rDock/src/rDock_2013.1_src/data/scripts/dock_solv.prm

>  <Rbt.Receptor>
prm/blind_docking_20.prm

>  <SCORE>
-4.74823

>  <SCORE.INTER>
-5.46463

>  <SCORE.INTER.CONST>
1

>  <SCORE.INTER.POLAR>
0

>  <SCORE.INTER.ROT>
7

>  <SCORE.INTER.SOLV>
10.2556

>  <SCORE.INTER.VDW>
-15.3283

>  <SCORE.INTER.norm>
-0.210178

>  <SCORE.INTRA>
-0.801587

>  <SCORE.INTRA.DIHEDRAL>
-1.60865

>  <SCORE.INTRA.DIHEDRAL.0>
10.1225

>  <SCORE.INTRA.POLAR>
0

>  <SCORE.INTRA.POLAR.0>
0

>  <SCORE.INTRA.REPUL>
0

>  <SCORE.INTRA.REPUL.0>
0

>  <SCORE.INTRA.SOLV>
0.807317

>  <SCORE.INTRA.SOLV.lig_0>
-49.9393

>  <SCORE.INTRA.VDW>
-0.400922

>  <SCORE.INTRA.VDW.0>
-1.75437

>  <SCORE.INTRA.norm>
-0.0308303

>  <SCORE.RESTR>
1.51799

>  <SCORE.RESTR.CAVITY>
1.51799

>  <SCORE.RESTR.norm>
0.0583843

>  <SCORE.SYSTEM>
0

>  <SCORE.SYSTEM.CONST>
0

>  <SCORE.SYSTEM.DIHEDRAL>
0

>  <SCORE.SYSTEM.SOLV>
0

>  <SCORE.SYSTEM.norm>
0

>  <SCORE.heavy>
26

>  <SCORE.norm>
-0.182624

>  <RMSD>
23.808

$$$$
ligand
 OpenBabel11021811473D
libRbt.so/2013.1/901 2013/11/27
 26 28  0  0  0  0  0  0  0  0999 V2000
    9.1031    7.0363  -16.5422 N   0  0  0  0  0  0  0  0  0  0  0  0
    8.9459    5.6277  -16.1594 C   0  0  2  0  0  0  0  0  0  0  0  0
    7.4963    5.2359  -16.2751 C   0  0  0  0  0  0  0  0  0  0  0  0
    7.1608    4.3834  -17.0636 O   0  0  0  0  0  0  0  0  0  0  0  0
    9.4129    5.4376  -14.7153 C   0  0  0  0  0  0  0  0  0  0  0  0
    8.7701    6.5011  -13.8268 C   0  0  0  0  0  0  0  0  0  0  0  0
    8.9859    6.4652  -12.1427 S   0  0  0  0  0  0  0  0  0  0  0  0
    8.8909    5.2521  -10.8010 C   0  0  0  0  0  0  0  0  0  0  0  0
    9.7894    4.0227  -10.9826 C   0  0  1  0  0  0  0  0  0  0  0  0
    9.4374    2.9626  -10.1124 O   0  0  0  0  0  0  0  0  0  0  0  0
    9.6367    3.4048  -12.3524 C   0  0  1  0  0  0  0  0  0  0  0  0
   10.8384    2.6978  -12.5680 O   0  0  0  0  0  0  0  0  0  0  0  0
    8.5180    2.3991  -12.2105 C   0  0  1  0  0  0  0  0  0  0  0  0
    8.8369    1.2286  -12.9309 O   0  0  0  0  0  0  0  0  0  0  0  0
    8.5069    2.0923  -10.7285 C   0  0  2  0  0  0  0  0  0  0  0  0
    6.5742    5.8353  -15.5041 O   0  0  0  0  0  0  0  0  0  0  0  0
    5.7686    1.4851   -6.3300 N   0  0  0  0  0  0  0  0  0  0  0  0
    7.0537    1.0731   -6.5926 C   0  0  0  0  0  0  0  0  0  0  0  0
    7.6037    1.3161   -7.8281 N   0  0  0  0  0  0  0  0  0  0  0  0
    6.8979    1.9543   -8.7819 C   0  0  0  0  0  0  0  0  0  0  0  0
    5.6048    2.3778   -8.5388 C   0  0  0  0  0  0  0  0  0  0  0  0
    5.0379    2.1340   -7.2933 C   0  0  0  0  0  0  0  0  0  0  0  0
    3.7980    2.5198   -7.0186 N   0  0  0  0  0  0  0  0  0  0  0  0
    5.1397    2.9806   -9.6557 N   0  0  0  0  0  0  0  0  0  0  0  0
    6.1128    2.9490  -10.5870 C   0  0  0  0  0  0  0  0  0  0  0  0
    7.2069    2.3062  -10.0667 N   0  0  0  0  0  0  0  0  0  0  0  0
  2  1  1  1  0  0  0
  2  3  1  0  0  0  0
  2  5  1  0  0  0  0
  3  4  1  0  0  0  0
  3 16  1  0  0  0  0
  5  6  1  0  0  0  0
  6  7  1  0  0  0  0
  7  8  1  0  0  0  0
  9  8  1  6  0  0  0
  9 10  1  0  0  0  0
  9 11  1  0  0  0  0
 10 15  1  0  0  0  0
 11 12  1  1  0  0  0
 11 13  1  0  0  0  0
 13 14  1  6  0  0  0
 13 15  1  0  0  0  0
 15 26  1  1  0  0  0
 17 18  2  0  0  0  0
 17 22  1  0  0  0  0
 18 19  1  0  0  0  0
 19 20  2  0  0  0  0
 20 21  1  0  0  0  0
 20 26  1  0  0  0  0
 21 22  2  0  0  0  0
 21 24  1  0  0  0  0
 22 23  1  0  0  0  0
 24 25  2  0  0  0  0
 25 26  1  0  0  0  0
M  END
>  <CHROM.1>
116.93362465,49.06117949,174.46035807,-47.38860500,56.43789681,-164.76166054
-69.29009215,7.84413749,3.69415580,-11.58108435,1.28182801,0.18562508,-1.05826173

>  <Name>
ligand

>  <RI>
0

>  <Rbt.Current_Directory>
/home/itssahil/PROJECTS/Mol_Feturizer/New_Systems/rnas/3E5E

>  <Rbt.Executable>
rbdock ($Id: //depot/dev/client3/rdock/2013.1/src/exe/rbdock.cxx#4 $)

>  <Rbt.Library>
libRbt.so (2013.1, Build901 2013/11/27)

>  <Rbt.Parameter_File>
/export/apps/rDock/src/rDock_2013.1_src/data/scripts/dock_solv.prm

>  <Rbt.Receptor>
prm/blind_docking_20.prm

>  <SCORE>
-10.3892

>  <SCORE.INTER>
-9.76181

>  <SCORE.INTER.CONST>
1

>  <SCORE.INTER.POLAR>
0

>  <SCORE.INTER.ROT>
7

>  <SCORE.INTER.SOLV>
10.3971

>  <SCORE.INTER.VDW>
-18.2402

>  <SCORE.INTER.norm>
-0.375454

>  <SCORE.INTRA>
-2.31799

>  <SCORE.INTRA.DIHEDRAL>
-5.83843

>  <SCORE.INTRA.DIHEDRAL.0>
10.1225

>  <SCORE.INTRA.POLAR>
0

>  <SCORE.INTRA.POLAR.0>
0

>  <SCORE.INTRA.REPUL>
0

>  <SCORE.INTRA.REPUL.0>
0

>  <SCORE.INTRA.SOLV>
0.59638

>  <SCORE.INTRA.SOLV.lig_0>
-49.9393

>  <SCORE.INTRA.VDW>
0.30303

>  <SCORE.INTRA.VDW.0>
-1.75437

>  <SCORE.INTRA.norm>
-0.0891536

>  <SCORE.RESTR>
1.69059

>  <SCORE.RESTR.CAVITY>
1.69059

>  <SCORE.RESTR.norm>
0.0650226

>  <SCORE.SYSTEM>
0

>  <SCORE.SYSTEM.CONST>
0

>  <SCORE.SYSTEM.DIHEDRAL>
0

>  <SCORE.SYSTEM.SOLV>
0

>  <SCORE.SYSTEM.norm>
0

>  <SCORE.heavy>
26

>  <SCORE.norm>
-0.399585

>  <RMSD>
23.813

$$$$
ligand
 OpenBabel11021811473D
libRbt.so/2013.1/901 2013/11/27
 26 28  0  0  0  0  0  0  0  0999 V2000
    5.8955    5.9089  -15.0941 N   0  0  0  0  0  0  0  0  0  0  0  0
    7.3164    5.6392  -14.8414 C   0  0  2  0  0  0  0  0  0  0  0  0
    7.9883    5.2446  -16.1303 C   0  0  0  0  0  0  0  0  0  0  0  0
    9.1580    5.4945  -16.3042 O   0  0  0  0  0  0  0  0  0  0  0  0
    7.4461    4.5007  -13.8282 C   0  0  0  0  0  0  0  0  0  0  0  0
    6.8875    4.9515  -12.4797 C   0  0  0  0  0  0  0  0  0  0  0  0
    6.6539    3.8325  -11.2239 S   0  0  0  0  0  0  0  0  0  0  0  0
    5.6450    3.6833   -9.7269 C   0  0  0  0  0  0  0  0  0  0  0  0
    5.3314    2.2426   -9.3054 C   0  0  1  0  0  0  0  0  0  0  0  0
    5.7881    1.2915  -10.2497 O   0  0  0  0  0  0  0  0  0  0  0  0
    6.0616    1.8482   -8.0433 C   0  0  1  0  0  0  0  0  0  0  0  0
    5.2996    0.7939   -7.4972 O   0  0  0  0  0  0  0  0  0  0  0  0
    7.3820    1.2814   -8.5107 C   0  0  1  0  0  0  0  0  0  0  0  0
    7.7118    0.1467   -7.7398 O   0  0  0  0  0  0  0  0  0  0  0  0
    7.0983    0.8581   -9.9358 C   0  0  2  0  0  0  0  0  0  0  0  0
    7.2877    4.6170  -17.0891 O   0  0  0  0  0  0  0  0  0  0  0  0
   11.0322    4.1819  -10.7666 N   0  0  0  0  0  0  0  0  0  0  0  0
   10.3713    3.9278   -9.5882 C   0  0  0  0  0  0  0  0  0  0  0  0
    9.3420    3.0177   -9.5716 N   0  0  0  0  0  0  0  0  0  0  0  0
    8.9763    2.3721  -10.6962 C   0  0  0  0  0  0  0  0  0  0  0  0
    9.6279    2.6119  -11.8913 C   0  0  0  0  0  0  0  0  0  0  0  0
   10.6683    3.5332  -11.9196 C   0  0  0  0  0  0  0  0  0  0  0  0
   11.3183    3.7967  -13.0464 N   0  0  0  0  0  0  0  0  0  0  0  0
    9.0622    1.8381  -12.8446 N   0  0  0  0  0  0  0  0  0  0  0  0
    8.0784    1.1173  -12.2721 C   0  0  0  0  0  0  0  0  0  0  0  0
    8.0030    1.4436  -10.9421 N   0  0  0  0  0  0  0  0  0  0  0  0
  2  1  1  6  0  0  0
  2  3  1  0  0  0  0
  2  5  1  0  0  0  0
  3  4  1  0  0  0  0
  3 16  1  0  0  0  0
  5  6  1  0  0  0  0
  6  7  1  0  0  0  0
  7  8  1  0  0  0  0
  9  8  1  6  0  0  0
  9 10  1  0  0  0  0
  9 11  1  0  0  0  0
 10 15  1  0  0  0  0
 11 12  1  6  0  0  0
 11 13  1  0  0  0  0
 13 14  1  1  0  0  0
 13 15  1  0  0  0  0
 15 26  1  6  0  0  0
 17 18  2  0  0  0  0
 17 22  1  0  0  0  0
 18 19  1  0  0  0  0
 19 20  2  0  0  0  0
 20 21  1  0  0  0  0
 20 26  1  0  0  0  0
 21 22  2  0  0  0  0
 21 24  1  0  0  0  0
 22 23  1  0  0  0  0
 24 25  2  0  0  0  0
 25 26  1  0  0  0  0
M  END
>  <CHROM.1>
150.05459575,-65.59218939,169.81951494,-157.04168548,152.48665751,-5.73849785
114.25111711,7.79085454,3.11126151,-11.58832029,1.39774375,0.01115689,-1.06645341

>  <Name>
ligand

>  <RI>
0

>  <Rbt.Current_Directory>
/home/itssahil/PROJECTS/Mol_Feturizer/New_Systems/rnas/3E5E

>  <Rbt.Executable>
rbdock ($Id: //depot/dev/client3/rdock/2013.1/src/exe/rbdock.cxx#4 $)

>  <Rbt.Library>
libRbt.so (2013.1, Build901 2013/11/27)

>  <Rbt.Parameter_File>
/export/apps/rDock/src/rDock_2013.1_src/data/scripts/dock_solv.prm

>  <Rbt.Receptor>
prm/blind_docking_20.prm

>  <SCORE>
-7.49303

>  <SCORE.INTER>
-10.5885

>  <SCORE.INTER.CONST>
1

>  <SCORE.INTER.POLAR>
0

>  <SCORE.INTER.ROT>
7

>  <SCORE.INTER.SOLV>
9.26973

>  <SCORE.INTER.VDW>
-18.4156

>  <SCORE.INTER.norm>
-0.40725

>  <SCORE.INTRA>
0.231632

>  <SCORE.INTRA.DIHEDRAL>
0.00992092

>  <SCORE.INTRA.DIHEDRAL.0>
10.1225

>  <SCORE.INTRA.POLAR>
0

>  <SCORE.INTRA.POLAR.0>
0

>  <SCORE.INTRA.REPUL>
0

>  <SCORE.INTRA.REPUL.0>
0

>  <SCORE.INTRA.SOLV>
1.54938

>  <SCORE.INTRA.SOLV.lig_0>
-49.9393

>  <SCORE.INTRA.VDW>
-0.548016

>  <SCORE.INTRA.VDW.0>
-1.75437

>  <SCORE.INTRA.norm>
0.00890891

>  <SCORE.RESTR>
2.86385

>  <SCORE.RESTR.CAVITY>
2.86385

>  <SCORE.RESTR.norm>
0.110148

>  <SCORE.SYSTEM>
0

>  <SCORE.SYSTEM.CONST>
0

>  <SCORE.SYSTEM.DIHEDRAL>
0

>  <SCORE.SYSTEM.SOLV>
0

>  <SCORE.SYSTEM.norm>
0

>  <SCORE.heavy>
26

>  <SCORE.norm>
-0.288193

>  <RMSD>
23.823

$$$$
ligand
 OpenBabel11021811473D
libRbt.so/2013.1/901 2013/11/27
 26 28  0  0  0  0  0  0  0  0999 V2000
    7.7593    4.6141  -13.9236 N   0  0  0  0  0  0  0  0  0  0  0  0
    7.8676    5.9275  -14.5707 C   0  0  2  0  0  0  0  0  0  0  0  0
    7.9331    5.7461  -16.0643 C   0  0  0  0  0  0  0  0  0  0  0  0
    8.9903    5.5067  -16.5991 O   0  0  0  0  0  0  0  0  0  0  0  0
    9.1361    6.6310  -14.0852 C   0  0  0  0  0  0  0  0  0  0  0  0
    8.9491    7.0781  -12.6366 C   0  0  0  0  0  0  0  0  0  0  0  0
    9.4456    6.0816  -11.3542 S   0  0  0  0  0  0  0  0  0  0  0  0
    8.8077    4.6583  -10.4332 C   0  0  0  0  0  0  0  0  0  0  0  0
    9.4986    3.3266  -10.7507 C   0  0  1  0  0  0  0  0  0  0  0  0
    9.0110    2.2615   -9.9552 O   0  0  0  0  0  0  0  0  0  0  0  0
    9.2126    2.8597  -12.1584 C   0  0  1  0  0  0  0  0  0  0  0  0
   10.2831    1.9989  -12.4801 O   0  0  0  0  0  0  0  0  0  0  0  0
    7.9557    2.0279  -12.0519 C   0  0  1  0  0  0  0  0  0  0  0  0
    8.0680    0.8890  -12.8772 O   0  0  0  0  0  0  0  0  0  0  0  0
    7.9393    1.5997  -10.6004 C   0  0  2  0  0  0  0  0  0  0  0  0
    6.8173    5.8528  -16.8043 O   0  0  0  0  0  0  0  0  0  0  0  0
    5.5284    1.5811   -5.9743 N   0  0  0  0  0  0  0  0  0  0  0  0
    6.7665    1.0720   -6.2874 C   0  0  0  0  0  0  0  0  0  0  0  0
    7.2291    1.1619   -7.5781 N   0  0  0  0  0  0  0  0  0  0  0  0
    6.4835    1.7443   -8.5373 C   0  0  0  0  0  0  0  0  0  0  0  0
    5.2364    2.2634   -8.2440 C   0  0  0  0  0  0  0  0  0  0  0  0
    4.7577    2.1747   -6.9422 C   0  0  0  0  0  0  0  0  0  0  0  0
    3.5642    2.6563   -6.6177 N   0  0  0  0  0  0  0  0  0  0  0  0
    4.7157    2.7810   -9.3791 N   0  0  0  0  0  0  0  0  0  0  0  0
    5.6097    2.6030  -10.3712 C   0  0  0  0  0  0  0  0  0  0  0  0
    6.7077    1.9516   -9.8701 N   0  0  0  0  0  0  0  0  0  0  0  0
  2  1  1  1  0  0  0
  2  3  1  0  0  0  0
  2  5  1  0  0  0  0
  3  4  1  0  0  0  0
  3 16  1  0  0  0  0
  5  6  1  0  0  0  0
  6  7  1  0  0  0  0
  7  8  1  0  0  0  0
  9  8  1  1  0  0  0
  9 10  1  0  0  0  0
  9 11  1  0  0  0  0
 10 15  1  0  0  0  0
 11 12  1  1  0  0  0
 11 13  1  0  0  0  0
 13 14  1  6  0  0  0
 13 15  1  0  0  0  0
 15 26  1  1  0  0  0
 17 18  2  0  0  0  0
 17 22  1  0  0  0  0
 18 19  1  0  0  0  0
 19 20  2  0  0  0  0
 20 21  1  0  0  0  0
 20 26  1  0  0  0  0
 21 22  2  0  0  0  0
 21 24  1  0  0  0  0
 22 23  1  0  0  0  0
 24 25  2  0  0  0  0
 25 26  1  0  0  0  0
M  END
>  <CHROM.1>
-84.07921997,-71.88726861,92.99117445,-81.82582997,106.65058470,176.91402114
-57.08647294,7.62738517,3.50520762,-11.17016890,1.18150994,0.55078876,-0.87623025

>  <Name>
ligand

>  <RI>
0

>  <Rbt.Current_Directory>
/home/itssahil/PROJECTS/Mol_Feturizer/New_Systems/rnas/3E5E

>  <Rbt.Executable>
rbdock ($Id: //depot/dev/client3/rdock/2013.1/src/exe/rbdock.cxx#4 $)

>  <Rbt.Library>
libRbt.so (2013.1, Build901 2013/11/27)

>  <Rbt.Parameter_File>
/export/apps/rDock/src/rDock_2013.1_src/data/scripts/dock_solv.prm

>  <Rbt.Receptor>
prm/blind_docking_20.prm

>  <SCORE>
-3.46548

>  <SCORE.INTER>
-6.01718

>  <SCORE.INTER.CONST>
1

>  <SCORE.INTER.POLAR>
0

>  <SCORE.INTER.ROT>
7

>  <SCORE.INTER.SOLV>
10.625

>  <SCORE.INTER.VDW>
-15.8198

>  <SCORE.INTER.norm>
-0.23143

>  <SCORE.INTRA>
1.17835

>  <SCORE.INTRA.DIHEDRAL>
-0.831357

>  <SCORE.INTRA.DIHEDRAL.0>
10.1225

>  <SCORE.INTRA.POLAR>
0

>  <SCORE.INTRA.POLAR.0>
0

>  <SCORE.INTRA.REPUL>
0

>  <SCORE.INTRA.REPUL.0>
0

>  <SCORE.INTRA.SOLV>
4.66846

>  <SCORE.INTRA.SOLV.lig_0>
-49.9393

>  <SCORE.INTRA.VDW>
-0.740203

>  <SCORE.INTRA.VDW.0>
-1.75437

>  <SCORE.INTRA.norm>
0.0453211

>  <SCORE.RESTR>
1.37335

>  <SCORE.RESTR.CAVITY>
1.37335

>  <SCORE.RESTR.norm>
0.052821

>  <SCORE.SYSTEM>
0

>  <SCORE.SYSTEM.CONST>
0

>  <SCORE.SYSTEM.DIHEDRAL>
0

>  <SCORE.SYSTEM.SOLV>
0

>  <SCORE.SYSTEM.norm>
0

>  <SCORE.heavy>
26

>  <SCORE.norm>
-0.133288

>  <RMSD>
23.828

$$$$
ligand
 OpenBabel11021811473D
libRbt.so/2013.1/901 2013/11/27
 26 28  0  0  0  0  0  0  0  0999 V2000
    6.9956    4.0027  -15.8475 N   0  0  0  0  0  0  0  0  0  0  0  0
    7.3836    5.4171  -15.7800 C   0  0  2  0  0  0  0  0  0  0  0  0
    8.8742    5.5190  -15.5905 C   0  0  0  0  0  0  0  0  0  0  0  0
    9.4826    6.4489  -16.0663 O   0  0  0  0  0  0  0  0  0  0  0  0
    6.6719    6.0844  -14.6019 C   0  0  0  0  0  0  0  0  0  0  0  0
    6.9882    5.3222  -13.3164 C   0  0  0  0  0  0  0  0  0  0  0  0
    8.2467    5.8328  -12.2969 S   0  0  0  0  0  0  0  0  0  0  0  0
    9.0771    5.2558  -10.7940 C   0  0  0  0  0  0  0  0  0  0  0  0
    9.9479    4.0074  -10.9810 C   0  0  1  0  0  0  0  0  0  0  0  0
    9.5738    2.9525  -10.1137 O   0  0  0  0  0  0  0  0  0  0  0  0
    9.7794    3.3975  -12.3526 C   0  0  1  0  0  0  0  0  0  0  0  0
   10.9648    2.6648  -12.5724 O   0  0  0  0  0  0  0  0  0  0  0  0
    8.6390    2.4163  -12.2121 C   0  0  1  0  0  0  0  0  0  0  0  0
    8.9308    1.2414  -12.9368 O   0  0  0  0  0  0  0  0  0  0  0  0
    8.6234    2.1050  -10.7311 C   0  0  2  0  0  0  0  0  0  0  0  0
    9.5297    4.5754  -14.8949 O   0  0  0  0  0  0  0  0  0  0  0  0
    5.8079    1.3625   -6.4026 N   0  0  0  0  0  0  0  0  0  0  0  0
    7.0719    0.8995   -6.6819 C   0  0  0  0  0  0  0  0  0  0  0  0
    7.6478    1.1921   -7.8947 N   0  0  0  0  0  0  0  0  0  0  0  0
    6.9878    1.9282   -8.8100 C   0  0  0  0  0  0  0  0  0  0  0  0
    5.7166    2.4043   -8.5494 C   0  0  0  0  0  0  0  0  0  0  0  0
    5.1237    2.1112   -7.3269 C   0  0  0  0  0  0  0  0  0  0  0  0
    3.9033    2.5448   -7.0369 N   0  0  0  0  0  0  0  0  0  0  0  0
    5.2968    3.1027   -9.6280 N   0  0  0  0  0  0  0  0  0  0  0  0
    6.2770    3.0790  -10.5520 C   0  0  0  0  0  0  0  0  0  0  0  0
    7.3294    2.3455  -10.0665 N   0  0  0  0  0  0  0  0  0  0  0  0
  2  1  1  1  0  0  0
  2  3  1  0  0  0  0
  2  5  1  0  0  0  0
  3  4  1  0  0  0  0
  3 16  1  0  0  0  0
  5  6  1  0  0  0  0
  6  7  1  0  0  0  0
  7  8  1  0  0  0  0
  9  8  1  6  0  0  0
  9 10  1  0  0  0  0
  9 11  1  0  0  0  0
 10 15  1  0  0  0  0
 11 12  1  1  0  0  0
 11 13  1  0  0  0  0
 13 14  1  6  0  0  0
 13 15  1  0  0  0  0
 15 26  1  1  0  0  0
 17 18  2  0  0  0  0
 17 22  1  0  0  0  0
 18 19  1  0  0  0  0
 19 20  2  0  0  0  0
 20 21  1  0  0  0  0
 20 26  1  0  0  0  0
 21 22  2  0  0  0  0
 21 24  1  0  0  0  0
 22 23  1  0  0  0  0
 24 25  2  0  0  0  0
 25 26  1  0  0  0  0
M  END
>  <CHROM.1>
147.62837828,55.88872412,95.57417271,-174.64217316,70.06005603,-123.61143602
-73.33125556,7.82156009,3.53786338,-11.45068682,1.23983983,0.36984387,-1.00494083

>  <Name>
ligand

>  <RI>
0

>  <Rbt.Current_Directory>
/home/itssahil/PROJECTS/Mol_Feturizer/New_Systems/rnas/3E5E

>  <Rbt.Executable>
rbdock ($Id: //depot/dev/client3/rdock/2013.1/src/exe/rbdock.cxx#4 $)

>  <Rbt.Library>
libRbt.so (2013.1, Build901 2013/11/27)

>  <Rbt.Parameter_File>
/export/apps/rDock/src/rDock_2013.1_src/data/scripts/dock_solv.prm

>  <Rbt.Receptor>
prm/blind_docking_20.prm

>  <SCORE>
-3.80942

>  <SCORE.INTER>
-7.25598

>  <SCORE.INTER.CONST>
1

>  <SCORE.INTER.POLAR>
0

>  <SCORE.INTER.ROT>
7

>  <SCORE.INTER.SOLV>
13.2371

>  <SCORE.INTER.VDW>
-17.5164

>  <SCORE.INTER.norm>
-0.279076

>  <SCORE.INTRA>
0.905502

>  <SCORE.INTRA.DIHEDRAL>
1.46321

>  <SCORE.INTRA.DIHEDRAL.0>
10.1225

>  <SCORE.INTRA.POLAR>
0

>  <SCORE.INTRA.POLAR.0>
0

>  <SCORE.INTRA.REPUL>
0

>  <SCORE.INTRA.REPUL.0>
0

>  <SCORE.INTRA.SOLV>
1.26203

>  <SCORE.INTRA.SOLV.lig_0>
-49.9393

>  <SCORE.INTRA.VDW>
-0.45712

>  <SCORE.INTRA.VDW.0>
-1.75437

>  <SCORE.INTRA.norm>
0.034827

>  <SCORE.RESTR>
2.54107

>  <SCORE.RESTR.CAVITY>
2.54107

>  <SCORE.RESTR.norm>
0.0977333

>  <SCORE.SYSTEM>
0

>  <SCORE.SYSTEM.CONST>
0

>  <SCORE.SYSTEM.DIHEDRAL>
0

>  <SCORE.SYSTEM.SOLV>
0

>  <SCORE.SYSTEM.norm>
0

>  <SCORE.heavy>
26

>  <SCORE.norm>
-0.146516

>  <RMSD>
23.839

$$$$
ligand
 OpenBabel11021811473D
libRbt.so/2013.1/901 2013/11/27
 26 28  0  0  0  0  0  0  0  0999 V2000
    9.8806    5.5885  -16.1343 N   0  0  0  0  0  0  0  0  0  0  0  0
    8.7083    5.5153  -15.2534 C   0  0  2  0  0  0  0  0  0  0  0  0
    7.4781    5.2432  -16.0784 C   0  0  0  0  0  0  0  0  0  0  0  0
    7.0428    6.0966  -16.8155 O   0  0  0  0  0  0  0  0  0  0  0  0
    8.5439    6.8439  -14.5135 C   0  0  0  0  0  0  0  0  0  0  0  0
    9.0345    6.6911  -13.0749 C   0  0  0  0  0  0  0  0  0  0  0  0
    8.6419    5.3081  -12.1708 S   0  0  0  0  0  0  0  0  0  0  0  0
    8.0764    3.6154  -12.4808 C   0  0  0  0  0  0  0  0  0  0  0  0
    9.0619    2.5212  -12.0529 C   0  0  1  0  0  0  0  0  0  0  0  0
    9.0182    2.2687  -10.6604 O   0  0  0  0  0  0  0  0  0  0  0  0
    8.7168    1.1792  -12.6541 C   0  0  1  0  0  0  0  0  0  0  0  0
    9.9281    0.4559  -12.6474 O   0  0  0  0  0  0  0  0  0  0  0  0
    7.7768    0.5319  -11.6639 C   0  0  1  0  0  0  0  0  0  0  0  0
    8.0849   -0.8397  -11.5426 O   0  0  0  0  0  0  0  0  0  0  0  0
    8.0954    1.2376  -10.3635 C   0  0  2  0  0  0  0  0  0  0  0  0
    6.8616    4.0529  -15.9941 O   0  0  0  0  0  0  0  0  0  0  0  0
    5.4151    1.7288   -5.9151 N   0  0  0  0  0  0  0  0  0  0  0  0
    6.5120    0.9374   -6.1612 C   0  0  0  0  0  0  0  0  0  0  0  0
    7.0773    0.9339   -7.4136 N   0  0  0  0  0  0  0  0  0  0  0  0
    6.5691    1.6982   -8.4000 C   0  0  0  0  0  0  0  0  0  0  0  0
    5.4675    2.5018   -8.1739 C   0  0  0  0  0  0  0  0  0  0  0  0
    4.8861    2.5101   -6.9114 C   0  0  0  0  0  0  0  0  0  0  0  0
    3.8248    3.2637   -6.6518 N   0  0  0  0  0  0  0  0  0  0  0  0
    5.1741    3.1511   -9.3227 N   0  0  0  0  0  0  0  0  0  0  0  0
    6.0693    2.7769  -10.2576 C   0  0  0  0  0  0  0  0  0  0  0  0
    6.9355    1.8676   -9.7064 N   0  0  0  0  0  0  0  0  0  0  0  0
  2  1  1  6  0  0  0
  2  3  1  0  0  0  0
  2  5  1  0  0  0  0
  3  4  1  0  0  0  0
  3 16  1  0  0  0  0
  5  6  1  0  0  0  0
  6  7  1  0  0  0  0
  7  8  1  0  0  0  0
  9  8  1  1  0  0  0
  9 10  1  0  0  0  0
  9 11  1  0  0  0  0
 10 15  1  0  0  0  0
 11 12  1  1  0  0  0
 11 13  1  0  0  0  0
 13 14  1  1  0  0  0
 13 15  1  0  0  0  0
 15 26  1  6  0  0  0
 17 18  2  0  0  0  0
 17 22  1  0  0  0  0
 18 19  1  0  0  0  0
 19 20  2  0  0  0  0
 20 21  1  0  0  0  0
 20 26  1  0  0  0  0
 21 22  2  0  0  0  0
 21 24  1  0  0  0  0
 22 23  1  0  0  0  0
 24 25  2  0  0  0  0
 25 26  1  0  0  0  0
M  END
>  <CHROM.1>
-69.93770924,-103.16336973,-42.86119584,19.13127616,116.37941956,79.58605668
-112.20287913,7.52409256,3.10669785,-11.42053437,-1.06539745,-0.96198988
2.44928655

>  <Name>
ligand

>  <RI>
0

>  <Rbt.Current_Directory>
/home/itssahil/PROJECTS/Mol_Feturizer/New_Systems/rnas/3E5E

>  <Rbt.Executable>
rbdock ($Id: //depot/dev/client3/rdock/2013.1/src/exe/rbdock.cxx#4 $)

>  <Rbt.Library>
libRbt.so (2013.1, Build901 2013/11/27)

>  <Rbt.Parameter_File>
/export/apps/rDock/src/rDock_2013.1_src/data/scripts/dock_solv.prm

>  <Rbt.Receptor>
prm/blind_docking_20.prm

>  <SCORE>
-1.37718

>  <SCORE.INTER>
-4.09647

>  <SCORE.INTER.CONST>
1

>  <SCORE.INTER.POLAR>
0

>  <SCORE.INTER.ROT>
7

>  <SCORE.INTER.SOLV>
12.7753

>  <SCORE.INTER.VDW>
-15.2561

>  <SCORE.INTER.norm>
-0.157557

>  <SCORE.INTRA>
1.28352

>  <SCORE.INTRA.DIHEDRAL>
3.87752

>  <SCORE.INTRA.DIHEDRAL.0>
10.1225

>  <SCORE.INTRA.POLAR>
0

>  <SCORE.INTRA.POLAR.0>
0

>  <SCORE.INTRA.REPUL>
0

>  <SCORE.INTRA.REPUL.0>
0

>  <SCORE.INTRA.SOLV>
0.256059

>  <SCORE.INTRA.SOLV.lig_0>
-49.9393

>  <SCORE.INTRA.VDW>
-0.783266

>  <SCORE.INTRA.VDW.0>
-1.75437

>  <SCORE.INTRA.norm>
0.0493662

>  <SCORE.RESTR>
1.43576

>  <SCORE.RESTR.CAVITY>
1.43576

>  <SCORE.RESTR.norm>
0.0552217

>  <SCORE.SYSTEM>
0

>  <SCORE.SYSTEM.CONST>
0

>  <SCORE.SYSTEM.DIHEDRAL>
0

>  <SCORE.SYSTEM.SOLV>
0

>  <SCORE.SYSTEM.norm>
0

>  <SCORE.heavy>
26

>  <SCORE.norm>
-0.0529686

>  <RMSD>
23.841

$$$$
ligand
 OpenBabel11021811473D
libRbt.so/2013.1/901 2013/11/27
 26 28  0  0  0  0  0  0  0  0999 V2000
    8.3750    7.4987  -16.2927 N   0  0  0  0  0  0  0  0  0  0  0  0
    8.2186    6.4023  -15.3289 C   0  0  2  0  0  0  0  0  0  0  0  0
    9.5629    5.7819  -15.0535 C   0  0  0  0  0  0  0  0  0  0  0  0
   10.1114    5.9720  -13.9932 O   0  0  0  0  0  0  0  0  0  0  0  0
    7.2772    5.3453  -15.9089 C   0  0  0  0  0  0  0  0  0  0  0  0
    7.1483    4.1826  -14.9266 C   0  0  0  0  0  0  0  0  0  0  0  0
    7.2685    4.4479  -13.2535 S   0  0  0  0  0  0  0  0  0  0  0  0
    8.5743    4.6049  -12.0080 C   0  0  0  0  0  0  0  0  0  0  0  0
    9.4778    3.3739  -11.8668 C   0  0  1  0  0  0  0  0  0  0  0  0
    9.2759    2.6928  -10.6419 O   0  0  0  0  0  0  0  0  0  0  0  0
    9.1644    2.3177  -12.9001 C   0  0  1  0  0  0  0  0  0  0  0  0
   10.3480    1.5583  -13.0139 O   0  0  0  0  0  0  0  0  0  0  0  0
    8.1052    1.4461  -12.2666 C   0  0  1  0  0  0  0  0  0  0  0  0
    8.3615    0.0917  -12.5678 O   0  0  0  0  0  0  0  0  0  0  0  0
    8.2990    1.6787  -10.7838 C   0  0  2  0  0  0  0  0  0  0  0  0
   10.1553    5.0188  -15.9866 O   0  0  0  0  0  0  0  0  0  0  0  0
    5.6987    1.6283   -6.2617 N   0  0  0  0  0  0  0  0  0  0  0  0
    6.8730    0.9843   -6.5718 C   0  0  0  0  0  0  0  0  0  0  0  0
    7.4015    1.1099   -7.8339 N   0  0  0  0  0  0  0  0  0  0  0  0
    6.7822    1.8580   -8.7678 C   0  0  0  0  0  0  0  0  0  0  0  0
    5.6012    2.5147   -8.4769 C   0  0  0  0  0  0  0  0  0  0  0  0
    5.0565    2.3914   -7.2041 C   0  0  0  0  0  0  0  0  0  0  0  0
    3.9222    3.0014   -6.8833 N   0  0  0  0  0  0  0  0  0  0  0  0
    5.2043    3.1820   -9.5834 N   0  0  0  0  0  0  0  0  0  0  0  0
    6.1116    2.9628  -10.5549 C   0  0  0  0  0  0  0  0  0  0  0  0
    7.0918    2.1347  -10.0707 N   0  0  0  0  0  0  0  0  0  0  0  0
  2  1  1  6  0  0  0
  2  3  1  0  0  0  0
  2  5  1  0  0  0  0
  3  4  1  0  0  0  0
  3 16  1  0  0  0  0
  5  6  1  0  0  0  0
  6  7  1  0  0  0  0
  7  8  1  0  0  0  0
  9  8  1  1  0  0  0
  9 10  1  0  0  0  0
  9 11  1  0  0  0  0
 10 15  1  0  0  0  0
 11 12  1  1  0  0  0
 11 13  1  0  0  0  0
 13 14  1  1  0  0  0
 13 15  1  0  0  0  0
 15 26  1  6  0  0  0
 17 18  2  0  0  0  0
 17 22  1  0  0  0  0
 18 19  1  0  0  0  0
 19 20  2  0  0  0  0
 20 21  1  0  0  0  0
 20 26  1  0  0  0  0
 21 22  2  0  0  0  0
 21 24  1  0  0  0  0
 22 23  1  0  0  0  0
 24 25  2  0  0  0  0
 25 26  1  0  0  0  0
M  END
>  <CHROM.1>
107.35265802,178.20152334,31.08249957,-83.83034459,-60.10099082,-110.25591422
-92.47484543,7.72414451,3.30979184,-11.68197456,1.12659558,0.69334967,-0.83105098

>  <Name>
ligand

>  <RI>
0

>  <Rbt.Current_Directory>
/home/itssahil/PROJECTS/Mol_Feturizer/New_Systems/rnas/3E5E

>  <Rbt.Executable>
rbdock ($Id: //depot/dev/client3/rdock/2013.1/src/exe/rbdock.cxx#4 $)

>  <Rbt.Library>
libRbt.so (2013.1, Build901 2013/11/27)

>  <Rbt.Parameter_File>
/export/apps/rDock/src/rDock_2013.1_src/data/scripts/dock_solv.prm

>  <Rbt.Receptor>
prm/blind_docking_20.prm

>  <SCORE>
-4.40382

>  <SCORE.INTER>
-6.73284

>  <SCORE.INTER.CONST>
1

>  <SCORE.INTER.POLAR>
0

>  <SCORE.INTER.ROT>
7

>  <SCORE.INTER.SOLV>
12.1489

>  <SCORE.INTER.VDW>
-16.8049

>  <SCORE.INTER.norm>
-0.258955

>  <SCORE.INTRA>
0.879667

>  <SCORE.INTRA.DIHEDRAL>
0.726926

>  <SCORE.INTRA.DIHEDRAL.0>
10.1225

>  <SCORE.INTRA.POLAR>
0

>  <SCORE.INTRA.POLAR.0>
0

>  <SCORE.INTRA.REPUL>
0

>  <SCORE.INTRA.REPUL.0>
0

>  <SCORE.INTRA.SOLV>
0.0327358

>  <SCORE.INTRA.SOLV.lig_0>
-49.9393

>  <SCORE.INTRA.VDW>
0.499836

>  <SCORE.INTRA.VDW.0>
-1.75437

>  <SCORE.INTRA.norm>
0.0338334

>  <SCORE.RESTR>
1.44936

>  <SCORE.RESTR.CAVITY>
1.44936

>  <SCORE.RESTR.norm>
0.0557445

>  <SCORE.SYSTEM>
0

>  <SCORE.SYSTEM.CONST>
0

>  <SCORE.SYSTEM.DIHEDRAL>
0

>  <SCORE.SYSTEM.SOLV>
0

>  <SCORE.SYSTEM.norm>
0

>  <SCORE.heavy>
26

>  <SCORE.norm>
-0.169378

>  <RMSD>
23.855

$$$$
ligand
 OpenBabel11021811473D
libRbt.so/2013.1/901 2013/11/27
 26 28  0  0  0  0  0  0  0  0999 V2000
    9.1084    6.6258  -14.9389 N   0  0  0  0  0  0  0  0  0  0  0  0
    8.7959    5.3112  -15.5130 C   0  0  2  0  0  0  0  0  0  0  0  0
    7.5697    5.4221  -16.3804 C   0  0  0  0  0  0  0  0  0  0  0  0
    7.2537    4.5051  -17.1017 O   0  0  0  0  0  0  0  0  0  0  0  0
    8.5349    4.3121  -14.3846 C   0  0  0  0  0  0  0  0  0  0  0  0
    7.5704    4.9266  -13.3718 C   0  0  0  0  0  0  0  0  0  0  0  0
    8.1580    5.8070  -12.0437 S   0  0  0  0  0  0  0  0  0  0  0  0
    8.9317    5.4668  -10.4417 C   0  0  0  0  0  0  0  0  0  0  0  0
    9.9764    4.3443  -10.4591 C   0  0  1  0  0  0  0  0  0  0  0  0
    9.5964    3.2397   -9.6590 O   0  0  0  0  0  0  0  0  0  0  0  0
   10.1316    3.7339  -11.8320 C   0  0  1  0  0  0  0  0  0  0  0  0
   11.4221    3.1639  -11.8324 O   0  0  0  0  0  0  0  0  0  0  0  0
    9.1214    2.6114  -11.8826 C   0  0  1  0  0  0  0  0  0  0  0  0
    9.6857    1.4929  -12.5316 O   0  0  0  0  0  0  0  0  0  0  0  0
    8.8871    2.2832  -10.4238 C   0  0  2  0  0  0  0  0  0  0  0  0
    6.8274    6.5412  -16.3555 O   0  0  0  0  0  0  0  0  0  0  0  0
    5.5020    1.2684   -6.5865 N   0  0  0  0  0  0  0  0  0  0  0  0
    6.8487    0.9948   -6.6237 C   0  0  0  0  0  0  0  0  0  0  0  0
    7.5775    1.3300   -7.7393 N   0  0  0  0  0  0  0  0  0  0  0  0
    6.9866    1.9247   -8.7940 C   0  0  0  0  0  0  0  0  0  0  0  0
    5.6341    2.2096   -8.7772 C   0  0  0  0  0  0  0  0  0  0  0  0
    4.8872    1.8715   -7.6548 C   0  0  0  0  0  0  0  0  0  0  0  0
    3.5853    2.1232   -7.5981 N   0  0  0  0  0  0  0  0  0  0  0  0
    5.3109    2.7981   -9.9505 N   0  0  0  0  0  0  0  0  0  0  0  0
    6.4293    2.8927  -10.6957 C   0  0  0  0  0  0  0  0  0  0  0  0
    7.4766    2.3459   -9.9991 N   0  0  0  0  0  0  0  0  0  0  0  0
  2  1  1  1  0  0  0
  2  3  1  0  0  0  0
  2  5  1  0  0  0  0
  3  4  1  0  0  0  0
  3 16  1  0  0  0  0
  5  6  1  0  0  0  0
  6  7  1  0  0  0  0
  7  8  1  0  0  0  0
  9  8  1  6  0  0  0
  9 10  1  0  0  0  0
  9 11  1  0  0  0  0
 10 15  1  0  0  0  0
 11 12  1  1  0  0  0
 11 13  1  0  0  0  0
 13 14  1  6  0  0  0
 13 15  1  0  0  0  0
 15 26  1  1  0  0  0
 17 18  2  0  0  0  0
 17 22  1  0  0  0  0
 18 19  1  0  0  0  0
 19 20  2  0  0  0  0
 20 21  1  0  0  0  0
 20 26  1  0  0  0  0
 21 22  2  0  0  0  0
 21 24  1  0  0  0  0
 22 23  1  0  0  0  0
 24 25  2  0  0  0  0
 25 26  1  0  0  0  0
M  END
>  <CHROM.1>
169.15838872,47.87294915,-90.65842618,-76.34429517,40.47236675,-116.30129947
-70.36356638,7.83511998,3.59276183,-11.42343675,-1.31539802,-0.04835651,2.04239915

>  <Name>
ligand

>  <RI>
0

>  <Rbt.Current_Directory>
/home/itssahil/PROJECTS/Mol_Feturizer/New_Systems/rnas/3E5E

>  <Rbt.Executable>
rbdock ($Id: //depot/dev/client3/rdock/2013.1/src/exe/rbdock.cxx#4 $)

>  <Rbt.Library>
libRbt.so (2013.1, Build901 2013/11/27)

>  <Rbt.Parameter_File>
/export/apps/rDock/src/rDock_2013.1_src/data/scripts/dock_solv.prm

>  <Rbt.Receptor>
prm/blind_docking_20.prm

>  <SCORE>
-3.87245

>  <SCORE.INTER>
-8.99422

>  <SCORE.INTER.CONST>
1

>  <SCORE.INTER.POLAR>
0

>  <SCORE.INTER.ROT>
7

>  <SCORE.INTER.SOLV>
7.27975

>  <SCORE.INTER.VDW>
-16.6894

>  <SCORE.INTER.norm>
-0.345931

>  <SCORE.INTRA>
3.12975

>  <SCORE.INTRA.DIHEDRAL>
2.04565

>  <SCORE.INTRA.DIHEDRAL.0>
10.1225

>  <SCORE.INTRA.POLAR>
0

>  <SCORE.INTRA.POLAR.0>
0

>  <SCORE.INTRA.REPUL>
0

>  <SCORE.INTRA.REPUL.0>
0

>  <SCORE.INTRA.SOLV>
2.25845

>  <SCORE.INTRA.SOLV.lig_0>
-49.9393

>  <SCORE.INTRA.VDW>
0.977702

>  <SCORE.INTRA.VDW.0>
-1.75437

>  <SCORE.INTRA.norm>
0.120375

>  <SCORE.RESTR>
1.99201

>  <SCORE.RESTR.CAVITY>
1.99201

>  <SCORE.RESTR.norm>
0.0766159

>  <SCORE.SYSTEM>
0

>  <SCORE.SYSTEM.CONST>
0

>  <SCORE.SYSTEM.DIHEDRAL>
0

>  <SCORE.SYSTEM.SOLV>
0

>  <SCORE.SYSTEM.norm>
0

>  <SCORE.heavy>
26

>  <SCORE.norm>
-0.148941

>  <RMSD>
23.890

$$$$
ligand
 OpenBabel11021811473D
libRbt.so/2013.1/901 2013/11/27
 26 28  0  0  0  0  0  0  0  0999 V2000
    7.3954    5.8958  -16.2270 N   0  0  0  0  0  0  0  0  0  0  0  0
    8.4386    6.3051  -15.2784 C   0  0  2  0  0  0  0  0  0  0  0  0
    9.7313    5.6157  -15.6272 C   0  0  0  0  0  0  0  0  0  0  0  0
   10.4726    6.0999  -16.4501 O   0  0  0  0  0  0  0  0  0  0  0  0
    8.0181    5.9155  -13.8602 C   0  0  0  0  0  0  0  0  0  0  0  0
    8.9925    6.5245  -12.8536 C   0  0  0  0  0  0  0  0  0  0  0  0
    8.9104    6.1054  -11.2099 S   0  0  0  0  0  0  0  0  0  0  0  0
    9.5199    4.7878  -10.1266 C   0  0  0  0  0  0  0  0  0  0  0  0
    9.9553    3.5096  -10.8534 C   0  0  1  0  0  0  0  0  0  0  0  0
    9.2329    2.3703  -10.4232 O   0  0  0  0  0  0  0  0  0  0  0  0
    9.6539    3.5663  -12.3324 C   0  0  1  0  0  0  0  0  0  0  0  0
   10.5524    2.6520  -12.9216 O   0  0  0  0  0  0  0  0  0  0  0  0
    8.2563    3.0095  -12.4732 C   0  0  1  0  0  0  0  0  0  0  0  0
    8.1868    2.1822  -13.6140 O   0  0  0  0  0  0  0  0  0  0  0  0
    8.0864    2.1667  -11.2276 C   0  0  2  0  0  0  0  0  0  0  0  0
   10.0607    4.4605  -15.0264 O   0  0  0  0  0  0  0  0  0  0  0  0
    5.7378    1.5639   -6.6087 N   0  0  0  0  0  0  0  0  0  0  0  0
    6.9050    0.9858   -7.0484 C   0  0  0  0  0  0  0  0  0  0  0  0
    7.3615    1.2602   -8.3150 N   0  0  0  0  0  0  0  0  0  0  0  0
    6.6788    2.0900   -9.1277 C   0  0  0  0  0  0  0  0  0  0  0  0
    5.5036    2.6826   -8.7054 C   0  0  0  0  0  0  0  0  0  0  0  0
    5.0314    2.4090   -7.4271 C   0  0  0  0  0  0  0  0  0  0  0  0
    3.9054    2.9533   -6.9827 N   0  0  0  0  0  0  0  0  0  0  0  0
    5.0349    3.4563   -9.7099 N   0  0  0  0  0  0  0  0  0  0  0  0
    5.8918    3.3655  -10.7456 C   0  0  0  0  0  0  0  0  0  0  0  0
    6.9118    2.5136  -10.4068 N   0  0  0  0  0  0  0  0  0  0  0  0
  2  1  1  6  0  0  0
  2  3  1  0  0  0  0
  2  5  1  0  0  0  0
  3  4  1  0  0  0  0
  3 16  1  0  0  0  0
  5  6  1  0  0  0  0
  6  7  1  0  0  0  0
  7  8  1  0  0  0  0
  9  8  1  1  0  0  0
  9 10  1  0  0  0  0
  9 11  1  0  0  0  0
 10 15  1  0  0  0  0
 11 12  1  6  0  0  0
 11 13  1  0  0  0  0
 13 14  1  6  0  0  0
 13 15  1  0  0  0  0
 15 26  1  1  0  0  0
 17 18  2  0  0  0  0
 17 22  1  0  0  0  0
 18 19  1  0  0  0  0
 19 20  2  0  0  0  0
 20 21  1  0  0  0  0
 20 26  1  0  0  0  0
 21 22  2  0  0  0  0
 21 24  1  0  0  0  0
 22 23  1  0  0  0  0
 24 25  2  0  0  0  0
 25 26  1  0  0  0  0
M  END
>  <CHROM.1>
85.85952163,-171.43902983,-171.96491161,84.16865675,-18.54241799,-121.25306638
-47.78388856,7.98804226,3.77340466,-11.45928045,1.06740992,0.54031765,-0.84564162

>  <Name>
ligand

>  <RI>
0

>  <Rbt.Current_Directory>
/home/itssahil/PROJECTS/Mol_Feturizer/New_Systems/rnas/3E5E

>  <Rbt.Executable>
rbdock ($Id: //depot/dev/client3/rdock/2013.1/src/exe/rbdock.cxx#4 $)

>  <Rbt.Library>
libRbt.so (2013.1, Build901 2013/11/27)

>  <Rbt.Parameter_File>
/export/apps/rDock/src/rDock_2013.1_src/data/scripts/dock_solv.prm

>  <Rbt.Receptor>
prm/blind_docking_20.prm

>  <SCORE>
-3.96397

>  <SCORE.INTER>
-6.56061

>  <SCORE.INTER.CONST>
1

>  <SCORE.INTER.POLAR>
0

>  <SCORE.INTER.ROT>
7

>  <SCORE.INTER.SOLV>
11.4471

>  <SCORE.INTER.VDW>
-16.4561

>  <SCORE.INTER.norm>
-0.252331

>  <SCORE.INTRA>
0.88932

>  <SCORE.INTRA.DIHEDRAL>
1.04769

>  <SCORE.INTRA.DIHEDRAL.0>
10.1225

>  <SCORE.INTRA.POLAR>
0

>  <SCORE.INTRA.POLAR.0>
0

>  <SCORE.INTRA.REPUL>
0

>  <SCORE.INTRA.REPUL.0>
0

>  <SCORE.INTRA.SOLV>
0.218493

>  <SCORE.INTRA.SOLV.lig_0>
-49.9393

>  <SCORE.INTRA.VDW>
0.25623

>  <SCORE.INTRA.VDW.0>
-1.75437

>  <SCORE.INTRA.norm>
0.0342046

>  <SCORE.RESTR>
1.70732

>  <SCORE.RESTR.CAVITY>
1.70732

>  <SCORE.RESTR.norm>
0.065666

>  <SCORE.SYSTEM>
0

>  <SCORE.SYSTEM.CONST>
0

>  <SCORE.SYSTEM.DIHEDRAL>
0

>  <SCORE.SYSTEM.SOLV>
0

>  <SCORE.SYSTEM.norm>
0

>  <SCORE.heavy>
26

>  <SCORE.norm>
-0.15246

>  <RMSD>
23.902

$$$$
ligand
 OpenBabel11021811473D
libRbt.so/2013.1/901 2013/11/27
 26 28  0  0  0  0  0  0  0  0999 V2000
    8.0218    3.5130  -13.5050 N   0  0  0  0  0  0  0  0  0  0  0  0
    8.1912    2.6206  -12.3515 C   0  0  2  0  0  0  0  0  0  0  0  0
    9.2849    3.1524  -11.4632 C   0  0  0  0  0  0  0  0  0  0  0  0
    9.3433    2.8115  -10.3050 O   0  0  0  0  0  0  0  0  0  0  0  0
    8.5661    1.2210  -12.8416 C   0  0  0  0  0  0  0  0  0  0  0  0
    8.4566    0.2290  -11.6852 C   0  0  0  0  0  0  0  0  0  0  0  0
    7.0190    0.1008  -10.7903 S   0  0  0  0  0  0  0  0  0  0  0  0
    6.4295   -0.7607   -9.3099 C   0  0  0  0  0  0  0  0  0  0  0  0
    7.1547   -0.3789   -8.0138 C   0  0  1  0  0  0  0  0  0  0  0  0
    7.6078    0.9625   -8.0229 O   0  0  0  0  0  0  0  0  0  0  0  0
    6.2363   -0.4208   -6.8154 C   0  0  1  0  0  0  0  0  0  0  0  0
    7.0920   -0.5987   -5.7079 O   0  0  0  0  0  0  0  0  0  0  0  0
    5.6358    0.9630   -6.7284 C   0  0  1  0  0  0  0  0  0  0  0  0
    5.5696    1.3685   -5.3786 O   0  0  0  0  0  0  0  0  0  0  0  0
    6.6353    1.8271   -7.4665 C   0  0  2  0  0  0  0  0  0  0  0  0
   10.1952    4.0081  -11.9561 O   0  0  0  0  0  0  0  0  0  0  0  0
    2.5697    4.6689   -9.0820 N   0  0  0  0  0  0  0  0  0  0  0  0
    2.7167    4.0001   -7.8898 C   0  0  0  0  0  0  0  0  0  0  0  0
    3.8672    3.2882   -7.6500 N   0  0  0  0  0  0  0  0  0  0  0  0
    4.8512    3.2408   -8.5691 C   0  0  0  0  0  0  0  0  0  0  0  0
    4.7244    3.9066   -9.7737 C   0  0  0  0  0  0  0  0  0  0  0  0
    3.5631    4.6269  -10.0276 C   0  0  0  0  0  0  0  0  0  0  0  0
    3.3981    5.2775  -11.1727 N   0  0  0  0  0  0  0  0  0  0  0  0
    5.8457    3.6901  -10.4971 N   0  0  0  0  0  0  0  0  0  0  0  0
    6.6709    2.9112   -9.7708 C   0  0  0  0  0  0  0  0  0  0  0  0
    6.0660    2.6132   -8.5765 N   0  0  0  0  0  0  0  0  0  0  0  0
  2  1  1  6  0  0  0
  2  3  1  0  0  0  0
  2  5  1  0  0  0  0
  3  4  1  0  0  0  0
  3 16  1  0  0  0  0
  5  6  1  0  0  0  0
  6  7  1  0  0  0  0
  7  8  1  0  0  0  0
  9  8  1  6  0  0  0
  9 10  1  0  0  0  0
  9 11  1  0  0  0  0
 10 15  1  0  0  0  0
 11 12  1  1  0  0  0
 11 13  1  0  0  0  0
 13 14  1  1  0  0  0
 13 15  1  0  0  0  0
 15 26  1  6  0  0  0
 17 18  2  0  0  0  0
 17 22  1  0  0  0  0
 18 19  1  0  0  0  0
 19 20  2  0  0  0  0
 20 21  1  0  0  0  0
 20 26  1  0  0  0  0
 21 22  2  0  0  0  0
 21 24  1  0  0  0  0
 22 23  1  0  0  0  0
 24 25  2  0  0  0  0
 25 26  1  0  0  0  0
M  END
>  <CHROM.1>
159.22463866,-168.20833873,53.98253516,-173.51177570,62.17214960,30.98030428
158.29020710,6.47594623,2.11787269,-9.48173067,0.70698501,0.62645458,-0.88948423

>  <Name>
ligand

>  <RI>
0

>  <Rbt.Current_Directory>
/home/itssahil/PROJECTS/Mol_Feturizer/New_Systems/rnas/3E5E

>  <Rbt.Executable>
rbdock ($Id: //depot/dev/client3/rdock/2013.1/src/exe/rbdock.cxx#4 $)

>  <Rbt.Library>
libRbt.so (2013.1, Build901 2013/11/27)

>  <Rbt.Parameter_File>
/export/apps/rDock/src/rDock_2013.1_src/data/scripts/dock_solv.prm

>  <Rbt.Receptor>
prm/blind_docking_20.prm

>  <SCORE>
-1.8257

>  <SCORE.INTER>
-0.870096

>  <SCORE.INTER.CONST>
1

>  <SCORE.INTER.POLAR>
0

>  <SCORE.INTER.ROT>
7

>  <SCORE.INTER.SOLV>
17.0207

>  <SCORE.INTER.VDW>
-14.5203

>  <SCORE.INTER.norm>
-0.0334652

>  <SCORE.INTRA>
-3.79713

>  <SCORE.INTRA.DIHEDRAL>
-4.35102

>  <SCORE.INTRA.DIHEDRAL.0>
10.1225

>  <SCORE.INTRA.POLAR>
0

>  <SCORE.INTRA.POLAR.0>
0

>  <SCORE.INTRA.REPUL>
0

>  <SCORE.INTRA.REPUL.0>
0

>  <SCORE.INTRA.SOLV>
0.214494

>  <SCORE.INTRA.SOLV.lig_0>
-49.9393

>  <SCORE.INTRA.VDW>
-1.72887

>  <SCORE.INTRA.VDW.0>
-1.75437

>  <SCORE.INTRA.norm>
-0.146044

>  <SCORE.RESTR>
2.84153

>  <SCORE.RESTR.CAVITY>
2.84153

>  <SCORE.RESTR.norm>
0.109289

>  <SCORE.SYSTEM>
0

>  <SCORE.SYSTEM.CONST>
0

>  <SCORE.SYSTEM.DIHEDRAL>
0

>  <SCORE.SYSTEM.SOLV>
0

>  <SCORE.SYSTEM.norm>
0

>  <SCORE.heavy>
26

>  <SCORE.norm>
-0.0702193

>  <RMSD>
23.924

$$$$
ligand
 OpenBabel11021811473D
libRbt.so/2013.1/901 2013/11/27
 26 28  0  0  0  0  0  0  0  0999 V2000
   10.0478    6.6686  -16.5444 N   0  0  0  0  0  0  0  0  0  0  0  0
    9.3827    5.4402  -16.0925 C   0  0  2  0  0  0  0  0  0  0  0  0
    7.9006    5.5552  -16.3341 C   0  0  0  0  0  0  0  0  0  0  0  0
    7.3061    6.5485  -15.9863 O   0  0  0  0  0  0  0  0  0  0  0  0
    9.6430    5.2405  -14.5985 C   0  0  0  0  0  0  0  0  0  0  0  0
    9.2412    6.5026  -13.8374 C   0  0  0  0  0  0  0  0  0  0  0  0
    9.0971    6.4817  -12.1454 S   0  0  0  0  0  0  0  0  0  0  0  0
    8.9748    5.2510  -10.8219 C   0  0  0  0  0  0  0  0  0  0  0  0
    9.8515    4.0082  -11.0183 C   0  0  1  0  0  0  0  0  0  0  0  0
    9.4970    2.9529  -10.1434 O   0  0  0  0  0  0  0  0  0  0  0  0
    9.6679    3.3939  -12.3859 C   0  0  1  0  0  0  0  0  0  0  0  0
   10.8552    2.6688  -12.6207 O   0  0  0  0  0  0  0  0  0  0  0  0
    8.5364    2.4052  -12.2271 C   0  0  1  0  0  0  0  0  0  0  0  0
    8.8260    1.2306  -12.9532 O   0  0  0  0  0  0  0  0  0  0  0  0
    8.5438    2.0974  -10.7454 C   0  0  2  0  0  0  0  0  0  0  0  0
    7.2373    4.5530  -16.9338 O   0  0  0  0  0  0  0  0  0  0  0  0
    5.8155    1.3974   -6.3544 N   0  0  0  0  0  0  0  0  0  0  0  0
    7.0819    0.9492   -6.6465 C   0  0  0  0  0  0  0  0  0  0  0  0
    7.6320    1.2264   -7.8747 N   0  0  0  0  0  0  0  0  0  0  0  0
    6.9445    1.9333   -8.7928 C   0  0  0  0  0  0  0  0  0  0  0  0
    5.6704    2.3942   -8.5195 C   0  0  0  0  0  0  0  0  0  0  0  0
    5.1035    2.1164   -7.2812 C   0  0  0  0  0  0  0  0  0  0  0  0
    3.8813    2.5362   -6.9786 N   0  0  0  0  0  0  0  0  0  0  0  0
    5.2208    3.0639   -9.6043 N   0  0  0  0  0  0  0  0  0  0  0  0
    6.1853    3.0372  -10.5446 C   0  0  0  0  0  0  0  0  0  0  0  0
    7.2576    2.3306  -10.0632 N   0  0  0  0  0  0  0  0  0  0  0  0
  2  1  1  1  0  0  0
  2  3  1  0  0  0  0
  2  5  1  0  0  0  0
  3  4  1  0  0  0  0
  3 16  1  0  0  0  0
  5  6  1  0  0  0  0
  6  7  1  0  0  0  0
  7  8  1  0  0  0  0
  9  8  1  6  0  0  0
  9 10  1  0  0  0  0
  9 11  1  0  0  0  0
 10 15  1  0  0  0  0
 11 12  1  1  0  0  0
 11 13  1  0  0  0  0
 13 14  1  6  0  0  0
 13 15  1  0  0  0  0
 15 26  1  1  0  0  0
 17 18  2  0  0  0  0
 17 22  1  0  0  0  0
 18 19  1  0  0  0  0
 19 20  2  0  0  0  0
 20 21  1  0  0  0  0
 20 26  1  0  0  0  0
 21 22  2  0  0  0  0
 21 24  1  0  0  0  0
 22 23  1  0  0  0  0
 24 25  2  0  0  0  0
 25 26  1  0  0  0  0
M  END
>  <CHROM.1>
-48.33639311,53.40591749,166.89098912,-15.24291751,38.47773308,-166.13925792
-72.17324149,8.00847874,3.70992856,-11.59969347,-1.23736011,-0.28561988,2.13498389

>  <Name>
ligand

>  <RI>
0

>  <Rbt.Current_Directory>
/home/itssahil/PROJECTS/Mol_Feturizer/New_Systems/rnas/3E5E

>  <Rbt.Executable>
rbdock ($Id: //depot/dev/client3/rdock/2013.1/src/exe/rbdock.cxx#4 $)

>  <Rbt.Library>
libRbt.so (2013.1, Build901 2013/11/27)

>  <Rbt.Parameter_File>
/export/apps/rDock/src/rDock_2013.1_src/data/scripts/dock_solv.prm

>  <Rbt.Receptor>
prm/blind_docking_20.prm

>  <SCORE>
-7.91917

>  <SCORE.INTER>
-9.32692

>  <SCORE.INTER.CONST>
1

>  <SCORE.INTER.POLAR>
0

>  <SCORE.INTER.ROT>
7

>  <SCORE.INTER.SOLV>
9.88277

>  <SCORE.INTER.VDW>
-17.7789

>  <SCORE.INTER.norm>
-0.358728

>  <SCORE.INTRA>
-0.438948

>  <SCORE.INTRA.DIHEDRAL>
-3.32121

>  <SCORE.INTRA.DIHEDRAL.0>
10.1225

>  <SCORE.INTRA.POLAR>
0

>  <SCORE.INTRA.POLAR.0>
0

>  <SCORE.INTRA.REPUL>
0

>  <SCORE.INTRA.REPUL.0>
0

>  <SCORE.INTRA.SOLV>
0.586984

>  <SCORE.INTRA.SOLV.lig_0>
-49.9393

>  <SCORE.INTRA.VDW>
0.928165

>  <SCORE.INTRA.VDW.0>
-1.75437

>  <SCORE.INTRA.norm>
-0.0168826

>  <SCORE.RESTR>
1.84669

>  <SCORE.RESTR.CAVITY>
1.84669

>  <SCORE.RESTR.norm>
0.0710267

>  <SCORE.SYSTEM>
0

>  <SCORE.SYSTEM.CONST>
0

>  <SCORE.SYSTEM.DIHEDRAL>
0

>  <SCORE.SYSTEM.SOLV>
0

>  <SCORE.SYSTEM.norm>
0

>  <SCORE.heavy>
26

>  <SCORE.norm>
-0.304583

>  <RMSD>
23.964

$$$$
ligand
 OpenBabel11021811473D
libRbt.so/2013.1/901 2013/11/27
 26 28  0  0  0  0  0  0  0  0999 V2000
    9.0008    7.6417  -15.4133 N   0  0  0  0  0  0  0  0  0  0  0  0
    8.7155    6.3568  -14.7628 C   0  0  2  0  0  0  0  0  0  0  0  0
    9.6975    5.3220  -15.2456 C   0  0  0  0  0  0  0  0  0  0  0  0
   10.0559    4.4360  -14.5057 O   0  0  0  0  0  0  0  0  0  0  0  0
    7.2936    5.9141  -15.1120 C   0  0  0  0  0  0  0  0  0  0  0  0
    6.9569    4.6326  -14.3518 C   0  0  0  0  0  0  0  0  0  0  0  0
    7.2596    4.5122  -12.6851 S   0  0  0  0  0  0  0  0  0  0  0  0
    8.6901    4.5293  -11.5741 C   0  0  0  0  0  0  0  0  0  0  0  0
    9.5151    3.2366  -11.5703 C   0  0  1  0  0  0  0  0  0  0  0  0
    9.2311    2.4174  -10.4509 O   0  0  0  0  0  0  0  0  0  0  0  0
    9.1775    2.3438  -12.7409 C   0  0  1  0  0  0  0  0  0  0  0  0
   10.3182    1.5333  -12.9205 O   0  0  0  0  0  0  0  0  0  0  0  0
    8.0479    1.4653  -12.2558 C   0  0  1  0  0  0  0  0  0  0  0  0
    8.2355    0.1477  -12.7242 O   0  0  0  0  0  0  0  0  0  0  0  0
    8.2026    1.4926  -10.7506 C   0  0  2  0  0  0  0  0  0  0  0  0
   10.1783    5.3841  -16.4982 O   0  0  0  0  0  0  0  0  0  0  0  0
    5.7443    1.5142   -6.1495 N   0  0  0  0  0  0  0  0  0  0  0  0
    6.9344    0.9063   -6.4722 C   0  0  0  0  0  0  0  0  0  0  0  0
    7.4189    1.0038   -7.7543 N   0  0  0  0  0  0  0  0  0  0  0  0
    6.7412    1.6893   -8.6956 C   0  0  0  0  0  0  0  0  0  0  0  0
    5.5434    2.3087   -8.3924 C   0  0  0  0  0  0  0  0  0  0  0  0
    5.0428    2.2134   -7.0992 C   0  0  0  0  0  0  0  0  0  0  0  0
    3.8945    2.7893   -6.7659 N   0  0  0  0  0  0  0  0  0  0  0  0
    5.0859    2.9159   -9.5102 N   0  0  0  0  0  0  0  0  0  0  0  0
    5.9718    2.6956  -10.5011 C   0  0  0  0  0  0  0  0  0  0  0  0
    6.9996    1.9271  -10.0172 N   0  0  0  0  0  0  0  0  0  0  0  0
  2  1  1  6  0  0  0
  2  3  1  0  0  0  0
  2  5  1  0  0  0  0
  3  4  1  0  0  0  0
  3 16  1  0  0  0  0
  5  6  1  0  0  0  0
  6  7  1  0  0  0  0
  7  8  1  0  0  0  0
  9  8  1  1  0  0  0
  9 10  1  0  0  0  0
  9 11  1  0  0  0  0
 10 15  1  0  0  0  0
 11 12  1  1  0  0  0
 11 13  1  0  0  0  0
 13 14  1  6  0  0  0
 13 15  1  0  0  0  0
 15 26  1  1  0  0  0
 17 18  2  0  0  0  0
 17 22  1  0  0  0  0
 18 19  1  0  0  0  0
 19 20  2  0  0  0  0
 20 21  1  0  0  0  0
 20 26  1  0  0  0  0
 21 22  2  0  0  0  0
 21 24  1  0  0  0  0
 22 23  1  0  0  0  0
 24 25  2  0  0  0  0
 25 26  1  0  0  0  0
M  END
>  <CHROM.1>
147.51944134,-175.71181931,48.36673521,-63.87074460,-75.50316616,-101.07920844
-80.65841720,7.73989143,3.20706220,-11.51095255,1.07009560,0.71581221,-0.77234095

>  <Name>
ligand

>  <RI>
0

>  <Rbt.Current_Directory>
/home/itssahil/PROJECTS/Mol_Feturizer/New_Systems/rnas/3E5E

>  <Rbt.Executable>
rbdock ($Id: //depot/dev/client3/rdock/2013.1/src/exe/rbdock.cxx#4 $)

>  <Rbt.Library>
libRbt.so (2013.1, Build901 2013/11/27)

>  <Rbt.Parameter_File>
/export/apps/rDock/src/rDock_2013.1_src/data/scripts/dock_solv.prm

>  <Rbt.Receptor>
prm/blind_docking_20.prm

>  <SCORE>
-6.03671

>  <SCORE.INTER>
-5.82843

>  <SCORE.INTER.CONST>
1

>  <SCORE.INTER.POLAR>
0

>  <SCORE.INTER.ROT>
7

>  <SCORE.INTER.SOLV>
9.24611

>  <SCORE.INTER.VDW>
-15.2343

>  <SCORE.INTER.norm>
-0.22417

>  <SCORE.INTRA>
-1.85722

>  <SCORE.INTRA.DIHEDRAL>
-2.5766

>  <SCORE.INTRA.DIHEDRAL.0>
10.1225

>  <SCORE.INTRA.POLAR>
0

>  <SCORE.INTRA.POLAR.0>
0

>  <SCORE.INTRA.REPUL>
0

>  <SCORE.INTRA.REPUL.0>
0

>  <SCORE.INTRA.SOLV>
0.131833

>  <SCORE.INTRA.SOLV.lig_0>
-49.9393

>  <SCORE.INTRA.VDW>
-0.63484

>  <SCORE.INTRA.VDW.0>
-1.75437

>  <SCORE.INTRA.norm>
-0.0714317

>  <SCORE.RESTR>
1.64894

>  <SCORE.RESTR.CAVITY>
1.64894

>  <SCORE.RESTR.norm>
0.0634207

>  <SCORE.SYSTEM>
0

>  <SCORE.SYSTEM.CONST>
0

>  <SCORE.SYSTEM.DIHEDRAL>
0

>  <SCORE.SYSTEM.SOLV>
0

>  <SCORE.SYSTEM.norm>
0

>  <SCORE.heavy>
26

>  <SCORE.norm>
-0.232181

>  <RMSD>
23.972

$$$$
ligand
 OpenBabel11021811473D
libRbt.so/2013.1/901 2013/11/27
 26 28  0  0  0  0  0  0  0  0999 V2000
    8.9364    8.0403  -14.3352 N   0  0  0  0  0  0  0  0  0  0  0  0
    9.0578    6.6230  -13.9716 C   0  0  2  0  0  0  0  0  0  0  0  0
    9.6929    6.5076  -12.6109 C   0  0  0  0  0  0  0  0  0  0  0  0
    9.0006    6.3719  -11.6294 O   0  0  0  0  0  0  0  0  0  0  0  0
    9.9284    5.9054  -15.0044 C   0  0  0  0  0  0  0  0  0  0  0  0
   10.0242    4.4227  -14.6492 C   0  0  0  0  0  0  0  0  0  0  0  0
    8.7148    3.6224  -13.9219 S   0  0  0  0  0  0  0  0  0  0  0  0
    8.1331    3.2420  -12.2492 C   0  0  0  0  0  0  0  0  0  0  0  0
    8.8473    2.0649  -11.5737 C   0  0  1  0  0  0  0  0  0  0  0  0
    8.5327    1.9597  -10.1972 O   0  0  0  0  0  0  0  0  0  0  0  0
    8.3985    0.7338  -12.1290 C   0  0  1  0  0  0  0  0  0  0  0  0
    9.4614   -0.1519  -11.8528 O   0  0  0  0  0  0  0  0  0  0  0  0
    7.2161    0.3291  -11.2799 C   0  0  1  0  0  0  0  0  0  0  0  0
    7.2780   -1.0538  -11.0069 O   0  0  0  0  0  0  0  0  0  0  0  0
    7.4215    1.1063   -9.9976 C   0  0  2  0  0  0  0  0  0  0  0  0
   11.0293    6.5581  -12.4861 O   0  0  0  0  0  0  0  0  0  0  0  0
    4.3802    2.6806   -6.0624 N   0  0  0  0  0  0  0  0  0  0  0  0
    5.3955    1.7541   -6.0312 C   0  0  0  0  0  0  0  0  0  0  0  0
    6.0806    1.4611   -7.1857 N   0  0  0  0  0  0  0  0  0  0  0  0
    5.7688    2.0729   -8.3449 C   0  0  0  0  0  0  0  0  0  0  0  0
    4.7524    3.0080   -8.3983 C   0  0  0  0  0  0  0  0  0  0  0  0
    4.0509    3.3092   -7.2368 C   0  0  0  0  0  0  0  0  0  0  0  0
    3.0650    4.1978   -7.2439 N   0  0  0  0  0  0  0  0  0  0  0  0
    4.6558    3.4561   -9.6700 N   0  0  0  0  0  0  0  0  0  0  0  0
    5.5908    2.8282  -10.4094 C   0  0  0  0  0  0  0  0  0  0  0  0
    6.2833    1.9581   -9.6066 N   0  0  0  0  0  0  0  0  0  0  0  0
  2  1  1  6  0  0  0
  2  3  1  0  0  0  0
  2  5  1  0  0  0  0
  3  4  1  0  0  0  0
  3 16  1  0  0  0  0
  5  6  1  0  0  0  0
  6  7  1  0  0  0  0
  7  8  1  0  0  0  0
  9  8  1  6  0  0  0
  9 10  1  0  0  0  0
  9 11  1  0  0  0  0
 10 15  1  0  0  0  0
 11 12  1  1  0  0  0
 11 13  1  0  0  0  0
 13 14  1  1  0  0  0
 13 15  1  0  0  0  0
 15 26  1  6  0  0  0
 17 18  2  0  0  0  0
 17 22  1  0  0  0  0
 18 19  1  0  0  0  0
 19 20  2  0  0  0  0
 20 21  1  0  0  0  0
 20 26  1  0  0  0  0
 21 22  2  0  0  0  0
 21 24  1  0  0  0  0
 22 23  1  0  0  0  0
 24 25  2  0  0  0  0
 25 26  1  0  0  0  0
M  END
>  <CHROM.1>
96.72612590,-178.44767225,33.48845393,-92.08620324,-78.71139112,169.33905423
-105.14862472,7.51963388,3.21309772,-10.95301896,0.53177174,0.88405057,-0.12635750

>  <Name>
ligand

>  <RI>
0

>  <Rbt.Current_Directory>
/home/itssahil/PROJECTS/Mol_Feturizer/New_Systems/rnas/3E5E

>  <Rbt.Executable>
rbdock ($Id: //depot/dev/client3/rdock/2013.1/src/exe/rbdock.cxx#4 $)

>  <Rbt.Library>
libRbt.so (2013.1, Build901 2013/11/27)

>  <Rbt.Parameter_File>
/export/apps/rDock/src/rDock_2013.1_src/data/scripts/dock_solv.prm

>  <Rbt.Receptor>
prm/blind_docking_20.prm

>  <SCORE>
0.269423

>  <SCORE.INTER>
-0.780933

>  <SCORE.INTER.CONST>
1

>  <SCORE.INTER.POLAR>
0

>  <SCORE.INTER.ROT>
7

>  <SCORE.INTER.SOLV>
12.2378

>  <SCORE.INTER.VDW>
-12.8666

>  <SCORE.INTER.norm>
-0.0300359

>  <SCORE.INTRA>
-1.75165

>  <SCORE.INTRA.DIHEDRAL>
-3.00145

>  <SCORE.INTRA.DIHEDRAL.0>
10.1225

>  <SCORE.INTRA.POLAR>
0

>  <SCORE.INTRA.POLAR.0>
0

>  <SCORE.INTRA.REPUL>
0

>  <SCORE.INTRA.REPUL.0>
0

>  <SCORE.INTRA.SOLV>
-0.36392

>  <SCORE.INTRA.SOLV.lig_0>
-49.9393

>  <SCORE.INTRA.VDW>
-0.0689641

>  <SCORE.INTRA.VDW.0>
-1.75437

>  <SCORE.INTRA.norm>
-0.0673711

>  <SCORE.RESTR>
2.802

>  <SCORE.RESTR.CAVITY>
2.802

>  <SCORE.RESTR.norm>
0.107769

>  <SCORE.SYSTEM>
0

>  <SCORE.SYSTEM.CONST>
0

>  <SCORE.SYSTEM.DIHEDRAL>
0

>  <SCORE.SYSTEM.SOLV>
0

>  <SCORE.SYSTEM.norm>
0

>  <SCORE.heavy>
26

>  <SCORE.norm>
0.0103624

>  <RMSD>
23.996

$$$$
ligand
 OpenBabel11021811473D
libRbt.so/2013.1/901 2013/11/27
 26 28  0  0  0  0  0  0  0  0999 V2000
    8.6235    5.2305  -16.9883 N   0  0  0  0  0  0  0  0  0  0  0  0
    7.9653    6.2541  -16.1669 C   0  0  2  0  0  0  0  0  0  0  0  0
    8.8106    6.5431  -14.9544 C   0  0  0  0  0  0  0  0  0  0  0  0
    8.3754    7.2356  -14.0644 O   0  0  0  0  0  0  0  0  0  0  0  0
    6.5925    5.7455  -15.7234 C   0  0  0  0  0  0  0  0  0  0  0  0
    6.7551    4.4227  -14.9770 C   0  0  0  0  0  0  0  0  0  0  0  0
    7.4487    4.3850  -13.4272 S   0  0  0  0  0  0  0  0  0  0  0  0
    7.1349    5.1081  -11.7963 C   0  0  0  0  0  0  0  0  0  0  0  0
    8.3953    5.4893  -11.0102 C   0  0  1  0  0  0  0  0  0  0  0  0
    8.8550    4.4367  -10.1822 O   0  0  0  0  0  0  0  0  0  0  0  0
    9.5742    5.7491  -11.9180 C   0  0  1  0  0  0  0  0  0  0  0  0
   10.4329    6.5811  -11.1692 O   0  0  0  0  0  0  0  0  0  0  0  0
   10.2479    4.4070  -12.0858 C   0  0  1  0  0  0  0  0  0  0  0  0
   11.6488    4.5705  -12.0497 O   0  0  0  0  0  0  0  0  0  0  0  0
    9.7985    3.6330  -10.8653 C   0  0  2  0  0  0  0  0  0  0  0  0
   10.0499    6.0338  -14.8618 O   0  0  0  0  0  0  0  0  0  0  0  0
    6.5406   -0.0387   -9.0994 N   0  0  0  0  0  0  0  0  0  0  0  0
    6.9815    1.0885   -8.4474 C   0  0  0  0  0  0  0  0  0  0  0  0
    7.8571    1.9378   -9.0798 N   0  0  0  0  0  0  0  0  0  0  0  0
    8.2853    1.6782  -10.3306 C   0  0  0  0  0  0  0  0  0  0  0  0
    7.8538    0.5512  -11.0046 C   0  0  0  0  0  0  0  0  0  0  0  0
    6.9706   -0.3162  -10.3726 C   0  0  0  0  0  0  0  0  0  0  0  0
    6.5342   -1.4118  -10.9815 N   0  0  0  0  0  0  0  0  0  0  0  0
    8.4347    0.5396  -12.2252 N   0  0  0  0  0  0  0  0  0  0  0  0
    9.2127    1.6345  -12.3311 C   0  0  0  0  0  0  0  0  0  0  0  0
    9.1413    2.3468  -11.1613 N   0  0  0  0  0  0  0  0  0  0  0  0
  2  1  1  6  0  0  0
  2  3  1  0  0  0  0
  2  5  1  0  0  0  0
  3  4  1  0  0  0  0
  3 16  1  0  0  0  0
  5  6  1  0  0  0  0
  6  7  1  0  0  0  0
  7  8  1  0  0  0  0
  9  8  1  6  0  0  0
  9 10  1  0  0  0  0
  9 11  1  0  0  0  0
 10 15  1  0  0  0  0
 11 12  1  1  0  0  0
 11 13  1  0  0  0  0
 13 14  1  1  0  0  0
 13 15  1  0  0  0  0
 15 26  1  6  0  0  0
 17 18  2  0  0  0  0
 17 22  1  0  0  0  0
 18 19  1  0  0  0  0
 19 20  2  0  0  0  0
 20 21  1  0  0  0  0
 20 26  1  0  0  0  0
 21 22  2  0  0  0  0
 21 24  1  0  0  0  0
 22 23  1  0  0  0  0
 24 25  2  0  0  0  0
 25 26  1  0  0  0  0
M  END
>  <CHROM.1>
-170.96615878,56.60814134,70.98060100,58.50697194,-143.18186521,-90.94143411
-38.74371919,8.39925292,3.74000575,-12.29701693,1.32817498,-0.88632110,-0.89183797

>  <Name>
ligand

>  <RI>
0

>  <Rbt.Current_Directory>
/home/itssahil/PROJECTS/Mol_Feturizer/New_Systems/rnas/3E5E

>  <Rbt.Executable>
rbdock ($Id: //depot/dev/client3/rdock/2013.1/src/exe/rbdock.cxx#4 $)

>  <Rbt.Library>
libRbt.so (2013.1, Build901 2013/11/27)

>  <Rbt.Parameter_File>
/export/apps/rDock/src/rDock_2013.1_src/data/scripts/dock_solv.prm

>  <Rbt.Receptor>
prm/blind_docking_20.prm

>  <SCORE>
-2.41948

>  <SCORE.INTER>
-4.11002

>  <SCORE.INTER.CONST>
1

>  <SCORE.INTER.POLAR>
0

>  <SCORE.INTER.ROT>
7

>  <SCORE.INTER.SOLV>
13.5865

>  <SCORE.INTER.VDW>
-15.5355

>  <SCORE.INTER.norm>
-0.158078

>  <SCORE.INTRA>
-0.945928

>  <SCORE.INTRA.DIHEDRAL>
-2.53461

>  <SCORE.INTRA.DIHEDRAL.0>
10.1225

>  <SCORE.INTRA.POLAR>
0

>  <SCORE.INTRA.POLAR.0>
0

>  <SCORE.INTRA.REPUL>
0

>  <SCORE.INTRA.REPUL.0>
0

>  <SCORE.INTRA.SOLV>
1.48571

>  <SCORE.INTRA.SOLV.lig_0>
-49.9393

>  <SCORE.INTRA.VDW>
-0.421479

>  <SCORE.INTRA.VDW.0>
-1.75437

>  <SCORE.INTRA.norm>
-0.0363818

>  <SCORE.RESTR>
2.63647

>  <SCORE.RESTR.CAVITY>
2.63647

>  <SCORE.RESTR.norm>
0.101403

>  <SCORE.SYSTEM>
0

>  <SCORE.SYSTEM.CONST>
0

>  <SCORE.SYSTEM.DIHEDRAL>
0

>  <SCORE.SYSTEM.SOLV>
0

>  <SCORE.SYSTEM.norm>
0

>  <SCORE.heavy>
26

>  <SCORE.norm>
-0.0930568

>  <RMSD>
24.010

$$$$
ligand
 OpenBabel11021811473D
libRbt.so/2013.1/901 2013/11/27
 26 28  0  0  0  0  0  0  0  0999 V2000
    8.7802    2.2808  -14.2142 N   0  0  0  0  0  0  0  0  0  0  0  0
    8.6636    3.6333  -13.6550 C   0  0  2  0  0  0  0  0  0  0  0  0
    8.8592    4.6471  -14.7514 C   0  0  0  0  0  0  0  0  0  0  0  0
    7.9213    5.2987  -15.1475 O   0  0  0  0  0  0  0  0  0  0  0  0
    9.7316    3.8326  -12.5782 C   0  0  0  0  0  0  0  0  0  0  0  0
    9.3787    2.9977  -11.3487 C   0  0  0  0  0  0  0  0  0  0  0  0
    7.8149    3.0507  -10.6884 S   0  0  0  0  0  0  0  0  0  0  0  0
    6.6632    4.2992  -10.0593 C   0  0  0  0  0  0  0  0  0  0  0  0
    5.1897    4.0407  -10.3964 C   0  0  1  0  0  0  0  0  0  0  0  0
    4.8754    2.6603  -10.4232 O   0  0  0  0  0  0  0  0  0  0  0  0
    4.2607    4.5816   -9.3353 C   0  0  1  0  0  0  0  0  0  0  0  0
    3.0287    4.7743   -9.9951 O   0  0  0  0  0  0  0  0  0  0  0  0
    4.0924    3.4536   -8.3442 C   0  0  1  0  0  0  0  0  0  0  0  0
    2.7476    3.3881   -7.9225 O   0  0  0  0  0  0  0  0  0  0  0  0
    4.4277    2.2203   -9.1548 C   0  0  2  0  0  0  0  0  0  0  0  0
   10.0754    4.8266  -15.2922 O   0  0  0  0  0  0  0  0  0  0  0  0
    6.7560    0.6176   -4.7703 N   0  0  0  0  0  0  0  0  0  0  0  0
    5.7312    1.5243   -4.9036 C   0  0  0  0  0  0  0  0  0  0  0  0
    5.2556    1.8295   -6.1561 N   0  0  0  0  0  0  0  0  0  0  0  0
    5.7816    1.2489   -7.2522 C   0  0  0  0  0  0  0  0  0  0  0  0
    6.8118    0.3341   -7.1407 C   0  0  0  0  0  0  0  0  0  0  0  0
    7.3024    0.0208   -5.8786 C   0  0  0  0  0  0  0  0  0  0  0  0
    8.2932   -0.8491   -5.7261 N   0  0  0  0  0  0  0  0  0  0  0  0
    7.1425   -0.0845   -8.3828 N   0  0  0  0  0  0  0  0  0  0  0  0
    6.3399    0.5419   -9.2653 C   0  0  0  0  0  0  0  0  0  0  0  0
    5.4968    1.3814   -8.5830 N   0  0  0  0  0  0  0  0  0  0  0  0
  2  1  1  6  0  0  0
  2  3  1  0  0  0  0
  2  5  1  0  0  0  0
  3  4  1  0  0  0  0
  3 16  1  0  0  0  0
  5  6  1  0  0  0  0
  6  7  1  0  0  0  0
  7  8  1  0  0  0  0
  9  8  1  1  0  0  0
  9 10  1  0  0  0  0
  9 11  1  0  0  0  0
 10 15  1  0  0  0  0
 11 12  1  6  0  0  0
 11 13  1  0  0  0  0
 13 14  1  6  0  0  0
 13 15  1  0  0  0  0
 15 26  1  1  0  0  0
 17 18  2  0  0  0  0
 17 22  1  0  0  0  0
 18 19  1  0  0  0  0
 19 20  2  0  0  0  0
 20 21  1  0  0  0  0
 20 26  1  0  0  0  0
 21 22  2  0  0  0  0
 21 24  1  0  0  0  0
 22 23  1  0  0  0  0
 24 25  2  0  0  0  0
 25 26  1  0  0  0  0
M  END
>  <CHROM.1>
109.08204282,-70.97314487,-48.75298373,-55.40958095,142.57912332,33.85830138
148.89254946,6.63921951,2.65064279,-9.81285807,-1.17750371,-0.44235374,2.13519777

>  <Name>
ligand

>  <RI>
0

>  <Rbt.Current_Directory>
/home/itssahil/PROJECTS/Mol_Feturizer/New_Systems/rnas/3E5E

>  <Rbt.Executable>
rbdock ($Id: //depot/dev/client3/rdock/2013.1/src/exe/rbdock.cxx#4 $)

>  <Rbt.Library>
libRbt.so (2013.1, Build901 2013/11/27)

>  <Rbt.Parameter_File>
/export/apps/rDock/src/rDock_2013.1_src/data/scripts/dock_solv.prm

>  <Rbt.Receptor>
prm/blind_docking_20.prm

>  <SCORE>
-0.611575

>  <SCORE.INTER>
-1.62608

>  <SCORE.INTER.CONST>
1

>  <SCORE.INTER.POLAR>
0

>  <SCORE.INTER.ROT>
7

>  <SCORE.INTER.SOLV>
13.48

>  <SCORE.INTER.VDW>
-13.8441

>  <SCORE.INTER.norm>
-0.0625414

>  <SCORE.INTRA>
-1.90641

>  <SCORE.INTRA.DIHEDRAL>
-2.87925

>  <SCORE.INTRA.DIHEDRAL.0>
10.1225

>  <SCORE.INTRA.POLAR>
0

>  <SCORE.INTRA.POLAR.0>
0

>  <SCORE.INTRA.REPUL>
0

>  <SCORE.INTRA.REPUL.0>
0

>  <SCORE.INTRA.SOLV>
0.996628

>  <SCORE.INTRA.SOLV.lig_0>
-49.9393

>  <SCORE.INTRA.VDW>
-0.9651

>  <SCORE.INTRA.VDW.0>
-1.75437

>  <SCORE.INTRA.norm>
-0.0733235

>  <SCORE.RESTR>
2.92091

>  <SCORE.RESTR.CAVITY>
2.92091

>  <SCORE.RESTR.norm>
0.112343

>  <SCORE.SYSTEM>
0

>  <SCORE.SYSTEM.CONST>
0

>  <SCORE.SYSTEM.DIHEDRAL>
0

>  <SCORE.SYSTEM.SOLV>
0

>  <SCORE.SYSTEM.norm>
0

>  <SCORE.heavy>
26

>  <SCORE.norm>
-0.0235221

>  <RMSD>
24.041

$$$$
ligand
 OpenBabel11021811473D
libRbt.so/2013.1/901 2013/11/27
 26 28  0  0  0  0  0  0  0  0999 V2000
    8.4665    6.1267  -16.4344 N   0  0  0  0  0  0  0  0  0  0  0  0
    8.4077    6.0316  -14.9704 C   0  0  2  0  0  0  0  0  0  0  0  0
    9.7353    6.4397  -14.3882 C   0  0  0  0  0  0  0  0  0  0  0  0
   10.5464    7.0149  -15.0755 O   0  0  0  0  0  0  0  0  0  0  0  0
    8.0938    4.5901  -14.5663 C   0  0  0  0  0  0  0  0  0  0  0  0
    6.9908    4.5850  -13.5094 C   0  0  0  0  0  0  0  0  0  0  0  0
    7.3214    5.0630  -11.9137 S   0  0  0  0  0  0  0  0  0  0  0  0
    8.7622    5.2108  -10.8260 C   0  0  0  0  0  0  0  0  0  0  0  0
    9.7589    4.0491  -10.9198 C   0  0  1  0  0  0  0  0  0  0  0  0
    9.4353    2.9869  -10.0413 O   0  0  0  0  0  0  0  0  0  0  0  0
    9.7348    3.3882  -12.2778 C   0  0  1  0  0  0  0  0  0  0  0  0
   10.9965    2.7694  -12.4030 O   0  0  0  0  0  0  0  0  0  0  0  0
    8.6876    2.3042  -12.1719 C   0  0  1  0  0  0  0  0  0  0  0  0
    9.1351    1.1441  -12.8386 O   0  0  0  0  0  0  0  0  0  0  0  0
    8.6106    2.0336  -10.6848 C   0  0  2  0  0  0  0  0  0  0  0  0
   10.0207    6.1626  -13.1054 O   0  0  0  0  0  0  0  0  0  0  0  0
    5.6892    1.4253   -6.4060 N   0  0  0  0  0  0  0  0  0  0  0  0
    7.0185    1.1187   -6.5757 C   0  0  0  0  0  0  0  0  0  0  0  0
    7.6148    1.3415   -7.7935 N   0  0  0  0  0  0  0  0  0  0  0  0
    6.9112    1.8581   -8.8198 C   0  0  0  0  0  0  0  0  0  0  0  0
    5.5740    2.1743   -8.6705 C   0  0  0  0  0  0  0  0  0  0  0  0
    4.9604    1.9497   -7.4437 C   0  0  0  0  0  0  0  0  0  0  0  0
    3.6776    2.2351   -7.2578 N   0  0  0  0  0  0  0  0  0  0  0  0
    5.1222    2.6686   -9.8447 N   0  0  0  0  0  0  0  0  0  0  0  0
    6.1460    2.6741  -10.7205 C   0  0  0  0  0  0  0  0  0  0  0  0
    7.2610    2.1644  -10.1058 N   0  0  0  0  0  0  0  0  0  0  0  0
  2  1  1  6  0  0  0
  2  3  1  0  0  0  0
  2  5  1  0  0  0  0
  3  4  1  0  0  0  0
  3 16  1  0  0  0  0
  5  6  1  0  0  0  0
  6  7  1  0  0  0  0
  7  8  1  0  0  0  0
  9  8  1  6  0  0  0
  9 10  1  0  0  0  0
  9 11  1  0  0  0  0
 10 15  1  0  0  0  0
 11 12  1  1  0  0  0
 11 13  1  0  0  0  0
 13 14  1  6  0  0  0
 13 15  1  0  0  0  0
 15 26  1  1  0  0  0
 17 18  2  0  0  0  0
 17 22  1  0  0  0  0
 18 19  1  0  0  0  0
 19 20  2  0  0  0  0
 20 21  1  0  0  0  0
 20 26  1  0  0  0  0
 21 22  2  0  0  0  0
 21 24  1  0  0  0  0
 22 23  1  0  0  0  0
 24 25  2  0  0  0  0
 25 26  1  0  0  0  0
M  END
>  <CHROM.1>
14.27070152,-133.14318851,-73.77265917,-21.61859355,-41.68652067,-87.93887907
-67.25876632,7.92423325,3.55810359,-11.26371332,1.12610770,0.31827268,-0.88927811

>  <Name>
ligand

>  <RI>
0

>  <Rbt.Current_Directory>
/home/itssahil/PROJECTS/Mol_Feturizer/New_Systems/rnas/3E5E

>  <Rbt.Executable>
rbdock ($Id: //depot/dev/client3/rdock/2013.1/src/exe/rbdock.cxx#4 $)

>  <Rbt.Library>
libRbt.so (2013.1, Build901 2013/11/27)

>  <Rbt.Parameter_File>
/export/apps/rDock/src/rDock_2013.1_src/data/scripts/dock_solv.prm

>  <Rbt.Receptor>
prm/blind_docking_20.prm

>  <SCORE>
-0.566884

>  <SCORE.INTER>
-4.84122

>  <SCORE.INTER.CONST>
1

>  <SCORE.INTER.POLAR>
0

>  <SCORE.INTER.ROT>
7

>  <SCORE.INTER.SOLV>
9.35087

>  <SCORE.INTER.VDW>
-14.6111

>  <SCORE.INTER.norm>
-0.186201

>  <SCORE.INTRA>
1.82611

>  <SCORE.INTRA.DIHEDRAL>
2.9209

>  <SCORE.INTRA.DIHEDRAL.0>
10.1225

>  <SCORE.INTRA.POLAR>
0

>  <SCORE.INTRA.POLAR.0>
0

>  <SCORE.INTRA.REPUL>
0

>  <SCORE.INTRA.REPUL.0>
0

>  <SCORE.INTRA.SOLV>
0.497424

>  <SCORE.INTRA.SOLV.lig_0>
-49.9393

>  <SCORE.INTRA.VDW>
0.116946

>  <SCORE.INTRA.VDW.0>
-1.75437

>  <SCORE.INTRA.norm>
0.0702348

>  <SCORE.RESTR>
2.44823

>  <SCORE.RESTR.CAVITY>
2.44823

>  <SCORE.RESTR.norm>
0.0941626

>  <SCORE.SYSTEM>
0

>  <SCORE.SYSTEM.CONST>
0

>  <SCORE.SYSTEM.DIHEDRAL>
0

>  <SCORE.SYSTEM.SOLV>
0

>  <SCORE.SYSTEM.norm>
0

>  <SCORE.heavy>
26

>  <SCORE.norm>
-0.0218032

>  <RMSD>
24.058

$$$$
ligand
 OpenBabel11021811473D
libRbt.so/2013.1/901 2013/11/27
 26 28  0  0  0  0  0  0  0  0999 V2000
    8.2559    5.0872  -17.0912 N   0  0  0  0  0  0  0  0  0  0  0  0
    8.3145    6.0973  -16.0274 C   0  0  2  0  0  0  0  0  0  0  0  0
    9.4983    5.8206  -15.1385 C   0  0  0  0  0  0  0  0  0  0  0  0
   10.0063    6.7193  -14.5098 O   0  0  0  0  0  0  0  0  0  0  0  0
    7.0295    6.0399  -15.1996 C   0  0  0  0  0  0  0  0  0  0  0  0
    6.8760    4.6470  -14.5915 C   0  0  0  0  0  0  0  0  0  0  0  0
    7.2633    4.3686  -12.9616 S   0  0  0  0  0  0  0  0  0  0  0  0
    7.0921    5.2244  -11.3743 C   0  0  0  0  0  0  0  0  0  0  0  0
    8.4160    5.6564  -10.7322 C   0  0  1  0  0  0  0  0  0  0  0  0
    9.0518    4.5976  -10.0396 O   0  0  0  0  0  0  0  0  0  0  0  0
    9.4444    6.0553  -11.7641 C   0  0  1  0  0  0  0  0  0  0  0  0
   10.3354    6.9075  -11.0784 O   0  0  0  0  0  0  0  0  0  0  0  0
   10.1803    4.7799  -12.1031 C   0  0  1  0  0  0  0  0  0  0  0  0
   11.5593    5.0474  -12.2353 O   0  0  0  0  0  0  0  0  0  0  0  0
    9.9498    3.9074  -10.8881 C   0  0  2  0  0  0  0  0  0  0  0  0
    9.9928    4.5752  -15.0455 O   0  0  0  0  0  0  0  0  0  0  0  0
    6.7924    0.1380   -9.1454 N   0  0  0  0  0  0  0  0  0  0  0  0
    7.1750    1.2898   -8.4995 C   0  0  0  0  0  0  0  0  0  0  0  0
    8.0325    2.1634   -9.1237 N   0  0  0  0  0  0  0  0  0  0  0  0
    8.4994    1.9036  -10.3605 C   0  0  0  0  0  0  0  0  0  0  0  0
    8.1268    0.7521  -11.0281 C   0  0  0  0  0  0  0  0  0  0  0  0
    7.2625   -0.1399  -10.4042 C   0  0  0  0  0  0  0  0  0  0  0  0
    6.8822   -1.2594  -11.0073 N   0  0  0  0  0  0  0  0  0  0  0  0
    8.7363    0.7463  -12.2347 N   0  0  0  0  0  0  0  0  0  0  0  0
    9.4746    1.8685  -12.3384 C   0  0  0  0  0  0  0  0  0  0  0  0
    9.3488    2.5932  -11.1808 N   0  0  0  0  0  0  0  0  0  0  0  0
  2  1  1  6  0  0  0
  2  3  1  0  0  0  0
  2  5  1  0  0  0  0
  3  4  1  0  0  0  0
  3 16  1  0  0  0  0
  5  6  1  0  0  0  0
  6  7  1  0  0  0  0
  7  8  1  0  0  0  0
  9  8  1  6  0  0  0
  9 10  1  0  0  0  0
  9 11  1  0  0  0  0
 10 15  1  0  0  0  0
 11 12  1  1  0  0  0
 11 13  1  0  0  0  0
 13 14  1  1  0  0  0
 13 15  1  0  0  0  0
 15 26  1  6  0  0  0
 17 18  2  0  0  0  0
 17 22  1  0  0  0  0
 18 19  1  0  0  0  0
 19 20  2  0  0  0  0
 20 21  1  0  0  0  0
 20 26  1  0  0  0  0
 21 22  2  0  0  0  0
 21 24  1  0  0  0  0
 22 23  1  0  0  0  0
 24 25  2  0  0  0  0
 25 26  1  0  0  0  0
M  END
>  <CHROM.1>
154.81142053,59.27698627,101.66168469,38.79671700,-113.42968603,-81.31068965
-28.77659301,8.57710301,3.79503202,-12.23358615,1.20778230,-1.01863522,-1.04447635

>  <Name>
ligand

>  <RI>
0

>  <Rbt.Current_Directory>
/home/itssahil/PROJECTS/Mol_Feturizer/New_Systems/rnas/3E5E

>  <Rbt.Executable>
rbdock ($Id: //depot/dev/client3/rdock/2013.1/src/exe/rbdock.cxx#4 $)

>  <Rbt.Library>
libRbt.so (2013.1, Build901 2013/11/27)

>  <Rbt.Parameter_File>
/export/apps/rDock/src/rDock_2013.1_src/data/scripts/dock_solv.prm

>  <Rbt.Receptor>
prm/blind_docking_20.prm

>  <SCORE>
1.20681

>  <SCORE.INTER>
0.141521

>  <SCORE.INTER.CONST>
1

>  <SCORE.INTER.POLAR>
0

>  <SCORE.INTER.ROT>
7

>  <SCORE.INTER.SOLV>
15.07

>  <SCORE.INTER.VDW>
-13.1957

>  <SCORE.INTER.norm>
0.00544311

>  <SCORE.INTRA>
-0.616555

>  <SCORE.INTRA.DIHEDRAL>
1.45371

>  <SCORE.INTRA.DIHEDRAL.0>
10.1225

>  <SCORE.INTRA.POLAR>
0

>  <SCORE.INTRA.POLAR.0>
0

>  <SCORE.INTRA.REPUL>
0

>  <SCORE.INTRA.REPUL.0>
0

>  <SCORE.INTRA.SOLV>
1.27209

>  <SCORE.INTRA.SOLV.lig_0>
-49.9393

>  <SCORE.INTRA.VDW>
-1.97946

>  <SCORE.INTRA.VDW.0>
-1.75437

>  <SCORE.INTRA.norm>
-0.0237137

>  <SCORE.RESTR>
1.68184

>  <SCORE.RESTR.CAVITY>
1.68184

>  <SCORE.RESTR.norm>
0.0646862

>  <SCORE.SYSTEM>
0

>  <SCORE.SYSTEM.CONST>
0

>  <SCORE.SYSTEM.DIHEDRAL>
0

>  <SCORE.SYSTEM.SOLV>
0

>  <SCORE.SYSTEM.norm>
0

>  <SCORE.heavy>
26

>  <SCORE.norm>
0.0464156

>  <RMSD>
24.131

$$$$
ligand
 OpenBabel11021811473D
libRbt.so/2013.1/901 2013/11/27
 26 28  0  0  0  0  0  0  0  0999 V2000
   10.6065    4.8587  -12.4639 N   0  0  0  0  0  0  0  0  0  0  0  0
   10.0706    5.9513  -11.6425 C   0  0  2  0  0  0  0  0  0  0  0  0
    9.5443    5.3921  -10.3470 C   0  0  0  0  0  0  0  0  0  0  0  0
    8.7216    6.0089   -9.7114 O   0  0  0  0  0  0  0  0  0  0  0  0
    8.9362    6.6463  -12.3974 C   0  0  0  0  0  0  0  0  0  0  0  0
    9.0420    6.3243  -13.8869 C   0  0  0  0  0  0  0  0  0  0  0  0
    8.3182    4.9253  -14.5217 S   0  0  0  0  0  0  0  0  0  0  0  0
    7.9763    3.2284  -13.9880 C   0  0  0  0  0  0  0  0  0  0  0  0
    9.1877    2.4773  -13.4223 C   0  0  1  0  0  0  0  0  0  0  0  0
    9.3429    2.6736  -12.0287 O   0  0  0  0  0  0  0  0  0  0  0  0
    9.0335    0.9794  -13.5409 C   0  0  1  0  0  0  0  0  0  0  0  0
   10.3511    0.4756  -13.5170 O   0  0  0  0  0  0  0  0  0  0  0  0
    8.3426    0.5506  -12.2674 C   0  0  1  0  0  0  0  0  0  0  0  0
    8.9104   -0.6539  -11.8009 O   0  0  0  0  0  0  0  0  0  0  0  0
    8.6645    1.6684  -11.2992 C   0  0  2  0  0  0  0  0  0  0  0  0
    9.9904    4.2086   -9.8948 O   0  0  0  0  0  0  0  0  0  0  0  0
    5.5500    1.7870   -7.1159 N   0  0  0  0  0  0  0  0  0  0  0  0
    6.6088    0.9450   -7.3613 C   0  0  0  0  0  0  0  0  0  0  0  0
    7.3074    1.0609   -8.5387 N   0  0  0  0  0  0  0  0  0  0  0  0
    6.9668    1.9907   -9.4523 C   0  0  0  0  0  0  0  0  0  0  0  0
    5.9065    2.8478   -9.2254 C   0  0  0  0  0  0  0  0  0  0  0  0
    5.1910    2.7368   -8.0389 C   0  0  0  0  0  0  0  0  0  0  0  0
    4.1634    3.5366   -7.7821 N   0  0  0  0  0  0  0  0  0  0  0  0
    5.7886    3.6676  -10.2938 N   0  0  0  0  0  0  0  0  0  0  0  0
    6.7530    3.3469  -11.1783 C   0  0  0  0  0  0  0  0  0  0  0  0
    7.4865    2.3015  -10.6783 N   0  0  0  0  0  0  0  0  0  0  0  0
  2  1  1  6  0  0  0
  2  3  1  0  0  0  0
  2  5  1  0  0  0  0
  3  4  1  0  0  0  0
  3 16  1  0  0  0  0
  5  6  1  0  0  0  0
  6  7  1  0  0  0  0
  7  8  1  0  0  0  0
  9  8  1  1  0  0  0
  9 10  1  0  0  0  0
  9 11  1  0  0  0  0
 10 15  1  0  0  0  0
 11 12  1  1  0  0  0
 11 13  1  0  0  0  0
 13 14  1  1  0  0  0
 13 15  1  0  0  0  0
 15 26  1  6  0  0  0
 17 18  2  0  0  0  0
 17 22  1  0  0  0  0
 18 19  1  0  0  0  0
 19 20  2  0  0  0  0
 20 21  1  0  0  0  0
 20 26  1  0  0  0  0
 21 22  2  0  0  0  0
 21 24  1  0  0  0  0
 22 23  1  0  0  0  0
 24 25  2  0  0  0  0
 25 26  1  0  0  0  0
M  END
>  <CHROM.1>
-157.78842119,-19.31510216,86.91173974,-33.67703459,-51.20017234,88.61573722
-144.74889051,8.10608523,3.16589827,-11.23129127,0.32542341,1.00443690,0.04024976

>  <Name>
ligand

>  <RI>
0

>  <Rbt.Current_Directory>
/home/itssahil/PROJECTS/Mol_Feturizer/New_Systems/rnas/3E5E

>  <Rbt.Executable>
rbdock ($Id: //depot/dev/client3/rdock/2013.1/src/exe/rbdock.cxx#4 $)

>  <Rbt.Library>
libRbt.so (2013.1, Build901 2013/11/27)

>  <Rbt.Parameter_File>
/export/apps/rDock/src/rDock_2013.1_src/data/scripts/dock_solv.prm

>  <Rbt.Receptor>
prm/blind_docking_20.prm

>  <SCORE>
-3.75833

>  <SCORE.INTER>
-9.07173

>  <SCORE.INTER.CONST>
1

>  <SCORE.INTER.POLAR>
0

>  <SCORE.INTER.ROT>
7

>  <SCORE.INTER.SOLV>
10.0712

>  <SCORE.INTER.VDW>
-17.6715

>  <SCORE.INTER.norm>
-0.348913

>  <SCORE.INTRA>
4.08369

>  <SCORE.INTRA.DIHEDRAL>
3.01709

>  <SCORE.INTRA.DIHEDRAL.0>
10.1225

>  <SCORE.INTRA.POLAR>
0

>  <SCORE.INTRA.POLAR.0>
0

>  <SCORE.INTRA.REPUL>
0

>  <SCORE.INTRA.REPUL.0>
0

>  <SCORE.INTRA.SOLV>
5.18365

>  <SCORE.INTRA.SOLV.lig_0>
-49.9393

>  <SCORE.INTRA.VDW>
-0.01668

>  <SCORE.INTRA.VDW.0>
-1.75437

>  <SCORE.INTRA.norm>
0.157065

>  <SCORE.RESTR>
1.22971

>  <SCORE.RESTR.CAVITY>
1.22971

>  <SCORE.RESTR.norm>
0.0472967

>  <SCORE.SYSTEM>
0

>  <SCORE.SYSTEM.CONST>
0

>  <SCORE.SYSTEM.DIHEDRAL>
0

>  <SCORE.SYSTEM.SOLV>
0

>  <SCORE.SYSTEM.norm>
0

>  <SCORE.heavy>
26

>  <SCORE.norm>
-0.144551

>  <RMSD>
24.140

$$$$
ligand
 OpenBabel11021811473D
libRbt.so/2013.1/901 2013/11/27
 26 28  0  0  0  0  0  0  0  0999 V2000
    9.4736    7.2197  -16.9917 N   0  0  0  0  0  0  0  0  0  0  0  0
    8.7915    6.5015  -15.9080 C   0  0  2  0  0  0  0  0  0  0  0  0
    9.8012    5.7125  -15.1167 C   0  0  0  0  0  0  0  0  0  0  0  0
   10.1392    4.6141  -15.4912 O   0  0  0  0  0  0  0  0  0  0  0  0
    7.7523    5.5499  -16.5033 C   0  0  0  0  0  0  0  0  0  0  0  0
    7.1685    4.6743  -15.3960 C   0  0  0  0  0  0  0  0  0  0  0  0
    7.0263    5.2670  -13.8108 S   0  0  0  0  0  0  0  0  0  0  0  0
    7.0032    4.6044  -12.1251 C   0  0  0  0  0  0  0  0  0  0  0  0
    8.1760    5.0512  -11.2440 C   0  0  1  0  0  0  0  0  0  0  0  0
    8.2678    4.3023  -10.0458 O   0  0  0  0  0  0  0  0  0  0  0  0
    9.5108    4.8017  -11.9054 C   0  0  1  0  0  0  0  0  0  0  0  0
   10.3970    5.7103  -11.2894 O   0  0  0  0  0  0  0  0  0  0  0  0
    9.9045    3.4040  -11.4876 C   0  0  1  0  0  0  0  0  0  0  0  0
   11.2850    3.3653  -11.1988 O   0  0  0  0  0  0  0  0  0  0  0  0
    9.1163    3.1823  -10.2148 C   0  0  2  0  0  0  0  0  0  0  0  0
   10.3254    6.2274  -13.9924 O   0  0  0  0  0  0  0  0  0  0  0  0
    6.1687   -0.0209   -7.3400 N   0  0  0  0  0  0  0  0  0  0  0  0
    6.9150    1.0532   -6.9166 C   0  0  0  0  0  0  0  0  0  0  0  0
    7.6428    1.7750   -7.8317 N   0  0  0  0  0  0  0  0  0  0  0  0
    7.6305    1.4421   -9.1372 C   0  0  0  0  0  0  0  0  0  0  0  0
    6.8863    0.3666   -9.5843 C   0  0  0  0  0  0  0  0  0  0  0  0
    6.1492   -0.3722   -8.6663 C   0  0  0  0  0  0  0  0  0  0  0  0
    5.4241   -1.4149   -9.0517 N   0  0  0  0  0  0  0  0  0  0  0  0
    7.0558    0.2611  -10.9213 N   0  0  0  0  0  0  0  0  0  0  0  0
    7.8822    1.2478  -11.3196 C   0  0  0  0  0  0  0  0  0  0  0  0
    8.2578    1.9837  -10.2249 N   0  0  0  0  0  0  0  0  0  0  0  0
  2  1  1  6  0  0  0
  2  3  1  0  0  0  0
  2  5  1  0  0  0  0
  3  4  1  0  0  0  0
  3 16  1  0  0  0  0
  5  6  1  0  0  0  0
  6  7  1  0  0  0  0
  7  8  1  0  0  0  0
  9  8  1  6  0  0  0
  9 10  1  0  0  0  0
  9 11  1  0  0  0  0
 10 15  1  0  0  0  0
 11 12  1  1  0  0  0
 11 13  1  0  0  0  0
 13 14  1  1  0  0  0
 13 15  1  0  0  0  0
 15 26  1  6  0  0  0
 17 18  2  0  0  0  0
 17 22  1  0  0  0  0
 18 19  1  0  0  0  0
 19 20  2  0  0  0  0
 20 21  1  0  0  0  0
 20 26  1  0  0  0  0
 21 22  2  0  0  0  0
 21 24  1  0  0  0  0
 22 23  1  0  0  0  0
 24 25  2  0  0  0  0
 25 26  1  0  0  0  0
M  END
>  <CHROM.1>
-84.33323693,172.79947649,31.30918937,-152.44512575,115.63903742,-167.76365067
-72.84768052,8.23796123,3.50042135,-11.84691318,1.26765914,-0.61474750,-1.06019669

>  <Name>
ligand

>  <RI>
0

>  <Rbt.Current_Directory>
/home/itssahil/PROJECTS/Mol_Feturizer/New_Systems/rnas/3E5E

>  <Rbt.Executable>
rbdock ($Id: //depot/dev/client3/rdock/2013.1/src/exe/rbdock.cxx#4 $)

>  <Rbt.Library>
libRbt.so (2013.1, Build901 2013/11/27)

>  <Rbt.Parameter_File>
/export/apps/rDock/src/rDock_2013.1_src/data/scripts/dock_solv.prm

>  <Rbt.Receptor>
prm/blind_docking_20.prm

>  <SCORE>
0.645805

>  <SCORE.INTER>
-4.34551

>  <SCORE.INTER.CONST>
1

>  <SCORE.INTER.POLAR>
0

>  <SCORE.INTER.ROT>
7

>  <SCORE.INTER.SOLV>
10.9126

>  <SCORE.INTER.VDW>
-14.8012

>  <SCORE.INTER.norm>
-0.167135

>  <SCORE.INTRA>
0.750139

>  <SCORE.INTRA.DIHEDRAL>
-0.785194

>  <SCORE.INTRA.DIHEDRAL.0>
10.1225

>  <SCORE.INTRA.POLAR>
0

>  <SCORE.INTRA.POLAR.0>
0

>  <SCORE.INTRA.REPUL>
0

>  <SCORE.INTRA.REPUL.0>
0

>  <SCORE.INTRA.SOLV>
-0.0623148

>  <SCORE.INTRA.SOLV.lig_0>
-49.9393

>  <SCORE.INTRA.VDW>
1.17389

>  <SCORE.INTRA.VDW.0>
-1.75437

>  <SCORE.INTRA.norm>
0.0288515

>  <SCORE.RESTR>
4.24117

>  <SCORE.RESTR.CAVITY>
4.24117

>  <SCORE.RESTR.norm>
0.163122

>  <SCORE.SYSTEM>
0

>  <SCORE.SYSTEM.CONST>
0

>  <SCORE.SYSTEM.DIHEDRAL>
0

>  <SCORE.SYSTEM.SOLV>
0

>  <SCORE.SYSTEM.norm>
0

>  <SCORE.heavy>
26

>  <SCORE.norm>
0.0248386

>  <RMSD>
24.297

$$$$
