@<TRIPOS>MOLECULE
3E5E_rdock.pdb
 1123 1259 0 0 0
SMALL
GASTEIGER

@<TRIPOS>ATOM
      1  P         -5.0580   33.3540  -25.2190 P.3     2  U2          0.1280
      2  C5'       -3.9350   35.3440  -23.9380 C.3     2  U2          0.1795
      3  O5'       -4.8300   34.2360  -23.8970 O.3     2  U2         -0.3259
      4  C4'       -3.7950   35.9820  -22.5710 C.3     2  U2          0.1772
      5  O4'       -5.0780   36.5210  -22.1630 O.3     2  U2         -0.3307
      6  C3'       -3.4190   35.0300  -21.4440 C.3     2  U2          0.1860
      7  O3'       -2.0050   34.8680  -21.3620 O.3     2  U2         -0.3112
      8  C2'       -3.9740   35.7650  -20.2290 C.3     2  U2          0.2309
      9  O2'       -3.1210   36.8050  -19.8050 O.3     2  U2         -0.2156
     10  C1'       -5.2800   36.3380  -20.7690 C.3     2  U2          0.2420
     11  N1        -6.4770   35.4590  -20.5080 N.ar    2  U2         -0.2534
     12  C2        -7.1150   35.5290  -19.2770 C.ar    2  U2          0.3546
     13  O2        -6.7700   36.2650  -18.3630 O.2     2  U2         -0.2443
     14  N3        -8.1950   34.6910  -19.1350 N.ar    2  U2         -0.1530
     15  C4        -8.6950   33.8040  -20.0730 C.ar    2  U2          0.2846
     16  O4        -9.6760   33.1160  -19.7940 O.2     2  U2         -0.2650
     17  C5        -7.9800   33.7870  -21.3260 C.ar    2  U2          0.0814
     18  C6        -6.9260   34.5950  -21.4890 C.ar    2  U2          0.0870
     19  OP1       -3.7770   33.1940  -25.9530 O.3     2  U2         -0.1955
     20  OP2       -5.9290   32.1940  -24.8930 O.co2   2  U2         -0.7863
     21  P         -1.3400   33.4800  -20.9010 P.3     3  U3          0.2141
     22  C5'       -0.6810   34.3900  -18.5330 C.3     3  U3          0.1812
     23  O5'       -1.5020   33.5470  -19.3120 O.3     3  U3         -0.3114
     24  C4'       -1.2770   34.5000  -17.1480 C.3     3  U3          0.1773
     25  O4'       -2.6430   34.9630  -17.2860 O.3     3  U3         -0.3307
     26  C3'       -1.4300   33.1770  -16.4010 C.3     3  U3          0.1860
     27  O3'       -0.2300   32.7650  -15.7570 O.3     3  U3         -0.3112
     28  C2'       -2.5330   33.5250  -15.4070 C.3     3  U3          0.2309
     29  O2'       -2.0800   34.2890  -14.3070 O.3     3  U3         -0.2156
     30  C1'       -3.4590   34.3620  -16.2840 C.3     3  U3          0.2420
     31  N1        -4.5630   33.5350  -16.8830 N.ar    3  U3         -0.2534
     32  C2        -5.5960   33.1100  -16.0680 C.ar    3  U3          0.3546
     33  O2        -5.6640   33.3900  -14.8820 O.2     3  U3         -0.2443
     34  N3        -6.5600   32.3500  -16.7010 N.ar    3  U3         -0.1530
     35  C4        -6.5830   31.9850  -18.0330 C.ar    3  U3          0.2846
     36  O4        -7.5050   31.3130  -18.4630 O.2     3  U3         -0.2650
     37  C5        -5.4750   32.4570  -18.8180 C.ar    3  U3          0.0814
     38  C6        -4.5300   33.1930  -18.2240 C.ar    3  U3          0.0870
     39  OP1        0.0890   33.5570  -21.2860 O.3     3  U3         -0.4373
     40  OP2       -2.1590   32.3340  -21.3700 O.co2   3  U3         -0.5172
     41  P          0.0950   31.2080  -15.5190 P.3     4  C4          0.2141
     42  C5'       -0.6620   31.4540  -12.9970 C.3     4  C4          0.1812
     43  O5'       -0.8340   30.8170  -14.2650 O.3     4  C4         -0.3114
     44  C4'       -1.8200   31.1400  -12.0580 C.3     4  C4          0.1773
     45  O4'       -3.0750   31.6480  -12.5970 O.3     4  C4         -0.3307
     46  C3'       -2.0980   29.6630  -11.8490 C.3     4  C4          0.1860
     47  O3'       -1.2340   29.1060  -10.8800 O.3     4  C4         -0.3112
     48  C2'       -3.5470   29.7020  -11.3710 C.3     4  C4          0.2309
     49  O2'       -3.6730   30.1100  -10.0270 O.3     4  C4         -0.2156
     50  C1'       -4.1330   30.7600  -12.2910 C.3     4  C4          0.2420
     51  N1        -4.7200   30.1850  -13.5400 N.ar    4  C4         -0.2535
     52  C2        -6.0050   29.6200  -13.4890 C.ar    4  C4          0.3532
     53  O2        -6.6290   29.6200  -12.4210 O.2     4  C4         -0.2443
     54  N3        -6.5460   29.0980  -14.6180 N.ar    4  C4         -0.1739
     55  C4        -5.8540   29.1250  -15.7550 C.ar    4  C4          0.1759
     56  N4        -6.4350   28.6080  -16.8320 N.pl3   4  C4         -0.1070
     57  C5        -4.5470   29.6910  -15.8420 C.ar    4  C4          0.0566
     58  C6        -4.0240   30.2020  -14.7180 C.ar    4  C4          0.0850
     59  OP1        1.5200   31.1530  -15.1200 O.3     4  C4         -0.4373
     60  OP2       -0.3350   30.4020  -16.6900 O.co2   4  C4         -0.5172
     61  P         -0.8820   27.5390  -10.9450 P.3     5  C5          0.2141
     62  C5'       -2.6420   27.0100   -9.0630 C.3     5  C5          0.1812
     63  O5'       -2.2140   26.8510  -10.4050 O.3     5  C5         -0.3114
     64  C4'       -3.9450   26.2530   -8.8940 C.3     5  C5          0.1773
     65  O4'       -4.9490   26.8110   -9.7820 O.3     5  C5         -0.3307
     66  C3'       -3.9240   24.7940   -9.3250 C.3     5  C5          0.1860
     67  O3'       -3.3300   23.9910   -8.3330 O.3     5  C5         -0.3112
     68  C2'       -5.4180   24.5300   -9.4450 C.3     5  C5          0.2309
     69  O2'       -6.0450   24.4540   -8.1750 O.3     5  C5         -0.2156
     70  C1'       -5.8660   25.7980  -10.1550 C.3     5  C5          0.2420
     71  N1        -5.9540   25.7020  -11.6400 N.ar    5  C5         -0.2535
     72  C2        -7.0700   25.0740  -12.2270 C.ar    5  C5          0.3532
     73  O2        -7.9480   24.5950  -11.4980 O.2     5  C5         -0.2443
     74  N3        -7.1760   24.9920  -13.5780 N.ar    5  C5         -0.1739
     75  C4        -6.2060   25.5080  -14.3320 C.ar    5  C5          0.1759
     76  N4        -6.3440   25.4180  -15.6580 N.pl3   5  C5         -0.1070
     77  C5        -5.0630   26.1590  -13.7630 C.ar    5  C5          0.0566
     78  C6        -4.9770   26.2340  -12.4270 C.ar    5  C5          0.0850
     79  OP1        0.1880   27.3050   -9.9480 O.3     5  C5         -0.4373
     80  OP2       -0.7140   27.1070  -12.3560 O.co2   5  C5         -0.5172
     81  P         -2.6270   22.5970   -8.7110 P.3     6  C6          0.2141
     82  C5'       -4.6150   21.0550   -7.9900 C.3     6  C6          0.1812
     83  O5'       -3.8410   21.6130   -9.0560 O.3     6  C6         -0.3114
     84  C4'       -5.8570   20.3930   -8.5460 C.3     6  C6          0.1773
     85  O4'       -6.4780   21.3040   -9.4880 O.3     6  C6         -0.3307
     86  C3'       -5.6040   19.1920   -9.4370 C.3     6  C6          0.1860
     87  O3'       -5.2360   17.9980   -8.7150 O.3     6  C6         -0.3112
     88  C2'       -6.9410   19.1100  -10.1680 C.3     6  C6          0.2309
     89  O2'       -7.9860   18.7040   -9.3100 O.3     6  C6         -0.2156
     90  C1'       -7.1660   20.5770  -10.4920 C.3     6  C6          0.2420
     91  N1        -6.7690   21.0370  -11.8710 N.ar    6  C6         -0.2535
     92  C2        -7.5570   20.6370  -12.9590 C.ar    6  C6          0.3532
     93  O2        -8.5330   19.9040  -12.7410 O.2     6  C6         -0.2443
     94  N3        -7.2260   21.0450  -14.2190 N.ar    6  C6         -0.1739
     95  C4        -6.1610   21.8340  -14.4010 C.ar    6  C6          0.1759
     96  N4        -5.8760   22.2170  -15.6530 N.pl3   6  C6         -0.1070
     97  C5        -5.3480   22.2550  -13.3040 C.ar    6  C6          0.0566
     98  C6        -5.6840   21.8410  -12.0750 C.ar    6  C6          0.0850
     99  OP1       -1.9740   22.1240   -7.4590 O.3     6  C6         -0.4373
    100  OP2       -1.8480   22.7940   -9.9580 O.co2   6  C6         -0.5172
    101  P         -4.1990   17.0030   -9.4310 P.3     7  G7          0.2141
    102  C5'       -6.0080   15.5410  -10.7770 C.3     7  G7          0.1812
    103  O5'       -4.9950   16.5390  -10.7480 O.3     7  G7         -0.3114
    104  C4'       -6.5100   15.4140  -12.2060 C.3     7  G7          0.1773
    105  O4'       -6.7710   16.7390  -12.7200 O.3     7  G7         -0.3307
    106  C3'       -5.4870   14.8960  -13.1950 C.3     7  G7          0.1860
    107  O3'       -5.4640   13.4890  -13.1680 O.3     7  G7         -0.3112
    108  C2'       -5.9860   15.4470  -14.5230 C.3     7  G7          0.2309
    109  O2'       -7.0620   14.7160  -15.0680 O.3     7  G7         -0.2156
    110  C1'       -6.4760   16.8180  -14.0980 C.3     7  G7          0.2408
    111  N1        -4.1460   19.7790  -17.4870 N.ar    7  G7         -0.1709
    112  C2        -5.1530   18.8570  -17.6740 C.ar    7  G7          0.2606
    113  N2        -5.6090   18.6920  -18.9230 N.pl3   7  G7         -0.0859
    114  N3        -5.6910   18.1360  -16.7010 N.ar    7  G7         -0.1918
    115  C4        -5.1310   18.4160  -15.4990 C.ar    7  G7          0.1723
    116  C5        -4.1300   19.3040  -15.2040 C.ar    7  G7          0.1748
    117  C6        -3.5700   20.0590  -16.2390 C.ar    7  G7          0.3023
    118  O6        -2.6620   20.8990  -16.1030 O.2     7  G7         -0.2633
    119  N7        -3.8260   19.3140  -13.8560 N.ar    7  G7         -0.2173
    120  C8        -4.6380   18.4180  -13.3520 C.ar    7  G7          0.1817
    121  N9        -5.4600   17.8390  -14.2980 N.ar    7  G7         -0.2693
    122  OP1       -3.9130   15.8810   -8.5090 O.3     7  G7         -0.4373
    123  OP2       -3.0780   17.8210   -9.9600 O.co2   7  G7         -0.5172
    124  P         -4.0720   12.7450  -12.9080 P.3     8  A8          0.2141
    125  C5'       -5.5670   11.0840  -11.5290 C.3     8  A8          0.1812
    126  O5'       -4.6040   11.2880  -12.5680 O.3     8  A8         -0.3114
    127  C4'       -6.1970    9.7230  -11.7290 C.3     8  A8          0.1773
    128  O4'       -6.6300    9.6400  -13.0990 O.3     8  A8         -0.3307
    129  C3'       -5.2100    8.5730  -11.6780 C.3     8  A8          0.1860
    130  O3'       -4.9110    8.2450  -10.3410 O.3     8  A8         -0.3112
    131  C2'       -5.9340    7.4680  -12.4210 C.3     8  A8          0.2309
    132  O2'       -6.9800    6.9450  -11.6350 O.3     8  A8         -0.2156
    133  C1'       -6.5630    8.2950  -13.5240 C.3     8  A8          0.2408
    134  N1        -5.8170    5.3980  -17.7080 N.ar    8  A8         -0.2040
    135  C2        -6.3280    5.1060  -16.5130 C.ar    8  A8          0.2016
    136  N3        -6.4750    5.9140  -15.4650 N.ar    8  A8         -0.2048
    137  C4        -6.0350    7.1570  -15.7300 C.ar    8  A8          0.1692
    138  C5        -5.4850    7.6010  -16.9150 C.ar    8  A8          0.1518
    139  C6        -5.3830    6.6560  -17.9510 C.ar    8  A8          0.1919
    140  N6        -4.8750    6.9380  -19.1610 N.pl3   8  A8         -0.1054
    141  N7        -5.1460    8.9370  -16.8310 N.ar    8  A8         -0.2193
    142  C8        -5.4920    9.2630  -15.6040 C.ar    8  A8          0.1816
    143  N9        -6.0240    8.2380  -14.8790 N.ar    8  A8         -0.2693
    144  OP1       -3.4120   13.2760  -11.6910 O.3     8  A8         -0.4373
    145  OP2       -3.3710   12.7260  -14.2110 O.co2   8  A8         -0.5172
    146  P         -3.3590    8.1180   -9.9440 P.3     9  A9          0.2141
    147  C5'       -3.7020    5.4710  -10.2380 C.3     9  A9          0.1812
    148  O5'       -2.9790    6.6820  -10.5820 O.3     9  A9         -0.3114
    149  C4'       -3.5100    4.3680  -11.2730 C.3     9  A9          0.1773
    150  O4'       -4.1300    4.7090  -12.5440 O.3     9  A9         -0.3307
    151  C3'       -2.0680    4.0910  -11.6660 C.3     9  A9          0.1860
    152  O3'       -1.3840    3.3010  -10.6980 O.3     9  A9         -0.3112
    153  C2'       -2.2270    3.3960  -13.0160 C.3     9  A9          0.2309
    154  O2'       -2.5890    2.0310  -12.9000 O.3     9  A9         -0.2156
    155  C1'       -3.3570    4.2180  -13.6310 C.3     9  A9          0.2408
    156  N1        -2.1560    5.8430  -18.3810 N.ar    9  A9         -0.2040
    157  C2        -2.5890    4.6610  -17.9170 C.ar    9  A9          0.2016
    158  N3        -2.8800    4.3130  -16.6610 N.ar    9  A9         -0.2048
    159  C4        -2.6900    5.3380  -15.8190 C.ar    9  A9          0.1692
    160  C5        -2.2480    6.6080  -16.1480 C.ar    9  A9          0.1518
    161  C6        -1.9740    6.8580  -17.5080 C.ar    9  A9          0.1919
    162  N6        -1.5410    8.0330  -17.9780 N.pl3   9  A9         -0.1054
    163  N7        -2.1600    7.4010  -15.0230 N.ar    9  A9         -0.2193
    164  C8        -2.5530    6.6050  -14.0470 C.ar    9  A9          0.1816
    165  N9        -2.8890    5.3380  -14.4580 N.ar    9  A9         -0.2693
    166  OP1       -3.3360    8.0590   -8.4560 O.3     9  A9         -0.4373
    167  OP2       -2.5450    9.1370  -10.6640 O.co2   9  A9         -0.5172
    168  P          0.2250    3.4060  -10.6190 P.3    10  A10         0.2141
    169  C5'        1.4980    2.6690  -12.7430 C.3    10  A10         0.1812
    170  O5'        0.6570    2.2830  -11.6810 O.3    10  A10        -0.3114
    171  C4'        1.4090    1.7110  -13.9080 C.3    10  A10         0.1773
    172  O4'        0.3550    2.1420  -14.7960 O.3    10  A10        -0.3307
    173  C3'        2.6510    1.7610  -14.7740 C.3    10  A10         0.1860
    174  O3'        3.6190    0.8540  -14.2920 O.3    10  A10        -0.3112
    175  C2'        2.1340    1.4350  -16.1700 C.3    10  A10         0.2309
    176  O2'        1.9960    0.0500  -16.4100 O.3    10  A10        -0.2156
    177  C1'        0.7850    2.1370  -16.1430 C.3    10  A10         0.2408
    178  N1         1.1910    5.2650  -20.2020 N.ar   10  A10        -0.2040
    179  C2         1.0450    3.9340  -20.1080 C.ar   10  A10         0.2016
    180  N3         0.9440    3.1800  -19.0060 N.ar   10  A10        -0.2048
    181  C4         1.0030    3.9380  -17.8980 C.ar   10  A10         0.1692
    182  C5         1.1490    5.3100  -17.8360 C.ar   10  A10         0.1518
    183  C6         1.2440    5.9900  -19.0630 C.ar   10  A10         0.1919
    184  N6         1.3910    7.3060  -19.1490 N.pl3  10  A10        -0.1054
    185  N7         1.1680    5.7440  -16.5220 N.ar   10  A10        -0.2193
    186  C8         1.0350    4.6410  -15.8200 C.ar   10  A10         0.1816
    187  N9         0.9250    3.5130  -16.5920 N.ar   10  A10        -0.2693
    188  OP1        0.6250    3.0060   -9.2450 O.3    10  A10        -0.4373
    189  OP2        0.6920    4.7240  -11.1320 O.co2  10  A10        -0.5172
    190  P          5.1250    1.3550  -14.0860 P.3    11  G11         0.2141
    191  C5'        5.8110    0.3390  -16.3750 C.3    11  G11         0.1812
    192  O5'        5.6220    1.5280  -15.6100 O.3    11  G11        -0.3114
    193  C4'        5.8900    0.5570  -17.8770 C.3    11  G11         0.1773
    194  O4'        4.6550    1.1100  -18.4070 O.3    11  G11        -0.3307
    195  C3'        6.9480    1.5240  -18.3790 C.3    11  G11         0.1860
    196  O3'        8.2470    0.9580  -18.3290 O.3    11  G11        -0.3112
    197  C2'        6.4370    1.7320  -19.8020 C.3    11  G11         0.2309
    198  O2'        6.6450    0.6380  -20.6690 O.3    11  G11        -0.2156
    199  C1'        4.9520    1.9490  -19.5120 C.3    11  G11         0.2408
    200  N1         4.7910    6.6590  -21.3600 N.ar   11  G11        -0.1709
    201  C2         4.9600    5.4580  -22.0190 C.ar   11  G11         0.2606
    202  N2         5.1130    5.5000  -23.3460 N.pl3  11  G11        -0.0859
    203  N3         4.9740    4.2840  -21.4110 N.ar   11  G11        -0.1918
    204  C4         4.8040    4.4040  -20.0700 C.ar   11  G11         0.1723
    205  C5         4.6330    5.5450  -19.3180 C.ar   11  G11         0.1748
    206  C6         4.6140    6.7940  -19.9780 C.ar   11  G11         0.3023
    207  O6         4.4690    7.9130  -19.4660 O.2    11  G11        -0.2633
    208  N7         4.4960    5.2430  -17.9700 N.ar   11  G11        -0.2173
    209  C8         4.5890    3.9420  -17.9330 C.ar   11  G11         0.1817
    210  N9         4.7660    3.3640  -19.1740 N.ar   11  G11        -0.2693
    211  OP1        5.8150    0.2120  -13.4380 O.2    11  G11        -0.5172
    212  OP2        5.1410    2.6630  -13.3840 O.co2  11  G11        -0.4373
    213  P          9.5120    1.8050  -17.8070 P.3    12  G12         0.2141
    214  C5'       10.1180    1.9730  -20.3540 C.3    12  G12         0.1812
    215  O5'        9.9380    2.6400  -19.1100 O.3    12  G12        -0.3114
    216  C4'        9.9470    2.9300  -21.5160 C.3    12  G12         0.1773
    217  O4'        8.6340    3.5510  -21.4910 O.3    12  G12        -0.3307
    218  C3'       10.8740    4.1370  -21.5320 C.3    12  G12         0.1860
    219  O3'       12.2020    3.8070  -21.9160 O.3    12  G12        -0.3112
    220  C2'       10.1580    4.9980  -22.5700 C.3    12  G12         0.2309
    221  O2'       10.2950    4.5310  -23.9000 O.3    12  G12        -0.2156
    222  C1'        8.7180    4.8420  -22.0870 C.3    12  G12         0.2408
    223  N1         7.7570    9.8040  -21.3280 N.ar   12  G12        -0.1709
    224  C2         8.0760    9.1520  -22.4990 C.ar   12  G12         0.2606
    225  N2         8.1490    9.9000  -23.6080 N.pl3  12  G12        -0.0859
    226  N3         8.2990    7.8440  -22.5750 N.ar   12  G12        -0.1918
    227  C4         8.1880    7.2270  -21.3670 C.ar   12  G12         0.1723
    228  C5         7.8770    7.7940  -20.1490 C.ar   12  G12         0.1748
    229  C6         7.6290    9.1860  -20.0810 C.ar   12  G12         0.3023
    230  O6         7.3360    9.8550  -19.0800 O.2    12  G12        -0.2633
    231  N7         7.8570    6.8340  -19.1460 N.ar   12  G12        -0.2173
    232  C8         8.1520    5.7230  -19.7630 C.ar   12  G12         0.1817
    233  N9         8.3630    5.8810  -21.1150 N.ar   12  G12        -0.2693
    234  OP1       10.5590    0.8080  -17.4850 O.2    12  G12        -0.5172
    235  OP2        9.0950    2.7660  -16.7560 O.co2  12  G12        -0.4373
    236  P         13.4310    4.6800  -21.3670 P.3    13  A13         0.2141
    237  C5'       13.5930    6.3720  -23.3850 C.3    13  A13         0.1812
    238  O5'       13.2030    6.1160  -22.0370 O.3    13  A13        -0.3114
    239  C4'       13.4130    7.8400  -23.7390 C.3    13  A13         0.1773
    240  O4'       12.0250    8.2350  -23.5570 O.3    13  A13        -0.3307
    241  C3'       14.1680    8.8410  -22.8710 C.3    13  A13         0.1860
    242  O3'       15.5620    8.9160  -23.1840 O.3    13  A13        -0.3112
    243  C2'       13.3930   10.1160  -23.1970 C.3    13  A13         0.2309
    244  O2'       13.6450   10.6140  -24.4970 O.3    13  A13        -0.2156
    245  C1'       11.9690    9.5760  -23.0940 C.3    13  A13         0.2408
    246  N1        10.0020   12.5900  -19.3870 N.ar   13  A13        -0.2040
    247  C2        10.3760   12.8560  -20.6470 C.ar   13  A13         0.2016
    248  N3        10.8790   12.0170  -21.5570 N.ar   13  A13        -0.2048
    249  C4        10.9910   10.7630  -21.0670 C.ar   13  A13         0.1692
    250  C5        10.6490   10.3410  -19.7910 C.ar   13  A13         0.1518
    251  C6        10.1250   11.3250  -18.9220 C.ar   13  A13         0.1919
    252  N6         9.7500   11.0630  -17.6670 N.pl3  13  A13        -0.1054
    253  N7        10.8980    8.9860  -19.6340 N.ar   13  A13        -0.2193
    254  C8        11.3810    8.6220  -20.7990 C.ar   13  A13         0.1816
    255  N9        11.4650    9.6390  -21.7170 N.ar   13  A13        -0.2693
    256  OP1       14.6640    4.0760  -21.9230 O.2    13  A13        -0.5172
    257  OP2       13.2840    4.8410  -19.9000 O.co2  13  A13        -0.4373
    258  P         16.6480    8.8780  -21.9990 P.3    14  U14         0.2141
    259  C5'       16.8030   11.4930  -22.2300 C.3    14  U14         0.1812
    260  O5'       16.5770   10.3570  -21.3930 O.3    14  U14        -0.3114
    261  C4'       16.1700   12.7440  -21.6500 C.3    14  U14         0.1773
    262  O4'       14.7620   12.5160  -21.3640 O.3    14  U14        -0.3307
    263  C3'       16.7430   13.1890  -20.3120 C.3    14  U14         0.1860
    264  O3'       17.9780   13.8850  -20.4850 O.3    14  U14        -0.3112
    265  C2'       15.6090   14.0670  -19.7870 C.3    14  U14         0.2309
    266  O2'       15.5710   15.3530  -20.3820 O.3    14  U14        -0.2156
    267  C1'       14.3890   13.2330  -20.1960 C.3    14  U14         0.2420
    268  N1        13.9170   12.2800  -19.1190 N.ar   14  U14        -0.2534
    269  C2        13.1760   12.7600  -18.0470 C.ar   14  U14         0.3546
    270  O2        12.8660   13.9290  -17.9060 O.2    14  U14        -0.2443
    271  N3        12.8080   11.8080  -17.1210 N.ar   14  U14        -0.1530
    272  C4        13.0940   10.4510  -17.1580 C.ar   14  U14         0.2846
    273  O4        12.6990    9.7140  -16.2610 O.2    14  U14        -0.2650
    274  C5        13.8640   10.0220  -18.2970 C.ar   14  U14         0.0814
    275  C6        14.2340   10.9320  -19.2090 C.ar   14  U14         0.0870
    276  OP1       17.9810    8.6660  -22.6030 O.2    14  U14        -0.5172
    277  OP2       16.1790    7.9380  -20.9570 O.co2  14  U14        -0.4373
    278  P         19.1160   13.8270  -19.3520 P.3    15  G15         0.2141
    279  C5'       18.6880   14.9870  -17.0430 C.3    15  G15         0.1812
    280  O5'       18.7530   15.1050  -18.4540 O.3    15  G15        -0.3114
    281  C4'       17.9770   16.1690  -16.4140 C.3    15  G15         0.1773
    282  O4'       16.5520   16.1180  -16.6900 O.3    15  G15        -0.3307
    283  C3'       18.0870   16.1520  -14.8980 C.3    15  G15         0.1860
    284  O3'       19.2040   16.9190  -14.4940 O.3    15  G15        -0.3112
    285  C2'       16.7530   16.7170  -14.4150 C.3    15  G15         0.2309
    286  O2'       16.7020   18.1320  -14.3890 O.3    15  G15        -0.2156
    287  C1'       15.8140   16.1350  -15.4730 C.3    15  G15         0.2408
    288  N1        13.1040   13.1320  -12.2940 N.ar   15  G15        -0.1709
    289  C2        13.3360   14.4880  -12.2210 C.ar   15  G15         0.2606
    290  N2        12.7850   15.1340  -11.1840 N.pl3  15  G15        -0.0859
    291  N3        14.0590   15.1680  -13.1050 N.ar   15  G15        -0.1918
    292  C4        14.5470   14.3750  -14.0940 C.ar   15  G15         0.1723
    293  C5        14.3700   13.0150  -14.2470 C.ar   15  G15         0.1748
    294  C6        13.5970   12.2990  -13.2990 C.ar   15  G15         0.3023
    295  O6        13.3410   11.0860  -13.2840 O.2    15  G15        -0.2633
    296  N7        15.0230   12.5600  -15.3810 N.ar   15  G15        -0.2173
    297  C8        15.5730   13.6300  -15.8820 C.ar   15  G15         0.1817
    298  N9        15.3310   14.7780  -15.1610 N.ar   15  G15        -0.2693
    299  OP1       20.4190   14.0650  -20.0200 O.2    15  G15        -0.5172
    300  OP2       18.9300   12.6030  -18.5320 O.co2  15  G15        -0.4373
    301  P         20.3760   16.1940  -13.6800 P.3    16  G16         0.2141
    302  C5'       19.3400   17.4990  -11.6400 C.3    16  G16         0.1812
    303  O5'       19.8690   16.2810  -12.1630 O.3    16  G16        -0.3114
    304  C4'       18.4350   17.2130  -10.4590 C.3    16  G16         0.1773
    305  O4'       17.1690   16.6540  -10.8960 O.3    16  G16        -0.3307
    306  C3'       18.9290   16.1430   -9.4980 C.3    16  G16         0.1860
    307  O3'       20.0200   16.5920   -8.7060 O.3    16  G16        -0.3112
    308  C2'       17.6550   15.9090   -8.6950 C.3    16  G16         0.2309
    309  O2'       17.3730   16.9290   -7.7560 O.3    16  G16        -0.2156
    310  C1'       16.6220   15.8930   -9.8210 C.3    16  G16         0.2408
    311  N1        14.2820   11.5070   -8.6180 N.ar   16  G16        -0.1709
    312  C2        14.3610   12.6810   -7.8980 C.ar   16  G16         0.2606
    313  N2        13.7430   12.6970   -6.7070 N.pl3  16  G16        -0.0859
    314  N3        15.0040   13.7670   -8.3180 N.ar   16  G16        -0.1918
    315  C4        15.5720   13.5890   -9.5400 C.ar   16  G16         0.1723
    316  C5        15.5490   12.4590  -10.3330 C.ar   16  G16         0.1748
    317  C6        14.8590   11.3080   -9.8740 C.ar   16  G16         0.3023
    318  O6        14.7330   10.2160  -10.4470 O.2    16  G16        -0.2633
    319  N7        16.2490   12.6690  -11.5140 N.ar   16  G16        -0.2173
    320  C8        16.6750   13.8980  -11.4150 C.ar   16  G16         0.1817
    321  N9        16.3030   14.5240  -10.2450 N.ar   16  G16        -0.2693
    322  OP1       21.5910   17.0310  -13.8310 O.3    16  G16        -0.4373
    323  OP2       20.4020   14.7600  -14.0570 O.co2  16  G16        -0.5172
    324  P         21.1020   15.5390   -8.1580 P.3    17  C17         0.2141
    325  C5'       19.9480   15.7100   -5.7950 C.3    17  C17         0.1812
    326  O5'       20.3700   14.8900   -6.8870 O.3    17  C17        -0.3114
    327  C4'       18.9100   15.0200   -4.9250 C.3    17  C17         0.1773
    328  O4'       17.7370   14.6300   -5.6950 O.3    17  C17        -0.3307
    329  C3'       19.3290   13.6880   -4.3260 C.3    17  C17         0.1860
    330  O3'       20.3050   13.8120   -3.2960 O.3    17  C17        -0.3112
    331  C2'       17.9690   13.1550   -3.8770 C.3    17  C17         0.2309
    332  O2'       17.3930   13.8630   -2.7930 O.3    17  C17        -0.2156
    333  C1'       17.1920   13.4220   -5.1660 C.3    17  C17         0.2420
    334  N1        17.2770   12.3000   -6.1920 N.ar   17  C17        -0.2535
    335  C2        16.6530   11.0510   -5.9660 C.ar   17  C17         0.3532
    336  O2        16.0150   10.8380   -4.9230 O.2    17  C17        -0.2443
    337  N3        16.7630   10.0830   -6.9160 N.ar   17  C17        -0.1739
    338  C4        17.4510   10.3100   -8.0410 C.ar   17  C17         0.1759
    339  N4        17.5290    9.3260   -8.9400 N.pl3  17  C17        -0.1070
    340  C5        18.0930   11.5590   -8.2940 C.ar   17  C17         0.0566
    341  C6        17.9770   12.5060   -7.3550 C.ar   17  C17         0.0850
    342  OP1       22.2800   16.3070   -7.6950 O.3    17  C17        -0.4373
    343  OP2       21.2930   14.4850   -9.1800 O.co2  17  C17        -0.5172
    344  P         21.6320   12.9170   -3.4230 P.3    18  G18         0.2141
    345  C5'       20.4800   11.4830   -1.5120 C.3    18  G18         0.1812
    346  O5'       21.2140   11.5280   -2.7380 O.3    18  G18        -0.3114
    347  C4'       19.6260   10.2300   -1.4500 C.3    18  G18         0.1773
    348  O4'       18.6910   10.1680   -2.5560 O.3    18  G18        -0.3307
    349  C3'       20.3680    8.9200   -1.6470 C.3    18  G18         0.1860
    350  O3'       21.1980    8.6060   -0.5520 O.3    18  G18        -0.3112
    351  C2'       19.1910    7.9690   -1.8210 C.3    18  G18         0.2309
    352  O2'       18.4260    7.7710   -0.6460 O.3    18  G18        -0.2156
    353  C1'       18.3910    8.7980   -2.8220 C.3    18  G18         0.2408
    354  N1        17.8560    5.2630   -6.4840 N.ar   18  G18        -0.1709
    355  C2        17.4160    5.2450   -5.1820 C.ar   18  G18         0.2606
    356  N2        16.7430    4.1530   -4.8010 N.pl3  18  G18        -0.0859
    357  N3        17.6190    6.2320   -4.3160 N.ar   18  G18        -0.1918
    358  C4        18.3150    7.2690   -4.8600 C.ar   18  G18         0.1723
    359  C5        18.7990    7.3800   -6.1490 C.ar   18  G18         0.1748
    360  C6        18.5710    6.3130   -7.0620 C.ar   18  G18         0.3023
    361  O6        18.9220    6.2220   -8.2470 O.2    18  G18        -0.2633
    362  N7        19.4630    8.5930   -6.3180 N.ar   18  G18        -0.2173
    363  C8        19.3690    9.1820   -5.1550 C.ar   18  G18         0.1817
    364  N9        18.6830    8.4390   -4.2180 N.ar   18  G18        -0.2693
    365  OP1       22.6870   13.5590   -2.6070 O.3    18  G18        -0.4373
    366  OP2       21.8830   12.6440   -4.8600 O.co2  18  G18        -0.5172
    367  P         22.7250    8.2430   -0.8550 P.3    19  G19         0.2141
    368  C5'       22.0700    5.7160   -0.5020 C.3    19  G19         0.1812
    369  O5'       22.6590    6.7170   -1.3330 O.3    19  G19        -0.3114
    370  C4'       21.6740    4.5080   -1.3310 C.3    19  G19         0.1773
    371  O4'       20.7510    4.9000   -2.3820 O.3    19  G19        -0.3307
    372  C3'       22.7950    3.8500   -2.1250 C.3    19  G19         0.1860
    373  O3'       23.6990    3.0990   -1.3130 O.3    19  G19        -0.3112
    374  C2'       21.9750    2.9890   -3.0740 C.3    19  G19         0.2309
    375  O2'       21.4370    1.8340   -2.4570 O.3    19  G19        -0.2156
    376  C1'       20.8830    3.9900   -3.4680 C.3    19  G19         0.2408
    377  N1        21.4470    3.6540   -8.5310 N.ar   19  G19        -0.1709
    378  C2        21.0350    2.6910   -7.6350 C.ar   19  G19         0.2606
    379  N2        20.7380    1.4900   -8.1490 N.pl3  19  G19        -0.0859
    380  N3        20.9220    2.9000   -6.3280 N.ar   19  G19        -0.1918
    381  C4        21.2590    4.1720   -5.9740 C.ar   19  G19         0.1723
    382  C5        21.6800    5.1970   -6.7920 C.ar   19  G19         0.1748
    383  C6        21.7980    4.9620   -8.1860 C.ar   19  G19         0.3023
    384  O6        22.1580    5.7610   -9.0670 O.2    19  G19        -0.2633
    385  N7        21.9310    6.3460   -6.0590 N.ar   19  G19        -0.2173
    386  C8        21.6630    6.0030   -4.8290 C.ar   19  G19         0.1817
    387  N9        21.2450    4.7000   -4.6990 N.ar   19  G19        -0.2693
    388  OP1       23.4590    8.3150    0.4310 O.3    19  G19        -0.4373
    389  OP2       23.1720    9.0450   -2.0200 O.co2  19  G19        -0.5172
    390  P         25.2780    3.3770   -1.4360 P.3    20  A20         0.2141
    391  C5'       26.6600    3.2170   -3.6770 C.3    20  A20         0.1812
    392  O5'       25.7020    2.6290   -2.7900 O.3    20  A20        -0.3114
    393  C4'       27.2740    2.1910   -4.6170 C.3    20  A20         0.1773
    394  O4'       27.7160    1.0470   -3.8460 O.3    20  A20        -0.3307
    395  C3'       26.3330    1.6100   -5.6660 C.3    20  A20         0.1860
    396  O3'       26.3450    2.3690   -6.8700 O.3    20  A20        -0.3112
    397  C2'       26.9150    0.2250   -5.9040 C.3    20  A20         0.2309
    398  O2'       28.0400    0.2470   -6.7650 O.3    20  A20        -0.2156
    399  C1'       27.3270   -0.1570   -4.4860 C.3    20  A20         0.2408
    400  N1        24.5170   -4.4490   -3.7530 N.ar   20  A20        -0.2040
    401  C2        25.4500   -4.1450   -4.6710 C.ar   20  A20         0.2016
    402  N3        26.1400   -3.0080   -4.8060 N.ar   20  A20        -0.2048
    403  C4        25.7940   -2.1050   -3.8610 C.ar   20  A20         0.1692
    404  C5        24.8510   -2.2780   -2.8550 C.ar   20  A20         0.1518
    405  C6        24.1870   -3.5250   -2.8160 C.ar   20  A20         0.1919
    406  N6        23.2540   -3.8290   -1.9060 N.pl3  20  A20        -0.1054
    407  N7        24.7520   -1.1420   -2.0660 N.ar   20  A20        -0.2193
    408  C8        25.6250   -0.3200   -2.5990 C.ar   20  A20         0.1816
    409  N9        26.2900   -0.8260   -3.6870 N.ar   20  A20        -0.2693
    410  OP1       25.9280    2.7010   -0.2910 O.3    20  A20        -0.4373
    411  OP2       25.4660    4.8370   -1.6320 O.co2  20  A20        -0.5172
    412  P         24.9460    2.7730   -7.5360 P.3    21  A21         0.2141
    413  C5'       24.5480    0.6430   -9.0140 C.3    21  A21         0.1812
    414  O5'       24.2440    1.3630   -7.8270 O.3    21  A21        -0.3114
    415  C4'       24.1500   -0.8170   -8.9050 C.3    21  A21         0.1773
    416  O4'       24.3600   -1.2690   -7.5440 O.3    21  A21        -0.3307
    417  C3'       22.6900   -1.1190   -9.2090 C.3    21  A21         0.1860
    418  O3'       22.5390   -1.4180  -10.5970 O.3    21  A21        -0.3112
    419  C2'       22.3860   -2.3300   -8.3270 C.3    21  A21         0.2309
    420  O2'       22.6480   -3.5690   -8.9540 O.3    21  A21        -0.2156
    421  C1'       23.3410   -2.1670   -7.1540 C.3    21  A21         0.2408
    422  N1        20.2650   -3.1900   -3.1430 N.ar   21  A21        -0.2040
    423  C2        20.6530   -3.9520   -4.1790 C.ar   21  A21         0.2016
    424  N3        21.4550   -3.6230   -5.1970 N.ar   21  A21        -0.2048
    425  C4        21.8820   -2.3460   -5.0890 C.ar   21  A21         0.1692
    426  C5        21.5640   -1.4460   -4.0840 C.ar   21  A21         0.1518
    427  C6        20.7080   -1.9110   -3.0650 C.ar   21  A21         0.1919
    428  N6        20.3280   -1.1410   -2.0410 N.pl3  21  A21        -0.1054
    429  N7        22.1810   -0.2240   -4.2940 N.ar   21  A21        -0.2193
    430  C8        22.8510   -0.4060   -5.4060 C.ar   21  A21         0.1816
    431  N9        22.7150   -1.6580   -5.9390 N.ar   21  A21        -0.2693
    432  OP1       25.2350    3.4660   -8.8210 O.2    21  A21        -0.5172
    433  OP2       24.1630    3.4390   -6.4670 O.co2  21  A21        -0.4373
    434  P         21.2080   -1.0030  -11.3860 P.3    22  A22         0.2141
    435  C5'       19.9860   -3.3600  -11.1600 C.3    22  A22         0.1812
    436  O5'       20.1000   -1.9840  -10.7610 O.3    22  A22        -0.3114
    437  C4'       19.0350   -4.1330  -10.2560 C.3    22  A22         0.1773
    438  O4'       19.5020   -4.0660   -8.8830 O.3    22  A22        -0.3307
    439  C3'       17.6100   -3.6000  -10.1840 C.3    22  A22         0.1860
    440  O3'       16.7860   -4.1230  -11.2350 O.3    22  A22        -0.3112
    441  C2'       17.1530   -4.0690   -8.8020 C.3    22  A22         0.2309
    442  O2'       16.7530   -5.4300   -8.7730 O.3    22  A22        -0.2156
    443  C1'       18.4230   -3.8650   -7.9870 C.3    22  A22         0.2408
    444  N1        17.4770   -0.8980   -3.8370 N.ar   22  A22        -0.2040
    445  C2        17.1190   -2.1580   -4.1400 C.ar   22  A22         0.2016
    446  N3        17.3930   -2.8700   -5.2420 N.ar   22  A22        -0.2048
    447  C4        18.1320   -2.1580   -6.1120 C.ar   22  A22         0.1692
    448  C5        18.5770   -0.8540   -5.9370 C.ar   22  A22         0.1518
    449  C6        18.2190   -0.2040   -4.7300 C.ar   22  A22         0.1919
    450  N6        18.5720    1.0510   -4.4270 N.pl3  22  A22        -0.1054
    451  N7        19.3100   -0.4420   -7.0360 N.ar   22  A22        -0.2193
    452  C8        19.2880   -1.4830   -7.8320 C.ar   22  A22         0.1816
    453  N9        18.5960   -2.5580   -7.3460 N.ar   22  A22        -0.2693
    454  OP1       21.4010   -1.3370  -12.8200 O.2    22  A22        -0.5172
    455  OP2       20.8780    0.3880  -10.9790 O.co2  22  A22        -0.4373
    456  P         16.0260   -3.1340  -12.2460 P.3    23  C23         0.2141
    457  C5'       14.1680   -2.4310  -10.5190 C.3    23  C23         0.1812
    458  O5'       15.3060   -2.0650  -11.2900 O.3    23  C23        -0.3114
    459  C4'       14.2490   -1.8240   -9.1330 C.3    23  C23         0.1773
    460  O4'       15.5900   -1.3460   -8.8590 O.3    23  C23        -0.3307
    461  C3'       13.4220   -0.5720   -8.9280 C.3    23  C23         0.1860
    462  O3'       12.0490   -0.8810   -8.7640 O.3    23  C23        -0.3112
    463  C2'       14.0580   -0.0040   -7.6600 C.3    23  C23         0.2309
    464  O2'       13.6600   -0.6470   -6.4620 O.3    23  C23        -0.2156
    465  C1'       15.5350   -0.2720   -7.9330 C.3    23  C23         0.2420
    466  N1        16.2600    0.9230   -8.4880 N.ar   23  C23        -0.2535
    467  C2        16.4870    2.0540   -7.6790 C.ar   23  C23         0.3532
    468  O2        16.0900    2.0790   -6.5070 O.2    23  C23        -0.2443
    469  N3        17.1460    3.1150   -8.2110 N.ar   23  C23        -0.1739
    470  C4        17.5700    3.0800   -9.4780 C.ar   23  C23         0.1759
    471  N4        18.2130    4.1540   -9.9440 N.pl3  23  C23        -0.1070
    472  C5        17.3540    1.9450  -10.3180 C.ar   23  C23         0.0566
    473  C6        16.7020    0.9030   -9.7860 C.ar   23  C23         0.0850
    474  OP1       14.9890   -3.9240  -12.9500 O.3    23  C23        -0.4373
    475  OP2       17.0620   -2.4310  -13.0370 O.co2  23  C23        -0.5172
    476  P         10.9360    0.1820   -9.2140 P.3    24  G24         0.2141
    477  C5'       10.4230    0.9270   -6.7400 C.3    24  G24         0.1812
    478  O5'       10.9340    1.2700   -8.0270 O.3    24  G24        -0.3114
    479  C4'       10.8480    1.9160   -5.6720 C.3    24  G24         0.1773
    480  O4'       12.2870    2.0980   -5.6880 O.3    24  G24        -0.3307
    481  C3'       10.3250    3.3390   -5.8180 C.3    24  G24         0.1860
    482  O3'        8.9630    3.4500   -5.4110 O.3    24  G24        -0.3112
    483  C2'       11.2710    4.0730   -4.8710 C.3    24  G24         0.2309
    484  O2'       10.9730    3.8870   -3.4970 O.3    24  G24        -0.2156
    485  C1'       12.5970    3.4070   -5.2340 C.3    24  G24         0.2408
    486  N1        15.2390    7.6110   -6.4470 N.ar   24  G24        -0.1709
    487  C2        14.6790    7.2600   -5.2380 C.ar   24  G24         0.2606
    488  N2        14.8440    8.1300   -4.2300 N.pl3  24  G24        -0.0859
    489  N3        14.0070    6.1280   -5.0380 N.ar   24  G24        -0.1918
    490  C4        13.9360    5.3600   -6.1610 C.ar   24  G24         0.1723
    491  C5        14.4620    5.6260   -7.4080 C.ar   24  G24         0.1748
    492  C6        15.1720    6.8330   -7.6040 C.ar   24  G24         0.3023
    493  O6        15.7050    7.2290   -8.6440 O.2    24  G24        -0.2633
    494  N7        14.1810    4.6010   -8.3020 N.ar   24  G24        -0.2173
    495  C8        13.5000    3.7450   -7.5900 C.ar   24  G24         0.1817
    496  N9        13.3140    4.1340   -6.2820 N.ar   24  G24        -0.2693
    497  OP1        9.6540   -0.5630   -9.2110 O.3    24  G24        -0.4373
    498  OP2       11.4000    0.8610  -10.4520 O.co2  24  G24        -0.5172
    499  P          7.9290    4.3790   -6.2150 P.3    25  C25         0.2141
    500  C5'        8.1480    6.4180   -4.5430 C.3    25  C25         0.1812
    501  O5'        8.3850    5.8740   -5.8470 O.3    25  C25        -0.3114
    502  C4'        9.0160    7.6410   -4.2880 C.3    25  C25         0.1773
    503  O4'       10.4010    7.3600   -4.6310 O.3    25  C25        -0.3307
    504  C3'        8.7130    8.8480   -5.1600 C.3    25  C25         0.1860
    505  O3'        7.5390    9.5310   -4.7370 O.3    25  C25        -0.3112
    506  C2'       10.0000    9.6530   -4.9930 C.3    25  C25         0.2309
    507  O2'       10.1340   10.2830   -3.7300 O.3    25  C25        -0.2156
    508  C1'       11.0260    8.5300   -5.1450 C.3    25  C25         0.2420
    509  N1        11.4820    8.2960   -6.5740 N.ar   25  C25        -0.2535
    510  C2        12.3200    9.2260   -7.2320 C.ar   25  C25         0.3532
    511  O2        12.6970   10.2550   -6.6530 O.2    25  C25        -0.2443
    512  N3        12.7030    8.9750   -8.5150 N.ar   25  C25        -0.1739
    513  C4        12.2940    7.8640   -9.1400 C.ar   25  C25         0.1759
    514  N4        12.6960    7.6620  -10.4000 N.pl3  25  C25        -0.1070
    515  C5        11.4480    6.9090   -8.4960 C.ar   25  C25         0.0566
    516  C6        11.0770    7.1630   -7.2330 C.ar   25  C25         0.0850
    517  OP1        6.5940    4.1310   -5.6220 O.3    25  C25        -0.4373
    518  OP2        8.1450    4.1800   -7.6700 O.co2  25  C25        -0.5172
    519  P          6.3900    9.8570   -5.8160 P.3    26  C26         0.2141
    520  C5'        7.2590   12.3400   -5.4720 C.3    26  C26         0.1812
    521  O5'        6.7760   11.3240   -6.3650 O.3    26  C26        -0.3114
    522  C4'        8.3030   13.2250   -6.1400 C.3    26  C26         0.1773
    523  O4'        9.4560   12.4450   -6.5480 O.3    26  C26        -0.3307
    524  C3'        7.8600   13.8770   -7.4390 C.3    26  C26         0.1860
    525  O3'        7.0690   15.0190   -7.1800 O.3    26  C26        -0.3112
    526  C2'        9.1970   14.2410   -8.0690 C.3    26  C26         0.2309
    527  O2'        9.7720   15.4210   -7.5380 O.3    26  C26        -0.2156
    528  C1'       10.0440   13.0240   -7.7020 C.3    26  C26         0.2420
    529  N1        10.1390   12.0190   -8.8220 N.ar   26  C26        -0.2535
    530  C2        10.8870   12.3240   -9.9740 C.ar   26  C26         0.3532
    531  O2        11.4620   13.4160  -10.0600 O.2    26  C26        -0.2443
    532  N3        10.9640   11.4120  -10.9810 N.ar   26  C26        -0.1739
    533  C4        10.3360   10.2380  -10.8730 C.ar   26  C26         0.1759
    534  N4        10.4460    9.3780  -11.8890 N.pl3  26  C26        -0.1070
    535  C5         9.5680    9.9010   -9.7140 C.ar   26  C26         0.0566
    536  C6         9.4990   10.8090   -8.7280 C.ar   26  C26         0.0850
    537  OP1        5.0990    9.9400   -5.0820 O.3    26  C26        -0.4373
    538  OP2        6.5150    8.9020   -6.9490 O.co2  26  C26        -0.5172
    539  P          5.8190   15.3620   -8.1200 P.3    27  A27         0.2141
    540  C5'        6.9370   17.5190   -9.1320 C.3    27  A27         0.1812
    541  O5'        6.4560   16.1910   -9.3350 O.3    27  A27        -0.3114
    542  C4'        7.6970   18.0200  -10.3460 C.3    27  A27         0.1773
    543  O4'        8.8700   17.2030  -10.5720 O.3    27  A27        -0.3307
    544  C3'        6.9420   17.9370  -11.6630 C.3    27  A27         0.1860
    545  O3'        6.1010   19.0620  -11.8080 O.3    27  A27        -0.3112
    546  C2'        8.0570   17.9090  -12.7040 C.3    27  A27         0.2309
    547  O2'        8.4730   19.1940  -13.1320 O.3    27  A27        -0.2156
    548  C1'        9.1810   17.1940  -11.9550 C.3    27  A27         0.2408
    549  N1        10.7990   14.0500  -15.7080 N.ar   27  A27        -0.2040
    550  C2        10.7770   15.3890  -15.6150 C.ar   27  A27         0.2016
    551  N3        10.3380   16.1450  -14.6060 N.ar   27  A27        -0.2048
    552  C4         9.8790   15.3850  -13.5920 C.ar   27  A27         0.1692
    553  C5         9.8380   14.0020  -13.5450 C.ar   27  A27         0.1518
    554  C6        10.3320   13.3140  -14.6760 C.ar   27  A27         0.1919
    555  N6        10.3580   11.9830  -14.7760 N.pl3  27  A27        -0.1054
    556  N7         9.2970   13.5700  -12.3470 N.ar   27  A27        -0.2193
    557  C8         9.0280   14.6790  -11.7020 C.ar   27  A27         0.1816
    558  N9         9.3550   15.8120  -12.3930 N.ar   27  A27        -0.2693
    559  OP1        4.9500   16.2570   -7.3210 O.3    27  A27        -0.4373
    560  OP2        5.2760   14.0970   -8.6720 O.co2  27  A27        -0.5172
    561  P          4.5250   18.8940  -11.6000 P.3    28  G28         0.2141
    562  C5'        3.9350   20.3000  -13.7350 C.3    28  G28         0.1812
    563  O5'        3.9740   19.0310  -13.0970 O.3    28  G28        -0.3114
    564  C4'        4.6430   20.2520  -15.0730 C.3    28  G28         0.1773
    565  O4'        5.9030   19.5480  -14.9340 O.3    28  G28        -0.3307
    566  C3'        3.9430   19.4740  -16.1860 C.3    28  G28         0.1860
    567  O3'        2.7850   20.1120  -16.7770 O.3    28  G28        -0.3112
    568  C2'        5.1060   19.2720  -17.1590 C.3    28  G28         0.2309
    569  O2'        5.4580   20.4230  -17.9080 O.3    28  G28        -0.2156
    570  C1'        6.2240   18.9310  -16.1760 C.3    28  G28         0.2408
    571  N1         8.5140   14.7530  -17.9680 N.ar   28  G28        -0.1709
    572  C2         8.5960   16.0560  -18.4140 C.ar   28  G28         0.2606
    573  N2         9.3840   16.2860  -19.4750 N.pl3  28  G28        -0.0859
    574  N3         7.9420   17.0670  -17.8560 N.ar   28  G28        -0.1918
    575  C4         7.1870   16.6690  -16.7970 C.ar   28  G28         0.1723
    576  C5         7.0410   15.3990  -16.2770 C.ar   28  G28         0.1748
    577  C6         7.7430   14.3290  -16.8840 C.ar   28  G28         0.3023
    578  O6         7.7390   13.1350  -16.5630 O.2    28  G28        -0.2633
    579  N7         6.1780   15.4070  -15.1880 N.ar   28  G28        -0.2173
    580  C8         5.8220   16.6570  -15.0730 C.ar   28  G28         0.1817
    581  N9         6.4000   17.4840  -16.0120 N.ar   28  G28        -0.2693
    582  OP1        4.0700   20.0400  -10.7740 O.3    28  G28        -0.4373
    583  OP2        4.2420   17.5050  -11.1550 O.co2  28  G28        -0.5172
    584  P          2.6080   21.6800  -17.1080 P.3    29  A29         0.2141
    585  C5'        2.2810   20.7130  -19.5290 C.3    29  A29         0.1812
    586  O5'        1.8880   21.6540  -18.5350 O.3    29  A29        -0.3114
    587  C4'        1.1370   20.3720  -20.4780 C.3    29  A29         0.1773
    588  O4'        0.5160   19.1100  -20.1170 O.3    29  A29        -0.3307
    589  C3'        0.0020   21.3860  -20.5640 C.3    29  A29         0.1860
    590  O3'       -0.3770   21.4820  -21.9220 O.3    29  A29        -0.3112
    591  C2'       -1.1010   20.7910  -19.6780 C.3    29  A29         0.2309
    592  O2'       -2.4180   21.1180  -20.0980 O.3    29  A29        -0.2156
    593  C1'       -0.8490   19.2830  -19.7820 C.3    29  A29         0.2408
    594  N1        -3.3170   15.4040  -17.3990 N.ar   29  A29        -0.2040
    595  C2        -3.3540   15.8270  -18.6710 C.ar   29  A29         0.2016
    596  N3        -2.6900   16.8430  -19.2310 N.ar   29  A29        -0.2048
    597  C4        -1.9090   17.4700  -18.3320 C.ar   29  A29         0.1692
    598  C5        -1.7670   17.1500  -16.9940 C.ar   29  A29         0.1518
    599  C6        -2.5160   16.0590  -16.5220 C.ar   29  A29         0.1919
    600  N6        -2.4620   15.6610  -15.2440 N.pl3  29  A29        -0.1054
    601  N7        -0.8760   18.0010  -16.3620 N.ar   29  A29        -0.2193
    602  C8        -0.4940   18.8150  -17.3190 C.ar   29  A29         0.1816
    603  N9        -1.0810   18.5560  -18.5330 N.ar   29  A29        -0.2693
    604  OP1        3.9270   22.3340  -17.2800 O.2    29  A29        -0.5172
    605  OP2        1.6290   22.2240  -16.1330 O.co2  29  A29        -0.4373
    606  P         -1.0320   22.8120  -22.5230 P.3    30  U30         0.2141
    607  C5'       -2.6100   20.9450  -23.4430 C.3    30  U30         0.1812
    608  O5'       -2.4590   22.3000  -23.0380 O.3    30  U30        -0.3114
    609  C4'       -2.9980   20.8410  -24.9060 C.3    30  U30         0.1773
    610  O4'       -2.5640   22.0070  -25.6640 O.3    30  U30        -0.3307
    611  C3'       -2.3550   19.7150  -25.7070 C.3    30  U30         0.1860
    612  O3'       -2.7620   18.3900  -25.3430 O.3    30  U30        -0.3112
    613  C2'       -2.8400   20.1470  -27.0930 C.3    30  U30         0.2309
    614  O2'       -4.2430   20.0160  -27.2990 O.3    30  U30        -0.2156
    615  C1'       -2.4000   21.6110  -27.0230 C.3    30  U30         0.2420
    616  N1        -0.9640   21.7780  -27.4840 N.ar   30  U30        -0.2534
    617  C2        -0.6840   21.8260  -28.8490 C.ar   30  U30         0.3546
    618  O2        -1.5340   21.7500  -29.7280 O.2    30  U30        -0.2443
    619  N3         0.6540   21.9720  -29.1600 N.ar   30  U30        -0.1530
    620  C4         1.7190   22.0680  -28.2690 C.ar   30  U30         0.2846
    621  O4         2.8630   22.1940  -28.6970 O.2    30  U30        -0.2650
    622  C5         1.3580   22.0060  -26.8710 C.ar   30  U30         0.0814
    623  C6         0.0630   21.8640  -26.5450 C.ar   30  U30         0.0870
    624  OP1       -0.2250   23.1890  -23.7060 O.2    30  U30        -0.5172
    625  OP2       -1.2520   23.7800  -21.4210 O.co2  30  U30        -0.4373
    626  P         -1.9270   17.1300  -25.8930 P.3    31  G31         0.2141
    627  C5'        0.2720   17.4370  -24.5160 C.3    31  G31         0.1812
    628  O5'       -0.9820   16.7930  -24.6500 O.3    31  G31        -0.3114
    629  C4'        0.7160   17.4050  -23.0700 C.3    31  G31         0.1773
    630  O4'       -0.1600   16.5420  -22.2980 O.3    31  G31        -0.3307
    631  C3'        2.1300   16.8760  -22.8490 C.3    31  G31         0.1860
    632  O3'        2.8870   17.8430  -22.1190 O.3    31  G31        -0.3112
    633  C2'        1.9000   15.6000  -22.0380 C.3    31  G31         0.2309
    634  O2'        2.9350   15.3210  -21.1180 O.3    31  G31        -0.2156
    635  C1'        0.6400   15.9900  -21.2850 C.3    31  G31         0.2408
    636  N1        -0.1870   13.5810  -16.8840 N.ar   31  G31        -0.1709
    637  C2         0.5870   14.6810  -17.1520 C.ar   31  G31         0.2606
    638  N2         1.2280   15.2050  -16.1060 N.pl3  31  G31        -0.0859
    639  N3         0.7300   15.2230  -18.3580 N.ar   31  G31        -0.1918
    640  C4         0.0220   14.5630  -19.3010 C.ar   31  G31         0.1723
    641  C5        -0.7690   13.4530  -19.1470 C.ar   31  G31         0.1748
    642  C6        -0.9050   12.8900  -17.8620 C.ar   31  G31         0.3023
    643  O6        -1.5730   11.8970  -17.5530 O.2    31  G31        -0.2633
    644  N7        -1.3350   13.0700  -20.3540 N.ar   31  G31        -0.2173
    645  C8        -0.8800   13.9440  -21.2140 C.ar   31  G31         0.1817
    646  N9        -0.0480   14.8810  -20.6370 N.ar   31  G31        -0.2693
    647  OP1       -1.0980   17.5560  -27.0500 O.2    31  G31        -0.5172
    648  OP2       -2.8600   15.9930  -26.0540 O.co2  31  G31        -0.4373
    649  P          3.8740   18.8740  -22.8530 P.3    32  C32         0.2141
    650  C5'        5.4330   18.1610  -24.8850 C.3    32  C32         0.1812
    651  O5'        4.9570   17.9110  -23.5540 O.3    32  C32        -0.3114
    652  C4'        6.2080   16.9790  -25.4480 C.3    32  C32         0.1773
    653  O4'        7.3050   16.6200  -24.5620 O.3    32  C32        -0.3307
    654  C3'        5.4190   15.6870  -25.5870 C.3    32  C32         0.1860
    655  O3'        4.6350   15.6670  -26.7680 O.3    32  C32        -0.3112
    656  C2'        6.5390   14.6560  -25.6350 C.3    32  C32         0.2309
    657  O2'        7.1380   14.5380  -26.9130 O.3    32  C32        -0.2156
    658  C1'        7.5100   15.2140  -24.5900 C.3    32  C32         0.2420
    659  N1         7.2640   14.6120  -23.2230 N.ar   32  C32        -0.2535
    660  C2         7.3790   13.2200  -23.0210 C.ar   32  C32         0.3532
    661  O2         7.6910   12.4690  -23.9570 O.2    32  C32        -0.2443
    662  N3         7.1350   12.7180  -21.7820 N.ar   32  C32        -0.1739
    663  C4         6.7920   13.5260  -20.7760 C.ar   32  C32         0.1759
    664  N4         6.5680   12.9710  -19.5840 N.pl3  32  C32        -0.1070
    665  C5         6.6690   14.9350  -20.9510 C.ar   32  C32         0.0566
    666  C6         6.9090   15.4250  -22.1740 C.ar   32  C32         0.0850
    667  OP1        4.5640   19.6410  -21.7850 O.3    32  C32        -0.4373
    668  OP2        3.0880   19.5960  -23.8920 O.co2  32  C32        -0.5172
    669  P          3.3180   14.7480  -26.7990 P.3    33  C33         0.2141
    670  C5'        4.3990   12.8520  -28.3290 C.3    33  C33         0.1812
    671  O5'        3.8980   13.2760  -27.0580 O.3    33  C33        -0.3114
    672  C4'        4.7300   11.3710  -28.2680 C.3    33  C33         0.1773
    673  O4'        5.7020   11.1490  -27.2090 O.3    33  C33        -0.3307
    674  C3'        3.5590   10.4720  -27.8820 C.3    33  C33         0.1860
    675  O3'        2.7270   10.1040  -28.9840 O.3    33  C33        -0.3112
    676  C2'        4.2620    9.2600  -27.2820 C.3    33  C33         0.2309
    677  O2'        4.6730    8.3100  -28.2470 O.3    33  C33        -0.2156
    678  C1'        5.4610    9.8970  -26.5800 C.3    33  C33         0.2420
    679  N1         5.2020   10.0420  -25.0990 N.ar   33  C33        -0.2535
    680  C2         5.2800    8.9120  -24.2590 C.ar   33  C33         0.3532
    681  O2         5.5790    7.8080  -24.7280 O.2    33  C33        -0.2443
    682  N3         5.0320    9.0460  -22.9290 N.ar   33  C33        -0.1739
    683  C4         4.7120   10.2350  -22.4260 C.ar   33  C33         0.1759
    684  N4         4.4860   10.3050  -21.1140 N.pl3  33  C33        -0.1070
    685  C5         4.6160   11.3950  -23.2530 C.ar   33  C33         0.0566
    686  C6         4.8630   11.2560  -24.5650 C.ar   33  C33         0.0850
    687  OP1        2.5050   15.1630  -27.9690 O.2    33  C33        -0.5172
    688  OP2        2.7160   14.7430  -25.4410 O.co2  33  C33        -0.4373
    689  P          1.1570    9.8290  -28.7400 P.3    34  U34         0.2141
    690  C5'        1.9330    7.3210  -29.1950 C.3    34  U34         0.1812
    691  O5'        0.8980    8.3040  -29.1830 O.3    34  U34        -0.3114
    692  C4'        1.6850    6.1780  -28.2200 C.3    34  U34         0.1773
    693  O4'        2.5420    6.2990  -27.0540 O.3    34  U34        -0.3307
    694  C3'        0.3090    6.0770  -27.5760 C.3    34  U34         0.1860
    695  O3'       -0.7060    5.6720  -28.5130 O.3    34  U34        -0.3112
    696  C2'        0.6060    5.0620  -26.4710 C.3    34  U34         0.2309
    697  O2'        0.7190    3.7310  -26.9370 O.3    34  U34        -0.2156
    698  C1'        1.9670    5.5590  -25.9830 C.3    34  U34         0.2420
    699  N1         1.9140    6.4170  -24.7440 N.ar   34  U34        -0.2534
    700  C2         1.8200    5.8340  -23.4850 C.ar   34  U34         0.3546
    701  O2         1.7700    4.6340  -23.2860 O.2    34  U34        -0.2443
    702  N3         1.7810    6.7170  -22.4300 N.ar   34  U34        -0.1530
    703  C4         1.8280    8.0990  -22.5030 C.ar   34  U34         0.2846
    704  O4         1.7830    8.7640  -21.4750 O.2    34  U34        -0.2650
    705  C5         1.9210    8.6360  -23.8390 C.ar   34  U34         0.0814
    706  C6         1.9630    7.7940  -24.8800 C.ar   34  U34         0.0870
    707  OP1        0.4110   10.7250  -29.6620 O.2    34  U34        -0.5172
    708  OP2        0.8790    9.8880  -27.2820 O.co2  34  U34        -0.4373
    709  P         -2.1580    6.3790  -28.4670 P.3    35  U35         0.2141
    710  C5'       -3.0900    4.2730  -27.2400 C.3    35  U35         0.1812
    711  O5'       -2.7970    5.6750  -27.1710 O.3    35  U35        -0.3114
    712  C4'       -3.1990    3.6390  -25.8680 C.3    35  U35         0.1773
    713  O4'       -2.1320    4.1140  -25.0160 O.3    35  U35        -0.3307
    714  C3'       -4.4290    4.0490  -25.0880 C.3    35  U35         0.1860
    715  O3'       -5.5880    3.3500  -25.5310 O.3    35  U35        -0.3112
    716  C2'       -4.0300    3.7110  -23.6520 C.3    35  U35         0.2309
    717  O2'       -4.3310    2.3850  -23.2610 O.3    35  U35        -0.2156
    718  C1'       -2.5230    3.9640  -23.6650 C.3    35  U35         0.2420
    719  N1        -2.1730    5.1920  -22.9140 N.ar   35  U35        -0.2534
    720  C2        -2.1460    5.1360  -21.5320 C.ar   35  U35         0.3546
    721  O2        -2.3910    4.1210  -20.9010 O.2    35  U35        -0.2443
    722  N3        -1.8200    6.3180  -20.9020 N.ar   35  U35        -0.1530
    723  C4        -1.5270    7.5280  -21.5140 C.ar   35  U35         0.2846
    724  O4        -1.2500    8.5020  -20.8170 O.2    35  U35        -0.2650
    725  C5        -1.5770    7.5080  -22.9630 C.ar   35  U35         0.0814
    726  C6        -1.8950    6.3650  -23.5960 C.ar   35  U35         0.0870
    727  OP1       -2.9340    5.9450  -29.6550 O.2    35  U35        -0.5172
    728  OP2       -1.9800    7.8380  -28.2290 O.co2  35  U35        -0.4373
    729  P         -6.9410    4.1870  -25.7730 P.3    36  G36         0.2141
    730  C5'       -7.5020    4.3340  -23.1900 C.3    36  G36         0.1812
    731  O5'       -7.1020    4.9860  -24.3940 O.3    36  G36        -0.3114
    732  C4'       -7.4560    5.3390  -22.0540 C.3    36  G36         0.1773
    733  O4'       -6.1900    6.0770  -22.0520 O.3    36  G36        -0.3307
    734  C3'       -8.5570    6.3950  -22.1340 C.3    36  G36         0.1860
    735  O3'       -8.9440    6.7400  -20.8230 O.3    36  G36        -0.3112
    736  C2'       -7.8150    7.5500  -22.7880 C.3    36  G36         0.2309
    737  O2'       -8.4260    8.8060  -22.5920 O.3    36  G36        -0.2156
    738  C1'       -6.5130    7.4540  -21.9960 C.3    36  G36         0.2408
    739  N1        -3.0280   11.0020  -20.8180 N.ar   36  G36        -0.1709
    740  C2        -3.8390   10.2730  -19.9910 C.ar   36  G36         0.2606
    741  N2        -3.7240   10.5170  -18.6770 N.pl3  36  G36        -0.0859
    742  N3        -4.7090    9.3620  -20.4190 N.ar   36  G36        -0.1918
    743  C4        -4.7160    9.2300  -21.7670 C.ar   36  G36         0.1723
    744  C5        -3.9440    9.9130  -22.6740 C.ar   36  G36         0.1748
    745  C6        -3.0180   10.8760  -22.2060 C.ar   36  G36         0.3023
    746  O6        -2.2520   11.5820  -22.8830 O.2    36  G36        -0.2633
    747  N7        -4.2390    9.5010  -23.9700 N.ar   36  G36        -0.2173
    748  C8        -5.1670    8.5880  -23.8240 C.ar   36  G36         0.1817
    749  N9        -5.4950    8.3640  -22.5100 N.ar   36  G36        -0.2693
    750  OP1       -8.0710    3.2290  -25.9110 O.3    36  G36        -0.4373
    751  OP2       -6.6780    5.1830  -26.8410 O.co2  36  G36        -0.5172
    752  P        -10.4000    6.3720  -20.3120 P.3    37  U37         0.2141
    753  C5'       -9.8010    6.5260  -17.7610 C.3    37  U37         0.1812
    754  O5'      -10.4280    7.0980  -18.8920 O.3    37  U37        -0.3114
    755  C4'       -9.4890    7.6020  -16.7360 C.3    37  U37         0.1773
    756  O4'       -8.4390    8.4520  -17.2540 O.3    37  U37        -0.3307
    757  C3'      -10.6250    8.5510  -16.3930 C.3    37  U37         0.1860
    758  O3'      -10.6100    8.7850  -15.0190 O.3    37  U37        -0.3112
    759  C2'      -10.2350    9.8510  -17.1090 C.3    37  U37         0.2309
    760  O2'      -10.7120   11.0080  -16.4500 O.3    37  U37        -0.2156
    761  C1'       -8.7260    9.7960  -16.9550 C.3    37  U37         0.2420
    762  N1        -7.9190   10.6620  -17.8780 N.ar   37  U37        -0.2534
    763  C2        -7.1190   11.6740  -17.3590 C.ar   37  U37         0.3546
    764  O2        -7.0280   11.9360  -16.1610 O.2    37  U37        -0.2443
    765  N3        -6.4180   12.3990  -18.2910 N.ar   37  U37        -0.1530
    766  C4        -6.4390   12.2060  -19.6610 C.ar   37  U37         0.2846
    767  O4        -5.7610   12.9240  -20.3960 O.2    37  U37        -0.2650
    768  C5        -7.2870   11.1390  -20.1260 C.ar   37  U37         0.0814
    769  C6        -7.9750   10.4200  -19.2350 C.ar   37  U37         0.0870
    770  OP1      -10.4950    4.9050  -20.0970 O.3    37  U37        -0.4373
    771  OP2      -11.3500    7.0810  -21.2080 O.co2  37  U37        -0.5172
    772  P        -11.0110    7.7180  -13.9130 P.3    38  A38         0.2141
    773  C5'      -10.5250    8.3200  -11.3870 C.3    38  A38         0.1812
    774  O5'      -11.0790    8.6760  -12.6320 O.3    38  A38        -0.3114
    775  C4'      -10.4370    9.5390  -10.4850 C.3    38  A38         0.1773
    776  O4'       -9.3430   10.3860  -10.9260 O.3    38  A38        -0.3307
    777  C3'      -11.6410   10.4680  -10.4910 C.3    38  A38         0.1860
    778  O3'      -12.6060   10.0540   -9.5410 O.3    38  A38        -0.3112
    779  C2'      -11.0000   11.7790  -10.0680 C.3    38  A38         0.2309
    780  O2'      -10.7210   11.7870   -8.6870 O.3    38  A38        -0.2156
    781  C1'       -9.7010   11.7510  -10.8510 C.3    38  A38         0.2408
    782  N1       -10.3680   15.9220  -13.8440 N.ar   38  A38        -0.2040
    783  C2       -10.3550   15.7780  -12.5170 C.ar   38  A38         0.2016
    784  N3       -10.1780   14.6660  -11.8020 N.ar   38  A38        -0.2048
    785  C4        -9.9900   13.5980  -12.5940 C.ar   38  A38         0.1692
    786  C5        -9.9770   13.5990  -13.9730 C.ar   38  A38         0.1518
    787  C6       -10.1800   14.8350  -14.6130 C.ar   38  A38         0.1919
    788  N6       -10.1770   14.9790  -15.9420 N.pl3  38  A38        -0.1054
    789  N7        -9.7590   12.3280  -14.4600 N.ar   38  A38        -0.2193
    790  C8        -9.6550   11.5910  -13.3810 C.ar   38  A38         0.1816
    791  N9        -9.7850   12.2890  -12.2130 N.ar   38  A38        -0.2693
    792  OP1       -9.8840    6.7720  -13.7850 O.3    38  A38        -0.4373
    793  OP2      -12.3700    7.2060  -14.1850 O.co2  38  A38        -0.5172
    794  P        -14.1680   10.1260   -9.9000 P.3    39  A39         0.2141
    795  C5'      -14.3460   12.5370   -8.8390 C.3    39  A39         0.1812
    796  O5'      -14.5330   11.6830   -9.9670 O.3    39  A39        -0.3114
    797  C4'      -14.3420   13.9750   -9.3120 C.3    39  A39         0.1773
    798  O4'      -13.2430   14.1930  -10.2340 O.3    39  A39        -0.3307
    799  C3'      -15.5570   14.3490  -10.1440 C.3    39  A39         0.1860
    800  O3'      -16.6530   14.6670   -9.3150 O.3    39  A39        -0.3112
    801  C2'      -15.0440   15.5680  -10.8940 C.3    39  A39         0.2309
    802  O2'      -15.0200   16.7320  -10.0810 O.3    39  A39        -0.2156
    803  C1'      -13.6340   15.0950  -11.2520 C.3    39  A39         0.2408
    804  N1       -13.4580   15.8130  -16.3440 N.ar   39  A39        -0.2040
    805  C2       -13.5190   16.6670  -15.3180 C.ar   39  A39         0.2016
    806  N3       -13.5640   16.3980  -14.0110 N.ar   39  A39        -0.2048
    807  C4       -13.5330   15.0760  -13.7870 C.ar   39  A39         0.1692
    808  C5       -13.4700   14.0820  -14.7410 C.ar   39  A39         0.1518
    809  C6       -13.4290   14.4950  -16.0850 C.ar   39  A39         0.1919
    810  N6       -13.3690   13.6620  -17.1230 N.pl3  39  A39        -0.1054
    811  N7       -13.4680   12.8390  -14.1430 N.ar   39  A39        -0.2193
    812  C8       -13.5200   13.1080  -12.8480 C.ar   39  A39         0.1816
    813  N9       -13.5590   14.4450  -12.5620 N.ar   39  A39        -0.2693
    814  OP1      -14.8780    9.5600   -8.7260 O.3    39  A39        -0.4373
    815  OP2      -14.3540    9.5720  -11.2710 O.co2  39  A39        -0.5172
    816  P        -18.1220   14.2470   -9.7790 P.3    40  C40         0.2141
    817  C5'      -18.8390   16.5460  -10.7980 C.3    40  C40         0.1812
    818  O5'      -18.4220   15.2140  -11.0220 O.3    40  C40        -0.3114
    819  C4'      -18.7310   17.3620  -12.0670 C.3    40  C40         0.1773
    820  O4'      -17.4130   17.1810  -12.6410 O.3    40  C40        -0.3307
    821  C3'      -19.6610   16.9540  -13.1960 C.3    40  C40         0.1860
    822  O3'      -20.9920   17.4340  -13.0000 O.3    40  C40        -0.3112
    823  C2'      -18.9250   17.5770  -14.3840 C.3    40  C40         0.2309
    824  O2'      -19.0200   18.9840  -14.4650 O.3    40  C40        -0.2156
    825  C1'      -17.4870   17.1830  -14.0550 C.3    40  C40         0.2420
    826  N1       -17.1510   15.8410  -14.6510 N.ar   40  C40        -0.2535
    827  C2       -16.8520   15.7770  -16.0210 C.ar   40  C40         0.3532
    828  O2       -16.8470   16.8190  -16.6840 O.2    40  C40        -0.2443
    829  N3       -16.5770   14.5730  -16.5850 N.ar   40  C40        -0.1739
    830  C4       -16.5940   13.4710  -15.8220 C.ar   40  C40         0.1759
    831  N4       -16.3120   12.3090  -16.4100 N.pl3  40  C40        -0.1070
    832  C5       -16.8940   13.5040  -14.4250 C.ar   40  C40         0.0566
    833  C6       -17.1700   14.6990  -13.8940 C.ar   40  C40         0.0850
    834  OP1      -19.0030   14.5910   -8.6380 O.3    40  C40        -0.4373
    835  OP2      -18.0800   12.8540  -10.2780 O.co2  40  C40        -0.5172
    836  P        -22.2810   16.6020  -13.5080 P.3    41  C41         0.2141
    837  C5'      -22.3310   18.1900  -15.6060 C.3    41  C41         0.1812
    838  O5'      -22.3560   16.8660  -15.0920 O.3    41  C41        -0.3114
    839  C4'      -22.1350   18.1750  -17.1110 C.3    41  C41         0.1773
    840  O4'      -20.8290   17.6500  -17.4810 O.3    41  C41        -0.3307
    841  C3'      -23.0440   17.2200  -17.8550 C.3    41  C41         0.1860
    842  O3'      -24.3920   17.6810  -17.8940 O.3    41  C41        -0.3112
    843  C2'      -22.3530   17.2170  -19.2140 C.3    41  C41         0.2309
    844  O2'      -22.5210   18.4440  -19.8960 O.3    41  C41        -0.2156
    845  C1'      -20.9000   17.0500  -18.7710 C.3    41  C41         0.2420
    846  N1       -20.4190   15.6200  -18.7270 N.ar   41  C41        -0.2535
    847  C2       -20.1280   14.9120  -19.9130 C.ar   41  C41         0.3532
    848  O2       -20.2600   15.4500  -21.0220 O.2    41  C41        -0.2443
    849  N3       -19.6970   13.6250  -19.8240 N.ar   41  C41        -0.1739
    850  C4       -19.5570   13.0500  -18.6220 C.ar   41  C41         0.1759
    851  N4       -19.1330   11.7830  -18.5750 N.pl3  41  C41        -0.1070
    852  C5       -19.8460   13.7440  -17.4080 C.ar   41  C41         0.0566
    853  C6       -20.2660   15.0080  -17.5180 C.ar   41  C41         0.0850
    854  OP1      -23.4550   17.2340  -12.8520 O.3    41  C41        -0.4373
    855  OP2      -22.0490   15.1460  -13.3190 O.co2  41  C41        -0.5172
    856  P        -25.5970   16.6190  -17.8060 P.3    42  G42         0.2141
    857  C5'      -25.9780   16.4580  -20.3930 C.3    42  G42         0.1812
    858  O5'      -25.5000   15.8530  -19.2110 O.3    42  G42        -0.3114
    859  C4'      -25.6520   15.5920  -21.6000 C.3    42  G42         0.1773
    860  O4'      -24.2240   15.3230  -21.6260 O.3    42  G42        -0.3307
    861  C3'      -26.2420   14.1900  -21.6360 C.3    42  G42         0.1860
    862  O3'      -27.6280   14.1790  -21.9820 O.3    42  G42        -0.3112
    863  C2'      -25.3580   13.5990  -22.7300 C.3    42  G42         0.2309
    864  O2'      -25.6980   14.0530  -24.0260 O.3    42  G42        -0.2156
    865  C1'      -23.9740   14.1080  -22.3030 C.3    42  G42         0.2408
    866  N1       -21.5940    9.6190  -22.0170 N.ar   42  G42        -0.1709
    867  C2       -22.0360   10.3010  -23.1200 C.ar   42  G42         0.2606
    868  N2       -21.8450    9.7170  -24.3120 N.pl3  42  G42        -0.0859
    869  N3       -22.6390   11.4790  -23.0560 N.ar   42  G42        -0.1918
    870  C4       -22.7680   11.9390  -21.7840 C.ar   42  G42         0.1723
    871  C5       -22.3550   11.3340  -20.6210 C.ar   42  G42         0.1748
    872  C6       -21.7140   10.0770  -20.7060 C.ar   42  G42         0.3023
    873  O6       -21.2710    9.3850  -19.7820 O.2    42  G42        -0.2633
    874  N7       -22.6650   12.1200  -19.5210 N.ar   42  G42        -0.2173
    875  C8       -23.2550   13.1710  -20.0340 C.ar   42  G42         0.1817
    876  N9       -23.3480   13.1340  -21.4060 N.ar   42  G42        -0.2693
    877  OP1      -26.8440   17.4120  -17.7720 O.2    42  G42        -0.5172
    878  OP2      -25.3280   15.6620  -16.7070 O.co2  42  G42        -0.4373
    879  P        -28.7230   13.3890  -21.0900 P.3    43  A43         0.2141
    880  C5'      -29.1690   10.8310  -20.9430 C.3    43  A43         0.1812
    881  O5'      -28.6800   11.9190  -21.7010 O.3    43  A43        -0.3114
    882  C4'      -29.2120    9.6200  -21.8440 C.3    43  A43         0.1773
    883  O4'      -30.0390    9.9210  -22.9930 O.3    43  A43        -0.3307
    884  C3'      -27.8650    9.2560  -22.4380 C.3    43  A43         0.1860
    885  O3'      -27.1590    8.3790  -21.5660 O.3    43  A43        -0.3112
    886  C2'      -28.2170    8.6220  -23.7790 C.3    43  A43         0.2309
    887  O2'      -28.5520    7.2590  -23.6360 O.3    43  A43        -0.2156
    888  C1'      -29.4620    9.3990  -24.1760 C.3    43  A43         0.2408
    889  N1       -28.8720   10.9610  -29.0750 N.ar   43  A43        -0.2040
    890  C2       -28.9810    9.7270  -28.5490 C.ar   43  A43         0.2016
    891  N3       -29.1250    9.3830  -27.2610 N.ar   43  A43        -0.2048
    892  C4       -29.1570   10.4720  -26.4680 C.ar   43  A43         0.1692
    893  C5       -29.0540   11.7890  -26.8750 C.ar   43  A43         0.1518
    894  C6       -28.9050   12.0280  -28.2430 C.ar   43  A43         0.1919
    895  N6       -28.7930   13.2590  -28.7380 N.pl3  43  A43        -0.1054
    896  N7       -29.1160   12.6460  -25.8040 N.ar   43  A43        -0.2193
    897  C8       -29.2600   11.8470  -24.7730 C.ar   43  A43         0.1816
    898  N9       -29.2860   10.5170  -25.0990 N.ar   43  A43        -0.2693
    899  OP1      -30.0410   13.9890  -21.4040 O.2    43  A43        -0.5172
    900  OP2      -28.2830   13.2830  -19.6770 O.co2  43  A43        -0.4373
    901  P        -25.5710    8.5800  -21.4770 P.3    44  A44         0.2141
    902  C5'      -25.0860    6.5300  -23.0070 C.3    44  A44         0.1812
    903  O5'      -25.1250    7.9390  -22.8760 O.3    44  A44        -0.3114
    904  C4'      -24.9330    6.1000  -24.4560 C.3    44  A44         0.1773
    905  O4'      -25.8790    6.7900  -25.3060 O.3    44  A44        -0.3307
    906  C3'      -23.5890    6.4180  -25.0730 C.3    44  A44         0.1860
    907  O3'      -22.6800    5.4110  -24.7240 O.3    44  A44        -0.3112
    908  C2'      -23.9190    6.4140  -26.5590 C.3    44  A44         0.2309
    909  O2'      -23.9630    5.1060  -27.0900 O.3    44  A44        -0.2156
    910  C1'      -25.3100    7.0340  -26.5790 C.3    44  A44         0.2408
    911  N1       -25.6250   10.8660  -30.0670 N.ar   44  A44        -0.2040
    912  C2       -25.5810    9.5310  -30.2230 C.ar   44  A44         0.2016
    913  N3       -25.4960    8.5890  -29.2710 N.ar   44  A44        -0.2048
    914  C4       -25.4540    9.1260  -28.0290 C.ar   44  A44         0.1692
    915  C5       -25.4920   10.4760  -27.7220 C.ar   44  A44         0.1518
    916  C6       -25.5820   11.3690  -28.8080 C.ar   44  A44         0.1919
    917  N6       -25.6270   12.6900  -28.6390 N.pl3  44  A44        -0.1054
    918  N7       -25.4300   10.6820  -26.3560 N.ar   44  A44        -0.2193
    919  C8       -25.3540    9.4630  -25.8700 C.ar   44  A44         0.1816
    920  N9       -25.3620    8.4750  -26.8180 N.ar   44  A44        -0.2693
    921  OP1      -24.9910    7.7590  -20.3800 O.3    44  A44        -0.4373
    922  OP2      -25.3470   10.0510  -21.4750 O.co2  44  A44        -0.5172
    923  P        -21.1270    5.7490  -24.5300 P.3    45  A45         0.2141
    924  C5'      -20.5370    4.8150  -26.9000 C.3    45  A45         0.1812
    925  O5'      -20.7100    5.9470  -26.0590 O.3    45  A45        -0.3114
    926  C4'      -20.2470    5.3030  -28.3060 C.3    45  A45         0.1773
    927  O4'      -21.3150    6.1800  -28.7410 O.3    45  A45        -0.3307
    928  C3'      -18.9990    6.1560  -28.4330 C.3    45  A45         0.1860
    929  O3'      -17.8830    5.3120  -28.5810 O.3    45  A45        -0.3112
    930  C2'      -19.2930    6.9840  -29.6810 C.3    45  A45         0.2309
    931  O2'      -19.0820    6.3000  -30.9000 O.3    45  A45        -0.2156
    932  C1'      -20.7860    7.2140  -29.5360 C.3    45  A45         0.2408
    933  N1       -22.5060   11.9320  -30.4010 N.ar   45  A45        -0.2040
    934  C2       -22.2570   10.9030  -31.2250 C.ar   45  A45         0.2016
    935  N3       -21.7980    9.6900  -30.9270 N.ar   45  A45        -0.2048
    936  C4       -21.6010    9.5750  -29.5970 C.ar   45  A45         0.1692
    937  C5       -21.8130   10.5310  -28.6330 C.ar   45  A45         0.1518
    938  C6       -22.2900   11.7690  -29.0830 C.ar   45  A45         0.1919
    939  N6       -22.5400   12.7880  -28.2630 N.pl3  45  A45        -0.1054
    940  N7       -21.4960   10.0490  -27.3790 N.ar   45  A45        -0.2193
    941  C8       -21.1040    8.8170  -27.5990 C.ar   45  A45         0.1816
    942  N9       -21.1400    8.4770  -28.9190 N.ar   45  A45        -0.2693
    943  OP1      -20.4510    4.5220  -24.0460 O.2    45  A45        -0.5172
    944  OP2      -20.9570    7.0260  -23.7770 O.co2  45  A45        -0.4373
    945  P        -16.5310    5.6650  -27.8070 P.3    46  G46         0.2141
    946  C5'      -15.7970    8.1790  -27.4460 C.3    46  G46         0.1812
    947  O5'      -16.2070    7.1420  -28.3280 O.3    46  G46        -0.3114
    948  C4'      -16.4460    9.4750  -27.8920 C.3    46  G46         0.1773
    949  O4'      -17.8640    9.4620  -27.5690 O.3    46  G46        -0.3307
    950  C3'      -15.9130   10.7030  -27.1850 C.3    46  G46         0.1860
    951  O3'      -14.7780   11.1920  -27.8820 O.3    46  G46        -0.3112
    952  C2'      -17.1360   11.6330  -27.1820 C.3    46  G46         0.2309
    953  O2'      -17.4250   12.2700  -28.4030 O.3    46  G46        -0.2156
    954  C1'      -18.2350   10.6340  -26.8620 C.3    46  G46         0.2408
    955  N1       -19.1720   12.5420  -22.2050 N.ar   46  G46        -0.1709
    956  C2       -19.2430   13.1580  -23.4270 C.ar   46  G46         0.2606
    957  N2       -19.6020   14.4450  -23.4260 N.pl3  46  G46        -0.0859
    958  N3       -18.9740   12.5560  -24.5770 N.ar   46  G46        -0.1918
    959  C4       -18.6230   11.2510  -24.4250 C.ar   46  G46         0.1723
    960  C5       -18.5240   10.5510  -23.2540 C.ar   46  G46         0.1748
    961  C6       -18.8100   11.2120  -22.0340 C.ar   46  G46         0.3023
    962  O6       -18.7740   10.7460  -20.8920 O.2    46  G46        -0.2633
    963  N7       -18.1440    9.2410  -23.5020 N.ar   46  G46        -0.2173
    964  C8       -18.0140    9.1710  -24.7930 C.ar   46  G46         0.1817
    965  N9       -18.2960   10.3550  -25.4270 N.ar   46  G46        -0.2693
    966  OP1      -15.5080    4.7520  -28.3510 O.2    46  G46        -0.5172
    967  OP2      -16.7880    5.7040  -26.3450 O.co2  46  G46        -0.4373
    968  P        -13.5120   11.7210  -27.0550 P.3    47  G47         0.2141
    969  C5'      -14.4590   14.1580  -27.1490 C.3    47  G47         0.1812
    970  O5'      -14.1080   13.0270  -26.3500 O.3    47  G47        -0.3114
    971  C4'      -15.1540   15.1890  -26.2880 C.3    47  G47         0.1773
    972  O4'      -16.2240   14.5550  -25.5420 O.3    47  G47        -0.3307
    973  C3'      -14.2950   15.7830  -25.1880 C.3    47  G47         0.1860
    974  O3'      -13.4500   16.8090  -25.6880 O.3    47  G47        -0.3112
    975  C2'      -15.3790   16.3540  -24.2920 C.3    47  G47         0.2309
    976  O2'      -15.9460   17.5290  -24.8380 O.3    47  G47        -0.2156
    977  C1'      -16.4060   15.2290  -24.3110 C.3    47  G47         0.2408
    978  N1       -16.5780   14.5560  -19.2470 N.ar   47  G47        -0.1709
    979  C2       -16.8280   15.6820  -19.9980 C.ar   47  G47         0.2606
    980  N2       -17.1680   16.7870  -19.3190 N.pl3  47  G47        -0.0859
    981  N3       -16.7610   15.7350  -21.3290 N.ar   47  G47        -0.1918
    982  C4       -16.4080   14.5480  -21.8690 C.ar   47  G47         0.1723
    983  C5       -16.1430   13.3720  -21.2150 C.ar   47  G47         0.1748
    984  C6       -16.2290   13.3280  -19.8060 C.ar   47  G47         0.3023
    985  O6       -16.0360   12.3530  -19.0650 O.2    47  G47        -0.2633
    986  N7       -15.8220   12.3760  -22.1210 N.ar   47  G47        -0.2173
    987  C8       -15.8950   12.9600  -23.2930 C.ar   47  G47         0.1817
    988  N9       -16.2430   14.2870  -23.2110 N.ar   47  G47        -0.2693
    989  OP1      -12.4520   12.1450  -27.9990 O.2    47  G47        -0.5172
    990  OP2      -13.1970   10.7060  -26.0230 O.co2  47  G47        -0.4373
    991  P        -11.8960   16.8330  -25.2730 P.3    48  G48         0.2141
    992  C5'      -12.3280   17.7980  -22.8560 C.3    48  G48         0.1812
    993  O5'      -11.9390   16.6920  -23.6710 O.3    48  G48        -0.3114
    994  C4'      -12.6680   17.3240  -21.4510 C.3    48  G48         0.1773
    995  O4'      -11.4690   16.8130  -20.8280 O.3    48  G48        -0.3307
    996  C3'      -13.1330   18.3900  -20.4760 C.3    48  G48         0.1860
    997  O3'      -14.5320   18.6050  -20.5990 O.3    48  G48        -0.3112
    998  C2'      -12.7600   17.7620  -19.1400 C.3    48  G48         0.2309
    999  O2'      -13.6120   16.7100  -18.7610 O.3    48  G48        -0.2156
   1000  C1'      -11.3960   17.1820  -19.4690 C.3    48  G48         0.2408
   1001  N1        -8.6320   19.8330  -16.0840 N.ar   48  G48        -0.1709
   1002  C2        -9.5810   18.8680  -15.8610 C.ar   48  G48         0.2606
   1003  N2        -9.8120   18.5820  -14.5700 N.pl3  48  G48        -0.0859
   1004  N3       -10.2370   18.2210  -16.8310 N.ar   48  G48        -0.1918
   1005  C4        -9.8700   18.6450  -18.0650 C.ar   48  G48         0.1723
   1006  C5        -8.9470   19.5970  -18.3850 C.ar   48  G48         0.1748
   1007  C6        -8.2570   20.2650  -17.3560 C.ar   48  G48         0.3023
   1008  O6        -7.3950   21.1600  -17.4720 O.2    48  G48        -0.2633
   1009  N7        -8.8490   19.7510  -19.7600 N.ar   48  G48        -0.2173
   1010  C8        -9.7140   18.8980  -20.2590 C.ar   48  G48         0.1817
   1011  N9       -10.3630   18.1870  -19.2760 N.ar   48  G48        -0.2693
   1012  OP1      -11.3460   18.1680  -25.5980 O.3    48  G48        -0.4373
   1013  OP2      -11.2600   15.6450  -25.9100 O.co2  48  G48        -0.5172
   1014  P        -15.1050   20.1040  -20.5180 P.3    49  G49         0.2141
   1015  C5'      -15.7140   19.7830  -18.0500 C.3    49  G49         0.1812
   1016  O5'      -14.8890   20.4560  -18.9770 O.3    49  G49        -0.3114
   1017  C4'      -15.1660   20.0070  -16.6640 C.3    49  G49         0.1773
   1018  O4'      -13.7450   19.7570  -16.6570 O.3    49  G49        -0.3307
   1019  C3'      -15.2280   21.4420  -16.1850 C.3    49  G49         0.1860
   1020  O3'      -16.5270   21.7430  -15.7280 O.3    49  G49        -0.3112
   1021  C2'      -14.2580   21.3790  -15.0250 C.3    49  G49         0.2309
   1022  O2'      -14.8110   20.7270  -13.9080 O.3    49  G49        -0.2156
   1023  C1'      -13.1630   20.5300  -15.6320 C.3    49  G49         0.2408
   1024  N1        -9.3160   23.6000  -14.5780 N.ar   49  G49        -0.1709
   1025  C2       -10.1640   22.9280  -13.7230 C.ar   49  G49         0.2606
   1026  N2        -9.9750   23.0770  -12.4010 N.pl3  49  G49        -0.0859
   1027  N3       -11.1460   22.1450  -14.1440 N.ar   49  G49        -0.1918
   1028  C4       -11.2140   22.0900  -15.4940 C.ar   49  G49         0.1723
   1029  C5       -10.4300   22.7140  -16.4210 C.ar   49  G49         0.1748
   1030  C6        -9.3880   23.5380  -15.9680 C.ar   49  G49         0.3023
   1031  O6        -8.5830   24.1660  -16.6560 O.2    49  G49        -0.2633
   1032  N7       -10.8220   22.3810  -17.7070 N.ar   49  G49        -0.2173
   1033  C8       -11.8370   21.5750  -17.5350 C.ar   49  G49         0.1817
   1034  N9       -12.1210   21.3600  -16.2100 N.ar   49  G49        -0.2693
   1035  OP1      -16.5700   20.0380  -20.7250 O.3    49  G49        -0.4373
   1036  OP2      -14.2590   20.9920  -21.3590 O.co2  49  G49        -0.5172
   1037  P        -17.1030   23.2200  -15.8900 P.3    50  G50         0.2141
   1038  C5'      -16.4970   24.2200  -13.5770 C.3    50  G50         0.1812
   1039  O5'      -16.1550   24.0990  -14.9470 O.3    50  G50        -0.3114
   1040  C4'      -15.3280   24.6970  -12.7300 C.3    50  G50         0.1773
   1041  O4'      -14.0540   24.2380  -13.2540 O.3    50  G50        -0.3307
   1042  C3'      -15.1140   26.2000  -12.6540 C.3    50  G50         0.1860
   1043  O3'      -16.1060   26.7950  -11.8440 O.3    50  G50        -0.3112
   1044  C2'      -13.7460   26.1930  -11.9760 C.3    50  G50         0.2309
   1045  O2'      -13.8090   25.7940  -10.6180 O.3    50  G50        -0.2156
   1046  C1'      -13.0420   25.1240  -12.8060 C.3    50  G50         0.2408
   1047  N1        -8.9630   27.7360  -14.4360 N.ar   50  G50        -0.1709
   1048  C2        -9.3740   27.4670  -13.1530 C.ar   50  G50         0.2606
   1049  N2        -8.6190   27.9490  -12.1640 N.pl3  50  G50        -0.0859
   1050  N3       -10.4670   26.7750  -12.8480 N.ar   50  G50        -0.1918
   1051  C4       -11.1360   26.3600  -13.9530 C.ar   50  G50         0.1723
   1052  C5       -10.8030   26.5680  -15.2690 C.ar   50  G50         0.1748
   1053  C6        -9.6350   27.3020  -15.5800 C.ar   50  G50         0.3023
   1054  O6        -9.1900   27.5790  -16.7050 O.2    50  G50        -0.2633
   1055  N7       -11.7300   25.9670  -16.1060 N.ar   50  G50        -0.2173
   1056  C8       -12.5970   25.4240  -15.2940 C.ar   50  G50         0.1817
   1057  N9       -12.2990   25.6220  -13.9660 N.ar   50  G50        -0.2693
   1058  OP1      -18.4380   23.1670  -15.2520 O.3    50  G50        -0.4373
   1059  OP2      -16.9390   23.6620  -17.2960 O.co2  50  G50        -0.5172
   1060  P        -16.4100   28.3720  -11.9000 P.3    51  A51         0.2141
   1061  C5'      -14.6900   29.0720   -9.9960 C.3    51  A51         0.1812
   1062  O5'      -15.0590   29.0750  -11.3780 O.3    51  A51        -0.3114
   1063  C4'      -13.3770   29.8130   -9.8050 C.3    51  A51         0.1773
   1064  O4'      -12.3290   29.2370  -10.6310 O.3    51  A51        -0.3307
   1065  C3'      -13.3840   31.2500  -10.2900 C.3    51  A51         0.1860
   1066  O3'      -14.0100   32.0650   -9.3470 O.3    51  A51        -0.3112
   1067  C2'      -11.8910   31.5380  -10.4260 C.3    51  A51         0.2309
   1068  O2'      -11.2070   31.6900   -9.1960 O.3    51  A51        -0.2156
   1069  C1'      -11.4280   30.2460  -11.0640 C.3    51  A51         0.2408
   1070  N1        -8.7160   31.6050  -15.2350 N.ar   51  A51        -0.2040
   1071  C2        -8.4890   31.8020  -13.9290 C.ar   51  A51         0.2016
   1072  N3        -9.2440   31.4190  -12.9000 N.ar   51  A51        -0.2048
   1073  C4       -10.3480   30.7660  -13.3060 C.ar   51  A51         0.1692
   1074  C5       -10.7100   30.4880  -14.6090 C.ar   51  A51         0.1518
   1075  C6        -9.8340   30.9330  -15.6170 C.ar   51  A51         0.1919
   1076  N6       -10.0580   30.7370  -16.9240 N.pl3  51  A51        -0.1054
   1077  N7       -11.9100   29.8040  -14.6530 N.ar   51  A51        -0.2193
   1078  C8       -12.2520   29.6830  -13.3900 C.ar   51  A51         0.1816
   1079  N9       -11.3560   30.2460  -12.5240 N.ar   51  A51        -0.2693
   1080  OP1      -17.4700   28.5800  -10.8780 O.3    51  A51        -0.4373
   1081  OP2      -16.6360   28.7690  -13.3150 O.co2  51  A51        -0.5172
   1082  P        -14.7460   33.4000   -9.8200 P.3    52  A52         0.2141
   1083  C5'      -12.6440   34.8280   -9.0540 C.3    52  A52         0.1812
   1084  O5'      -13.5380   34.4210  -10.0900 O.3    52  A52        -0.3114
   1085  C4'      -11.3950   35.4420   -9.6630 C.3    52  A52         0.1773
   1086  O4'      -10.7800   34.5010  -10.5770 O.3    52  A52        -0.3307
   1087  C3'      -11.6190   36.6350  -10.5650 C.3    52  A52         0.1860
   1088  O3'      -11.8110   37.8110   -9.7880 O.3    52  A52        -0.3112
   1089  C2'      -10.3010   36.6470  -11.3370 C.3    52  A52         0.2309
   1090  O2'       -9.2150   37.1070  -10.5520 O.3    52  A52        -0.2156
   1091  C1'      -10.1080   35.1670  -11.6280 C.3    52  A52         0.2408
   1092  N1        -9.2340   34.7550  -16.7170 N.ar   52  A52        -0.2040
   1093  C2        -8.5020   35.2840  -15.7190 C.ar   52  A52         0.2016
   1094  N3        -8.7980   35.3530  -14.4130 N.ar   52  A52        -0.2048
   1095  C4        -9.9900   34.8010  -14.1490 C.ar   52  A52         0.1692
   1096  C5       -10.8490   34.2210  -15.0650 C.ar   52  A52         0.1518
   1097  C6       -10.4390   34.2020  -16.4160 C.ar   52  A52         0.1919
   1098  N6       -11.1810   33.6770  -17.3970 N.pl3  52  A52        -0.1054
   1099  N7       -11.9890   33.7660  -14.4450 N.ar   52  A52        -0.2193
   1100  C8       -11.8010   34.0750  -13.1780 C.ar   52  A52         0.1816
   1101  N9       -10.6140   34.7060  -12.9260 N.ar   52  A52        -0.2693
   1102  OP1      -15.5140   33.8720   -8.6470 O.3    52  A52        -0.4373
   1103  OP2      -15.4500   33.1500  -11.1030 O.co2  52  A52        -0.5172
   1104  P        -12.6190   39.0780  -10.3720 P.3    53  U53         0.2141
   1105  C5'      -10.5780   40.3950  -11.4480 C.3    53  U53         0.1813
   1106  O5'      -11.7530   39.5870  -11.6270 O.3    53  U53        -0.3114
   1107  C4'       -9.9340   40.6670  -12.7950 C.3    53  U53         0.1801
   1108  O4'       -9.7020   39.3970  -13.4430 O.3    53  U53        -0.3306
   1109  C3'      -10.8080   41.3930  -13.8060 C.3    53  U53         0.2161
   1110  O3'      -10.8140   42.8160  -13.5630 O.3    53  U53        -0.2175
   1111  C2'      -10.1740   40.9510  -15.1360 C.3    53  U53         0.2338
   1112  O2'       -9.0140   41.6870  -15.4980 O.3    53  U53        -0.2155
   1113  C1'       -9.8000   39.4940  -14.8450 C.3    53  U53         0.2421
   1114  N1       -10.8200   38.5140  -15.3150 N.ar   53  U53        -0.2534
   1115  C2       -10.7910   38.0410  -16.6190 C.ar   53  U53         0.3546
   1116  O2        -9.9720   38.3650  -17.4520 O.2    53  U53        -0.2443
   1117  N3       -11.7810   37.1680  -16.9590 N.ar   53  U53        -0.1530
   1118  C4       -12.7830   36.7230  -16.1290 C.ar   53  U53         0.2846
   1119  O4       -13.6040   35.9500  -16.5790 O.2    53  U53        -0.2650
   1120  C5       -12.7700   37.2340  -14.7820 C.ar   53  U53         0.0814
   1121  C6       -11.8050   38.0970  -14.4340 C.ar   53  U53         0.0870
   1122  OP1      -12.5510   40.1120   -9.3140 O.3    53  U53        -0.4373
   1123  OP2      -13.9420   38.6330  -10.8750 O.co2  53  U53        -0.5172
@<TRIPOS>BOND
     1   934   935   ar
     2   934   933   ar
     3   935   936   ar
     4   931   930    1
     5   933   938   ar
     6   912   911   ar
     7   912   913   ar
     8   911   916   ar
     9   618   617    2
    10   930   932    1
    11   930   928    1
    12   707   689    2
    13   727   709    2
    14   936   942   ar
    15   936   937   ar
    16   932   942    1
    17   932   927    1
    18   913   914   ar
    19   690   691    1
    20   690   692    1
    21   691   689    1
    22   619   617   ar
    23   619   620   ar
    24   938   937   ar
    25   938   939    1
    26   889   890   ar
    27   889   894   ar
    28   675   689    1
    29   675   674    1
    30   942   941   ar
    31   617   616   ar
    32   916   917    1
    33   916   915   ar
    34   927   926    1
    35   689   708    1
    36   895   894    1
    37   621   620    2
    38   937   940   ar
    39   929   928    1
    40   929   945    1
    41   890   891   ar
    42   695   709    1
    43   695   694    1
    44   709   728    1
    45   709   711    1
    46   928   926    1
    47   953   952    1
    48   966   945    2
    49   670   672    1
    50   670   671    1
    51   947   945    1
    52   947   946    1
    53   926   924    1
    54   620   622   ar
    55   672   674    1
    56   672   673    1
    57   677   676    1
    58   894   893   ar
    59   692   694    1
    60   692   693    1
    61   914   915   ar
    62   914   920   ar
    63   989   968    2
    64   687   669    2
    65   948   949    1
    66   948   946    1
    67   948   950    1
    68   674   676    1
    69   951   950    1
    70   951   968    1
    71   945   967    1
    72   915   918   ar
    73   941   940   ar
    74   694   696    1
    75   949   954    1
    76   616   615    1
    77   616   623   ar
    78   614   613    1
    79   676   678    1
    80   891   892   ar
    81   710   711    1
    82   710   712    1
    83   673   678    1
    84   950   952    1
    85   952   954    1
    86   969   970    1
    87   969   971    1
    88   613   615    1
    89   613   611    1
    90   909   908    1
    91   671   669    1
    92   968   970    1
    93   968   990    1
    94   693   698    1
    95   647   626    2
    96   615   610    1
    97   697   696    1
    98   657   656    1
    99   924   925    1
   100   893   892   ar
   101   893   896   ar
   102   622   623   ar
   103   954   965    1
   104   751   729    2
   105   920   910    1
   106   920   919   ar
   107   669   655    1
   108   669   688    1
   109   655   654    1
   110   678   679    1
   111   910   908    1
   112   910   905    1
   113   908   906    1
   114   696   698    1
   115   892   898   ar
   116   918   919   ar
   117   971   972    1
   118   971   973    1
   119   925   923    1
   120   648   626    1
   121   698   699    1
   122    19     1    1
   123   750   729    1
   124  1013   991    2
   125   626   612    1
   126   626   628    1
   127   712   714    1
   128   712   713    1
   129   896   897   ar
   130   729   715    1
   131   729   731    1
   132   611   612    1
   133   611   609    1
   134   974   991    1
   135   974   973    1
   136   610   609    1
   137   656   654    1
   138   656   658    1
   139  1012   991    1
   140   654   652    1
   141   972   977    1
   142   715   714    1
   143   652   650    1
   144   652   653    1
   145   965   964   ar
   146   965   959   ar
   147   905   904    1
   148   991   993    1
   149     1    20    1
   150     1     3    1
   151   973   975    1
   152   679   686   ar
   153   679   680   ar
   154   898   897   ar
   155   898   888    1
   156   714   716    1
   157   906   907    1
   158   906   904    1
   159   713   718    1
   160   609   607    1
   161   650   651    1
   162   706   699   ar
   163   706   705   ar
   164   976   975    1
   165   964   963   ar
   166   699   700   ar
   167   681   680    2
   168   907   923    1
   169   628   627    1
   170   658   653    1
   171   658   659    1
   172   958   959   ar
   173   958   956   ar
   174   686   685   ar
   175   923   943    2
   176   923   944    1
   177   627   629    1
   178   244   243    1
   179   904   902    1
   180   959   960   ar
   181   731   730    1
   182   868   867    1
   183   977   975    1
   184   977   988    1
   185   680   682   ar
   186   888   886    1
   187   888   883    1
   188   864   863    1
   189   747   748   ar
   190   747   744   ar
   191   661   660    2
   192     2     3    1
   193     2     4    1
   194   221   220    1
   195   668   649    2
   196   705   703   ar
   197   748   749   ar
   198   886   887    1
   199   886   884    1
   200   239   240    1
   201   239   237    1
   202   239   241    1
   203   624   606    2
   204   993   992    1
   205   718   716    1
   206   718   719    1
   207   716   717    1
   208   225   224    1
   209   726   725   ar
   210   726   719   ar
   211   240   245    1
   212   651   649    1
   213   963   960   ar
   214   700   701    2
   215   700   702   ar
   216   607   608    1
   217   956   957    1
   218   956   955   ar
   219   237   238    1
   220   202   201    1
   221   987   988   ar
   222   987   986   ar
   223   960   961   ar
   224   685   683   ar
   225   659   660   ar
   226   659   666   ar
   227   988   982   ar
   228   243   245    1
   229   243   241    1
   230   730   732    1
   231   242   241    1
   232   242   258    1
   233   867   869   ar
   234   867   866   ar
   235   245   255    1
   236   629   631    1
   237   629   630    1
   238   869   870   ar
   239   608   606    1
   240   660   662   ar
   241   902   903    1
   242   883   882    1
   243   725   723   ar
   244   682   683   ar
   245   719   720   ar
   246   746   745    2
   247   903   901    1
   248   992   994    1
   249   649   632    1
   250   649   667    1
   251   631   632    1
   252   631   633    1
   253   736   737    1
   254   736   734    1
   255   736   738    1
   256   863   865    1
   257   863   861    1
   258   744   745   ar
   259   744   743   ar
   260   276   258    2
   261   226   224   ar
   262   226   227   ar
   263     4     5    1
   264     4     6    1
   265   220   222    1
   266   220   218    1
   267   606   590    1
   268   606   625    1
   269   749   738    1
   270   749   743   ar
   271   703   702   ar
   272   703   704    2
   273   224   223   ar
   274   884   882    1
   275   884   885    1
   276   683   684    1
   277   865   860    1
   278   865   876    1
   279   630   635    1
   280   259   261    1
   281   259   260    1
   282   745   739   ar
   283   955   961   ar
   284   666   665   ar
   285     5    10    1
   286   734   732    1
   287   734   735    1
   288   986   983   ar
   289   222   217    1
   290   222   233    1
   291   732   733    1
   292   733   738    1
   293   633   635    1
   294   633   634    1
   295   238   236    1
   296   961   962    2
   297   201   203   ar
   298   201   200   ar
   299   866   872   ar
   300   258   260    1
   301   258   277    1
   302   862   861    1
   303   862   879    1
   304   256   236    2
   305   590   589    1
   306   219   218    1
   307   219   236    1
   308   982   981   ar
   309   982   983   ar
   310   882   880    1
   311   870   876   ar
   312   870   871   ar
   313   662   663   ar
   314   743   742   ar
   315   255   249   ar
   316   255   254   ar
   317   881   879    1
   318   881   880    1
   319   261   262    1
   320   261   263    1
   321   861   859    1
   322   860   859    1
   323   859   857    1
   324   885   901    1
   325   248   249   ar
   326   248   247   ar
   327   218   216    1
   328   720   722   ar
   329   720   721    2
   330   216   217    1
   331   216   214    1
   332   723   722   ar
   333   723   724    2
   334    18    17   ar
   335    18    11   ar
   336   901   922    2
   337   901   921    1
   338   994   995    1
   339   994   996    1
   340     6     7    1
   341     6     8    1
   342   203   204   ar
   343   876   875   ar
   344   899   879    2
   345    40    21    2
   346   236   257    1
   347   227   233   ar
   348   227   228   ar
   349   262   267    1
   350     7    21    1
   351   200   206   ar
   352  1036  1014    2
   353   981   979   ar
   354   223   229   ar
   355    17    15   ar
   356    39    21    1
   357   635   646    1
   358   983   984   ar
   359   645   646   ar
   360   645   644   ar
   361   771   752    2
   362   233   232   ar
   363   879   900    1
   364   249   250   ar
   365   848   847    2
   366   665   663   ar
   367    21    23    1
   368   995  1000    1
   369   735   752    1
   370   739   740   ar
   371   254   253   ar
   372   663   664    1
   373    10    11    1
   374    10     8    1
   375  1035  1014    1
   376   872   871   ar
   377   872   873    2
   378   198   197    1
   379   247   246   ar
   380   646   640   ar
   381   871   874   ar
   382   997  1014    1
   383   997   996    1
   384   589   587    1
   385   589   591    1
   386  1014  1016    1
   387    11    12   ar
   388   264   263    1
   389   264   278    1
   390   587   588    1
   391   587   585    1
   392   996   998    1
   393   742   740   ar
   394   767   766    2
   395   857   858    1
   396   266   265    1
   397   214   215    1
   398   644   641   ar
   399   263   265    1
   400   752   770    1
   401   752   754    1
   402  1010  1009   ar
   403  1010  1011   ar
   404     8     9    1
   405   178   179   ar
   406   178   183   ar
   407   267   265    1
   408   267   268    1
   409   228   229   ar
   410   228   231   ar
   411   768   766   ar
   412   768   769   ar
   413   588   593    1
   414   179   180   ar
   415   592   591    1
   416   229   230    2
   417    15    16    2
   418    15    14   ar
   419   204   205   ar
   420   204   210   ar
   421   875   874   ar
   422   299   278    2
   423   979   980    1
   424   979   978   ar
   425   740   741    1
   426   206   207    2
   427   206   205   ar
   428   847   849   ar
   429   847   846   ar
   430   844   843    1
   431   849   850   ar
   432   984   978   ar
   433   984   985    2
   434   197   199    1
   435   197   195    1
   436   250   253   ar
   437   250   251   ar
   438   593   591    1
   439   593   603    1
   440   232   231   ar
   441  1009  1006   ar
   442   766   765   ar
   443   585   586    1
   444   199   210    1
   445   199   194    1
   446   573   572    1
   447  1000  1011    1
   448  1000   998    1
   449   246   251   ar
   450   278   300    1
   451   278   280    1
   452   205   208   ar
   453    23    22    1
   454   640   641   ar
   455   640   639   ar
   456    12    14   ar
   457    12    13    2
   458  1011  1005   ar
   459   769   762   ar
   460   596   595   ar
   461   596   597   ar
   462   843   845    1
   463   843   841    1
   464   858   856    1
   465   275   268   ar
   466   275   274   ar
   467   210   209   ar
   468   140   139    1
   469   184   183    1
   470   641   642   ar
   471   998   999    1
   472   268   269   ar
   473   215   213    1
   474   183   182   ar
   475   180   181   ar
   476  1016  1015    1
   477   113   112    1
   478   251   252    1
   479   754   753    1
   480    37    38   ar
   481    37    35   ar
   482   845   846    1
   483   845   840    1
   484   846   853   ar
   485   595   594   ar
   486   850   851    1
   487   850   852   ar
   488   586   584    1
   489   603   597   ar
   490   603   602   ar
   491    22    24    1
   492    36    35    2
   493   280   279    1
   494   572   571   ar
   495   572   574   ar
   496   194   193    1
   497  1006  1005   ar
   498  1006  1007   ar
   499   156   157   ar
   500   156   161   ar
   501   195   196    1
   502   195   193    1
   503   639   637   ar
   504   597   598   ar
   505   196   213    1
   506   274   272   ar
   507   765   763   ar
   508    38    31   ar
   509  1005  1004   ar
   510  1015  1017    1
   511   269   270    2
   512   269   271   ar
   513    35    34   ar
   514   162   161    1
   515   208   209   ar
   516   571   577   ar
   517   139   134   ar
   518   139   138   ar
   519   157   158   ar
   520   569   568    1
   521   181   182   ar
   522   181   187   ar
   523   842   841    1
   524   842   856    1
   525   762   763   ar
   526   762   761    1
   527   193   191    1
   528   642   643    2
   529   642   636   ar
   530   574   575   ar
   531   841   839    1
   532   182   185   ar
   533   213   234    2
   534   213   235    1
   535   856   877    2
   536   856   878    1
   537   753   755    1
   538   134   135   ar
   539  1032  1033   ar
   540  1032  1029   ar
   541   112   111   ar
   542   112   114   ar
   543  1033  1034   ar
   544   853   852   ar
   545   161   160   ar
   546   111   117   ar
   547   840   839    1
   548  1008  1007    2
   549  1116  1115    2
   550   594   599   ar
   551  1098  1097    1
   552   763   764    2
   553  1007  1001   ar
   554   602   601   ar
   555  1059  1037    2
   556    25    24    1
   557    25    30    1
   558   604   584    2
   559   756   761    1
   560   756   755    1
   561   568   566    1
   562   568   570    1
   563   272   271   ar
   564   272   273    2
   565   637   636   ar
   566   637   638    1
   567    24    26    1
   568   810   809    1
   569   839   837    1
   570   759   761    1
   571   759   760    1
   572   759   757    1
   573   584   567    1
   574   584   605    1
   575   279   281    1
   576   598   599   ar
   577   598   601   ar
   578  1117  1115   ar
   579  1117  1118   ar
   580  1076  1075    1
   581   138   141   ar
   582   138   137   ar
   583   577   578    2
   584   577   576   ar
   585    31    30    1
   586    31    32   ar
   587    56    55    1
   588  1004  1002   ar
   589   141   142   ar
   590   575   576   ar
   591   575   581   ar
   592   567   566    1
   593   755   757    1
   594  1092  1097   ar
   595  1092  1093   ar
   596  1054  1053    2
   597    34    32   ar
   598   114   115   ar
   599    60    41    2
   600   282   281    1
   601   282   287    1
   602   828   827    2
   603  1017  1018    1
   604  1017  1019    1
   605   158   159   ar
   606  1018  1023    1
   607  1031  1030    2
   608  1115  1114   ar
   609   187   177    1
   610   187   186   ar
   611   829   827   ar
   612   829   830   ar
   613  1119  1118    2
   614   185   186   ar
   615   599   600    1
   616   135   136   ar
   617  1029  1030   ar
   618  1029  1028   ar
   619  1097  1096   ar
   620   281   283    1
   621   831   830    1
   622   176   175    1
   623    26    27    1
   624    26    28    1
   625   757   758    1
   626   191   192    1
   627   804   809   ar
   628   804   805   ar
   629    30    28    1
   630   576   579   ar
   631   117   118    2
   632   117   116   ar
   633  1034  1023    1
   634  1034  1028   ar
   635   566   564    1
   636  1019  1020    1
   637  1019  1021    1
   638   570   581    1
   639   570   565    1
   640   175   177    1
   641   175   173    1
   642   160   159   ar
   643   160   163   ar
   644   177   172    1
   645  1118  1120   ar
   646  1055  1056   ar
   647  1055  1052   ar
   648   809   808   ar
   649  1001  1002   ar
   650    32    33    2
   651   827   826   ar
   652   581   580   ar
   653  1030  1024   ar
   654   788   787    1
   655  1037  1020    1
   656  1037  1058    1
   657  1037  1039    1
   658   297   296   ar
   659   297   298   ar
   660  1002  1003    1
   661    57    55   ar
   662    57    58   ar
   663   830   832   ar
   664   159   165   ar
   665    27    41    1
   666    55    54   ar
   667   137   136   ar
   668   137   143   ar
   669  1093  1094   ar
   670   549   550   ar
   671   549   554   ar
   672    76    75    1
   673    96    95    1
   674  1023  1021    1
   675  1075  1070   ar
   676  1075  1074   ar
   677   550   551   ar
   678   192   190    1
   679   837   838    1
   680   142   143   ar
   681  1053  1052   ar
   682  1053  1047   ar
   683    41    59    1
   684    41    43    1
   685   115   116   ar
   686   115   121   ar
   687  1112  1111    1
   688  1028  1027   ar
   689   287   298    1
   690   287   285    1
   691    28    29    1
   692   296   293   ar
   693   805   806   ar
   694  1114  1113    1
   695  1114  1121   ar
   696  1056  1057   ar
   697  1052  1051   ar
   698  1070  1071   ar
   699   116   119   ar
   700   579   580   ar
   701   298   292   ar
   702  1111  1113    1
   703  1111  1109    1
   704   838   836    1
   705   564   565    1
   706   564   562    1
   707   109   108    1
   708  1096  1099   ar
   709  1096  1095   ar
   710  1021  1022    1
   711   163   164   ar
   712   758   772    1
   713  1039  1038    1
   714   283   284    1
   715   283   285    1
   716   143   133    1
   717  1113  1108    1
   718   172   171    1
   719  1120  1121   ar
   720   555   554    1
   721   173   174    1
   722   173   171    1
   723   808   811   ar
   724   808   807   ar
   725    58    51   ar
   726   554   553   ar
   727  1077  1074   ar
   728  1077  1078   ar
   729   826   825    1
   730   826   833   ar
   731    54    52   ar
   732   787   786   ar
   733   787   782   ar
   734  1074  1073   ar
   735   551   552   ar
   736  1024  1025   ar
   737   108   110    1
   738   108   106    1
   739   284   301    1
   740   824   823    1
   741   789   786   ar
   742   789   790   ar
   743   165   164   ar
   744   165   155    1
   745  1099  1100   ar
   746  1047  1048   ar
   747   832   833   ar
   748   285   286    1
   749  1094  1095   ar
   750    95    94   ar
   751    95    97   ar
   752   823   825    1
   753   823   821    1
   754    75    77   ar
   755    75    74   ar
   756   121   110    1
   757   121   120   ar
   758   174   190    1
   759    43    42    1
   760   293   292   ar
   761   293   294   ar
   762    94    92   ar
   763   145   124    2
   764   793   772    2
   765  1095  1101   ar
   766  1027  1025   ar
   767   811   812   ar
   768   110   105    1
   769   292   291   ar
   770   190   211    2
   771   190   212    1
   772   323   301    2
   773   825   820    1
   774   806   807   ar
   775   786   785   ar
   776  1057  1051   ar
   777  1057  1046    1
   778  1051  1050   ar
   779  1071  1072   ar
   780   772   792    1
   781   772   774    1
   782   171   169    1
   783   119   120   ar
   784   782   783   ar
   785   322   301    1
   786  1109  1110    1
   787  1109  1107    1
   788   807   813   ar
   789    77    78   ar
   790   562   563    1
   791  1025  1026    1
   792   301   303    1
   793   155   153    1
   794   155   150    1
   795   552   553   ar
   796   552   558   ar
   797    74    72   ar
   798  1038  1040    1
   799   553   556   ar
   800    51    52   ar
   801    51    50    1
   802   133   128    1
   803   133   131    1
   804   836   855    2
   805   836   822    1
   806   836   854    1
   807    52    53    2
   808  1108  1107    1
   809  1078  1079   ar
   810   790   791   ar
   811  1081  1060    2
   812  1073  1072   ar
   813  1073  1079   ar
   814    97    98   ar
   815   294   295    2
   816   294   288   ar
   817  1041  1046    1
   818  1041  1040    1
   819   821   822    1
   820   821   819    1
   821   106   107    1
   822   106   104    1
   823  1100  1101   ar
   824   107   124    1
   825  1048  1050   ar
   826  1048  1049    1
   827   547   546    1
   828   291   289   ar
   829   128   127    1
   830   563   561    1
   831   475   456    2
   832   153   154    1
   833   153   151    1
   834    42    44    1
   835    92    93    2
   836    92    91   ar
   837   474   456    1
   838  1101  1091    1
   839   124   126    1
   840   124   144    1
   841   812   813   ar
   842   454   434    2
   843  1046  1044    1
   844  1107  1105    1
   845   169   170    1
   846  1040  1042    1
   847   105   104    1
   848   546   548    1
   849   546   544    1
   850  1042  1044    1
   851  1042  1043    1
   852   820   819    1
   853   774   773    1
   854    45    50    1
   855    45    44    1
   856   785   791   ar
   857   785   784   ar
   858   126   125    1
   859   813   803    1
   860   150   149    1
   861  1079  1069    1
   862   783   784   ar
   863    78    71   ar
   864   131   129    1
   865   131   132    1
   866   558   548    1
   867   558   557   ar
   868    80    61    2
   869   556   557   ar
   870   288   289   ar
   871    50    48    1
   872   456   458    1
   873   456   440    1
   874    72    71   ar
   875    72    73    2
   876   289   290    1
   877   791   781    1
   878   104   102    1
   879   303   302    1
   880    98    91   ar
   881   819   817    1
   882    44    46    1
   883  1044  1045    1
   884   548   543    1
   885  1060  1043    1
   886  1060  1062    1
   887  1060  1080    1
   888   534   533    1
   889    91    90    1
   890    46    48    1
   891    46    47    1
   892   545   544    1
   893   545   561    1
   894   127   129    1
   895   127   125    1
   896   170   168    1
   897   129   130    1
   898   151   149    1
   899   151   152    1
   900   544   542    1
   901   302   304    1
   902    71    70    1
   903  1091  1089    1
   904  1091  1086    1
   905  1106  1105    1
   906  1106  1104    1
   907   561   583    2
   908   561   582    1
   909   319   320   ar
   910   319   316   ar
   911   320   321   ar
   912   773   775    1
   913   434   455    1
   914   434   436    1
   915   434   418    1
   916  1062  1061    1
   917    48    49    1
   918  1089  1087    1
   919  1089  1090    1
   920   458   457    1
   921   149   147    1
   922   815   794    2
   923   803   801    1
   924   803   798    1
   925   440   439    1
   926   435   436    1
   927   435   437    1
   928   189   168    2
   929  1103  1082    2
   930  1069  1064    1
   931  1069  1067    1
   932   818   817    1
   933   818   816    1
   934   532   533   ar
   935   532   530   ar
   936    61    47    1
   937    61    63    1
   938    61    79    1
   939   776   781    1
   940   776   775    1
   941   305   304    1
   942   305   310    1
   943   801   799    1
   944   801   802    1
   945  1123  1104    2
   946   533   535   ar
   947   781   779    1
   948   102   103    1
   949   103   101    1
   950   152   168    1
   951   167   146    2
   952  1064  1063    1
   953   168   188    1
   954   418   417    1
   955   148   147    1
   956   148   146    1
   957  1086  1085    1
   958   543   542    1
   959  1087  1088    1
   960  1087  1085    1
   961   457   459    1
   962    90    88    1
   963    90    85    1
   964   777   775    1
   965   777   779    1
   966   777   778    1
   967   304   306    1
   968   498   476    2
   969   318   317    2
   970  1067  1065    1
   971  1067  1068    1
   972    63    62    1
   973   514   513    1
   974  1104  1088    1
   975  1104  1122    1
   976   542   540    1
   977   130   146    1
   978   316   317   ar
   979   316   315   ar
   980   472   473   ar
   981   472   470   ar
   982  1065  1063    1
   983  1065  1066    1
   984   835   816    2
   985   437   439    1
   986   437   438    1
   987   321   310    1
   988   321   315   ar
   989   798   797    1
   990   439   441    1
   991    88    86    1
   992    88    89    1
   993    70    65    1
   994    70    68    1
   995   799   800    1
   996   799   797    1
   997  1084  1082    1
   998  1084  1083    1
   999   779   780    1
  1000   531   530    2
  1001  1061  1063    1
  1002   530   529   ar
  1003   796   794    1
  1004   796   795    1
  1005   123   101    2
  1006   100    81    2
  1007   146   166    1
  1008   471   470    1
  1009   794   778    1
  1010   794   814    1
  1011   317   311   ar
  1012   310   308    1
  1013  1082  1066    1
  1014  1082  1102    1
  1015   473   466   ar
  1016    65    64    1
  1017   816   800    1
  1018   816   834    1
  1019   535   536   ar
  1020  1085  1083    1
  1021   315   314   ar
  1022   306   307    1
  1023   306   308    1
  1024    85    84    1
  1025   470   469   ar
  1026    68    66    1
  1027    68    69    1
  1028    86    87    1
  1029    86    84    1
  1030   101    87    1
  1031   101   122    1
  1032   541   540    1
  1033   541   539    1
  1034    66    64    1
  1035    66    67    1
  1036   797   795    1
  1037   476   497    1
  1038   476   462    1
  1039   476   478    1
  1040   417   415    1
  1041   417   419    1
  1042   343   324    2
  1043   513   512   ar
  1044   513   515   ar
  1045   459   461    1
  1046   459   460    1
  1047   384   383    2
  1048    62    64    1
  1049    83    81    1
  1050    83    82    1
  1051   413   415    1
  1052   413   414    1
  1053   420   419    1
  1054   339   338    1
  1055   461   462    1
  1056   461   463    1
  1057   415   416    1
  1058   438   443    1
  1059   460   465    1
  1060   529   536   ar
  1061   529   528    1
  1062   432   412    2
  1063   441   442    1
  1064   441   443    1
  1065    81    67    1
  1066    81    99    1
  1067   307   324    1
  1068   308   309    1
  1069   560   539    2
  1070   493   492    2
  1071   311   312   ar
  1072    84    82    1
  1073   377   383   ar
  1074   377   378   ar
  1075   512   510   ar
  1076   515   516   ar
  1077   466   465    1
  1078   466   467   ar
  1079   419   421    1
  1080   314   312   ar
  1081   494   495   ar
  1082   494   491   ar
  1083   340   338   ar
  1084   340   341   ar
  1085   361   360    2
  1086   469   467   ar
  1087   383   382   ar
  1088   324   342    1
  1089   324   326    1
  1090   379   378    1
  1091   539   559    1
  1092   539   525    1
  1093   526   528    1
  1094   526   527    1
  1095   526   524    1
  1096   338   337   ar
  1097   478   477    1
  1098   443   453    1
  1099   465   463    1
  1100   312   313    1
  1101   452   453   ar
  1102   452   451   ar
  1103   414   412    1
  1104   528   523    1
  1105   467   468    2
  1106   518   499    2
  1107   463   464    1
  1108   378   380   ar
  1109   492   491   ar
  1110   492   486   ar
  1111   495   496   ar
  1112   416   421    1
  1113   412   396    1
  1114   412   433    1
  1115   524   525    1
  1116   524   522    1
  1117   491   490   ar
  1118   341   334   ar
  1119   453   447   ar
  1120   516   509   ar
  1121   510   511    2
  1122   510   509   ar
  1123   421   431    1
  1124   360   354   ar
  1125   360   359   ar
  1126   451   448   ar
  1127   538   519    2
  1128   337   335   ar
  1129   326   325    1
  1130   396   395    1
  1131   382   385   ar
  1132   382   381   ar
  1133   398   397    1
  1134   477   479    1
  1135   509   508    1
  1136   523   522    1
  1137   354   355   ar
  1138   486   487   ar
  1139   521   519    1
  1140   521   520    1
  1141   380   381   ar
  1142   362   359   ar
  1143   362   363   ar
  1144   496   490   ar
  1145   496   485    1
  1146   499   501    1
  1147   499   517    1
  1148   499   482    1
  1149   334   335   ar
  1150   334   333    1
  1151   490   489   ar
  1152   359   358   ar
  1153   522   520    1
  1154   447   448   ar
  1155   447   446   ar
  1156   385   386   ar
  1157   381   387   ar
  1158   335   336    2
  1159   431   430   ar
  1160   431   425   ar
  1161   448   449   ar
  1162   397   395    1
  1163   397   399    1
  1164   501   500    1
  1165   481   479    1
  1166   481   482    1
  1167   481   483    1
  1168   519   537    1
  1169   519   505    1
  1170   325   327    1
  1171   328   333    1
  1172   328   327    1
  1173   480   479    1
  1174   480   485    1
  1175   395   393    1
  1176   430   429   ar
  1177   446   445   ar
  1178   487   489   ar
  1179   487   488    1
  1180   485   483    1
  1181   424   425   ar
  1182   424   423   ar
  1183   355   356    1
  1184   355   357   ar
  1185   333   331    1
  1186   504   506    1
  1187   504   505    1
  1188   504   502    1
  1189   363   364   ar
  1190   508   506    1
  1191   508   503    1
  1192   425   426   ar
  1193   506   507    1
  1194   327   329    1
  1195   483   484    1
  1196   358   357   ar
  1197   358   364   ar
  1198   366   344    2
  1199   386   387   ar
  1200   402   401   ar
  1201   402   403   ar
  1202   449   450    1
  1203   449   444   ar
  1204   387   376    1
  1205   401   400   ar
  1206   503   502    1
  1207   393   394    1
  1208   393   391    1
  1209   500   502    1
  1210   399   394    1
  1211   399   409    1
  1212   329   331    1
  1213   329   330    1
  1214   429   426   ar
  1215   364   353    1
  1216   423   422   ar
  1217   445   444   ar
  1218   426   427   ar
  1219   331   332    1
  1220   403   409   ar
  1221   403   404   ar
  1222   400   405   ar
  1223   409   408   ar
  1224   391   392    1
  1225   376   374    1
  1226   376   371    1
  1227   344   330    1
  1228   344   346    1
  1229   344   365    1
  1230   422   427   ar
  1231   374   375    1
  1232   374   372    1
  1233   427   428    1
  1234   404   405   ar
  1235   404   407   ar
  1236   353   348    1
  1237   353   351    1
  1238   405   406    1
  1239   392   390    1
  1240   346   345    1
  1241   408   407   ar
  1242   348   347    1
  1243   371   370    1
  1244   372   370    1
  1245   372   373    1
  1246   389   367    2
  1247   351   349    1
  1248   351   352    1
  1249   349   347    1
  1250   349   350    1
  1251   411   390    2
  1252   345   347    1
  1253   390   373    1
  1254   390   410    1
  1255   369   367    1
  1256   369   368    1
  1257   370   368    1
  1258   367   350    1
  1259   367   388    1
