ligand
  PyMOL2.2          3D                             0

 31 33  0  0  0  0  0  0  0  0999 V2000
   20.1900   -9.2330   -5.8810 C   0  0  0  0  0  0  0  0  0  0  0  0
   20.8490   -8.9380   -4.6420 O   0  0  0  0  0  0  0  0  0  0  0  0
   21.4140  -10.7960   -0.8450 C   0  0  0  0  0  0  0  0  0  0  0  0
   21.1960  -11.6520    0.2720 N   0  0  0  0  0  0  0  0  0  0  0  0
   22.5760  -13.9210   -1.6600 C   0  0  0  0  0  0  0  0  0  0  0  0
   20.8730   -8.3590   -6.9780 C   0  0  0  0  0  0  0  0  0  0  0  0
   22.3030   -8.6600   -7.0020 N   0  0  0  0  0  0  0  0  0  0  0  0
   20.1850   -9.8240   -1.0010 C   0  0  0  0  0  0  0  0  0  0  0  0
   24.0290  -14.3480   -1.3180 C   0  0  0  0  0  0  0  0  0  0  0  0
   24.4900  -13.5590   -0.2450 O   0  0  0  0  0  0  0  0  0  0  0  0
   20.6070   -6.8290   -6.7020 C   0  0  0  0  0  0  0  0  0  0  0  0
   20.4310   -8.8740   -2.2430 C   0  0  0  0  0  0  0  0  0  0  0  0
   19.2790   -7.9620   -2.3960 N   0  0  0  0  0  0  0  0  0  0  0  0
   24.9170  -14.1430   -2.6090 C   0  0  0  0  0  0  0  0  0  0  0  0
   26.3300  -14.5200   -2.3220 N   0  0  0  0  0  0  0  0  0  0  0  0
   19.2140   -6.5630   -6.0240 C   0  0  0  0  0  0  0  0  0  0  0  0
   20.6090   -9.7640   -3.5460 C   0  0  0  0  0  0  0  0  0  0  0  0
   24.3440  -15.0720   -3.8170 C   0  0  0  0  0  0  0  0  0  0  0  0
   24.3730  -16.4460   -3.5170 O   0  0  0  0  0  0  0  0  0  0  0  0
   18.4140   -7.5730   -5.6510 C   0  0  0  0  0  0  0  0  0  0  0  0
   18.7700   -8.9270   -5.8490 O   0  0  0  0  0  0  0  0  0  0  0  0
   21.8280  -10.7380   -3.3560 C   0  0  0  0  0  0  0  0  0  0  0  0
   21.9730  -11.5410   -4.5260 O   0  0  0  0  0  0  0  0  0  0  0  0
   22.8630  -14.6730   -4.1020 C   0  0  0  0  0  0  0  0  0  0  0  0
   22.0500  -14.7230   -2.8240 O   0  0  0  0  0  0  0  0  0  0  0  0
   17.0490   -7.3500   -4.9710 C   0  0  0  0  0  0  0  0  0  0  0  0
   16.0750   -8.2270   -5.5830 N   0  0  0  0  0  0  0  0  0  0  0  0
   21.5670  -11.6660   -2.1100 C   0  0  0  0  0  0  0  0  0  0  0  0
   22.6690  -12.5120   -1.9590 O   0  0  0  0  0  0  0  0  0  0  0  0
   25.1060  -14.9840   -5.1470 C   0  0  0  0  0  0  0  0  0  0  0  0
   27.2610  -13.4080   -2.0760 C   0  0  0  0  0  0  0  0  0  0  0  0
  1  2  1  0  0  0  0
  1  6  1  0  0  0  0
  1 21  1  0  0  0  0
  3  4  1  0  0  0  0
  3  8  1  0  0  0  0
  3 28  1  0  0  0  0
  5  9  1  0  0  0  0
  5 25  1  0  0  0  0
  5 29  1  0  0  0  0
  6  7  1  0  0  0  0
  6 11  1  0  0  0  0
  8 12  1  0  0  0  0
  9 10  1  0  0  0  0
  9 14  1  0  0  0  0
 11 16  1  0  0  0  0
 12 13  1  0  0  0  0
 12 17  1  0  0  0  0
 14 15  1  0  0  0  0
 14 18  1  0  0  0  0
 16 20  1  0  0  0  0
  2 17  1  0  0  0  0
 17 22  1  0  0  0  0
 18 19  1  0  0  0  0
 18 24  1  0  0  0  0
 18 30  1  0  0  0  0
 20 21  1  0  0  0  0
 20 26  1  0  0  0  0
 22 23  1  0  0  0  0
 22 28  1  0  0  0  0
 24 25  1  0  0  0  0
 26 27  1  0  0  0  0
 28 29  1  0  0  0  0
 15 31  1  0  0  0  0
M  END
$$$$
