ligand
 OpenBabel11021811493D
libRbt.so/2013.1/901 2013/11/27
 31 33  0  0  0  0  0  0  0  0999 V2000
   20.2997   -9.2800   -5.8366 C   0  0  2  0  0  0  0  0  0  0  0  0
   20.9228   -8.9353   -4.5919 O   0  0  0  0  0  0  0  0  0  0  0  0
   21.4948  -10.7410   -0.7708 C   0  0  2  0  0  0  0  0  0  0  0  0
   21.2728  -11.5737    0.3629 N   0  0  0  0  0  0  0  0  0  0  0  0
   22.5956  -13.8641   -1.4098 C   0  0  2  0  0  0  0  0  0  0  0  0
   20.9958   -8.4296   -6.9438 C   0  0  2  0  0  0  0  0  0  0  0  0
   22.4306   -8.7073   -6.9233 N   0  0  0  0  0  0  0  0  0  0  0  0
   20.2837   -9.7472   -0.9292 C   0  0  0  0  0  0  0  0  0  0  0  0
   24.0491  -14.2729   -1.0482 C   0  0  2  0  0  0  0  0  0  0  0  0
   24.5428  -13.3741   -0.0813 O   0  0  0  0  0  0  0  0  0  0  0  0
   20.6987   -6.8964   -6.7232 C   0  0  0  0  0  0  0  0  0  0  0  0
   20.5342   -8.8231   -2.1897 C   0  0  2  0  0  0  0  0  0  0  0  0
   19.3989   -7.8907   -2.3450 N   0  0  0  0  0  0  0  0  0  0  0  0
   24.9135  -14.2311   -2.3705 C   0  0  1  0  0  0  0  0  0  0  0  0
   26.3266  -14.5958   -2.0685 N   0  0  0  0  0  0  0  0  0  0  0  0
   19.2852   -6.6325   -6.0882 C   0  0  0  0  0  0  0  0  0  0  0  0
   20.6792   -9.7380   -3.4795 C   0  0  2  0  0  0  0  0  0  0  0  0
   24.3031  -15.2825   -3.4533 C   0  0  1  0  0  0  0  0  0  0  0  0
   24.3189  -16.6136   -2.9985 O   0  0  0  0  0  0  0  0  0  0  0  0
   18.4923   -7.6435   -5.7029 C   0  0  1  0  0  0  0  0  0  0  0  0
   18.8746   -8.9969   -5.8490 O   0  0  0  0  0  0  0  0  0  0  0  0
   21.8806  -10.7331   -3.2869 C   0  0  2  0  0  0  0  0  0  0  0  0
   21.9960  -11.5581   -4.4448 O   0  0  0  0  0  0  0  0  0  0  0  0
   22.8224  -14.8946   -3.7546 C   0  0  0  0  0  0  0  0  0  0  0  0
   22.0349  -14.7851   -2.4644 O   0  0  0  0  0  0  0  0  0  0  0  0
   17.1074   -7.4221   -5.0639 C   0  0  0  0  0  0  0  0  0  0  0  0
   16.1131   -8.1118   -5.8565 N   0  0  0  0  0  0  0  0  0  0  0  0
   21.6157  -11.6348   -2.0226 C   0  0  1  0  0  0  0  0  0  0  0  0
   22.7023  -12.5002   -1.8698 O   0  0  0  0  0  0  0  0  0  0  0  0
   25.0391  -15.3594   -4.7985 C   0  0  0  0  0  0  0  0  0  0  0  0
   27.2137  -13.4885   -1.6803 C   0  0  0  0  0  0  0  0  0  0  0  0
  1  2  1  1  0  0  0
  1  6  1  0  0  0  0
  1 21  1  0  0  0  0
  3  4  1  1  0  0  0
  3  8  1  0  0  0  0
  3 28  1  0  0  0  0
  5  9  1  0  0  0  0
  5 25  1  0  0  0  0
  5 29  1  6  0  0  0
  6  7  1  1  0  0  0
  6 11  1  0  0  0  0
  8 12  1  0  0  0  0
  9 10  1  1  0  0  0
  9 14  1  0  0  0  0
 11 16  1  0  0  0  0
 12 13  1  6  0  0  0
 12 17  1  0  0  0  0
 14 15  1  1  0  0  0
 14 18  1  0  0  0  0
 15 31  1  0  0  0  0
 16 20  1  0  0  0  0
 17  2  1  6  0  0  0
 17 22  1  0  0  0  0
 18 19  1  1  0  0  0
 18 24  1  0  0  0  0
 18 30  1  0  0  0  0
 20 21  1  0  0  0  0
 20 26  1  1  0  0  0
 22 23  1  6  0  0  0
 22 28  1  0  0  0  0
 24 25  1  0  0  0  0
 26 27  1  0  0  0  0
 28 29  1  1  0  0  0
M  END
>  <CHROM.1>
-167.29423853,-165.33242883,-88.49236615,-141.12438904,123.03935911,97.13148338
21.80832161,-11.22857124,-3.43877523,-2.61491956,-0.81533463,1.78933725

>  <Name>
ligand

>  <RI>
0

>  <Rbt.Current_Directory>
/home/itssahil/PROJECTS/Mol_Feturizer/New_Systems/rnas/4F8V

>  <Rbt.Executable>
rbdock ($Id: //depot/dev/client3/rdock/2013.1/src/exe/rbdock.cxx#4 $)

>  <Rbt.Library>
libRbt.so (2013.1, Build901 2013/11/27)

>  <Rbt.Parameter_File>
/export/apps/rDock/src/rDock_2013.1_src/data/scripts/dock_solv.prm

>  <Rbt.Receptor>
prm/pocket_docking_2.prm

>  <SCORE>
-12.5937

>  <SCORE.INTER>
-12.0103

>  <SCORE.INTER.CONST>
1

>  <SCORE.INTER.POLAR>
0

>  <SCORE.INTER.ROT>
6

>  <SCORE.INTER.SOLV>
22.7472

>  <SCORE.INTER.VDW>
-23.1893

>  <SCORE.INTER.norm>
-0.38743

>  <SCORE.INTRA>
-0.59823

>  <SCORE.INTRA.DIHEDRAL>
-1.76349

>  <SCORE.INTRA.DIHEDRAL.0>
15.9129

>  <SCORE.INTRA.POLAR>
0

>  <SCORE.INTRA.POLAR.0>
0

>  <SCORE.INTRA.REPUL>
0

>  <SCORE.INTRA.REPUL.0>
0

>  <SCORE.INTRA.SOLV>
-0.197594

>  <SCORE.INTRA.SOLV.lig_0>
-75.7056

>  <SCORE.INTRA.VDW>
0.382314

>  <SCORE.INTRA.VDW.0>
-4.61812

>  <SCORE.INTRA.norm>
-0.0192977

>  <SCORE.RESTR>
0.014836

>  <SCORE.RESTR.CAVITY>
0.014836

>  <SCORE.RESTR.norm>
0.000478581

>  <SCORE.SYSTEM>
0

>  <SCORE.SYSTEM.CONST>
0

>  <SCORE.SYSTEM.DIHEDRAL>
0

>  <SCORE.SYSTEM.SOLV>
0

>  <SCORE.SYSTEM.norm>
0

>  <SCORE.heavy>
31

>  <SCORE.norm>
-0.406249

>  <RMSD>
0.250

$$$$
ligand
 OpenBabel11021811493D
libRbt.so/2013.1/901 2013/11/27
 31 33  0  0  0  0  0  0  0  0999 V2000
   20.4003   -9.2501   -5.9260 C   0  0  2  0  0  0  0  0  0  0  0  0
   20.9808   -8.9061   -4.6606 O   0  0  0  0  0  0  0  0  0  0  0  0
   21.5030  -10.7683   -0.8595 C   0  0  2  0  0  0  0  0  0  0  0  0
   21.2669  -11.6185    0.2582 N   0  0  0  0  0  0  0  0  0  0  0  0
   22.6256  -13.8619   -1.4777 C   0  0  2  0  0  0  0  0  0  0  0  0
   21.0473   -8.3129   -6.9922 C   0  0  2  0  0  0  0  0  0  0  0  0
   22.4980   -8.4872   -6.9592 N   0  0  0  0  0  0  0  0  0  0  0  0
   20.2922   -9.7745   -1.0199 C   0  0  0  0  0  0  0  0  0  0  0  0
   24.0779  -14.2548   -1.0945 C   0  0  2  0  0  0  0  0  0  0  0  0
   24.5588  -13.3316   -0.1443 O   0  0  0  0  0  0  0  0  0  0  0  0
   20.6371   -6.8138   -6.7232 C   0  0  0  0  0  0  0  0  0  0  0  0
   20.5583   -8.8309   -2.2627 C   0  0  2  0  0  0  0  0  0  0  0  0
   19.4233   -7.8985   -2.4198 N   0  0  0  0  0  0  0  0  0  0  0  0
   24.9535  -14.2389   -2.4099 C   0  0  1  0  0  0  0  0  0  0  0  0
   26.3657  -14.5893   -2.0876 N   0  0  0  0  0  0  0  0  0  0  0  0
   19.2001   -6.6751   -6.1013 C   0  0  0  0  0  0  0  0  0  0  0  0
   20.7233   -9.7260   -3.5640 C   0  0  2  0  0  0  0  0  0  0  0  0
   24.3577  -15.3179   -3.4735 C   0  0  1  0  0  0  0  0  0  0  0  0
   24.3761  -16.6381   -2.9883 O   0  0  0  0  0  0  0  0  0  0  0  0
   18.4776   -7.7536   -5.7636 C   0  0  1  0  0  0  0  0  0  0  0  0
   18.9588   -9.0700   -5.9505 O   0  0  0  0  0  0  0  0  0  0  0  0
   21.9240  -10.7216   -3.3696 C   0  0  2  0  0  0  0  0  0  0  0  0
   22.0573  -11.5288   -4.5381 O   0  0  0  0  0  0  0  0  0  0  0  0
   22.8777  -14.9447   -3.7962 C   0  0  0  0  0  0  0  0  0  0  0  0
   22.0785  -14.8097   -2.5156 O   0  0  0  0  0  0  0  0  0  0  0  0
   17.0722   -7.6553   -5.1386 C   0  0  0  0  0  0  0  0  0  0  0  0
   16.1336   -8.3509   -5.9916 N   0  0  0  0  0  0  0  0  0  0  0  0
   21.6433  -11.6428   -2.1229 C   0  0  1  0  0  0  0  0  0  0  0  0
   22.7295  -12.5084   -1.9680 O   0  0  0  0  0  0  0  0  0  0  0  0
   25.1056  -15.4218   -4.8104 C   0  0  0  0  0  0  0  0  0  0  0  0
   27.2473  -13.4672   -1.7304 C   0  0  0  0  0  0  0  0  0  0  0  0
  1  2  1  1  0  0  0
  1  6  1  0  0  0  0
  1 21  1  0  0  0  0
  3  4  1  1  0  0  0
  3  8  1  0  0  0  0
  3 28  1  0  0  0  0
  5  9  1  0  0  0  0
  5 25  1  0  0  0  0
  5 29  1  6  0  0  0
  6  7  1  1  0  0  0
  6 11  1  0  0  0  0
  8 12  1  0  0  0  0
  9 10  1  1  0  0  0
  9 14  1  0  0  0  0
 11 16  1  0  0  0  0
 12 13  1  6  0  0  0
 12 17  1  0  0  0  0
 14 15  1  1  0  0  0
 14 18  1  0  0  0  0
 15 31  1  0  0  0  0
 16 20  1  0  0  0  0
 17  2  1  6  0  0  0
 17 22  1  0  0  0  0
 18 19  1  1  0  0  0
 18 24  1  0  0  0  0
 18 30  1  0  0  0  0
 20 21  1  0  0  0  0
 20 26  1  1  0  0  0
 22 23  1  6  0  0  0
 22 28  1  0  0  0  0
 24 25  1  0  0  0  0
 26 27  1  0  0  0  0
 28 29  1  1  0  0  0
M  END
>  <CHROM.1>
-170.63203407,-163.90803680,-89.08344940,-142.51530652,121.28431655,94.46320757
21.83825011,-11.24190942,-3.50064436,-2.59707252,-0.80348383,1.80961717

>  <Name>
ligand

>  <RI>
0

>  <Rbt.Current_Directory>
/home/itssahil/PROJECTS/Mol_Feturizer/New_Systems/rnas/4F8V

>  <Rbt.Executable>
rbdock ($Id: //depot/dev/client3/rdock/2013.1/src/exe/rbdock.cxx#4 $)

>  <Rbt.Library>
libRbt.so (2013.1, Build901 2013/11/27)

>  <Rbt.Parameter_File>
/export/apps/rDock/src/rDock_2013.1_src/data/scripts/dock_solv.prm

>  <Rbt.Receptor>
prm/pocket_docking_2.prm

>  <SCORE>
-12.6303

>  <SCORE.INTER>
-11.6332

>  <SCORE.INTER.CONST>
1

>  <SCORE.INTER.POLAR>
0

>  <SCORE.INTER.ROT>
6

>  <SCORE.INTER.SOLV>
23.6128

>  <SCORE.INTER.VDW>
-23.2264

>  <SCORE.INTER.norm>
-0.375265

>  <SCORE.INTRA>
-1.04508

>  <SCORE.INTRA.DIHEDRAL>
-2.62244

>  <SCORE.INTRA.DIHEDRAL.0>
15.9129

>  <SCORE.INTRA.POLAR>
0

>  <SCORE.INTRA.POLAR.0>
0

>  <SCORE.INTRA.REPUL>
0

>  <SCORE.INTRA.REPUL.0>
0

>  <SCORE.INTRA.SOLV>
-0.249116

>  <SCORE.INTRA.SOLV.lig_0>
-75.7056

>  <SCORE.INTRA.VDW>
0.390699

>  <SCORE.INTRA.VDW.0>
-4.61812

>  <SCORE.INTRA.norm>
-0.0337123

>  <SCORE.RESTR>
0.0479319

>  <SCORE.RESTR.CAVITY>
0.0479319

>  <SCORE.RESTR.norm>
0.00154619

>  <SCORE.SYSTEM>
0

>  <SCORE.SYSTEM.CONST>
0

>  <SCORE.SYSTEM.DIHEDRAL>
0

>  <SCORE.SYSTEM.SOLV>
0

>  <SCORE.SYSTEM.norm>
0

>  <SCORE.heavy>
31

>  <SCORE.norm>
-0.407431

>  <RMSD>
0.266

$$$$
ligand
 OpenBabel11021811493D
libRbt.so/2013.1/901 2013/11/27
 31 33  0  0  0  0  0  0  0  0999 V2000
   20.5973   -9.1964   -6.0160 C   0  0  2  0  0  0  0  0  0  0  0  0
   21.1264   -8.8589   -4.7266 O   0  0  0  0  0  0  0  0  0  0  0  0
   21.5290  -10.7528   -0.9267 C   0  0  2  0  0  0  0  0  0  0  0  0
   21.2621  -11.6174    0.1730 N   0  0  0  0  0  0  0  0  0  0  0  0
   22.7182  -13.8160   -1.5057 C   0  0  2  0  0  0  0  0  0  0  0  0
   21.3041   -8.2701   -7.0535 C   0  0  2  0  0  0  0  0  0  0  0  0
   22.7493   -8.4653   -6.9565 N   0  0  0  0  0  0  0  0  0  0  0  0
   20.3119   -9.7733   -1.1234 C   0  0  0  0  0  0  0  0  0  0  0  0
   24.1708  -14.2031   -1.1177 C   0  0  2  0  0  0  0  0  0  0  0  0
   24.6481  -13.2728   -0.1727 O   0  0  0  0  0  0  0  0  0  0  0  0
   20.9042   -6.7649   -6.8041 C   0  0  0  0  0  0  0  0  0  0  0  0
   20.6123   -8.8137   -2.3459 C   0  0  2  0  0  0  0  0  0  0  0  0
   19.4717   -7.8946   -2.5371 N   0  0  0  0  0  0  0  0  0  0  0  0
   25.0484  -14.1936   -2.4319 C   0  0  1  0  0  0  0  0  0  0  0  0
   26.4609  -14.5387   -2.1051 N   0  0  0  0  0  0  0  0  0  0  0  0
   19.4433   -6.6046   -6.2463 C   0  0  0  0  0  0  0  0  0  0  0  0
   20.8385   -9.6932   -3.6486 C   0  0  2  0  0  0  0  0  0  0  0  0
   24.4567  -15.2808   -3.4895 C   0  0  1  0  0  0  0  0  0  0  0  0
   24.4774  -16.5978   -2.9957 O   0  0  0  0  0  0  0  0  0  0  0  0
   18.6912   -7.6721   -5.9398 C   0  0  1  0  0  0  0  0  0  0  0  0
   19.1611   -8.9955   -6.1043 O   0  0  0  0  0  0  0  0  0  0  0  0
   22.0442  -10.6750   -3.4183 C   0  0  2  0  0  0  0  0  0  0  0  0
   22.2325  -11.4684   -4.5887 O   0  0  0  0  0  0  0  0  0  0  0  0
   22.9764  -14.9129   -3.8169 C   0  0  0  0  0  0  0  0  0  0  0  0
   22.1749  -14.7716   -2.5384 O   0  0  0  0  0  0  0  0  0  0  0  0
   17.2612   -7.5526   -5.3775 C   0  0  0  0  0  0  0  0  0  0  0  0
   16.3841   -8.4043   -6.1507 N   0  0  0  0  0  0  0  0  0  0  0  0
   21.7288  -11.6125   -2.1922 C   0  0  1  0  0  0  0  0  0  0  0  0
   22.8198  -12.4653   -2.0045 O   0  0  0  0  0  0  0  0  0  0  0  0
   25.2070  -15.3915   -4.8244 C   0  0  0  0  0  0  0  0  0  0  0  0
   27.3374  -13.4133   -1.7461 C   0  0  0  0  0  0  0  0  0  0  0  0
  1  2  1  1  0  0  0
  1  6  1  0  0  0  0
  1 21  1  0  0  0  0
  3  4  1  1  0  0  0
  3  8  1  0  0  0  0
  3 28  1  0  0  0  0
  5  9  1  0  0  0  0
  5 25  1  0  0  0  0
  5 29  1  6  0  0  0
  6  7  1  1  0  0  0
  6 11  1  0  0  0  0
  8 12  1  0  0  0  0
  9 10  1  1  0  0  0
  9 14  1  0  0  0  0
 11 16  1  0  0  0  0
 12 13  1  6  0  0  0
 12 17  1  0  0  0  0
 14 15  1  1  0  0  0
 14 18  1  0  0  0  0
 15 31  1  0  0  0  0
 16 20  1  0  0  0  0
 17  2  1  6  0  0  0
 17 22  1  0  0  0  0
 18 19  1  1  0  0  0
 18 24  1  0  0  0  0
 18 30  1  0  0  0  0
 20 21  1  0  0  0  0
 20 26  1  1  0  0  0
 22 23  1  6  0  0  0
 22 28  1  0  0  0  0
 24 25  1  0  0  0  0
 26 27  1  0  0  0  0
 28 29  1  1  0  0  0
M  END
>  <CHROM.1>
-168.93541593,-165.26557944,-88.73871564,-142.42242572,130.04602530,93.13555894
21.96735998,-11.20200322,-3.56882094,-2.54222589,-0.78686369,1.86511820

>  <Name>
ligand

>  <RI>
0

>  <Rbt.Current_Directory>
/home/itssahil/PROJECTS/Mol_Feturizer/New_Systems/rnas/4F8V

>  <Rbt.Executable>
rbdock ($Id: //depot/dev/client3/rdock/2013.1/src/exe/rbdock.cxx#4 $)

>  <Rbt.Library>
libRbt.so (2013.1, Build901 2013/11/27)

>  <Rbt.Parameter_File>
/export/apps/rDock/src/rDock_2013.1_src/data/scripts/dock_solv.prm

>  <Rbt.Receptor>
prm/pocket_docking_2.prm

>  <SCORE>
-12.4427

>  <SCORE.INTER>
-11.4122

>  <SCORE.INTER.CONST>
1

>  <SCORE.INTER.POLAR>
0

>  <SCORE.INTER.ROT>
6

>  <SCORE.INTER.SOLV>
22.9955

>  <SCORE.INTER.VDW>
-22.8733

>  <SCORE.INTER.norm>
-0.368136

>  <SCORE.INTRA>
-1.03206

>  <SCORE.INTRA.DIHEDRAL>
-2.7555

>  <SCORE.INTRA.DIHEDRAL.0>
15.9129

>  <SCORE.INTRA.POLAR>
0

>  <SCORE.INTRA.POLAR.0>
0

>  <SCORE.INTRA.REPUL>
0

>  <SCORE.INTRA.REPUL.0>
0

>  <SCORE.INTRA.SOLV>
-0.195458

>  <SCORE.INTRA.SOLV.lig_0>
-75.7056

>  <SCORE.INTRA.VDW>
0.443413

>  <SCORE.INTRA.VDW.0>
-4.61812

>  <SCORE.INTRA.norm>
-0.0332924

>  <SCORE.RESTR>
0.00156158

>  <SCORE.RESTR.CAVITY>
0.00156158

>  <SCORE.RESTR.norm>
5.03735e-05

>  <SCORE.SYSTEM>
0

>  <SCORE.SYSTEM.CONST>
0

>  <SCORE.SYSTEM.DIHEDRAL>
0

>  <SCORE.SYSTEM.SOLV>
0

>  <SCORE.SYSTEM.norm>
0

>  <SCORE.heavy>
31

>  <SCORE.norm>
-0.401378

>  <RMSD>
0.356

$$$$
ligand
 OpenBabel11021811493D
libRbt.so/2013.1/901 2013/11/27
 31 33  0  0  0  0  0  0  0  0999 V2000
   20.3842   -9.3071   -5.8703 C   0  0  2  0  0  0  0  0  0  0  0  0
   20.7914   -8.8388   -4.5776 O   0  0  0  0  0  0  0  0  0  0  0  0
   21.5121  -10.7407   -0.8290 C   0  0  2  0  0  0  0  0  0  0  0  0
   21.3315  -11.5982    0.2935 N   0  0  0  0  0  0  0  0  0  0  0  0
   22.5668  -13.8297   -1.5047 C   0  0  2  0  0  0  0  0  0  0  0  0
   21.0040   -8.3351   -6.9215 C   0  0  2  0  0  0  0  0  0  0  0  0
   22.4552   -8.3131   -6.7493 N   0  0  0  0  0  0  0  0  0  0  0  0
   20.3058   -9.7318   -0.9102 C   0  0  0  0  0  0  0  0  0  0  0  0
   24.0288  -14.2040   -1.1399 C   0  0  2  0  0  0  0  0  0  0  0  0
   24.5186  -13.2597   -0.2154 O   0  0  0  0  0  0  0  0  0  0  0  0
   20.3800   -6.8946   -6.7687 C   0  0  0  0  0  0  0  0  0  0  0  0
   20.5103   -8.7803   -2.1586 C   0  0  2  0  0  0  0  0  0  0  0  0
   19.3792   -7.8336   -2.2415 N   0  0  0  0  0  0  0  0  0  0  0  0
   24.8811  -14.2056   -2.4706 C   0  0  1  0  0  0  0  0  0  0  0  0
   26.3016  -14.5389   -2.1667 N   0  0  0  0  0  0  0  0  0  0  0  0
   18.8842   -6.9240   -6.2864 C   0  0  0  0  0  0  0  0  0  0  0  0
   20.5885   -9.6654   -3.4746 C   0  0  2  0  0  0  0  0  0  0  0  0
   24.2757  -15.3087   -3.5036 C   0  0  1  0  0  0  0  0  0  0  0  0
   24.3134  -16.6195   -2.9946 O   0  0  0  0  0  0  0  0  0  0  0  0
   18.2779   -8.0749   -5.9592 C   0  0  1  0  0  0  0  0  0  0  0  0
   18.9405   -9.3218   -6.0336 O   0  0  0  0  0  0  0  0  0  0  0  0
   21.7867  -10.6763   -3.3589 C   0  0  2  0  0  0  0  0  0  0  0  0
   21.8420  -11.4745   -4.5398 O   0  0  0  0  0  0  0  0  0  0  0  0
   22.7874  -14.9531   -3.8071 C   0  0  0  0  0  0  0  0  0  0  0  0
   22.0095  -14.8007   -2.5153 O   0  0  0  0  0  0  0  0  0  0  0  0
   16.8181   -8.1401   -5.4690 C   0  0  0  0  0  0  0  0  0  0  0  0
   16.3647   -6.7980   -5.1766 N   0  0  0  0  0  0  0  0  0  0  0  0
   21.5682  -11.6054   -2.1056 C   0  0  1  0  0  0  0  0  0  0  0  0
   22.6512  -12.4846   -2.0215 O   0  0  0  0  0  0  0  0  0  0  0  0
   25.0011  -15.4314   -4.8512 C   0  0  0  0  0  0  0  0  0  0  0  0
   27.1744  -13.4061   -1.8220 C   0  0  0  0  0  0  0  0  0  0  0  0
  1  2  1  1  0  0  0
  1  6  1  0  0  0  0
  1 21  1  0  0  0  0
  3  4  1  1  0  0  0
  3  8  1  0  0  0  0
  3 28  1  0  0  0  0
  5  9  1  0  0  0  0
  5 25  1  0  0  0  0
  5 29  1  6  0  0  0
  6  7  1  1  0  0  0
  6 11  1  0  0  0  0
  8 12  1  0  0  0  0
  9 10  1  1  0  0  0
  9 14  1  0  0  0  0
 11 16  1  0  0  0  0
 12 13  1  6  0  0  0
 12 17  1  0  0  0  0
 14 15  1  1  0  0  0
 14 18  1  0  0  0  0
 15 31  1  0  0  0  0
 16 20  1  0  0  0  0
 17  2  1  6  0  0  0
 17 22  1  0  0  0  0
 18 19  1  1  0  0  0
 18 24  1  0  0  0  0
 18 30  1  0  0  0  0
 20 21  1  0  0  0  0
 20 26  1  1  0  0  0
 22 23  1  6  0  0  0
 22 28  1  0  0  0  0
 24 25  1  0  0  0  0
 26 27  1  0  0  0  0
 28 29  1  1  0  0  0
M  END
>  <CHROM.1>
-167.98552081,-160.27601986,-88.01625727,-155.92128576,-11.52956350,92.77446541
21.75637125,-11.20738952,-3.48706592,-2.65420611,-0.82711787,1.75192502

>  <Name>
ligand

>  <RI>
0

>  <Rbt.Current_Directory>
/home/itssahil/PROJECTS/Mol_Feturizer/New_Systems/rnas/4F8V

>  <Rbt.Executable>
rbdock ($Id: //depot/dev/client3/rdock/2013.1/src/exe/rbdock.cxx#4 $)

>  <Rbt.Library>
libRbt.so (2013.1, Build901 2013/11/27)

>  <Rbt.Parameter_File>
/export/apps/rDock/src/rDock_2013.1_src/data/scripts/dock_solv.prm

>  <Rbt.Receptor>
prm/pocket_docking_2.prm

>  <SCORE>
-14.7292

>  <SCORE.INTER>
-13.712

>  <SCORE.INTER.CONST>
1

>  <SCORE.INTER.POLAR>
0

>  <SCORE.INTER.ROT>
6

>  <SCORE.INTER.SOLV>
18.7482

>  <SCORE.INTER.VDW>
-22.9908

>  <SCORE.INTER.norm>
-0.442324

>  <SCORE.INTRA>
-1.04136

>  <SCORE.INTRA.DIHEDRAL>
-4.45958

>  <SCORE.INTRA.DIHEDRAL.0>
15.9129

>  <SCORE.INTRA.POLAR>
0

>  <SCORE.INTRA.POLAR.0>
0

>  <SCORE.INTRA.REPUL>
0

>  <SCORE.INTRA.REPUL.0>
0

>  <SCORE.INTRA.SOLV>
-0.905337

>  <SCORE.INTRA.SOLV.lig_0>
-75.7056

>  <SCORE.INTRA.VDW>
1.6411

>  <SCORE.INTRA.VDW.0>
-4.61812

>  <SCORE.INTRA.norm>
-0.0335921

>  <SCORE.RESTR>
0.024158

>  <SCORE.RESTR.CAVITY>
0.024158

>  <SCORE.RESTR.norm>
0.00077929

>  <SCORE.SYSTEM>
0

>  <SCORE.SYSTEM.CONST>
0

>  <SCORE.SYSTEM.DIHEDRAL>
0

>  <SCORE.SYSTEM.SOLV>
0

>  <SCORE.SYSTEM.norm>
0

>  <SCORE.heavy>
31

>  <SCORE.norm>
-0.475136

>  <RMSD>
0.439

$$$$
ligand
 OpenBabel11021811493D
libRbt.so/2013.1/901 2013/11/27
 31 33  0  0  0  0  0  0  0  0999 V2000
   20.3945   -9.3423   -5.8430 C   0  0  2  0  0  0  0  0  0  0  0  0
   20.8526   -8.8949   -4.5598 O   0  0  0  0  0  0  0  0  0  0  0  0
   21.4739  -10.7244   -0.7578 C   0  0  2  0  0  0  0  0  0  0  0  0
   21.2677  -11.5658    0.3725 N   0  0  0  0  0  0  0  0  0  0  0  0
   22.5832  -13.8303   -1.4052 C   0  0  2  0  0  0  0  0  0  0  0  0
   21.0253   -8.3918   -6.9071 C   0  0  2  0  0  0  0  0  0  0  0  0
   22.4802   -8.4275   -6.7720 N   0  0  0  0  0  0  0  0  0  0  0  0
   20.2572   -9.7343   -0.8960 C   0  0  0  0  0  0  0  0  0  0  0  0
   24.0441  -14.2277   -1.0611 C   0  0  2  0  0  0  0  0  0  0  0  0
   24.5478  -13.3155   -0.1121 O   0  0  0  0  0  0  0  0  0  0  0  0
   20.4627   -6.9284   -6.7349 C   0  0  0  0  0  0  0  0  0  0  0  0
   20.4901   -8.8006   -2.1528 C   0  0  2  0  0  0  0  0  0  0  0  0
   19.3495   -7.8718   -2.2892 N   0  0  0  0  0  0  0  0  0  0  0  0
   24.8882  -14.1968   -2.3967 C   0  0  1  0  0  0  0  0  0  0  0  0
   26.3075  -14.5511   -2.1120 N   0  0  0  0  0  0  0  0  0  0  0  0
   18.9796   -6.9006   -6.2147 C   0  0  0  0  0  0  0  0  0  0  0  0
   20.6244   -9.7061   -3.4504 C   0  0  2  0  0  0  0  0  0  0  0  0
   24.2668  -15.2635   -3.4581 C   0  0  1  0  0  0  0  0  0  0  0  0
   24.2963  -16.5892   -2.9886 O   0  0  0  0  0  0  0  0  0  0  0  0
   18.3369   -8.0278   -5.8751 C   0  0  1  0  0  0  0  0  0  0  0  0
   18.9477   -9.2995   -5.9694 O   0  0  0  0  0  0  0  0  0  0  0  0
   21.8318  -10.6977   -3.2779 C   0  0  2  0  0  0  0  0  0  0  0  0
   21.9375  -11.5143   -4.4427 O   0  0  0  0  0  0  0  0  0  0  0  0
   22.7798  -14.8864   -3.7413 C   0  0  0  0  0  0  0  0  0  0  0  0
   22.0113  -14.7660   -2.4406 O   0  0  0  0  0  0  0  0  0  0  0  0
   16.8886   -8.0372   -5.3480 C   0  0  0  0  0  0  0  0  0  0  0  0
   16.4878   -6.6767   -5.0635 N   0  0  0  0  0  0  0  0  0  0  0  0
   21.5844  -11.6091   -2.0170 C   0  0  1  0  0  0  0  0  0  0  0  0
   22.6760  -12.4712   -1.8822 O   0  0  0  0  0  0  0  0  0  0  0  0
   24.9828  -15.3521   -4.8134 C   0  0  0  0  0  0  0  0  0  0  0  0
   27.1777  -13.4467   -1.6796 C   0  0  0  0  0  0  0  0  0  0  0  0
  1  2  1  1  0  0  0
  1  6  1  0  0  0  0
  1 21  1  0  0  0  0
  3  4  1  1  0  0  0
  3  8  1  0  0  0  0
  3 28  1  0  0  0  0
  5  9  1  0  0  0  0
  5 25  1  0  0  0  0
  5 29  1  6  0  0  0
  6  7  1  1  0  0  0
  6 11  1  0  0  0  0
  8 12  1  0  0  0  0
  9 10  1  1  0  0  0
  9 14  1  0  0  0  0
 11 16  1  0  0  0  0
 12 13  1  6  0  0  0
 12 17  1  0  0  0  0
 14 15  1  1  0  0  0
 14 18  1  0  0  0  0
 15 31  1  0  0  0  0
 16 20  1  0  0  0  0
 17  2  1  6  0  0  0
 17 22  1  0  0  0  0
 18 19  1  1  0  0  0
 18 24  1  0  0  0  0
 18 30  1  0  0  0  0
 20 21  1  0  0  0  0
 20 26  1  1  0  0  0
 22 23  1  6  0  0  0
 22 28  1  0  0  0  0
 24 25  1  0  0  0  0
 26 27  1  0  0  0  0
 28 29  1  1  0  0  0
M  END
>  <CHROM.1>
-169.09674481,-164.73695849,-85.30854759,-150.80494424,-10.51298575,95.84223193
21.77612775,-11.20588094,-3.42647389,-2.63265376,-0.82117330,1.77614389

>  <Name>
ligand

>  <RI>
0

>  <Rbt.Current_Directory>
/home/itssahil/PROJECTS/Mol_Feturizer/New_Systems/rnas/4F8V

>  <Rbt.Executable>
rbdock ($Id: //depot/dev/client3/rdock/2013.1/src/exe/rbdock.cxx#4 $)

>  <Rbt.Library>
libRbt.so (2013.1, Build901 2013/11/27)

>  <Rbt.Parameter_File>
/export/apps/rDock/src/rDock_2013.1_src/data/scripts/dock_solv.prm

>  <Rbt.Receptor>
prm/pocket_docking_2.prm

>  <SCORE>
-14.4872

>  <SCORE.INTER>
-13.8732

>  <SCORE.INTER.CONST>
1

>  <SCORE.INTER.POLAR>
0

>  <SCORE.INTER.ROT>
6

>  <SCORE.INTER.SOLV>
18.0223

>  <SCORE.INTER.VDW>
-22.8563

>  <SCORE.INTER.norm>
-0.447524

>  <SCORE.INTRA>
-0.614

>  <SCORE.INTRA.DIHEDRAL>
-3.84548

>  <SCORE.INTRA.DIHEDRAL.0>
15.9129

>  <SCORE.INTRA.POLAR>
0

>  <SCORE.INTRA.POLAR.0>
0

>  <SCORE.INTRA.REPUL>
0

>  <SCORE.INTRA.REPUL.0>
0

>  <SCORE.INTRA.SOLV>
-0.455993

>  <SCORE.INTRA.SOLV.lig_0>
-75.7056

>  <SCORE.INTRA.VDW>
1.53674

>  <SCORE.INTRA.VDW.0>
-4.61812

>  <SCORE.INTRA.norm>
-0.0198065

>  <SCORE.RESTR>
0

>  <SCORE.RESTR.CAVITY>
0

>  <SCORE.RESTR.norm>
0

>  <SCORE.SYSTEM>
0

>  <SCORE.SYSTEM.CONST>
0

>  <SCORE.SYSTEM.DIHEDRAL>
0

>  <SCORE.SYSTEM.SOLV>
0

>  <SCORE.SYSTEM.norm>
0

>  <SCORE.heavy>
31

>  <SCORE.norm>
-0.46733

>  <RMSD>
0.444

$$$$
ligand
 OpenBabel11021811493D
libRbt.so/2013.1/901 2013/11/27
 31 33  0  0  0  0  0  0  0  0999 V2000
   20.5087   -9.2358   -5.9213 C   0  0  2  0  0  0  0  0  0  0  0  0
   20.8826   -8.7932   -4.6095 O   0  0  0  0  0  0  0  0  0  0  0  0
   21.5124  -10.7670   -0.8817 C   0  0  2  0  0  0  0  0  0  0  0  0
   21.3059  -11.6475    0.2183 N   0  0  0  0  0  0  0  0  0  0  0  0
   22.6036  -13.8285   -1.5652 C   0  0  2  0  0  0  0  0  0  0  0  0
   21.1298   -8.2261   -6.9354 C   0  0  2  0  0  0  0  0  0  0  0  0
   22.5768   -8.1818   -6.7347 N   0  0  0  0  0  0  0  0  0  0  0  0
   20.3041   -9.7615   -0.9749 C   0  0  0  0  0  0  0  0  0  0  0  0
   24.0594  -14.1932   -1.1673 C   0  0  2  0  0  0  0  0  0  0  0  0
   24.5212  -13.2469   -0.2305 O   0  0  0  0  0  0  0  0  0  0  0  0
   20.4760   -6.8016   -6.7585 C   0  0  0  0  0  0  0  0  0  0  0  0
   20.5372   -8.7843   -2.1981 C   0  0  2  0  0  0  0  0  0  0  0  0
   19.4045   -7.8407   -2.2922 N   0  0  0  0  0  0  0  0  0  0  0  0
   24.9421  -14.1869   -2.4780 C   0  0  1  0  0  0  0  0  0  0  0  0
   26.3575  -14.5108   -2.1421 N   0  0  0  0  0  0  0  0  0  0  0  0
   18.9722   -6.8708   -6.3061 C   0  0  0  0  0  0  0  0  0  0  0  0
   20.6543   -9.6426   -3.5290 C   0  0  2  0  0  0  0  0  0  0  0  0
   24.3683  -15.2927   -3.5262 C   0  0  1  0  0  0  0  0  0  0  0  0
   24.4034  -16.6039   -3.0182 O   0  0  0  0  0  0  0  0  0  0  0  0
   18.3816   -8.0407   -6.0199 C   0  0  1  0  0  0  0  0  0  0  0  0
   19.0689   -9.2728   -6.1127 O   0  0  0  0  0  0  0  0  0  0  0  0
   21.8535  -10.6508   -3.4016 C   0  0  2  0  0  0  0  0  0  0  0  0
   21.9437  -11.4250   -4.5963 O   0  0  0  0  0  0  0  0  0  0  0  0
   22.8849  -14.9469   -3.8633 C   0  0  0  0  0  0  0  0  0  0  0  0
   22.0765  -14.8019   -2.5896 O   0  0  0  0  0  0  0  0  0  0  0  0
   16.9144   -8.1451   -5.5598 C   0  0  0  0  0  0  0  0  0  0  0  0
   16.5189   -6.8829   -4.9743 N   0  0  0  0  0  0  0  0  0  0  0  0
   21.6061  -11.6057   -2.1733 C   0  0  1  0  0  0  0  0  0  0  0  0
   22.6904  -12.4821   -2.0781 O   0  0  0  0  0  0  0  0  0  0  0  0
   25.1253  -15.4083   -4.8569 C   0  0  0  0  0  0  0  0  0  0  0  0
   27.2242  -13.3684   -1.8141 C   0  0  0  0  0  0  0  0  0  0  0  0
  1  2  1  1  0  0  0
  1  6  1  0  0  0  0
  1 21  1  0  0  0  0
  3  4  1  1  0  0  0
  3  8  1  0  0  0  0
  3 28  1  0  0  0  0
  5  9  1  0  0  0  0
  5 25  1  0  0  0  0
  5 29  1  6  0  0  0
  6  7  1  1  0  0  0
  6 11  1  0  0  0  0
  8 12  1  0  0  0  0
  9 10  1  1  0  0  0
  9 14  1  0  0  0  0
 11 16  1  0  0  0  0
 12 13  1  6  0  0  0
 12 17  1  0  0  0  0
 14 15  1  1  0  0  0
 14 18  1  0  0  0  0
 15 31  1  0  0  0  0
 16 20  1  0  0  0  0
 17  2  1  6  0  0  0
 17 22  1  0  0  0  0
 18 19  1  1  0  0  0
 18 24  1  0  0  0  0
 18 30  1  0  0  0  0
 20 21  1  0  0  0  0
 20 26  1  1  0  0  0
 22 23  1  6  0  0  0
 22 28  1  0  0  0  0
 24 25  1  0  0  0  0
 26 27  1  0  0  0  0
 28 29  1  1  0  0  0
M  END
>  <CHROM.1>
-169.02647485,-159.60378419,-89.74111344,-155.76459570,-23.65982744,91.45363491
21.82683085,-11.18633009,-3.51755879,-2.61261376,-0.81272436,1.80938177

>  <Name>
ligand

>  <RI>
0

>  <Rbt.Current_Directory>
/home/itssahil/PROJECTS/Mol_Feturizer/New_Systems/rnas/4F8V

>  <Rbt.Executable>
rbdock ($Id: //depot/dev/client3/rdock/2013.1/src/exe/rbdock.cxx#4 $)

>  <Rbt.Library>
libRbt.so (2013.1, Build901 2013/11/27)

>  <Rbt.Parameter_File>
/export/apps/rDock/src/rDock_2013.1_src/data/scripts/dock_solv.prm

>  <Rbt.Receptor>
prm/pocket_docking_2.prm

>  <SCORE>
-14.6204

>  <SCORE.INTER>
-13.705

>  <SCORE.INTER.CONST>
1

>  <SCORE.INTER.POLAR>
0

>  <SCORE.INTER.ROT>
6

>  <SCORE.INTER.SOLV>
17.8453

>  <SCORE.INTER.VDW>
-22.6851

>  <SCORE.INTER.norm>
-0.442096

>  <SCORE.INTRA>
-0.919335

>  <SCORE.INTRA.DIHEDRAL>
-4.14917

>  <SCORE.INTRA.DIHEDRAL.0>
15.9129

>  <SCORE.INTRA.POLAR>
0

>  <SCORE.INTRA.POLAR.0>
0

>  <SCORE.INTRA.REPUL>
0

>  <SCORE.INTRA.REPUL.0>
0

>  <SCORE.INTRA.SOLV>
-0.566246

>  <SCORE.INTRA.SOLV.lig_0>
-75.7056

>  <SCORE.INTRA.VDW>
1.43837

>  <SCORE.INTRA.VDW.0>
-4.61812

>  <SCORE.INTRA.norm>
-0.029656

>  <SCORE.RESTR>
0.00392524

>  <SCORE.RESTR.CAVITY>
0.00392524

>  <SCORE.RESTR.norm>
0.000126621

>  <SCORE.SYSTEM>
0

>  <SCORE.SYSTEM.CONST>
0

>  <SCORE.SYSTEM.DIHEDRAL>
0

>  <SCORE.SYSTEM.SOLV>
0

>  <SCORE.SYSTEM.norm>
0

>  <SCORE.heavy>
31

>  <SCORE.norm>
-0.471626

>  <RMSD>
0.447

$$$$
ligand
 OpenBabel11021811493D
libRbt.so/2013.1/901 2013/11/27
 31 33  0  0  0  0  0  0  0  0999 V2000
   20.4512   -9.2473   -5.8794 C   0  0  2  0  0  0  0  0  0  0  0  0
   20.8090   -8.7858   -4.5697 O   0  0  0  0  0  0  0  0  0  0  0  0
   21.5016  -10.7575   -0.8520 C   0  0  2  0  0  0  0  0  0  0  0  0
   21.3123  -11.6353    0.2533 N   0  0  0  0  0  0  0  0  0  0  0  0
   22.5668  -13.8198   -1.5362 C   0  0  2  0  0  0  0  0  0  0  0  0
   21.0720   -8.2438   -6.8998 C   0  0  2  0  0  0  0  0  0  0  0  0
   22.5166   -8.1834   -6.6868 N   0  0  0  0  0  0  0  0  0  0  0  0
   20.2971   -9.7457   -0.9228 C   0  0  0  0  0  0  0  0  0  0  0  0
   24.0309  -14.1878   -1.1736 C   0  0  2  0  0  0  0  0  0  0  0  0
   24.5233  -13.2324   -0.2620 O   0  0  0  0  0  0  0  0  0  0  0  0
   20.4033   -6.8236   -6.7457 C   0  0  0  0  0  0  0  0  0  0  0  0
   20.5112   -8.7716   -2.1520 C   0  0  2  0  0  0  0  0  0  0  0  0
   19.3819   -7.8221   -2.2252 N   0  0  0  0  0  0  0  0  0  0  0  0
   24.8775  -14.2033   -2.5079 C   0  0  1  0  0  0  0  0  0  0  0  0
   26.2997  -14.5310   -2.2065 N   0  0  0  0  0  0  0  0  0  0  0  0
   18.8961   -6.9018   -6.3060 C   0  0  0  0  0  0  0  0  0  0  0  0
   20.5976   -9.6324   -3.4836 C   0  0  2  0  0  0  0  0  0  0  0  0
   24.2692  -15.3190   -3.5256 C   0  0  1  0  0  0  0  0  0  0  0  0
   24.3111  -16.6238   -3.0019 O   0  0  0  0  0  0  0  0  0  0  0  0
   18.3139   -8.0737   -6.0112 C   0  0  1  0  0  0  0  0  0  0  0  0
   19.0136   -9.3003   -6.0833 O   0  0  0  0  0  0  0  0  0  0  0  0
   21.7937  -10.6468   -3.3783 C   0  0  2  0  0  0  0  0  0  0  0  0
   21.8563  -11.4232   -4.5733 O   0  0  0  0  0  0  0  0  0  0  0  0
   22.7790  -14.9690   -3.8266 C   0  0  0  0  0  0  0  0  0  0  0  0
   22.0066  -14.8031   -2.5333 O   0  0  0  0  0  0  0  0  0  0  0  0
   16.8437   -8.1866   -5.5630 C   0  0  0  0  0  0  0  0  0  0  0  0
   16.4074   -6.8992   -5.0683 N   0  0  0  0  0  0  0  0  0  0  0  0
   21.5655  -11.5986   -2.1439 C   0  0  1  0  0  0  0  0  0  0  0  0
   22.6469  -12.4806   -2.0686 O   0  0  0  0  0  0  0  0  0  0  0  0
   24.9889  -15.4559   -4.8749 C   0  0  0  0  0  0  0  0  0  0  0  0
   27.1630  -13.3979   -1.8396 C   0  0  0  0  0  0  0  0  0  0  0  0
  1  2  1  1  0  0  0
  1  6  1  0  0  0  0
  1 21  1  0  0  0  0
  3  4  1  1  0  0  0
  3  8  1  0  0  0  0
  3 28  1  0  0  0  0
  5  9  1  0  0  0  0
  5 25  1  0  0  0  0
  5 29  1  6  0  0  0
  6  7  1  1  0  0  0
  6 11  1  0  0  0  0
  8 12  1  0  0  0  0
  9 10  1  1  0  0  0
  9 14  1  0  0  0  0
 11 16  1  0  0  0  0
 12 13  1  6  0  0  0
 12 17  1  0  0  0  0
 14 15  1  1  0  0  0
 14 18  1  0  0  0  0
 15 31  1  0  0  0  0
 16 20  1  0  0  0  0
 17  2  1  6  0  0  0
 17 22  1  0  0  0  0
 18 19  1  1  0  0  0
 18 24  1  0  0  0  0
 18 30  1  0  0  0  0
 20 21  1  0  0  0  0
 20 26  1  1  0  0  0
 22 23  1  6  0  0  0
 22 28  1  0  0  0  0
 24 25  1  0  0  0  0
 26 27  1  0  0  0  0
 28 29  1  1  0  0  0
M  END
>  <CHROM.1>
-168.07192132,-159.51250362,-86.27054796,-157.97182516,-20.35065783,90.62391759
21.76835020,-11.19464261,-3.50339193,-2.63898228,-0.82574670,1.77476790

>  <Name>
ligand

>  <RI>
0

>  <Rbt.Current_Directory>
/home/itssahil/PROJECTS/Mol_Feturizer/New_Systems/rnas/4F8V

>  <Rbt.Executable>
rbdock ($Id: //depot/dev/client3/rdock/2013.1/src/exe/rbdock.cxx#4 $)

>  <Rbt.Library>
libRbt.so (2013.1, Build901 2013/11/27)

>  <Rbt.Parameter_File>
/export/apps/rDock/src/rDock_2013.1_src/data/scripts/dock_solv.prm

>  <Rbt.Receptor>
prm/pocket_docking_2.prm

>  <SCORE>
-14.8661

>  <SCORE.INTER>
-13.7113

>  <SCORE.INTER.CONST>
1

>  <SCORE.INTER.POLAR>
0

>  <SCORE.INTER.ROT>
6

>  <SCORE.INTER.SOLV>
18.6076

>  <SCORE.INTER.VDW>
-22.9434

>  <SCORE.INTER.norm>
-0.4423

>  <SCORE.INTRA>
-1.17869

>  <SCORE.INTRA.DIHEDRAL>
-4.83768

>  <SCORE.INTRA.DIHEDRAL.0>
15.9129

>  <SCORE.INTRA.POLAR>
0

>  <SCORE.INTRA.POLAR.0>
0

>  <SCORE.INTRA.REPUL>
0

>  <SCORE.INTRA.REPUL.0>
0

>  <SCORE.INTRA.SOLV>
-0.883698

>  <SCORE.INTRA.SOLV.lig_0>
-75.7056

>  <SCORE.INTRA.VDW>
1.682

>  <SCORE.INTRA.VDW.0>
-4.61812

>  <SCORE.INTRA.norm>
-0.0380222

>  <SCORE.RESTR>
0.0238461

>  <SCORE.RESTR.CAVITY>
0.0238461

>  <SCORE.RESTR.norm>
0.000769228

>  <SCORE.SYSTEM>
0

>  <SCORE.SYSTEM.CONST>
0

>  <SCORE.SYSTEM.DIHEDRAL>
0

>  <SCORE.SYSTEM.SOLV>
0

>  <SCORE.SYSTEM.norm>
0

>  <SCORE.heavy>
31

>  <SCORE.norm>
-0.479553

>  <RMSD>
0.449

$$$$
ligand
 OpenBabel11021811493D
libRbt.so/2013.1/901 2013/11/27
 31 33  0  0  0  0  0  0  0  0999 V2000
   20.3451   -9.3062   -5.8124 C   0  0  2  0  0  0  0  0  0  0  0  0
   20.7406   -8.8444   -4.5136 O   0  0  0  0  0  0  0  0  0  0  0  0
   21.4909  -10.7904   -0.7936 C   0  0  2  0  0  0  0  0  0  0  0  0
   21.3197  -11.6620    0.3195 N   0  0  0  0  0  0  0  0  0  0  0  0
   22.5556  -13.8572   -1.4844 C   0  0  2  0  0  0  0  0  0  0  0  0
   20.9751   -8.3295   -6.8530 C   0  0  2  0  0  0  0  0  0  0  0  0
   22.4246   -8.3090   -6.6674 N   0  0  0  0  0  0  0  0  0  0  0  0
   20.2816   -9.7836   -0.8544 C   0  0  0  0  0  0  0  0  0  0  0  0
   24.0237  -14.2193   -1.1320 C   0  0  2  0  0  0  0  0  0  0  0  0
   24.5177  -13.2632   -0.2219 O   0  0  0  0  0  0  0  0  0  0  0  0
   20.3504   -6.8894   -6.6990 C   0  0  0  0  0  0  0  0  0  0  0  0
   20.4754   -8.8163   -2.0923 C   0  0  2  0  0  0  0  0  0  0  0  0
   19.3416   -7.8716   -2.1561 N   0  0  0  0  0  0  0  0  0  0  0  0
   24.8616  -14.2285   -2.4718 C   0  0  1  0  0  0  0  0  0  0  0  0
   26.2872  -14.5504   -2.1803 N   0  0  0  0  0  0  0  0  0  0  0  0
   18.8502   -6.9204   -6.2307 C   0  0  0  0  0  0  0  0  0  0  0  0
   20.5471   -9.6851   -3.4196 C   0  0  2  0  0  0  0  0  0  0  0  0
   24.2517  -15.3451   -3.4876 C   0  0  1  0  0  0  0  0  0  0  0  0
   24.3028  -16.6507   -2.9665 O   0  0  0  0  0  0  0  0  0  0  0  0
   18.2403   -8.0726   -5.9147 C   0  0  1  0  0  0  0  0  0  0  0  0
   18.9030   -9.3194   -5.9890 O   0  0  0  0  0  0  0  0  0  0  0  0
   21.7484  -10.6943   -3.3242 C   0  0  2  0  0  0  0  0  0  0  0  0
   21.7979  -11.4778   -4.5152 O   0  0  0  0  0  0  0  0  0  0  0  0
   22.7580  -15.0013   -3.7782 C   0  0  0  0  0  0  0  0  0  0  0  0
   21.9933  -14.8412   -2.4796 O   0  0  0  0  0  0  0  0  0  0  0  0
   16.7761   -8.1394   -5.4384 C   0  0  0  0  0  0  0  0  0  0  0  0
   16.3428   -6.8075   -5.0767 N   0  0  0  0  0  0  0  0  0  0  0  0
   21.5405  -11.6392   -2.0810 C   0  0  1  0  0  0  0  0  0  0  0  0
   22.6262  -12.5167   -2.0149 O   0  0  0  0  0  0  0  0  0  0  0  0
   24.9632  -15.4764   -4.8418 C   0  0  0  0  0  0  0  0  0  0  0  0
   27.1476  -13.4142   -1.8163 C   0  0  0  0  0  0  0  0  0  0  0  0
  1  2  1  1  0  0  0
  1  6  1  0  0  0  0
  1 21  1  0  0  0  0
  3  4  1  1  0  0  0
  3  8  1  0  0  0  0
  3 28  1  0  0  0  0
  5  9  1  0  0  0  0
  5 25  1  0  0  0  0
  5 29  1  6  0  0  0
  6  7  1  1  0  0  0
  6 11  1  0  0  0  0
  8 12  1  0  0  0  0
  9 10  1  1  0  0  0
  9 14  1  0  0  0  0
 11 16  1  0  0  0  0
 12 13  1  6  0  0  0
 12 17  1  0  0  0  0
 14 15  1  1  0  0  0
 14 18  1  0  0  0  0
 15 31  1  0  0  0  0
 16 20  1  0  0  0  0
 17  2  1  6  0  0  0
 17 22  1  0  0  0  0
 18 19  1  1  0  0  0
 18 24  1  0  0  0  0
 18 30  1  0  0  0  0
 20 21  1  0  0  0  0
 20 26  1  1  0  0  0
 22 23  1  6  0  0  0
 22 28  1  0  0  0  0
 24 25  1  0  0  0  0
 26 27  1  0  0  0  0
 28 29  1  1  0  0  0
M  END
>  <CHROM.1>
-166.95759594,-159.48344060,-86.23875350,-156.88438387,-14.50351422,91.21557939
21.72882001,-11.22745343,-3.44990962,-2.65761611,-0.82711666,1.75634774

>  <Name>
ligand

>  <RI>
0

>  <Rbt.Current_Directory>
/home/itssahil/PROJECTS/Mol_Feturizer/New_Systems/rnas/4F8V

>  <Rbt.Executable>
rbdock ($Id: //depot/dev/client3/rdock/2013.1/src/exe/rbdock.cxx#4 $)

>  <Rbt.Library>
libRbt.so (2013.1, Build901 2013/11/27)

>  <Rbt.Parameter_File>
/export/apps/rDock/src/rDock_2013.1_src/data/scripts/dock_solv.prm

>  <Rbt.Receptor>
prm/pocket_docking_2.prm

>  <SCORE>
-15.0236

>  <SCORE.INTER>
-14.0478

>  <SCORE.INTER.CONST>
1

>  <SCORE.INTER.POLAR>
0

>  <SCORE.INTER.ROT>
6

>  <SCORE.INTER.SOLV>
18.929

>  <SCORE.INTER.VDW>
-23.2749

>  <SCORE.INTER.norm>
-0.453156

>  <SCORE.INTRA>
-1.05403

>  <SCORE.INTRA.DIHEDRAL>
-4.63631

>  <SCORE.INTRA.DIHEDRAL.0>
15.9129

>  <SCORE.INTRA.POLAR>
0

>  <SCORE.INTRA.POLAR.0>
0

>  <SCORE.INTRA.REPUL>
0

>  <SCORE.INTRA.REPUL.0>
0

>  <SCORE.INTRA.SOLV>
-0.905021

>  <SCORE.INTRA.SOLV.lig_0>
-75.7056

>  <SCORE.INTRA.VDW>
1.71664

>  <SCORE.INTRA.VDW.0>
-4.61812

>  <SCORE.INTRA.norm>
-0.0340009

>  <SCORE.RESTR>
0.0782954

>  <SCORE.RESTR.CAVITY>
0.0782954

>  <SCORE.RESTR.norm>
0.00252566

>  <SCORE.SYSTEM>
0

>  <SCORE.SYSTEM.CONST>
0

>  <SCORE.SYSTEM.DIHEDRAL>
0

>  <SCORE.SYSTEM.SOLV>
0

>  <SCORE.SYSTEM.norm>
0

>  <SCORE.heavy>
31

>  <SCORE.norm>
-0.484631

>  <RMSD>
0.451

$$$$
ligand
 OpenBabel11021811493D
libRbt.so/2013.1/901 2013/11/27
 31 33  0  0  0  0  0  0  0  0999 V2000
   20.5170   -9.2541   -5.9525 C   0  0  2  0  0  0  0  0  0  0  0  0
   20.8936   -8.8087   -4.6425 O   0  0  0  0  0  0  0  0  0  0  0  0
   21.5347  -10.7673   -0.9087 C   0  0  2  0  0  0  0  0  0  0  0  0
   21.3343  -11.6468    0.1933 N   0  0  0  0  0  0  0  0  0  0  0  0
   22.6597  -13.8102   -1.5547 C   0  0  2  0  0  0  0  0  0  0  0  0
   21.1159   -8.2332   -6.9689 C   0  0  2  0  0  0  0  0  0  0  0  0
   22.5635   -8.1679   -6.7783 N   0  0  0  0  0  0  0  0  0  0  0  0
   20.3179   -9.7726   -1.0062 C   0  0  0  0  0  0  0  0  0  0  0  0
   24.1255  -14.1614   -1.1826 C   0  0  2  0  0  0  0  0  0  0  0  0
   24.6052  -13.1932   -0.2776 O   0  0  0  0  0  0  0  0  0  0  0  0
   20.4423   -6.8190   -6.7843 C   0  0  0  0  0  0  0  0  0  0  0  0
   20.5444   -8.7966   -2.2317 C   0  0  2  0  0  0  0  0  0  0  0  0
   19.4037   -7.8632   -2.3299 N   0  0  0  0  0  0  0  0  0  0  0  0
   24.9779  -14.1809   -2.5131 C   0  0  1  0  0  0  0  0  0  0  0  0
   26.4019  -14.4927   -2.2027 N   0  0  0  0  0  0  0  0  0  0  0  0
   18.9429   -6.9115   -6.3215 C   0  0  0  0  0  0  0  0  0  0  0  0
   20.6710   -9.6573   -3.5601 C   0  0  2  0  0  0  0  0  0  0  0  0
   24.3844  -15.3113   -3.5233 C   0  0  1  0  0  0  0  0  0  0  0  0
   24.4361  -16.6110   -2.9877 O   0  0  0  0  0  0  0  0  0  0  0  0
   18.3718   -8.0905   -6.0336 C   0  0  1  0  0  0  0  0  0  0  0  0
   19.0766   -9.3121   -6.1339 O   0  0  0  0  0  0  0  0  0  0  0  0
   21.8788  -10.6546   -3.4284 C   0  0  2  0  0  0  0  0  0  0  0  0
   21.9776  -11.4311   -4.6209 O   0  0  0  0  0  0  0  0  0  0  0  0
   22.8924  -14.9779   -3.8337 C   0  0  0  0  0  0  0  0  0  0  0  0
   22.1129  -14.8076   -2.5452 O   0  0  0  0  0  0  0  0  0  0  0  0
   16.9096   -8.2176   -5.5634 C   0  0  0  0  0  0  0  0  0  0  0  0
   16.4322   -6.9106   -5.1680 N   0  0  0  0  0  0  0  0  0  0  0  0
   21.6378  -11.6085   -2.1980 C   0  0  1  0  0  0  0  0  0  0  0  0
   22.7296  -12.4752   -2.0988 O   0  0  0  0  0  0  0  0  0  0  0  0
   25.1112  -15.4536   -4.8682 C   0  0  0  0  0  0  0  0  0  0  0  0
   27.2429  -13.3542   -1.8023 C   0  0  0  0  0  0  0  0  0  0  0  0
  1  2  1  1  0  0  0
  1  6  1  0  0  0  0
  1 21  1  0  0  0  0
  3  4  1  1  0  0  0
  3  8  1  0  0  0  0
  3 28  1  0  0  0  0
  5  9  1  0  0  0  0
  5 25  1  0  0  0  0
  5 29  1  6  0  0  0
  6  7  1  1  0  0  0
  6 11  1  0  0  0  0
  8 12  1  0  0  0  0
  9 10  1  1  0  0  0
  9 14  1  0  0  0  0
 11 16  1  0  0  0  0
 12 13  1  6  0  0  0
 12 17  1  0  0  0  0
 14 15  1  1  0  0  0
 14 18  1  0  0  0  0
 15 31  1  0  0  0  0
 16 20  1  0  0  0  0
 17  2  1  6  0  0  0
 17 22  1  0  0  0  0
 18 19  1  1  0  0  0
 18 24  1  0  0  0  0
 18 30  1  0  0  0  0
 20 21  1  0  0  0  0
 20 26  1  1  0  0  0
 22 23  1  6  0  0  0
 22 28  1  0  0  0  0
 24 25  1  0  0  0  0
 26 27  1  0  0  0  0
 28 29  1  1  0  0  0
M  END
>  <CHROM.1>
-169.77470930,-160.13471867,-84.45777843,-155.33530481,-14.73068773,89.99208358
21.84130960,-11.19606086,-3.54089671,-2.61909753,-0.80953042,1.79630193

>  <Name>
ligand

>  <RI>
0

>  <Rbt.Current_Directory>
/home/itssahil/PROJECTS/Mol_Feturizer/New_Systems/rnas/4F8V

>  <Rbt.Executable>
rbdock ($Id: //depot/dev/client3/rdock/2013.1/src/exe/rbdock.cxx#4 $)

>  <Rbt.Library>
libRbt.so (2013.1, Build901 2013/11/27)

>  <Rbt.Parameter_File>
/export/apps/rDock/src/rDock_2013.1_src/data/scripts/dock_solv.prm

>  <Rbt.Receptor>
prm/pocket_docking_2.prm

>  <SCORE>
-14.6969

>  <SCORE.INTER>
-13.5785

>  <SCORE.INTER.CONST>
1

>  <SCORE.INTER.POLAR>
0

>  <SCORE.INTER.ROT>
6

>  <SCORE.INTER.SOLV>
18.2577

>  <SCORE.INTER.VDW>
-22.7382

>  <SCORE.INTER.norm>
-0.438016

>  <SCORE.INTRA>
-1.14006

>  <SCORE.INTRA.DIHEDRAL>
-5.04633

>  <SCORE.INTRA.DIHEDRAL.0>
15.9129

>  <SCORE.INTRA.POLAR>
0

>  <SCORE.INTRA.POLAR.0>
0

>  <SCORE.INTRA.REPUL>
0

>  <SCORE.INTRA.REPUL.0>
0

>  <SCORE.INTRA.SOLV>
-0.706771

>  <SCORE.INTRA.SOLV.lig_0>
-75.7056

>  <SCORE.INTRA.VDW>
1.73649

>  <SCORE.INTRA.VDW.0>
-4.61812

>  <SCORE.INTRA.norm>
-0.0367761

>  <SCORE.RESTR>
0.021695

>  <SCORE.RESTR.CAVITY>
0.021695

>  <SCORE.RESTR.norm>
0.00069984

>  <SCORE.SYSTEM>
0

>  <SCORE.SYSTEM.CONST>
0

>  <SCORE.SYSTEM.DIHEDRAL>
0

>  <SCORE.SYSTEM.SOLV>
0

>  <SCORE.SYSTEM.norm>
0

>  <SCORE.heavy>
31

>  <SCORE.norm>
-0.474092

>  <RMSD>
0.453

$$$$
ligand
 OpenBabel11021811493D
libRbt.so/2013.1/901 2013/11/27
 31 33  0  0  0  0  0  0  0  0999 V2000
   20.3153   -9.2969   -5.8359 C   0  0  2  0  0  0  0  0  0  0  0  0
   20.7110   -8.8252   -4.5408 O   0  0  0  0  0  0  0  0  0  0  0  0
   21.4824  -10.7711   -0.8250 C   0  0  2  0  0  0  0  0  0  0  0  0
   21.3123  -11.6351    0.2941 N   0  0  0  0  0  0  0  0  0  0  0  0
   22.4669  -13.8758   -1.5630 C   0  0  2  0  0  0  0  0  0  0  0  0
   20.9521   -8.3331   -6.8844 C   0  0  2  0  0  0  0  0  0  0  0  0
   22.4014   -8.3186   -6.6964 N   0  0  0  0  0  0  0  0  0  0  0  0
   20.2917   -9.7417   -0.8711 C   0  0  0  0  0  0  0  0  0  0  0  0
   23.9121  -14.2441   -1.1313 C   0  0  2  0  0  0  0  0  0  0  0  0
   24.3479  -13.3090   -0.1712 O   0  0  0  0  0  0  0  0  0  0  0  0
   20.3348   -6.8884   -6.7447 C   0  0  0  0  0  0  0  0  0  0  0  0
   20.4843   -8.7829   -2.1157 C   0  0  2  0  0  0  0  0  0  0  0  0
   19.3677   -7.8171   -2.1657 N   0  0  0  0  0  0  0  0  0  0  0  0
   24.8291  -14.2208   -2.4181 C   0  0  1  0  0  0  0  0  0  0  0  0
   26.2355  -14.5476   -2.0489 N   0  0  0  0  0  0  0  0  0  0  0  0
   18.8336   -6.9072   -6.2787 C   0  0  0  0  0  0  0  0  0  0  0  0
   20.5188   -9.6579   -3.4404 C   0  0  2  0  0  0  0  0  0  0  0  0
   24.2845  -15.3142   -3.4945 C   0  0  1  0  0  0  0  0  0  0  0  0
   24.3078  -16.6316   -3.0019 O   0  0  0  0  0  0  0  0  0  0  0  0
   18.2172   -8.0532   -5.9532 C   0  0  1  0  0  0  0  0  0  0  0  0
   18.8734   -9.3041   -6.0149 O   0  0  0  0  0  0  0  0  0  0  0  0
   21.7021  -10.6893   -3.3597 C   0  0  2  0  0  0  0  0  0  0  0  0
   21.7181  -11.4781   -4.5481 O   0  0  0  0  0  0  0  0  0  0  0  0
   22.8101  -14.9656   -3.8665 C   0  0  0  0  0  0  0  0  0  0  0  0
   21.9682  -14.8370   -2.6129 O   0  0  0  0  0  0  0  0  0  0  0  0
   16.7518   -8.1078   -5.4788 C   0  0  0  0  0  0  0  0  0  0  0  0
   16.3461   -6.7821   -5.0662 N   0  0  0  0  0  0  0  0  0  0  0  0
   21.4958  -11.6255   -2.1096 C   0  0  1  0  0  0  0  0  0  0  0  0
   22.5656  -12.5231   -2.0569 O   0  0  0  0  0  0  0  0  0  0  0  0
   25.0766  -15.4127   -4.8061 C   0  0  0  0  0  0  0  0  0  0  0  0
   27.0892  -13.4096   -1.6746 C   0  0  0  0  0  0  0  0  0  0  0  0
  1  2  1  1  0  0  0
  1  6  1  0  0  0  0
  1 21  1  0  0  0  0
  3  4  1  1  0  0  0
  3  8  1  0  0  0  0
  3 28  1  0  0  0  0
  5  9  1  0  0  0  0
  5 25  1  0  0  0  0
  5 29  1  6  0  0  0
  6  7  1  1  0  0  0
  6 11  1  0  0  0  0
  8 12  1  0  0  0  0
  9 10  1  1  0  0  0
  9 14  1  0  0  0  0
 11 16  1  0  0  0  0
 12 13  1  6  0  0  0
 12 17  1  0  0  0  0
 14 15  1  1  0  0  0
 14 18  1  0  0  0  0
 15 31  1  0  0  0  0
 16 20  1  0  0  0  0
 17  2  1  6  0  0  0
 17 22  1  0  0  0  0
 18 19  1  1  0  0  0
 18 24  1  0  0  0  0
 18 30  1  0  0  0  0
 20 21  1  0  0  0  0
 20 26  1  1  0  0  0
 22 23  1  6  0  0  0
 22 28  1  0  0  0  0
 24 25  1  0  0  0  0
 26 27  1  0  0  0  0
 28 29  1  1  0  0  0
M  END
>  <CHROM.1>
-166.56943499,-156.36780665,-89.31080248,-158.32491028,-17.36631274,93.48023158
21.70313607,-11.21428494,-3.46583032,-2.66679270,-0.83490868,1.73753268

>  <Name>
ligand

>  <RI>
0

>  <Rbt.Current_Directory>
/home/itssahil/PROJECTS/Mol_Feturizer/New_Systems/rnas/4F8V

>  <Rbt.Executable>
rbdock ($Id: //depot/dev/client3/rdock/2013.1/src/exe/rbdock.cxx#4 $)

>  <Rbt.Library>
libRbt.so (2013.1, Build901 2013/11/27)

>  <Rbt.Parameter_File>
/export/apps/rDock/src/rDock_2013.1_src/data/scripts/dock_solv.prm

>  <Rbt.Receptor>
prm/pocket_docking_2.prm

>  <SCORE>
-14.7967

>  <SCORE.INTER>
-14.1361

>  <SCORE.INTER.CONST>
1

>  <SCORE.INTER.POLAR>
0

>  <SCORE.INTER.ROT>
6

>  <SCORE.INTER.SOLV>
19.0108

>  <SCORE.INTER.VDW>
-23.361

>  <SCORE.INTER.norm>
-0.456004

>  <SCORE.INTRA>
-0.692182

>  <SCORE.INTRA.DIHEDRAL>
-3.67787

>  <SCORE.INTRA.DIHEDRAL.0>
15.9129

>  <SCORE.INTRA.POLAR>
0

>  <SCORE.INTRA.POLAR.0>
0

>  <SCORE.INTRA.REPUL>
0

>  <SCORE.INTRA.REPUL.0>
0

>  <SCORE.INTRA.SOLV>
-0.927559

>  <SCORE.INTRA.SOLV.lig_0>
-75.7056

>  <SCORE.INTRA.VDW>
1.61053

>  <SCORE.INTRA.VDW.0>
-4.61812

>  <SCORE.INTRA.norm>
-0.0223284

>  <SCORE.RESTR>
0.0315561

>  <SCORE.RESTR.CAVITY>
0.0315561

>  <SCORE.RESTR.norm>
0.00101794

>  <SCORE.SYSTEM>
0

>  <SCORE.SYSTEM.CONST>
0

>  <SCORE.SYSTEM.DIHEDRAL>
0

>  <SCORE.SYSTEM.SOLV>
0

>  <SCORE.SYSTEM.norm>
0

>  <SCORE.heavy>
31

>  <SCORE.norm>
-0.477314

>  <RMSD>
0.454

$$$$
ligand
 OpenBabel11021811493D
libRbt.so/2013.1/901 2013/11/27
 31 33  0  0  0  0  0  0  0  0999 V2000
   20.5187   -9.2107   -5.9245 C   0  0  2  0  0  0  0  0  0  0  0  0
   20.8826   -8.7748   -4.6077 O   0  0  0  0  0  0  0  0  0  0  0  0
   21.4968  -10.7731   -0.8904 C   0  0  2  0  0  0  0  0  0  0  0  0
   21.2857  -11.6608    0.2029 N   0  0  0  0  0  0  0  0  0  0  0  0
   22.5934  -13.8254   -1.5765 C   0  0  2  0  0  0  0  0  0  0  0  0
   21.1518   -8.1989   -6.9290 C   0  0  2  0  0  0  0  0  0  0  0  0
   22.5972   -8.1602   -6.7156 N   0  0  0  0  0  0  0  0  0  0  0  0
   20.2890   -9.7669   -0.9820 C   0  0  0  0  0  0  0  0  0  0  0  0
   24.0450  -14.1792   -1.1542 C   0  0  2  0  0  0  0  0  0  0  0  0
   24.4858  -13.2265   -0.2139 O   0  0  0  0  0  0  0  0  0  0  0  0
   20.5011   -6.7730   -6.7519 C   0  0  0  0  0  0  0  0  0  0  0  0
   20.5272   -8.7818   -2.1978 C   0  0  2  0  0  0  0  0  0  0  0  0
   19.3949   -7.8375   -2.2903 N   0  0  0  0  0  0  0  0  0  0  0  0
   24.9483  -14.1720   -2.4508 C   0  0  1  0  0  0  0  0  0  0  0  0
   26.3602  -14.4855   -2.0912 N   0  0  0  0  0  0  0  0  0  0  0  0
   18.9932   -6.8392   -6.3128 C   0  0  0  0  0  0  0  0  0  0  0  0
   20.6497   -9.6313   -3.5338 C   0  0  2  0  0  0  0  0  0  0  0  0
   24.3983  -15.2854   -3.5037 C   0  0  1  0  0  0  0  0  0  0  0  0
   24.4338  -16.5945   -2.9902 O   0  0  0  0  0  0  0  0  0  0  0  0
   18.3964   -8.0082   -6.0366 C   0  0  1  0  0  0  0  0  0  0  0  0
   19.0805   -9.2423   -6.1286 O   0  0  0  0  0  0  0  0  0  0  0  0
   21.8484  -10.6404   -3.4081 C   0  0  2  0  0  0  0  0  0  0  0  0
   21.9435  -11.4067   -4.6075 O   0  0  0  0  0  0  0  0  0  0  0  0
   22.9183  -14.9505   -3.8656 C   0  0  0  0  0  0  0  0  0  0  0  0
   22.0889  -14.8060   -2.6054 O   0  0  0  0  0  0  0  0  0  0  0  0
   16.9249   -8.1098   -5.5897 C   0  0  0  0  0  0  0  0  0  0  0  0
   16.5114   -6.8311   -5.0546 N   0  0  0  0  0  0  0  0  0  0  0  0
   21.5958  -11.6034   -2.1871 C   0  0  1  0  0  0  0  0  0  0  0  0
   22.6797  -12.4804   -2.0931 O   0  0  0  0  0  0  0  0  0  0  0  0
   25.1771  -15.4011   -4.8218 C   0  0  0  0  0  0  0  0  0  0  0  0
   27.2127  -13.3369   -1.7482 C   0  0  0  0  0  0  0  0  0  0  0  0
  1  2  1  1  0  0  0
  1  6  1  0  0  0  0
  1 21  1  0  0  0  0
  3  4  1  1  0  0  0
  3  8  1  0  0  0  0
  3 28  1  0  0  0  0
  5  9  1  0  0  0  0
  5 25  1  0  0  0  0
  5 29  1  6  0  0  0
  6  7  1  1  0  0  0
  6 11  1  0  0  0  0
  8 12  1  0  0  0  0
  9 10  1  1  0  0  0
  9 14  1  0  0  0  0
 11 16  1  0  0  0  0
 12 13  1  6  0  0  0
 12 17  1  0  0  0  0
 14 15  1  1  0  0  0
 14 18  1  0  0  0  0
 15 31  1  0  0  0  0
 16 20  1  0  0  0  0
 17  2  1  6  0  0  0
 17 22  1  0  0  0  0
 18 19  1  1  0  0  0
 18 24  1  0  0  0  0
 18 30  1  0  0  0  0
 20 21  1  0  0  0  0
 20 26  1  1  0  0  0
 22 23  1  6  0  0  0
 22 28  1  0  0  0  0
 24 25  1  0  0  0  0
 26 27  1  0  0  0  0
 28 29  1  1  0  0  0
M  END
>  <CHROM.1>
-168.63370068,-158.42990950,-89.48307188,-155.99279079,-21.24901952,90.77954111
21.83076094,-11.17165539,-3.51645479,-2.60155713,-0.80940492,1.81980072

>  <Name>
ligand

>  <RI>
0

>  <Rbt.Current_Directory>
/home/itssahil/PROJECTS/Mol_Feturizer/New_Systems/rnas/4F8V

>  <Rbt.Executable>
rbdock ($Id: //depot/dev/client3/rdock/2013.1/src/exe/rbdock.cxx#4 $)

>  <Rbt.Library>
libRbt.so (2013.1, Build901 2013/11/27)

>  <Rbt.Parameter_File>
/export/apps/rDock/src/rDock_2013.1_src/data/scripts/dock_solv.prm

>  <Rbt.Receptor>
prm/pocket_docking_2.prm

>  <SCORE>
-14.6878

>  <SCORE.INTER>
-13.7856

>  <SCORE.INTER.CONST>
1

>  <SCORE.INTER.POLAR>
0

>  <SCORE.INTER.ROT>
6

>  <SCORE.INTER.SOLV>
17.9698

>  <SCORE.INTER.VDW>
-22.7804

>  <SCORE.INTER.norm>
-0.444698

>  <SCORE.INTRA>
-0.905407

>  <SCORE.INTRA.DIHEDRAL>
-4.19874

>  <SCORE.INTRA.DIHEDRAL.0>
15.9129

>  <SCORE.INTRA.POLAR>
0

>  <SCORE.INTRA.POLAR.0>
0

>  <SCORE.INTRA.REPUL>
0

>  <SCORE.INTRA.REPUL.0>
0

>  <SCORE.INTRA.SOLV>
-0.61338

>  <SCORE.INTRA.SOLV.lig_0>
-75.7056

>  <SCORE.INTRA.VDW>
1.50065

>  <SCORE.INTRA.VDW.0>
-4.61812

>  <SCORE.INTRA.norm>
-0.0292067

>  <SCORE.RESTR>
0.00326995

>  <SCORE.RESTR.CAVITY>
0.00326995

>  <SCORE.RESTR.norm>
0.000105482

>  <SCORE.SYSTEM>
0

>  <SCORE.SYSTEM.CONST>
0

>  <SCORE.SYSTEM.DIHEDRAL>
0

>  <SCORE.SYSTEM.SOLV>
0

>  <SCORE.SYSTEM.norm>
0

>  <SCORE.heavy>
31

>  <SCORE.norm>
-0.473799

>  <RMSD>
0.454

$$$$
ligand
 OpenBabel11021811493D
libRbt.so/2013.1/901 2013/11/27
 31 33  0  0  0  0  0  0  0  0999 V2000
   20.4723   -9.1724   -5.8985 C   0  0  2  0  0  0  0  0  0  0  0  0
   20.8298   -8.7312   -4.5817 O   0  0  0  0  0  0  0  0  0  0  0  0
   21.4698  -10.7463   -0.8778 C   0  0  2  0  0  0  0  0  0  0  0  0
   21.2627  -11.6340    0.2162 N   0  0  0  0  0  0  0  0  0  0  0  0
   22.5224  -13.8046   -1.5707 C   0  0  2  0  0  0  0  0  0  0  0  0
   21.1043   -8.1604   -6.9037 C   0  0  2  0  0  0  0  0  0  0  0  0
   22.5487   -8.1146   -6.6855 N   0  0  0  0  0  0  0  0  0  0  0  0
   20.2736   -9.7249   -0.9504 C   0  0  0  0  0  0  0  0  0  0  0  0
   23.9779  -14.1735   -1.1760 C   0  0  2  0  0  0  0  0  0  0  0  0
   24.4506  -13.2187   -0.2534 O   0  0  0  0  0  0  0  0  0  0  0  0
   20.4465   -6.7371   -6.7326 C   0  0  0  0  0  0  0  0  0  0  0  0
   20.5074   -8.7397   -2.1671 C   0  0  2  0  0  0  0  0  0  0  0  0
   19.3859   -7.7812   -2.2419 N   0  0  0  0  0  0  0  0  0  0  0  0
   24.8537  -14.1888   -2.4914 C   0  0  1  0  0  0  0  0  0  0  0  0
   26.2688  -14.5174   -2.1589 N   0  0  0  0  0  0  0  0  0  0  0  0
   18.9375   -6.8089   -6.2985 C   0  0  0  0  0  0  0  0  0  0  0  0
   20.6011   -9.5874   -3.5067 C   0  0  2  0  0  0  0  0  0  0  0  0
   24.2674  -15.3037   -3.5228 C   0  0  1  0  0  0  0  0  0  0  0  0
   24.2971  -16.6089   -2.9989 O   0  0  0  0  0  0  0  0  0  0  0  0
   18.3450   -7.9799   -6.0210 C   0  0  1  0  0  0  0  0  0  0  0  0
   19.0350   -9.2110   -6.1073 O   0  0  0  0  0  0  0  0  0  0  0  0
   21.7886  -10.6117   -3.3998 C   0  0  2  0  0  0  0  0  0  0  0  0
   21.8577  -11.3761   -4.6021 O   0  0  0  0  0  0  0  0  0  0  0  0
   22.7844  -14.9529   -3.8563 C   0  0  0  0  0  0  0  0  0  0  0  0
   21.9838  -14.7872   -2.5803 O   0  0  0  0  0  0  0  0  0  0  0  0
   16.8725   -8.0868   -5.5787 C   0  0  0  0  0  0  0  0  0  0  0  0
   16.4927   -6.8551   -4.9223 N   0  0  0  0  0  0  0  0  0  0  0  0
   21.5407  -11.5744   -2.1777 C   0  0  1  0  0  0  0  0  0  0  0  0
   22.6148  -12.4652   -2.1006 O   0  0  0  0  0  0  0  0  0  0  0  0
   25.0166  -15.4404   -4.8559 C   0  0  0  0  0  0  0  0  0  0  0  0
   27.1545  -13.3740   -1.8907 C   0  0  0  0  0  0  0  0  0  0  0  0
  1  2  1  1  0  0  0
  1  6  1  0  0  0  0
  1 21  1  0  0  0  0
  3  4  1  1  0  0  0
  3  8  1  0  0  0  0
  3 28  1  0  0  0  0
  5  9  1  0  0  0  0
  5 25  1  0  0  0  0
  5 29  1  6  0  0  0
  6  7  1  1  0  0  0
  6 11  1  0  0  0  0
  8 12  1  0  0  0  0
  9 10  1  1  0  0  0
  9 14  1  0  0  0  0
 11 16  1  0  0  0  0
 12 13  1  6  0  0  0
 12 17  1  0  0  0  0
 14 15  1  1  0  0  0
 14 18  1  0  0  0  0
 15 31  1  0  0  0  0
 16 20  1  0  0  0  0
 17  2  1  6  0  0  0
 17 22  1  0  0  0  0
 18 19  1  1  0  0  0
 18 24  1  0  0  0  0
 18 30  1  0  0  0  0
 20 21  1  0  0  0  0
 20 26  1  1  0  0  0
 22 23  1  6  0  0  0
 22 28  1  0  0  0  0
 24 25  1  0  0  0  0
 26 27  1  0  0  0  0
 28 29  1  1  0  0  0
M  END
>  <CHROM.1>
-168.44038339,-158.34053127,-91.58397891,-157.48788306,-27.14257868,89.97820688
21.76680900,-11.15495265,-3.51156250,-2.61131021,-0.82243422,1.81425443

>  <Name>
ligand

>  <RI>
0

>  <Rbt.Current_Directory>
/home/itssahil/PROJECTS/Mol_Feturizer/New_Systems/rnas/4F8V

>  <Rbt.Executable>
rbdock ($Id: //depot/dev/client3/rdock/2013.1/src/exe/rbdock.cxx#4 $)

>  <Rbt.Library>
libRbt.so (2013.1, Build901 2013/11/27)

>  <Rbt.Parameter_File>
/export/apps/rDock/src/rDock_2013.1_src/data/scripts/dock_solv.prm

>  <Rbt.Receptor>
prm/pocket_docking_2.prm

>  <SCORE>
-14.8328

>  <SCORE.INTER>
-13.8237

>  <SCORE.INTER.CONST>
1

>  <SCORE.INTER.POLAR>
0

>  <SCORE.INTER.ROT>
6

>  <SCORE.INTER.SOLV>
18.0858

>  <SCORE.INTER.VDW>
-22.8444

>  <SCORE.INTER.norm>
-0.445927

>  <SCORE.INTRA>
-1.01896

>  <SCORE.INTRA.DIHEDRAL>
-4.23098

>  <SCORE.INTRA.DIHEDRAL.0>
15.9129

>  <SCORE.INTRA.POLAR>
0

>  <SCORE.INTRA.POLAR.0>
0

>  <SCORE.INTRA.REPUL>
0

>  <SCORE.INTRA.REPUL.0>
0

>  <SCORE.INTRA.SOLV>
-0.645774

>  <SCORE.INTRA.SOLV.lig_0>
-75.7056

>  <SCORE.INTRA.VDW>
1.41942

>  <SCORE.INTRA.VDW.0>
-4.61812

>  <SCORE.INTRA.norm>
-0.0328697

>  <SCORE.RESTR>
0.00985421

>  <SCORE.RESTR.CAVITY>
0.00985421

>  <SCORE.RESTR.norm>
0.000317878

>  <SCORE.SYSTEM>
0

>  <SCORE.SYSTEM.CONST>
0

>  <SCORE.SYSTEM.DIHEDRAL>
0

>  <SCORE.SYSTEM.SOLV>
0

>  <SCORE.SYSTEM.norm>
0

>  <SCORE.heavy>
31

>  <SCORE.norm>
-0.478478

>  <RMSD>
0.455

$$$$
ligand
 OpenBabel11021811493D
libRbt.so/2013.1/901 2013/11/27
 31 33  0  0  0  0  0  0  0  0999 V2000
   20.4226   -9.1923   -5.8620 C   0  0  2  0  0  0  0  0  0  0  0  0
   20.7632   -8.7361   -4.5459 O   0  0  0  0  0  0  0  0  0  0  0  0
   21.4667  -10.7499   -0.8529 C   0  0  2  0  0  0  0  0  0  0  0  0
   21.2798  -11.6390    0.2437 N   0  0  0  0  0  0  0  0  0  0  0  0
   22.5251  -13.8001   -1.5555 C   0  0  2  0  0  0  0  0  0  0  0  0
   21.0522   -8.1817   -6.8700 C   0  0  2  0  0  0  0  0  0  0  0  0
   22.4940   -8.1177   -6.6394 N   0  0  0  0  0  0  0  0  0  0  0  0
   20.2648   -9.7340   -0.9074 C   0  0  0  0  0  0  0  0  0  0  0  0
   23.9891  -14.1601   -1.1847 C   0  0  2  0  0  0  0  0  0  0  0  0
   24.4732  -13.1986   -0.2750 O   0  0  0  0  0  0  0  0  0  0  0  0
   20.3770   -6.7645   -6.7170 C   0  0  0  0  0  0  0  0  0  0  0  0
   20.4762   -8.7472   -2.1269 C   0  0  2  0  0  0  0  0  0  0  0  0
   19.3492   -7.7939   -2.1847 N   0  0  0  0  0  0  0  0  0  0  0  0
   24.8418  -14.1774   -2.5151 C   0  0  1  0  0  0  0  0  0  0  0  0
   26.2641  -14.4976   -2.2059 N   0  0  0  0  0  0  0  0  0  0  0  0
   18.8649   -6.8497   -6.2958 C   0  0  0  0  0  0  0  0  0  0  0  0
   20.5542   -9.5938   -3.4681 C   0  0  2  0  0  0  0  0  0  0  0  0
   24.2431  -15.3001   -3.5308 C   0  0  1  0  0  0  0  0  0  0  0  0
   24.2884  -16.6026   -3.0014 O   0  0  0  0  0  0  0  0  0  0  0  0
   18.2832   -8.0250   -6.0137 C   0  0  1  0  0  0  0  0  0  0  0  0
   18.9877   -9.2489   -6.0834 O   0  0  0  0  0  0  0  0  0  0  0  0
   21.7479  -10.6126   -3.3791 C   0  0  2  0  0  0  0  0  0  0  0  0
   21.8029  -11.3762   -4.5827 O   0  0  0  0  0  0  0  0  0  0  0  0
   22.7527  -14.9580   -3.8400 C   0  0  0  0  0  0  0  0  0  0  0  0
   21.9738  -14.7901   -2.5509 O   0  0  0  0  0  0  0  0  0  0  0  0
   16.8080   -8.1449   -5.5837 C   0  0  0  0  0  0  0  0  0  0  0  0
   16.3597   -6.8598   -5.0940 N   0  0  0  0  0  0  0  0  0  0  0  0
   21.5224  -11.5771   -2.1541 C   0  0  1  0  0  0  0  0  0  0  0  0
   22.6016  -12.4628   -2.0932 O   0  0  0  0  0  0  0  0  0  0  0  0
   24.9695  -15.4395   -4.8762 C   0  0  0  0  0  0  0  0  0  0  0  0
   27.1183  -13.3604   -1.8304 C   0  0  0  0  0  0  0  0  0  0  0  0
  1  2  1  1  0  0  0
  1  6  1  0  0  0  0
  1 21  1  0  0  0  0
  3  4  1  1  0  0  0
  3  8  1  0  0  0  0
  3 28  1  0  0  0  0
  5  9  1  0  0  0  0
  5 25  1  0  0  0  0
  5 29  1  6  0  0  0
  6  7  1  1  0  0  0
  6 11  1  0  0  0  0
  8 12  1  0  0  0  0
  9 10  1  1  0  0  0
  9 14  1  0  0  0  0
 11 16  1  0  0  0  0
 12 13  1  6  0  0  0
 12 17  1  0  0  0  0
 14 15  1  1  0  0  0
 14 18  1  0  0  0  0
 15 31  1  0  0  0  0
 16 20  1  0  0  0  0
 17  2  1  6  0  0  0
 17 22  1  0  0  0  0
 18 19  1  1  0  0  0
 18 24  1  0  0  0  0
 18 30  1  0  0  0  0
 20 21  1  0  0  0  0
 20 26  1  1  0  0  0
 22 23  1  6  0  0  0
 22 28  1  0  0  0  0
 24 25  1  0  0  0  0
 26 27  1  0  0  0  0
 28 29  1  1  0  0  0
M  END
>  <CHROM.1>
-167.43243387,-158.25693874,-85.84259280,-159.17645377,-20.07710244,89.59659288
21.73307240,-11.16199509,-3.50132387,-2.63793740,-0.82702778,1.77896277

>  <Name>
ligand

>  <RI>
0

>  <Rbt.Current_Directory>
/home/itssahil/PROJECTS/Mol_Feturizer/New_Systems/rnas/4F8V

>  <Rbt.Executable>
rbdock ($Id: //depot/dev/client3/rdock/2013.1/src/exe/rbdock.cxx#4 $)

>  <Rbt.Library>
libRbt.so (2013.1, Build901 2013/11/27)

>  <Rbt.Parameter_File>
/export/apps/rDock/src/rDock_2013.1_src/data/scripts/dock_solv.prm

>  <Rbt.Receptor>
prm/pocket_docking_2.prm

>  <SCORE>
-14.8171

>  <SCORE.INTER>
-13.5976

>  <SCORE.INTER.CONST>
1

>  <SCORE.INTER.POLAR>
0

>  <SCORE.INTER.ROT>
6

>  <SCORE.INTER.SOLV>
18.8234

>  <SCORE.INTER.VDW>
-22.9395

>  <SCORE.INTER.norm>
-0.438631

>  <SCORE.INTRA>
-1.22212

>  <SCORE.INTRA.DIHEDRAL>
-4.97722

>  <SCORE.INTRA.DIHEDRAL.0>
15.9129

>  <SCORE.INTRA.POLAR>
0

>  <SCORE.INTRA.POLAR.0>
0

>  <SCORE.INTRA.REPUL>
0

>  <SCORE.INTRA.REPUL.0>
0

>  <SCORE.INTRA.SOLV>
-0.989898

>  <SCORE.INTRA.SOLV.lig_0>
-75.7056

>  <SCORE.INTRA.VDW>
1.76144

>  <SCORE.INTRA.VDW.0>
-4.61812

>  <SCORE.INTRA.norm>
-0.0394231

>  <SCORE.RESTR>
0.00256424

>  <SCORE.RESTR.CAVITY>
0.00256424

>  <SCORE.RESTR.norm>
8.27175e-05

>  <SCORE.SYSTEM>
0

>  <SCORE.SYSTEM.CONST>
0

>  <SCORE.SYSTEM.DIHEDRAL>
0

>  <SCORE.SYSTEM.SOLV>
0

>  <SCORE.SYSTEM.norm>
0

>  <SCORE.heavy>
31

>  <SCORE.norm>
-0.477972

>  <RMSD>
0.455

$$$$
ligand
 OpenBabel11021811493D
libRbt.so/2013.1/901 2013/11/27
 31 33  0  0  0  0  0  0  0  0999 V2000
   20.4591   -9.1715   -5.9408 C   0  0  2  0  0  0  0  0  0  0  0  0
   20.8146   -8.7207   -4.6267 O   0  0  0  0  0  0  0  0  0  0  0  0
   21.4759  -10.7248   -0.9207 C   0  0  2  0  0  0  0  0  0  0  0  0
   21.2737  -11.6075    0.1784 N   0  0  0  0  0  0  0  0  0  0  0  0
   22.5107  -13.7876   -1.6032 C   0  0  2  0  0  0  0  0  0  0  0  0
   21.0563   -8.1433   -6.9507 C   0  0  2  0  0  0  0  0  0  0  0  0
   22.5006   -8.0590   -6.7434 N   0  0  0  0  0  0  0  0  0  0  0  0
   20.2837   -9.6983   -0.9873 C   0  0  0  0  0  0  0  0  0  0  0  0
   23.9673  -14.1548   -1.2105 C   0  0  2  0  0  0  0  0  0  0  0  0
   24.4447  -13.1918   -0.2989 O   0  0  0  0  0  0  0  0  0  0  0  0
   20.3622   -6.7379   -6.7747 C   0  0  0  0  0  0  0  0  0  0  0  0
   20.5120   -8.7188   -2.2096 C   0  0  2  0  0  0  0  0  0  0  0  0
   19.3942   -7.7554   -2.2788 N   0  0  0  0  0  0  0  0  0  0  0  0
   24.8381  -14.1838   -2.5289 C   0  0  1  0  0  0  0  0  0  0  0  0
   26.2540  -14.5112   -2.1986 N   0  0  0  0  0  0  0  0  0  0  0  0
   18.8589   -6.8498   -6.3293 C   0  0  0  0  0  0  0  0  0  0  0  0
   20.5908   -9.5719   -3.5466 C   0  0  2  0  0  0  0  0  0  0  0  0
   24.2465  -15.3078   -3.5474 C   0  0  1  0  0  0  0  0  0  0  0  0
   24.2763  -16.6079   -3.0111 O   0  0  0  0  0  0  0  0  0  0  0  0
   18.2999   -8.0361   -6.0474 C   0  0  1  0  0  0  0  0  0  0  0  0
   19.0218   -9.2485   -6.1389 O   0  0  0  0  0  0  0  0  0  0  0  0
   21.7745  -10.6011   -3.4456 C   0  0  2  0  0  0  0  0  0  0  0  0
   21.8303  -11.3704   -4.6456 O   0  0  0  0  0  0  0  0  0  0  0  0
   22.7626  -14.9581   -3.8787 C   0  0  0  0  0  0  0  0  0  0  0  0
   21.9670  -14.7791   -2.6013 O   0  0  0  0  0  0  0  0  0  0  0  0
   16.8341   -8.1822   -5.5941 C   0  0  0  0  0  0  0  0  0  0  0  0
   16.3638   -6.8997   -5.1181 N   0  0  0  0  0  0  0  0  0  0  0  0
   21.5323  -11.5582   -2.2179 C   0  0  1  0  0  0  0  0  0  0  0  0
   22.6030  -12.4535   -2.1463 O   0  0  0  0  0  0  0  0  0  0  0  0
   24.9904  -15.4583   -4.8820 C   0  0  0  0  0  0  0  0  0  0  0  0
   27.1230  -13.3716   -1.8673 C   0  0  0  0  0  0  0  0  0  0  0  0
  1  2  1  1  0  0  0
  1  6  1  0  0  0  0
  1 21  1  0  0  0  0
  3  4  1  1  0  0  0
  3  8  1  0  0  0  0
  3 28  1  0  0  0  0
  5  9  1  0  0  0  0
  5 25  1  0  0  0  0
  5 29  1  6  0  0  0
  6  7  1  1  0  0  0
  6 11  1  0  0  0  0
  8 12  1  0  0  0  0
  9 10  1  1  0  0  0
  9 14  1  0  0  0  0
 11 16  1  0  0  0  0
 12 13  1  6  0  0  0
 12 17  1  0  0  0  0
 14 15  1  1  0  0  0
 14 18  1  0  0  0  0
 15 31  1  0  0  0  0
 16 20  1  0  0  0  0
 17  2  1  6  0  0  0
 17 22  1  0  0  0  0
 18 19  1  1  0  0  0
 18 24  1  0  0  0  0
 18 30  1  0  0  0  0
 20 21  1  0  0  0  0
 20 26  1  1  0  0  0
 22 23  1  6  0  0  0
 22 28  1  0  0  0  0
 24 25  1  0  0  0  0
 26 27  1  0  0  0  0
 28 29  1  1  0  0  0
M  END
>  <CHROM.1>
-169.76521754,-157.79740496,-88.11771072,-158.22487237,-18.63250853,89.58962207
21.74287926,-11.15352748,-3.55063060,-2.62894773,-0.82784201,1.78588998

>  <Name>
ligand

>  <RI>
0

>  <Rbt.Current_Directory>
/home/itssahil/PROJECTS/Mol_Feturizer/New_Systems/rnas/4F8V

>  <Rbt.Executable>
rbdock ($Id: //depot/dev/client3/rdock/2013.1/src/exe/rbdock.cxx#4 $)

>  <Rbt.Library>
libRbt.so (2013.1, Build901 2013/11/27)

>  <Rbt.Parameter_File>
/export/apps/rDock/src/rDock_2013.1_src/data/scripts/dock_solv.prm

>  <Rbt.Receptor>
prm/pocket_docking_2.prm

>  <SCORE>
-14.8163

>  <SCORE.INTER>
-13.5552

>  <SCORE.INTER.CONST>
1

>  <SCORE.INTER.POLAR>
0

>  <SCORE.INTER.ROT>
6

>  <SCORE.INTER.SOLV>
18.7722

>  <SCORE.INTER.VDW>
-22.8942

>  <SCORE.INTER.norm>
-0.437263

>  <SCORE.INTRA>
-1.26904

>  <SCORE.INTRA.DIHEDRAL>
-4.97639

>  <SCORE.INTRA.DIHEDRAL.0>
15.9129

>  <SCORE.INTRA.POLAR>
0

>  <SCORE.INTRA.POLAR.0>
0

>  <SCORE.INTRA.REPUL>
0

>  <SCORE.INTRA.REPUL.0>
0

>  <SCORE.INTRA.SOLV>
-0.909007

>  <SCORE.INTRA.SOLV.lig_0>
-75.7056

>  <SCORE.INTRA.VDW>
1.67366

>  <SCORE.INTRA.VDW.0>
-4.61812

>  <SCORE.INTRA.norm>
-0.0409367

>  <SCORE.RESTR>
0.0078959

>  <SCORE.RESTR.CAVITY>
0.0078959

>  <SCORE.RESTR.norm>
0.000254706

>  <SCORE.SYSTEM>
0

>  <SCORE.SYSTEM.CONST>
0

>  <SCORE.SYSTEM.DIHEDRAL>
0

>  <SCORE.SYSTEM.SOLV>
0

>  <SCORE.SYSTEM.norm>
0

>  <SCORE.heavy>
31

>  <SCORE.norm>
-0.477945

>  <RMSD>
0.457

$$$$
ligand
 OpenBabel11021811493D
libRbt.so/2013.1/901 2013/11/27
 31 33  0  0  0  0  0  0  0  0999 V2000
   20.4803   -9.1392   -5.9023 C   0  0  2  0  0  0  0  0  0  0  0  0
   20.8305   -8.7037   -4.5816 O   0  0  0  0  0  0  0  0  0  0  0  0
   21.4655  -10.7517   -0.8951 C   0  0  2  0  0  0  0  0  0  0  0  0
   21.2539  -11.6451    0.1935 N   0  0  0  0  0  0  0  0  0  0  0  0
   22.4871  -13.8103   -1.6001 C   0  0  2  0  0  0  0  0  0  0  0  0
   21.0880   -8.1035   -6.8981 C   0  0  2  0  0  0  0  0  0  0  0  0
   22.5315   -8.0281   -6.6819 N   0  0  0  0  0  0  0  0  0  0  0  0
   20.2796   -9.7176   -0.9552 C   0  0  0  0  0  0  0  0  0  0  0  0
   23.9387  -14.1821   -1.1937 C   0  0  2  0  0  0  0  0  0  0  0  0
   24.4080  -13.2247   -0.2719 O   0  0  0  0  0  0  0  0  0  0  0  0
   20.3995   -6.6967   -6.7115 C   0  0  0  0  0  0  0  0  0  0  0  0
   20.5184   -8.7262   -2.1658 C   0  0  2  0  0  0  0  0  0  0  0  0
   19.4065   -7.7557   -2.2289 N   0  0  0  0  0  0  0  0  0  0  0  0
   24.8236  -14.2057   -2.5028 C   0  0  1  0  0  0  0  0  0  0  0  0
   26.2353  -14.5373   -2.1590 N   0  0  0  0  0  0  0  0  0  0  0  0
   18.8932   -6.8061   -6.2756 C   0  0  0  0  0  0  0  0  0  0  0  0
   20.5975   -9.5651   -3.5118 C   0  0  2  0  0  0  0  0  0  0  0  0
   24.2411  -15.3233   -3.5335 C   0  0  1  0  0  0  0  0  0  0  0  0
   24.2630  -16.6262   -3.0038 O   0  0  0  0  0  0  0  0  0  0  0  0
   18.3271   -7.9925   -6.0091 C   0  0  1  0  0  0  0  0  0  0  0  0
   19.0438   -9.2073   -6.1091 O   0  0  0  0  0  0  0  0  0  0  0  0
   21.7748  -10.6023   -3.4174 C   0  0  2  0  0  0  0  0  0  0  0  0
   21.8309  -11.3588   -4.6254 O   0  0  0  0  0  0  0  0  0  0  0  0
   22.7615  -14.9693   -3.8789 C   0  0  0  0  0  0  0  0  0  0  0  0
   21.9525  -14.7956   -2.6092 O   0  0  0  0  0  0  0  0  0  0  0  0
   16.8581   -8.1363   -5.5655 C   0  0  0  0  0  0  0  0  0  0  0  0
   16.3783   -6.8470   -5.1184 N   0  0  0  0  0  0  0  0  0  0  0  0
   21.5223  -11.5712   -2.2011 C   0  0  1  0  0  0  0  0  0  0  0  0
   22.5874  -12.4735   -2.1351 O   0  0  0  0  0  0  0  0  0  0  0  0
   24.9991  -15.4681   -4.8608 C   0  0  0  0  0  0  0  0  0  0  0  0
   27.1107  -13.3983   -1.8425 C   0  0  0  0  0  0  0  0  0  0  0  0
  1  2  1  1  0  0  0
  1  6  1  0  0  0  0
  1 21  1  0  0  0  0
  3  4  1  1  0  0  0
  3  8  1  0  0  0  0
  3 28  1  0  0  0  0
  5  9  1  0  0  0  0
  5 25  1  0  0  0  0
  5 29  1  6  0  0  0
  6  7  1  1  0  0  0
  6 11  1  0  0  0  0
  8 12  1  0  0  0  0
  9 10  1  1  0  0  0
  9 14  1  0  0  0  0
 11 16  1  0  0  0  0
 12 13  1  6  0  0  0
 12 17  1  0  0  0  0
 14 15  1  1  0  0  0
 14 18  1  0  0  0  0
 15 31  1  0  0  0  0
 16 20  1  0  0  0  0
 17  2  1  6  0  0  0
 17 22  1  0  0  0  0
 18 19  1  1  0  0  0
 18 24  1  0  0  0  0
 18 30  1  0  0  0  0
 20 21  1  0  0  0  0
 20 26  1  1  0  0  0
 22 23  1  6  0  0  0
 22 28  1  0  0  0  0
 24 25  1  0  0  0  0
 26 27  1  0  0  0  0
 28 29  1  1  0  0  0
M  END
>  <CHROM.1>
-169.72158155,-157.12166615,-89.47763283,-158.35951655,-16.85102779,89.22657168
21.74478279,-11.15195892,-3.52314903,-2.61739887,-0.82977331,1.80431869

>  <Name>
ligand

>  <RI>
0

>  <Rbt.Current_Directory>
/home/itssahil/PROJECTS/Mol_Feturizer/New_Systems/rnas/4F8V

>  <Rbt.Executable>
rbdock ($Id: //depot/dev/client3/rdock/2013.1/src/exe/rbdock.cxx#4 $)

>  <Rbt.Library>
libRbt.so (2013.1, Build901 2013/11/27)

>  <Rbt.Parameter_File>
/export/apps/rDock/src/rDock_2013.1_src/data/scripts/dock_solv.prm

>  <Rbt.Receptor>
prm/pocket_docking_2.prm

>  <SCORE>
-14.8226

>  <SCORE.INTER>
-13.5584

>  <SCORE.INTER.CONST>
1

>  <SCORE.INTER.POLAR>
0

>  <SCORE.INTER.ROT>
6

>  <SCORE.INTER.SOLV>
18.7647

>  <SCORE.INTER.VDW>
-22.8938

>  <SCORE.INTER.norm>
-0.437366

>  <SCORE.INTRA>
-1.29052

>  <SCORE.INTRA.DIHEDRAL>
-4.97471

>  <SCORE.INTRA.DIHEDRAL.0>
15.9129

>  <SCORE.INTRA.POLAR>
0

>  <SCORE.INTRA.POLAR.0>
0

>  <SCORE.INTRA.REPUL>
0

>  <SCORE.INTRA.REPUL.0>
0

>  <SCORE.INTRA.SOLV>
-0.950963

>  <SCORE.INTRA.SOLV.lig_0>
-75.7056

>  <SCORE.INTRA.VDW>
1.67232

>  <SCORE.INTRA.VDW.0>
-4.61812

>  <SCORE.INTRA.norm>
-0.0416297

>  <SCORE.RESTR>
0.0262444

>  <SCORE.RESTR.CAVITY>
0.0262444

>  <SCORE.RESTR.norm>
0.000846592

>  <SCORE.SYSTEM>
0

>  <SCORE.SYSTEM.CONST>
0

>  <SCORE.SYSTEM.DIHEDRAL>
0

>  <SCORE.SYSTEM.SOLV>
0

>  <SCORE.SYSTEM.norm>
0

>  <SCORE.heavy>
31

>  <SCORE.norm>
-0.478149

>  <RMSD>
0.459

$$$$
ligand
 OpenBabel11021811493D
libRbt.so/2013.1/901 2013/11/27
 31 33  0  0  0  0  0  0  0  0999 V2000
   20.4950   -9.1572   -5.9136 C   0  0  2  0  0  0  0  0  0  0  0  0
   20.8361   -8.7148   -4.5928 O   0  0  0  0  0  0  0  0  0  0  0  0
   21.4571  -10.7327   -0.8872 C   0  0  2  0  0  0  0  0  0  0  0  0
   21.2458  -11.6232    0.2037 N   0  0  0  0  0  0  0  0  0  0  0  0
   22.5345  -13.7781   -1.5601 C   0  0  2  0  0  0  0  0  0  0  0  0
   21.1142   -8.1296   -6.9108 C   0  0  2  0  0  0  0  0  0  0  0  0
   22.5562   -8.0579   -6.6835 N   0  0  0  0  0  0  0  0  0  0  0  0
   20.2562   -9.7173   -0.9677 C   0  0  0  0  0  0  0  0  0  0  0  0
   23.9944  -14.1421   -1.1768 C   0  0  2  0  0  0  0  0  0  0  0  0
   24.4755  -13.1781   -0.2681 O   0  0  0  0  0  0  0  0  0  0  0  0
   20.4291   -6.7194   -6.7382 C   0  0  0  0  0  0  0  0  0  0  0  0
   20.4947   -8.7289   -2.1809 C   0  0  2  0  0  0  0  0  0  0  0  0
   19.3689   -7.7760   -2.2631 N   0  0  0  0  0  0  0  0  0  0  0  0
   24.8567  -14.1692   -2.5007 C   0  0  1  0  0  0  0  0  0  0  0  0
   26.2754  -14.4935   -2.1794 N   0  0  0  0  0  0  0  0  0  0  0  0
   18.9190   -6.8209   -6.3137 C   0  0  0  0  0  0  0  0  0  0  0  0
   20.6032   -9.5739   -3.5210 C   0  0  2  0  0  0  0  0  0  0  0  0
   24.2611  -15.2944   -3.5154 C   0  0  1  0  0  0  0  0  0  0  0  0
   24.2972  -16.5945   -2.9795 O   0  0  0  0  0  0  0  0  0  0  0  0
   18.3467   -8.0038   -6.0446 C   0  0  1  0  0  0  0  0  0  0  0  0
   19.0599   -9.2216   -6.1315 O   0  0  0  0  0  0  0  0  0  0  0  0
   21.7950  -10.5923   -3.4064 C   0  0  2  0  0  0  0  0  0  0  0  0
   21.8776  -11.3544   -4.6093 O   0  0  0  0  0  0  0  0  0  0  0  0
   22.7744  -14.9479   -3.8373 C   0  0  0  0  0  0  0  0  0  0  0  0
   21.9866  -14.7707   -2.5548 O   0  0  0  0  0  0  0  0  0  0  0  0
   16.8737   -8.1398   -5.6119 C   0  0  0  0  0  0  0  0  0  0  0  0
   16.4234   -6.8695   -5.0867 N   0  0  0  0  0  0  0  0  0  0  0  0
   21.5425  -11.5583   -2.1878 C   0  0  1  0  0  0  0  0  0  0  0  0
   22.6204  -12.4437   -2.1036 O   0  0  0  0  0  0  0  0  0  0  0  0
   24.9969  -15.4432   -4.8548 C   0  0  0  0  0  0  0  0  0  0  0  0
   27.1396  -13.3539   -1.8356 C   0  0  0  0  0  0  0  0  0  0  0  0
  1  2  1  1  0  0  0
  1  6  1  0  0  0  0
  1 21  1  0  0  0  0
  3  4  1  1  0  0  0
  3  8  1  0  0  0  0
  3 28  1  0  0  0  0
  5  9  1  0  0  0  0
  5 25  1  0  0  0  0
  5 29  1  6  0  0  0
  6  7  1  1  0  0  0
  6 11  1  0  0  0  0
  8 12  1  0  0  0  0
  9 10  1  1  0  0  0
  9 14  1  0  0  0  0
 11 16  1  0  0  0  0
 12 13  1  6  0  0  0
 12 17  1  0  0  0  0
 14 15  1  1  0  0  0
 14 18  1  0  0  0  0
 15 31  1  0  0  0  0
 16 20  1  0  0  0  0
 17  2  1  6  0  0  0
 17 22  1  0  0  0  0
 18 19  1  1  0  0  0
 18 24  1  0  0  0  0
 18 30  1  0  0  0  0
 20 21  1  0  0  0  0
 20 26  1  1  0  0  0
 22 23  1  6  0  0  0
 22 28  1  0  0  0  0
 24 25  1  0  0  0  0
 26 27  1  0  0  0  0
 28 29  1  1  0  0  0
M  END
>  <CHROM.1>
-169.12630012,-158.86008402,-87.30703891,-157.66981622,-20.91271617,89.10742248
21.76520303,-11.14303898,-3.52155657,-2.60837106,-0.82005518,1.81152624

>  <Name>
ligand

>  <RI>
0

>  <Rbt.Current_Directory>
/home/itssahil/PROJECTS/Mol_Feturizer/New_Systems/rnas/4F8V

>  <Rbt.Executable>
rbdock ($Id: //depot/dev/client3/rdock/2013.1/src/exe/rbdock.cxx#4 $)

>  <Rbt.Library>
libRbt.so (2013.1, Build901 2013/11/27)

>  <Rbt.Parameter_File>
/export/apps/rDock/src/rDock_2013.1_src/data/scripts/dock_solv.prm

>  <Rbt.Receptor>
prm/pocket_docking_2.prm

>  <SCORE>
-14.8012

>  <SCORE.INTER>
-13.5538

>  <SCORE.INTER.CONST>
1

>  <SCORE.INTER.POLAR>
0

>  <SCORE.INTER.ROT>
6

>  <SCORE.INTER.SOLV>
18.4656

>  <SCORE.INTER.VDW>
-22.7911

>  <SCORE.INTER.norm>
-0.43722

>  <SCORE.INTRA>
-1.26011

>  <SCORE.INTRA.DIHEDRAL>
-5.01671

>  <SCORE.INTRA.DIHEDRAL.0>
15.9129

>  <SCORE.INTRA.POLAR>
0

>  <SCORE.INTRA.POLAR.0>
0

>  <SCORE.INTRA.REPUL>
0

>  <SCORE.INTRA.REPUL.0>
0

>  <SCORE.INTRA.SOLV>
-0.805932

>  <SCORE.INTRA.SOLV.lig_0>
-75.7056

>  <SCORE.INTRA.VDW>
1.65121

>  <SCORE.INTRA.VDW.0>
-4.61812

>  <SCORE.INTRA.norm>
-0.0406488

>  <SCORE.RESTR>
0.0127062

>  <SCORE.RESTR.CAVITY>
0.0127062

>  <SCORE.RESTR.norm>
0.000409878

>  <SCORE.SYSTEM>
0

>  <SCORE.SYSTEM.CONST>
0

>  <SCORE.SYSTEM.DIHEDRAL>
0

>  <SCORE.SYSTEM.SOLV>
0

>  <SCORE.SYSTEM.norm>
0

>  <SCORE.heavy>
31

>  <SCORE.norm>
-0.477459

>  <RMSD>
0.461

$$$$
ligand
 OpenBabel11021811493D
libRbt.so/2013.1/901 2013/11/27
 31 33  0  0  0  0  0  0  0  0999 V2000
   20.4839   -9.1587   -5.9268 C   0  0  2  0  0  0  0  0  0  0  0  0
   20.8279   -8.7165   -4.6067 O   0  0  0  0  0  0  0  0  0  0  0  0
   21.4454  -10.7270   -0.8966 C   0  0  2  0  0  0  0  0  0  0  0  0
   21.2341  -11.6166    0.1952 N   0  0  0  0  0  0  0  0  0  0  0  0
   22.5352  -13.7678   -1.5560 C   0  0  2  0  0  0  0  0  0  0  0  0
   21.1127   -8.1386   -6.9257 C   0  0  2  0  0  0  0  0  0  0  0  0
   22.5550   -8.0789   -6.6975 N   0  0  0  0  0  0  0  0  0  0  0  0
   20.2418   -9.7153   -0.9816 C   0  0  0  0  0  0  0  0  0  0  0  0
   23.9964  -14.1257   -1.1721 C   0  0  2  0  0  0  0  0  0  0  0  0
   24.4760  -13.1551   -0.2697 O   0  0  0  0  0  0  0  0  0  0  0  0
   20.4397   -6.7221   -6.7566 C   0  0  0  0  0  0  0  0  0  0  0  0
   20.4804   -8.7281   -2.1957 C   0  0  2  0  0  0  0  0  0  0  0  0
   19.3520   -7.7786   -2.2821 N   0  0  0  0  0  0  0  0  0  0  0  0
   24.8574  -14.1583   -2.4967 C   0  0  1  0  0  0  0  0  0  0  0  0
   26.2773  -14.4770   -2.1751 N   0  0  0  0  0  0  0  0  0  0  0  0
   18.9285   -6.8097   -6.3329 C   0  0  0  0  0  0  0  0  0  0  0  0
   20.5949   -9.5747   -3.5342 C   0  0  2  0  0  0  0  0  0  0  0  0
   24.2636  -15.2911   -3.5042 C   0  0  1  0  0  0  0  0  0  0  0  0
   24.3037  -16.5878   -2.9606 O   0  0  0  0  0  0  0  0  0  0  0  0
   18.3457   -7.9870   -6.0617 C   0  0  1  0  0  0  0  0  0  0  0  0
   19.0484   -9.2111   -6.1456 O   0  0  0  0  0  0  0  0  0  0  0  0
   21.7894  -10.5894   -3.4150 C   0  0  2  0  0  0  0  0  0  0  0  0
   21.8773  -11.3530   -4.6166 O   0  0  0  0  0  0  0  0  0  0  0  0
   22.7757  -14.9504   -3.8264 C   0  0  0  0  0  0  0  0  0  0  0  0
   21.9888  -14.7677   -2.5442 O   0  0  0  0  0  0  0  0  0  0  0  0
   16.8713   -8.1093   -5.6298 C   0  0  0  0  0  0  0  0  0  0  0  0
   16.3873   -6.8003   -5.2496 N   0  0  0  0  0  0  0  0  0  0  0  0
   21.5366  -11.5544   -2.1957 C   0  0  1  0  0  0  0  0  0  0  0  0
   22.6169  -12.4364   -2.1075 O   0  0  0  0  0  0  0  0  0  0  0  0
   24.9983  -15.4459   -4.8434 C   0  0  0  0  0  0  0  0  0  0  0  0
   27.1450  -13.3308   -1.8637 C   0  0  0  0  0  0  0  0  0  0  0  0
  1  2  1  1  0  0  0
  1  6  1  0  0  0  0
  1 21  1  0  0  0  0
  3  4  1  1  0  0  0
  3  8  1  0  0  0  0
  3 28  1  0  0  0  0
  5  9  1  0  0  0  0
  5 25  1  0  0  0  0
  5 29  1  6  0  0  0
  6  7  1  1  0  0  0
  6 11  1  0  0  0  0
  8 12  1  0  0  0  0
  9 10  1  1  0  0  0
  9 14  1  0  0  0  0
 11 16  1  0  0  0  0
 12 13  1  6  0  0  0
 12 17  1  0  0  0  0
 14 15  1  1  0  0  0
 14 18  1  0  0  0  0
 15 31  1  0  0  0  0
 16 20  1  0  0  0  0
 17  2  1  6  0  0  0
 17 22  1  0  0  0  0
 18 19  1  1  0  0  0
 18 24  1  0  0  0  0
 18 30  1  0  0  0  0
 20 21  1  0  0  0  0
 20 26  1  1  0  0  0
 22 23  1  6  0  0  0
 22 28  1  0  0  0  0
 24 25  1  0  0  0  0
 26 27  1  0  0  0  0
 28 29  1  1  0  0  0
M  END
>  <CHROM.1>
-168.71625119,-158.85970541,-88.41617528,-157.29254120,-14.52616547,88.77893979
21.76141361,-11.13528949,-3.53308099,-2.60312193,-0.81718261,1.81405280

>  <Name>
ligand

>  <RI>
0

>  <Rbt.Current_Directory>
/home/itssahil/PROJECTS/Mol_Feturizer/New_Systems/rnas/4F8V

>  <Rbt.Executable>
rbdock ($Id: //depot/dev/client3/rdock/2013.1/src/exe/rbdock.cxx#4 $)

>  <Rbt.Library>
libRbt.so (2013.1, Build901 2013/11/27)

>  <Rbt.Parameter_File>
/export/apps/rDock/src/rDock_2013.1_src/data/scripts/dock_solv.prm

>  <Rbt.Receptor>
prm/pocket_docking_2.prm

>  <SCORE>
-14.809

>  <SCORE.INTER>
-13.4801

>  <SCORE.INTER.CONST>
1

>  <SCORE.INTER.POLAR>
0

>  <SCORE.INTER.ROT>
6

>  <SCORE.INTER.SOLV>
18.8228

>  <SCORE.INTER.VDW>
-22.861

>  <SCORE.INTER.norm>
-0.434843

>  <SCORE.INTRA>
-1.35208

>  <SCORE.INTRA.DIHEDRAL>
-5.19094

>  <SCORE.INTRA.DIHEDRAL.0>
15.9129

>  <SCORE.INTRA.POLAR>
0

>  <SCORE.INTRA.POLAR.0>
0

>  <SCORE.INTRA.REPUL>
0

>  <SCORE.INTRA.REPUL.0>
0

>  <SCORE.INTRA.SOLV>
-0.914729

>  <SCORE.INTRA.SOLV.lig_0>
-75.7056

>  <SCORE.INTRA.VDW>
1.70076

>  <SCORE.INTRA.VDW.0>
-4.61812

>  <SCORE.INTRA.norm>
-0.0436155

>  <SCORE.RESTR>
0.0232061

>  <SCORE.RESTR.CAVITY>
0.0232061

>  <SCORE.RESTR.norm>
0.000748584

>  <SCORE.SYSTEM>
0

>  <SCORE.SYSTEM.CONST>
0

>  <SCORE.SYSTEM.DIHEDRAL>
0

>  <SCORE.SYSTEM.SOLV>
0

>  <SCORE.SYSTEM.norm>
0

>  <SCORE.heavy>
31

>  <SCORE.norm>
-0.47771

>  <RMSD>
0.462

$$$$
ligand
 OpenBabel11021811493D
libRbt.so/2013.1/901 2013/11/27
 31 33  0  0  0  0  0  0  0  0999 V2000
   20.5350   -9.1240   -5.9802 C   0  0  2  0  0  0  0  0  0  0  0  0
   20.8685   -8.6964   -4.6526 O   0  0  0  0  0  0  0  0  0  0  0  0
   21.4295  -10.7324   -0.9475 C   0  0  2  0  0  0  0  0  0  0  0  0
   21.2026  -11.6309    0.1339 N   0  0  0  0  0  0  0  0  0  0  0  0
   22.5432  -13.7615   -1.6036 C   0  0  2  0  0  0  0  0  0  0  0  0
   21.2225   -8.1278   -6.9644 C   0  0  2  0  0  0  0  0  0  0  0  0
   22.6611   -8.1232   -6.7067 N   0  0  0  0  0  0  0  0  0  0  0  0
   20.2237   -9.7244   -1.0457 C   0  0  0  0  0  0  0  0  0  0  0  0
   23.9971  -14.1082   -1.1835 C   0  0  2  0  0  0  0  0  0  0  0  0
   24.4459  -13.1354   -0.2677 O   0  0  0  0  0  0  0  0  0  0  0  0
   20.6006   -6.6869   -6.8068 C   0  0  0  0  0  0  0  0  0  0  0  0
   20.4795   -8.7272   -2.2481 C   0  0  2  0  0  0  0  0  0  0  0  0
   19.3493   -7.7812   -2.3469 N   0  0  0  0  0  0  0  0  0  0  0  0
   24.8915  -14.1313   -2.4861 C   0  0  1  0  0  0  0  0  0  0  0  0
   26.3054  -14.4391   -2.1293 N   0  0  0  0  0  0  0  0  0  0  0  0
   19.0787   -6.7172   -6.4143 C   0  0  0  0  0  0  0  0  0  0  0  0
   20.6202   -9.5634   -3.5907 C   0  0  2  0  0  0  0  0  0  0  0  0
   24.3327  -15.2670   -3.5101 C   0  0  1  0  0  0  0  0  0  0  0  0
   24.3697  -16.5644   -2.9678 O   0  0  0  0  0  0  0  0  0  0  0  0
   18.4462   -7.8717   -6.1570 C   0  0  1  0  0  0  0  0  0  0  0  0
   19.1034   -9.1216   -6.2284 O   0  0  0  0  0  0  0  0  0  0  0  0
   21.8162  -10.5747   -3.4585 C   0  0  2  0  0  0  0  0  0  0  0  0
   21.9276  -11.3290   -4.6641 O   0  0  0  0  0  0  0  0  0  0  0  0
   22.8506  -14.9378   -3.8692 C   0  0  0  0  0  0  0  0  0  0  0  0
   22.0302  -14.7639   -2.6069 O   0  0  0  0  0  0  0  0  0  0  0  0
   16.9597   -7.9382   -5.7555 C   0  0  0  0  0  0  0  0  0  0  0  0
   16.8718   -8.1213   -4.3233 N   0  0  0  0  0  0  0  0  0  0  0  0
   21.5461  -11.5496   -2.2509 C   0  0  1  0  0  0  0  0  0  0  0  0
   22.6280  -12.4285   -2.1506 O   0  0  0  0  0  0  0  0  0  0  0  0
   25.1021  -15.4133   -4.8306 C   0  0  0  0  0  0  0  0  0  0  0  0
   27.1679  -13.2831   -1.8400 C   0  0  0  0  0  0  0  0  0  0  0  0
  1  2  1  1  0  0  0
  1  6  1  0  0  0  0
  1 21  1  0  0  0  0
  3  4  1  1  0  0  0
  3  8  1  0  0  0  0
  3 28  1  0  0  0  0
  5  9  1  0  0  0  0
  5 25  1  0  0  0  0
  5 29  1  6  0  0  0
  6  7  1  1  0  0  0
  6 11  1  0  0  0  0
  8 12  1  0  0  0  0
  9 10  1  1  0  0  0
  9 14  1  0  0  0  0
 11 16  1  0  0  0  0
 12 13  1  6  0  0  0
 12 17  1  0  0  0  0
 14 15  1  1  0  0  0
 14 18  1  0  0  0  0
 15 31  1  0  0  0  0
 16 20  1  0  0  0  0
 17  2  1  6  0  0  0
 17 22  1  0  0  0  0
 18 19  1  1  0  0  0
 18 24  1  0  0  0  0
 18 30  1  0  0  0  0
 20 21  1  0  0  0  0
 20 26  1  1  0  0  0
 22 23  1  6  0  0  0
 22 28  1  0  0  0  0
 24 25  1  0  0  0  0
 26 27  1  0  0  0  0
 28 29  1  1  0  0  0
M  END
>  <CHROM.1>
-166.69918257,-158.11266708,-90.48213048,-156.60652456,-101.09091231,88.41215314
21.81996709,-11.15124560,-3.54209006,-2.54478507,-0.78825630,1.89036796

>  <Name>
ligand

>  <RI>
0

>  <Rbt.Current_Directory>
/home/itssahil/PROJECTS/Mol_Feturizer/New_Systems/rnas/4F8V

>  <Rbt.Executable>
rbdock ($Id: //depot/dev/client3/rdock/2013.1/src/exe/rbdock.cxx#4 $)

>  <Rbt.Library>
libRbt.so (2013.1, Build901 2013/11/27)

>  <Rbt.Parameter_File>
/export/apps/rDock/src/rDock_2013.1_src/data/scripts/dock_solv.prm

>  <Rbt.Receptor>
prm/pocket_docking_2.prm

>  <SCORE>
-13.9738

>  <SCORE.INTER>
-13.0358

>  <SCORE.INTER.CONST>
1

>  <SCORE.INTER.POLAR>
0

>  <SCORE.INTER.ROT>
6

>  <SCORE.INTER.SOLV>
19.7166

>  <SCORE.INTER.VDW>
-22.8627

>  <SCORE.INTER.norm>
-0.42051

>  <SCORE.INTRA>
-0.937959

>  <SCORE.INTRA.DIHEDRAL>
-4.54705

>  <SCORE.INTRA.DIHEDRAL.0>
15.9129

>  <SCORE.INTRA.POLAR>
0

>  <SCORE.INTRA.POLAR.0>
0

>  <SCORE.INTRA.REPUL>
0.0183206

>  <SCORE.INTRA.REPUL.0>
0

>  <SCORE.INTRA.SOLV>
1.35225

>  <SCORE.INTRA.SOLV.lig_0>
-75.7056

>  <SCORE.INTRA.VDW>
0.567841

>  <SCORE.INTRA.VDW.0>
-4.61812

>  <SCORE.INTRA.norm>
-0.0302567

>  <SCORE.RESTR>
0

>  <SCORE.RESTR.CAVITY>
0

>  <SCORE.RESTR.norm>
0

>  <SCORE.SYSTEM>
0

>  <SCORE.SYSTEM.CONST>
0

>  <SCORE.SYSTEM.DIHEDRAL>
0

>  <SCORE.SYSTEM.SOLV>
0

>  <SCORE.SYSTEM.norm>
0

>  <SCORE.heavy>
31

>  <SCORE.norm>
-0.450767

>  <RMSD>
0.462

$$$$
ligand
 OpenBabel11021811493D
libRbt.so/2013.1/901 2013/11/27
 31 33  0  0  0  0  0  0  0  0999 V2000
   20.4823   -9.1181   -5.8801 C   0  0  2  0  0  0  0  0  0  0  0  0
   20.8100   -8.6796   -4.5547 O   0  0  0  0  0  0  0  0  0  0  0  0
   21.4503  -10.7402   -0.8760 C   0  0  2  0  0  0  0  0  0  0  0  0
   21.2423  -11.6402    0.2079 N   0  0  0  0  0  0  0  0  0  0  0  0
   22.4986  -13.7836   -1.5805 C   0  0  2  0  0  0  0  0  0  0  0  0
   21.1058   -8.0838   -6.8677 C   0  0  2  0  0  0  0  0  0  0  0  0
   22.5454   -8.0068   -6.6275 N   0  0  0  0  0  0  0  0  0  0  0  0
   20.2571   -9.7143   -0.9344 C   0  0  0  0  0  0  0  0  0  0  0  0
   23.9560  -14.1479   -1.1885 C   0  0  2  0  0  0  0  0  0  0  0  0
   24.4312  -13.1855   -0.2751 O   0  0  0  0  0  0  0  0  0  0  0  0
   20.4130   -6.6773   -6.6955 C   0  0  0  0  0  0  0  0  0  0  0  0
   20.4919   -8.7156   -2.1398 C   0  0  2  0  0  0  0  0  0  0  0  0
   19.3732   -7.7528   -2.2012 N   0  0  0  0  0  0  0  0  0  0  0  0
   24.8268  -14.1724   -2.5069 C   0  0  1  0  0  0  0  0  0  0  0  0
   26.2435  -14.4970   -2.1772 N   0  0  0  0  0  0  0  0  0  0  0  0
   18.8997   -6.7872   -6.2847 C   0  0  0  0  0  0  0  0  0  0  0  0
   20.5804   -9.5477   -3.4894 C   0  0  2  0  0  0  0  0  0  0  0  0
   24.2379  -15.2959   -3.5275 C   0  0  1  0  0  0  0  0  0  0  0  0
   24.2709  -16.5969   -2.9936 O   0  0  0  0  0  0  0  0  0  0  0  0
   18.3302   -7.9736   -6.0253 C   0  0  1  0  0  0  0  0  0  0  0  0
   19.0495   -9.1879   -6.1108 O   0  0  0  0  0  0  0  0  0  0  0  0
   21.7649  -10.5769   -3.3967 C   0  0  2  0  0  0  0  0  0  0  0  0
   21.8295  -11.3273   -4.6081 O   0  0  0  0  0  0  0  0  0  0  0  0
   22.7533  -14.9492   -3.8581 C   0  0  0  0  0  0  0  0  0  0  0  0
   21.9573  -14.7745   -2.5804 O   0  0  0  0  0  0  0  0  0  0  0  0
   16.8541   -8.1178   -5.6061 C   0  0  0  0  0  0  0  0  0  0  0  0
   16.4262   -6.8874   -4.9774 N   0  0  0  0  0  0  0  0  0  0  0  0
   21.5162  -11.5532   -2.1857 C   0  0  1  0  0  0  0  0  0  0  0  0
   22.5876  -12.4482   -2.1210 O   0  0  0  0  0  0  0  0  0  0  0  0
   24.9822  -15.4422   -4.8624 C   0  0  0  0  0  0  0  0  0  0  0  0
   27.1131  -13.3547   -1.8565 C   0  0  0  0  0  0  0  0  0  0  0  0
  1  2  1  1  0  0  0
  1  6  1  0  0  0  0
  1 21  1  0  0  0  0
  3  4  1  1  0  0  0
  3  8  1  0  0  0  0
  3 28  1  0  0  0  0
  5  9  1  0  0  0  0
  5 25  1  0  0  0  0
  5 29  1  6  0  0  0
  6  7  1  1  0  0  0
  6 11  1  0  0  0  0
  8 12  1  0  0  0  0
  9 10  1  1  0  0  0
  9 14  1  0  0  0  0
 11 16  1  0  0  0  0
 12 13  1  6  0  0  0
 12 17  1  0  0  0  0
 14 15  1  1  0  0  0
 14 18  1  0  0  0  0
 15 31  1  0  0  0  0
 16 20  1  0  0  0  0
 17  2  1  6  0  0  0
 17 22  1  0  0  0  0
 18 19  1  1  0  0  0
 18 24  1  0  0  0  0
 18 30  1  0  0  0  0
 20 21  1  0  0  0  0
 20 26  1  1  0  0  0
 22 23  1  6  0  0  0
 22 28  1  0  0  0  0
 24 25  1  0  0  0  0
 26 27  1  0  0  0  0
 28 29  1  1  0  0  0
M  END
>  <CHROM.1>
-168.67108736,-157.50440617,-88.68473241,-159.15531719,-25.65151145,88.58959868
21.74467124,-11.13132260,-3.50809411,-2.61190471,-0.82497142,1.81424557

>  <Name>
ligand

>  <RI>
0

>  <Rbt.Current_Directory>
/home/itssahil/PROJECTS/Mol_Feturizer/New_Systems/rnas/4F8V

>  <Rbt.Executable>
rbdock ($Id: //depot/dev/client3/rdock/2013.1/src/exe/rbdock.cxx#4 $)

>  <Rbt.Library>
libRbt.so (2013.1, Build901 2013/11/27)

>  <Rbt.Parameter_File>
/export/apps/rDock/src/rDock_2013.1_src/data/scripts/dock_solv.prm

>  <Rbt.Receptor>
prm/pocket_docking_2.prm

>  <SCORE>
-14.8477

>  <SCORE.INTER>
-13.6208

>  <SCORE.INTER.CONST>
1

>  <SCORE.INTER.POLAR>
0

>  <SCORE.INTER.ROT>
6

>  <SCORE.INTER.SOLV>
18.4352

>  <SCORE.INTER.VDW>
-22.8256

>  <SCORE.INTER.norm>
-0.439382

>  <SCORE.INTRA>
-1.22948

>  <SCORE.INTRA.DIHEDRAL>
-4.82195

>  <SCORE.INTRA.DIHEDRAL.0>
15.9129

>  <SCORE.INTRA.POLAR>
0

>  <SCORE.INTRA.POLAR.0>
0

>  <SCORE.INTRA.REPUL>
0

>  <SCORE.INTRA.REPUL.0>
0

>  <SCORE.INTRA.SOLV>
-0.836079

>  <SCORE.INTRA.SOLV.lig_0>
-75.7056

>  <SCORE.INTRA.VDW>
1.59954

>  <SCORE.INTRA.VDW.0>
-4.61812

>  <SCORE.INTRA.norm>
-0.0396606

>  <SCORE.RESTR>
0.00258502

>  <SCORE.RESTR.CAVITY>
0.00258502

>  <SCORE.RESTR.norm>
8.33876e-05

>  <SCORE.SYSTEM>
0

>  <SCORE.SYSTEM.CONST>
0

>  <SCORE.SYSTEM.DIHEDRAL>
0

>  <SCORE.SYSTEM.SOLV>
0

>  <SCORE.SYSTEM.norm>
0

>  <SCORE.heavy>
31

>  <SCORE.norm>
-0.478959

>  <RMSD>
0.467

$$$$
ligand
 OpenBabel11021811493D
libRbt.so/2013.1/901 2013/11/27
 31 33  0  0  0  0  0  0  0  0999 V2000
   19.8655   -9.5233   -5.5819 C   0  0  2  0  0  0  0  0  0  0  0  0
   20.6728   -9.1536   -4.4558 O   0  0  0  0  0  0  0  0  0  0  0  0
   21.5917  -10.6894   -0.5847 C   0  0  2  0  0  0  0  0  0  0  0  0
   21.4703  -11.4327    0.6239 N   0  0  0  0  0  0  0  0  0  0  0  0
   22.5478  -13.9355   -1.2755 C   0  0  2  0  0  0  0  0  0  0  0  0
   20.3828   -8.6996   -6.8015 C   0  0  2  0  0  0  0  0  0  0  0  0
   21.8036   -8.9816   -6.9960 N   0  0  0  0  0  0  0  0  0  0  0  0
   20.3854   -9.6837   -0.6983 C   0  0  0  0  0  0  0  0  0  0  0  0
   23.9993  -14.3679   -0.9342 C   0  0  2  0  0  0  0  0  0  0  0  0
   24.4945  -13.5237    0.0799 O   0  0  0  0  0  0  0  0  0  0  0  0
   20.1232   -7.1609   -6.5717 C   0  0  0  0  0  0  0  0  0  0  0  0
   20.5239   -8.8591   -2.0423 C   0  0  2  0  0  0  0  0  0  0  0  0
   19.3924   -7.9161   -2.1556 N   0  0  0  0  0  0  0  0  0  0  0  0
   24.8660  -14.2586   -2.2511 C   0  0  1  0  0  0  0  0  0  0  0  0
   26.2774  -14.6438   -1.9671 N   0  0  0  0  0  0  0  0  0  0  0  0
   18.8243   -6.8784   -5.7326 C   0  0  0  0  0  0  0  0  0  0  0  0
   20.5282   -9.8680   -3.2685 C   0  0  2  0  0  0  0  0  0  0  0  0
   24.2538  -15.2486   -3.3894 C   0  0  1  0  0  0  0  0  0  0  0  0
   24.2644  -16.6021   -3.0063 O   0  0  0  0  0  0  0  0  0  0  0  0
   18.1002   -7.8781   -5.2077 C   0  0  1  0  0  0  0  0  0  0  0  0
   18.4555   -9.2357   -5.3810 O   0  0  0  0  0  0  0  0  0  0  0  0
   21.7283  -10.8723   -3.1200 C   0  0  2  0  0  0  0  0  0  0  0  0
   21.7173  -11.7814   -4.2191 O   0  0  0  0  0  0  0  0  0  0  0  0
   22.7748  -14.8402   -3.6716 C   0  0  0  0  0  0  0  0  0  0  0  0
   21.9856  -14.7970   -2.3785 O   0  0  0  0  0  0  0  0  0  0  0  0
   16.8302   -7.6381   -4.3681 C   0  0  0  0  0  0  0  0  0  0  0  0
   15.6740   -7.9981   -5.1593 N   0  0  0  0  0  0  0  0  0  0  0  0
   21.5760  -11.6740   -1.7724 C   0  0  1  0  0  0  0  0  0  0  0  0
   22.6598  -12.5493   -1.6619 O   0  0  0  0  0  0  0  0  0  0  0  0
   24.9916  -15.2561   -4.7358 C   0  0  0  0  0  0  0  0  0  0  0  0
   27.1825  -13.5511   -1.5790 C   0  0  0  0  0  0  0  0  0  0  0  0
  1  2  1  1  0  0  0
  1  6  1  0  0  0  0
  1 21  1  0  0  0  0
  3  4  1  1  0  0  0
  3  8  1  0  0  0  0
  3 28  1  0  0  0  0
  5  9  1  0  0  0  0
  5 25  1  0  0  0  0
  5 29  1  6  0  0  0
  6  7  1  1  0  0  0
  6 11  1  0  0  0  0
  8 12  1  0  0  0  0
  9 10  1  1  0  0  0
  9 14  1  0  0  0  0
 11 16  1  0  0  0  0
 12 13  1  6  0  0  0
 12 17  1  0  0  0  0
 14 15  1  1  0  0  0
 14 18  1  0  0  0  0
 15 31  1  0  0  0  0
 16 20  1  0  0  0  0
 17  2  1  6  0  0  0
 17 22  1  0  0  0  0
 18 19  1  1  0  0  0
 18 24  1  0  0  0  0
 18 30  1  0  0  0  0
 20 21  1  0  0  0  0
 20 26  1  1  0  0  0
 22 23  1  6  0  0  0
 22 28  1  0  0  0  0
 24 25  1  0  0  0  0
 26 27  1  0  0  0  0
 28 29  1  1  0  0  0
M  END
>  <CHROM.1>
-172.14531383,-165.46786940,-91.21512457,-137.39203454,106.68137377,106.48490849
21.63771224,-11.31762987,-3.23226098,-2.77042676,-0.82545208,1.62513557

>  <Name>
ligand

>  <RI>
0

>  <Rbt.Current_Directory>
/home/itssahil/PROJECTS/Mol_Feturizer/New_Systems/rnas/4F8V

>  <Rbt.Executable>
rbdock ($Id: //depot/dev/client3/rdock/2013.1/src/exe/rbdock.cxx#4 $)

>  <Rbt.Library>
libRbt.so (2013.1, Build901 2013/11/27)

>  <Rbt.Parameter_File>
/export/apps/rDock/src/rDock_2013.1_src/data/scripts/dock_solv.prm

>  <Rbt.Receptor>
prm/pocket_docking_2.prm

>  <SCORE>
-12.9947

>  <SCORE.INTER>
-13.1308

>  <SCORE.INTER.CONST>
1

>  <SCORE.INTER.POLAR>
0

>  <SCORE.INTER.ROT>
6

>  <SCORE.INTER.SOLV>
22.25

>  <SCORE.INTER.VDW>
-23.7705

>  <SCORE.INTER.norm>
-0.423573

>  <SCORE.INTRA>
0.133978

>  <SCORE.INTRA.DIHEDRAL>
0.0625298

>  <SCORE.INTRA.DIHEDRAL.0>
15.9129

>  <SCORE.INTRA.POLAR>
0

>  <SCORE.INTRA.POLAR.0>
0

>  <SCORE.INTRA.REPUL>
0

>  <SCORE.INTRA.REPUL.0>
0

>  <SCORE.INTRA.SOLV>
-0.0407125

>  <SCORE.INTRA.SOLV.lig_0>
-75.7056

>  <SCORE.INTRA.VDW>
0.123069

>  <SCORE.INTRA.VDW.0>
-4.61812

>  <SCORE.INTRA.norm>
0.00432186

>  <SCORE.RESTR>
0.00210725

>  <SCORE.RESTR.CAVITY>
0.00210725

>  <SCORE.RESTR.norm>
6.79759e-05

>  <SCORE.SYSTEM>
0

>  <SCORE.SYSTEM.CONST>
0

>  <SCORE.SYSTEM.DIHEDRAL>
0

>  <SCORE.SYSTEM.SOLV>
0

>  <SCORE.SYSTEM.norm>
0

>  <SCORE.heavy>
31

>  <SCORE.norm>
-0.419183

>  <RMSD>
0.472

$$$$
ligand
 OpenBabel11021811493D
libRbt.so/2013.1/901 2013/11/27
 31 33  0  0  0  0  0  0  0  0999 V2000
   19.9076   -9.5329   -5.5863 C   0  0  2  0  0  0  0  0  0  0  0  0
   20.7006   -9.1540   -4.4532 O   0  0  0  0  0  0  0  0  0  0  0  0
   21.6003  -10.6827   -0.5748 C   0  0  2  0  0  0  0  0  0  0  0  0
   21.4737  -11.4251    0.6339 N   0  0  0  0  0  0  0  0  0  0  0  0
   22.5704  -13.9271   -1.2579 C   0  0  2  0  0  0  0  0  0  0  0  0
   20.4000   -8.6749   -6.7926 C   0  0  2  0  0  0  0  0  0  0  0  0
   21.8295   -8.9080   -6.9881 N   0  0  0  0  0  0  0  0  0  0  0  0
   20.3916   -9.6809   -0.6969 C   0  0  0  0  0  0  0  0  0  0  0  0
   24.0233  -14.3596   -0.9223 C   0  0  2  0  0  0  0  0  0  0  0  0
   24.5221  -13.5162    0.0908 O   0  0  0  0  0  0  0  0  0  0  0  0
   20.0903   -7.1490   -6.5407 C   0  0  0  0  0  0  0  0  0  0  0  0
   20.5359   -8.8573   -2.0410 C   0  0  2  0  0  0  0  0  0  0  0  0
   19.4022   -7.9180   -2.1623 N   0  0  0  0  0  0  0  0  0  0  0  0
   24.8850  -14.2488   -2.2423 C   0  0  1  0  0  0  0  0  0  0  0  0
   26.2975  -14.6340   -1.9638 N   0  0  0  0  0  0  0  0  0  0  0  0
   18.7816   -6.9212   -5.7004 C   0  0  0  0  0  0  0  0  0  0  0  0
   20.5509   -9.8676   -3.2660 C   0  0  2  0  0  0  0  0  0  0  0  0
   24.2689  -15.2379   -3.3793 C   0  0  1  0  0  0  0  0  0  0  0  0
   24.2811  -16.5917   -2.9975 O   0  0  0  0  0  0  0  0  0  0  0  0
   18.0893   -7.9514   -5.1918 C   0  0  1  0  0  0  0  0  0  0  0  0
   18.4887   -9.2941   -5.3843 O   0  0  0  0  0  0  0  0  0  0  0  0
   21.7531  -10.8679   -3.1090 C   0  0  2  0  0  0  0  0  0  0  0  0
   21.7517  -11.7783   -4.2071 O   0  0  0  0  0  0  0  0  0  0  0  0
   22.7888  -14.8294   -3.6556 C   0  0  0  0  0  0  0  0  0  0  0  0
   22.0044  -14.7876   -2.3596 O   0  0  0  0  0  0  0  0  0  0  0  0
   16.8108   -7.7651   -4.3515 C   0  0  0  0  0  0  0  0  0  0  0  0
   15.6618   -8.0526   -5.1819 N   0  0  0  0  0  0  0  0  0  0  0  0
   21.5950  -11.6687   -1.7615 C   0  0  1  0  0  0  0  0  0  0  0  0
   22.6807  -12.5405   -1.6434 O   0  0  0  0  0  0  0  0  0  0  0  0
   25.0018  -15.2439   -4.7284 C   0  0  0  0  0  0  0  0  0  0  0  0
   27.2191  -13.5331   -1.6433 C   0  0  0  0  0  0  0  0  0  0  0  0
  1  2  1  1  0  0  0
  1  6  1  0  0  0  0
  1 21  1  0  0  0  0
  3  4  1  1  0  0  0
  3  8  1  0  0  0  0
  3 28  1  0  0  0  0
  5  9  1  0  0  0  0
  5 25  1  0  0  0  0
  5 29  1  6  0  0  0
  6  7  1  1  0  0  0
  6 11  1  0  0  0  0
  8 12  1  0  0  0  0
  9 10  1  1  0  0  0
  9 14  1  0  0  0  0
 11 16  1  0  0  0  0
 12 13  1  6  0  0  0
 12 17  1  0  0  0  0
 14 15  1  1  0  0  0
 14 18  1  0  0  0  0
 15 31  1  0  0  0  0
 16 20  1  0  0  0  0
 17  2  1  6  0  0  0
 17 22  1  0  0  0  0
 18 19  1  1  0  0  0
 18 24  1  0  0  0  0
 18 30  1  0  0  0  0
 20 21  1  0  0  0  0
 20 26  1  1  0  0  0
 22 23  1  6  0  0  0
 22 28  1  0  0  0  0
 24 25  1  0  0  0  0
 26 27  1  0  0  0  0
 28 29  1  1  0  0  0
M  END
>  <CHROM.1>
-173.84878099,-166.11269531,-94.14675416,-137.78641859,102.36991971,106.57309700
21.65138647,-11.32093364,-3.22576592,-2.76549892,-0.81880836,1.63140376

>  <Name>
ligand

>  <RI>
0

>  <Rbt.Current_Directory>
/home/itssahil/PROJECTS/Mol_Feturizer/New_Systems/rnas/4F8V

>  <Rbt.Executable>
rbdock ($Id: //depot/dev/client3/rdock/2013.1/src/exe/rbdock.cxx#4 $)

>  <Rbt.Library>
libRbt.so (2013.1, Build901 2013/11/27)

>  <Rbt.Parameter_File>
/export/apps/rDock/src/rDock_2013.1_src/data/scripts/dock_solv.prm

>  <Rbt.Receptor>
prm/pocket_docking_2.prm

>  <SCORE>
-12.9515

>  <SCORE.INTER>
-12.9952

>  <SCORE.INTER.CONST>
1

>  <SCORE.INTER.POLAR>
0

>  <SCORE.INTER.ROT>
6

>  <SCORE.INTER.SOLV>
22.4146

>  <SCORE.INTER.VDW>
-23.735

>  <SCORE.INTER.norm>
-0.419201

>  <SCORE.INTRA>
0.0437061

>  <SCORE.INTRA.DIHEDRAL>
0.0641121

>  <SCORE.INTRA.DIHEDRAL.0>
15.9129

>  <SCORE.INTRA.POLAR>
0

>  <SCORE.INTRA.POLAR.0>
0

>  <SCORE.INTRA.REPUL>
0

>  <SCORE.INTRA.REPUL.0>
0

>  <SCORE.INTRA.SOLV>
-0.113025

>  <SCORE.INTRA.SOLV.lig_0>
-75.7056

>  <SCORE.INTRA.VDW>
0.0681624

>  <SCORE.INTRA.VDW.0>
-4.61812

>  <SCORE.INTRA.norm>
0.00140987

>  <SCORE.RESTR>
0

>  <SCORE.RESTR.CAVITY>
0

>  <SCORE.RESTR.norm>
0

>  <SCORE.SYSTEM>
0

>  <SCORE.SYSTEM.CONST>
0

>  <SCORE.SYSTEM.DIHEDRAL>
0

>  <SCORE.SYSTEM.SOLV>
0

>  <SCORE.SYSTEM.norm>
0

>  <SCORE.heavy>
31

>  <SCORE.norm>
-0.417791

>  <RMSD>
0.479

$$$$
ligand
 OpenBabel11021811493D
libRbt.so/2013.1/901 2013/11/27
 31 33  0  0  0  0  0  0  0  0999 V2000
   19.8914   -9.4901   -5.5732 C   0  0  2  0  0  0  0  0  0  0  0  0
   20.6822   -9.1028   -4.4413 O   0  0  0  0  0  0  0  0  0  0  0  0
   21.6433  -10.6729   -0.5943 C   0  0  2  0  0  0  0  0  0  0  0  0
   21.5323  -11.4226    0.6114 N   0  0  0  0  0  0  0  0  0  0  0  0
   22.5550  -13.9213   -1.3068 C   0  0  2  0  0  0  0  0  0  0  0  0
   20.3698   -8.6239   -6.7792 C   0  0  2  0  0  0  0  0  0  0  0  0
   21.8018   -8.8382   -6.9785 N   0  0  0  0  0  0  0  0  0  0  0  0
   20.4464   -9.6536   -0.6831 C   0  0  0  0  0  0  0  0  0  0  0  0
   24.0016  -14.3549   -0.9465 C   0  0  2  0  0  0  0  0  0  0  0  0
   24.4869  -13.5064    0.0688 O   0  0  0  0  0  0  0  0  0  0  0  0
   20.0411   -7.1025   -6.5240 C   0  0  0  0  0  0  0  0  0  0  0  0
   20.5734   -8.8220   -2.0240 C   0  0  2  0  0  0  0  0  0  0  0  0
   19.4507   -7.8662   -2.1141 N   0  0  0  0  0  0  0  0  0  0  0  0
   24.8836  -14.2545   -2.2539 C   0  0  1  0  0  0  0  0  0  0  0  0
   26.2908  -14.6411   -1.9516 N   0  0  0  0  0  0  0  0  0  0  0  0
   18.7316   -6.8929   -5.6803 C   0  0  0  0  0  0  0  0  0  0  0  0
   20.5479   -9.8232   -3.2563 C   0  0  2  0  0  0  0  0  0  0  0  0
   24.2824  -15.2494   -3.3939 C   0  0  1  0  0  0  0  0  0  0  0  0
   24.2856  -16.6008   -3.0035 O   0  0  0  0  0  0  0  0  0  0  0  0
   18.0539   -7.9328   -5.1717 C   0  0  1  0  0  0  0  0  0  0  0  0
   18.4700   -9.2699   -5.3674 O   0  0  0  0  0  0  0  0  0  0  0  0
   21.7391  -10.8412   -3.1325 C   0  0  2  0  0  0  0  0  0  0  0  0
   21.7014  -11.7433   -4.2369 O   0  0  0  0  0  0  0  0  0  0  0  0
   22.8076  -14.8393   -3.6953 C   0  0  0  0  0  0  0  0  0  0  0  0
   22.0037  -14.7875   -2.4116 O   0  0  0  0  0  0  0  0  0  0  0  0
   16.7751   -7.7643   -4.3281 C   0  0  0  0  0  0  0  0  0  0  0  0
   15.6248   -7.9871   -5.1764 N   0  0  0  0  0  0  0  0  0  0  0  0
   21.5987  -11.6498   -1.7877 C   0  0  1  0  0  0  0  0  0  0  0  0
   22.6744  -12.5375   -1.6993 O   0  0  0  0  0  0  0  0  0  0  0  0
   25.0356  -15.2656   -4.7316 C   0  0  0  0  0  0  0  0  0  0  0  0
   27.2250  -13.5357   -1.6887 C   0  0  0  0  0  0  0  0  0  0  0  0
  1  2  1  1  0  0  0
  1  6  1  0  0  0  0
  1 21  1  0  0  0  0
  3  4  1  1  0  0  0
  3  8  1  0  0  0  0
  3 28  1  0  0  0  0
  5  9  1  0  0  0  0
  5 25  1  0  0  0  0
  5 29  1  6  0  0  0
  6  7  1  1  0  0  0
  6 11  1  0  0  0  0
  8 12  1  0  0  0  0
  9 10  1  1  0  0  0
  9 14  1  0  0  0  0
 11 16  1  0  0  0  0
 12 13  1  6  0  0  0
 12 17  1  0  0  0  0
 14 15  1  1  0  0  0
 14 18  1  0  0  0  0
 15 31  1  0  0  0  0
 16 20  1  0  0  0  0
 17  2  1  6  0  0  0
 17 22  1  0  0  0  0
 18 19  1  1  0  0  0
 18 24  1  0  0  0  0
 18 30  1  0  0  0  0
 20 21  1  0  0  0  0
 20 26  1  1  0  0  0
 22 23  1  6  0  0  0
 22 28  1  0  0  0  0
 24 25  1  0  0  0  0
 26 27  1  0  0  0  0
 28 29  1  1  0  0  0
M  END
>  <CHROM.1>
-173.62497579,-163.43851237,-97.03630586,-139.79914330,98.99033240,105.83571149
21.64615627,-11.30155967,-3.23245498,-2.78502004,-0.82539994,1.61305897

>  <Name>
ligand

>  <RI>
0

>  <Rbt.Current_Directory>
/home/itssahil/PROJECTS/Mol_Feturizer/New_Systems/rnas/4F8V

>  <Rbt.Executable>
rbdock ($Id: //depot/dev/client3/rdock/2013.1/src/exe/rbdock.cxx#4 $)

>  <Rbt.Library>
libRbt.so (2013.1, Build901 2013/11/27)

>  <Rbt.Parameter_File>
/export/apps/rDock/src/rDock_2013.1_src/data/scripts/dock_solv.prm

>  <Rbt.Receptor>
prm/pocket_docking_2.prm

>  <SCORE>
-12.9124

>  <SCORE.INTER>
-13.0062

>  <SCORE.INTER.CONST>
1

>  <SCORE.INTER.POLAR>
0

>  <SCORE.INTER.ROT>
6

>  <SCORE.INTER.SOLV>
22.3611

>  <SCORE.INTER.VDW>
-23.7245

>  <SCORE.INTER.norm>
-0.419554

>  <SCORE.INTRA>
0.0930019

>  <SCORE.INTRA.DIHEDRAL>
0.260802

>  <SCORE.INTRA.DIHEDRAL.0>
15.9129

>  <SCORE.INTRA.POLAR>
0

>  <SCORE.INTRA.POLAR.0>
0

>  <SCORE.INTRA.REPUL>
0

>  <SCORE.INTRA.REPUL.0>
0

>  <SCORE.INTRA.SOLV>
-0.221234

>  <SCORE.INTRA.SOLV.lig_0>
-75.7056

>  <SCORE.INTRA.VDW>
0.0732178

>  <SCORE.INTRA.VDW.0>
-4.61812

>  <SCORE.INTRA.norm>
0.00300006

>  <SCORE.RESTR>
0.00076487

>  <SCORE.RESTR.CAVITY>
0.00076487

>  <SCORE.RESTR.norm>
2.46732e-05

>  <SCORE.SYSTEM>
0

>  <SCORE.SYSTEM.CONST>
0

>  <SCORE.SYSTEM.DIHEDRAL>
0

>  <SCORE.SYSTEM.SOLV>
0

>  <SCORE.SYSTEM.norm>
0

>  <SCORE.heavy>
31

>  <SCORE.norm>
-0.41653

>  <RMSD>
0.481

$$$$
ligand
 OpenBabel11021811493D
libRbt.so/2013.1/901 2013/11/27
 31 33  0  0  0  0  0  0  0  0999 V2000
   20.5699   -9.1364   -5.8924 C   0  0  2  0  0  0  0  0  0  0  0  0
   20.8284   -8.6748   -4.5596 O   0  0  0  0  0  0  0  0  0  0  0  0
   21.4580  -10.7467   -0.8855 C   0  0  2  0  0  0  0  0  0  0  0  0
   21.2451  -11.6474    0.1968 N   0  0  0  0  0  0  0  0  0  0  0  0
   22.4847  -13.7978   -1.6036 C   0  0  2  0  0  0  0  0  0  0  0  0
   21.2456   -8.1201   -6.8641 C   0  0  2  0  0  0  0  0  0  0  0  0
   22.6708   -8.0396   -6.5503 N   0  0  0  0  0  0  0  0  0  0  0  0
   20.2714   -9.7131   -0.9410 C   0  0  0  0  0  0  0  0  0  0  0  0
   23.9348  -14.1648   -1.1875 C   0  0  2  0  0  0  0  0  0  0  0  0
   24.3936  -13.2078   -0.2601 O   0  0  0  0  0  0  0  0  0  0  0  0
   20.5469   -6.7104   -6.7532 C   0  0  0  0  0  0  0  0  0  0  0  0
   20.5117   -8.7135   -2.1446 C   0  0  2  0  0  0  0  0  0  0  0  0
   19.3991   -7.7435   -2.2033 N   0  0  0  0  0  0  0  0  0  0  0  0
   24.8292  -14.1819   -2.4902 C   0  0  1  0  0  0  0  0  0  0  0  0
   26.2397  -14.5088   -2.1370 N   0  0  0  0  0  0  0  0  0  0  0  0
   19.0140   -6.8121   -6.4203 C   0  0  0  0  0  0  0  0  0  0  0  0
   20.5940   -9.5435   -3.4959 C   0  0  2  0  0  0  0  0  0  0  0  0
   24.2585  -15.2994   -3.5277 C   0  0  1  0  0  0  0  0  0  0  0  0
   24.2817  -16.6035   -3.0009 O   0  0  0  0  0  0  0  0  0  0  0  0
   18.4300   -7.9935   -6.1702 C   0  0  1  0  0  0  0  0  0  0  0  0
   19.1510   -9.2095   -6.1965 O   0  0  0  0  0  0  0  0  0  0  0  0
   21.7720  -10.5804   -3.4061 C   0  0  2  0  0  0  0  0  0  0  0  0
   21.8310  -11.3288   -4.6190 O   0  0  0  0  0  0  0  0  0  0  0  0
   22.7801  -14.9503   -3.8830 C   0  0  0  0  0  0  0  0  0  0  0  0
   21.9613  -14.7828   -2.6188 O   0  0  0  0  0  0  0  0  0  0  0  0
   16.9338   -8.1295   -5.8263 C   0  0  0  0  0  0  0  0  0  0  0  0
   16.7809   -8.0902   -4.3885 N   0  0  0  0  0  0  0  0  0  0  0  0
   21.5180  -11.5575   -2.1968 C   0  0  1  0  0  0  0  0  0  0  0  0
   22.5837  -12.4594   -2.1347 O   0  0  0  0  0  0  0  0  0  0  0  0
   25.0267  -15.4380   -4.8498 C   0  0  0  0  0  0  0  0  0  0  0  0
   27.1244  -13.3637   -1.8727 C   0  0  0  0  0  0  0  0  0  0  0  0
  1  2  1  1  0  0  0
  1  6  1  0  0  0  0
  1 21  1  0  0  0  0
  3  4  1  1  0  0  0
  3  8  1  0  0  0  0
  3 28  1  0  0  0  0
  5  9  1  0  0  0  0
  5 25  1  0  0  0  0
  5 29  1  6  0  0  0
  6  7  1  1  0  0  0
  6 11  1  0  0  0  0
  8 12  1  0  0  0  0
  9 10  1  1  0  0  0
  9 14  1  0  0  0  0
 11 16  1  0  0  0  0
 12 13  1  6  0  0  0
 12 17  1  0  0  0  0
 14 15  1  1  0  0  0
 14 18  1  0  0  0  0
 15 31  1  0  0  0  0
 16 20  1  0  0  0  0
 17  2  1  6  0  0  0
 17 22  1  0  0  0  0
 18 19  1  1  0  0  0
 18 24  1  0  0  0  0
 18 30  1  0  0  0  0
 20 21  1  0  0  0  0
 20 26  1  1  0  0  0
 22 23  1  6  0  0  0
 22 28  1  0  0  0  0
 24 25  1  0  0  0  0
 26 27  1  0  0  0  0
 28 29  1  1  0  0  0
M  END
>  <CHROM.1>
-166.06610621,-156.60117852,-92.22394855,-162.71811056,-92.37564220,88.95195432
21.78887023,-11.17979153,-3.51159235,-2.57802400,-0.81381422,1.84739100

>  <Name>
ligand

>  <RI>
0

>  <Rbt.Current_Directory>
/home/itssahil/PROJECTS/Mol_Feturizer/New_Systems/rnas/4F8V

>  <Rbt.Executable>
rbdock ($Id: //depot/dev/client3/rdock/2013.1/src/exe/rbdock.cxx#4 $)

>  <Rbt.Library>
libRbt.so (2013.1, Build901 2013/11/27)

>  <Rbt.Parameter_File>
/export/apps/rDock/src/rDock_2013.1_src/data/scripts/dock_solv.prm

>  <Rbt.Receptor>
prm/pocket_docking_2.prm

>  <SCORE>
-14.3664

>  <SCORE.INTER>
-13.1439

>  <SCORE.INTER.CONST>
1

>  <SCORE.INTER.POLAR>
0

>  <SCORE.INTER.ROT>
6

>  <SCORE.INTER.SOLV>
20.3202

>  <SCORE.INTER.VDW>
-23.136

>  <SCORE.INTER.norm>
-0.423996

>  <SCORE.INTRA>
-1.226

>  <SCORE.INTRA.DIHEDRAL>
-4.64467

>  <SCORE.INTRA.DIHEDRAL.0>
15.9129

>  <SCORE.INTRA.POLAR>
0

>  <SCORE.INTRA.POLAR.0>
0

>  <SCORE.INTRA.REPUL>
0.00954851

>  <SCORE.INTRA.REPUL.0>
0

>  <SCORE.INTRA.SOLV>
0.430971

>  <SCORE.INTRA.SOLV.lig_0>
-75.7056

>  <SCORE.INTRA.VDW>
0.833108

>  <SCORE.INTRA.VDW.0>
-4.61812

>  <SCORE.INTRA.norm>
-0.0395484

>  <SCORE.RESTR>
0.00345455

>  <SCORE.RESTR.CAVITY>
0.00345455

>  <SCORE.RESTR.norm>
0.000111437

>  <SCORE.SYSTEM>
0

>  <SCORE.SYSTEM.CONST>
0

>  <SCORE.SYSTEM.DIHEDRAL>
0

>  <SCORE.SYSTEM.SOLV>
0

>  <SCORE.SYSTEM.norm>
0

>  <SCORE.heavy>
31

>  <SCORE.norm>
-0.463433

>  <RMSD>
0.482

$$$$
ligand
 OpenBabel11021811493D
libRbt.so/2013.1/901 2013/11/27
 31 33  0  0  0  0  0  0  0  0999 V2000
   19.8570   -9.5174   -5.5540 C   0  0  2  0  0  0  0  0  0  0  0  0
   20.6636   -9.1337   -4.4321 O   0  0  0  0  0  0  0  0  0  0  0  0
   21.6394  -10.6774   -0.5781 C   0  0  2  0  0  0  0  0  0  0  0  0
   21.5344  -11.4212    0.6317 N   0  0  0  0  0  0  0  0  0  0  0  0
   22.5688  -13.9252   -1.2785 C   0  0  2  0  0  0  0  0  0  0  0  0
   20.3581   -8.6898   -6.7778 C   0  0  2  0  0  0  0  0  0  0  0  0
   21.7819   -8.9527   -6.9773 N   0  0  0  0  0  0  0  0  0  0  0  0
   20.4363   -9.6656   -0.6707 C   0  0  0  0  0  0  0  0  0  0  0  0
   24.0214  -14.3562   -0.9401 C   0  0  2  0  0  0  0  0  0  0  0  0
   24.5211  -13.5056    0.0665 O   0  0  0  0  0  0  0  0  0  0  0  0
   20.0781   -7.1542   -6.5508 C   0  0  0  0  0  0  0  0  0  0  0  0
   20.5565   -8.8405   -2.0162 C   0  0  2  0  0  0  0  0  0  0  0  0
   19.4280   -7.8919   -2.1098 N   0  0  0  0  0  0  0  0  0  0  0  0
   24.8829  -14.2561   -2.2611 C   0  0  1  0  0  0  0  0  0  0  0  0
   26.2952  -14.6402   -1.9801 N   0  0  0  0  0  0  0  0  0  0  0  0
   18.7788   -6.8876   -5.7073 C   0  0  0  0  0  0  0  0  0  0  0  0
   20.5353   -9.8484   -3.2431 C   0  0  2  0  0  0  0  0  0  0  0  0
   24.2656  -15.2533   -3.3904 C   0  0  1  0  0  0  0  0  0  0  0  0
   24.2770  -16.6042   -2.9984 O   0  0  0  0  0  0  0  0  0  0  0  0
   18.0707   -7.8958   -5.1769 C   0  0  1  0  0  0  0  0  0  0  0  0
   18.4440   -9.2488   -5.3482 O   0  0  0  0  0  0  0  0  0  0  0  0
   21.7327  -10.8587   -3.1155 C   0  0  2  0  0  0  0  0  0  0  0  0
   21.6988  -11.7669   -4.2149 O   0  0  0  0  0  0  0  0  0  0  0  0
   22.7858  -14.8458   -3.6694 C   0  0  0  0  0  0  0  0  0  0  0  0
   22.0018  -14.7936   -2.3735 O   0  0  0  0  0  0  0  0  0  0  0  0
   16.8008   -7.6712   -4.3329 C   0  0  0  0  0  0  0  0  0  0  0  0
   15.6434   -7.9959   -5.1374 N   0  0  0  0  0  0  0  0  0  0  0  0
   21.5989  -11.6609   -1.7662 C   0  0  1  0  0  0  0  0  0  0  0  0
   22.6800  -12.5417   -1.6745 O   0  0  0  0  0  0  0  0  0  0  0  0
   24.9982  -15.2701   -4.7396 C   0  0  0  0  0  0  0  0  0  0  0  0
   27.2064  -13.5432   -1.6195 C   0  0  0  0  0  0  0  0  0  0  0  0
  1  2  1  1  0  0  0
  1  6  1  0  0  0  0
  1 21  1  0  0  0  0
  3  4  1  1  0  0  0
  3  8  1  0  0  0  0
  3 28  1  0  0  0  0
  5  9  1  0  0  0  0
  5 25  1  0  0  0  0
  5 29  1  6  0  0  0
  6  7  1  1  0  0  0
  6 11  1  0  0  0  0
  8 12  1  0  0  0  0
  9 10  1  1  0  0  0
  9 14  1  0  0  0  0
 11 16  1  0  0  0  0
 12 13  1  6  0  0  0
 12 17  1  0  0  0  0
 14 15  1  1  0  0  0
 14 18  1  0  0  0  0
 15 31  1  0  0  0  0
 16 20  1  0  0  0  0
 17  2  1  6  0  0  0
 17 22  1  0  0  0  0
 18 19  1  1  0  0  0
 18 24  1  0  0  0  0
 18 30  1  0  0  0  0
 20 21  1  0  0  0  0
 20 26  1  1  0  0  0
 22 23  1  6  0  0  0
 22 28  1  0  0  0  0
 24 25  1  0  0  0  0
 26 27  1  0  0  0  0
 28 29  1  1  0  0  0
M  END
>  <CHROM.1>
-172.03529262,-164.41482884,-91.96511314,-138.75602333,104.31498920,106.03920143
21.64397200,-11.31174491,-3.22197076,-2.79115862,-0.82765142,1.60320524

>  <Name>
ligand

>  <RI>
0

>  <Rbt.Current_Directory>
/home/itssahil/PROJECTS/Mol_Feturizer/New_Systems/rnas/4F8V

>  <Rbt.Executable>
rbdock ($Id: //depot/dev/client3/rdock/2013.1/src/exe/rbdock.cxx#4 $)

>  <Rbt.Library>
libRbt.so (2013.1, Build901 2013/11/27)

>  <Rbt.Parameter_File>
/export/apps/rDock/src/rDock_2013.1_src/data/scripts/dock_solv.prm

>  <Rbt.Receptor>
prm/pocket_docking_2.prm

>  <SCORE>
-13.0008

>  <SCORE.INTER>
-13.1117

>  <SCORE.INTER.CONST>
1

>  <SCORE.INTER.POLAR>
0

>  <SCORE.INTER.ROT>
6

>  <SCORE.INTER.SOLV>
22.2057

>  <SCORE.INTER.VDW>
-23.7431

>  <SCORE.INTER.norm>
-0.422959

>  <SCORE.INTRA>
0.105277

>  <SCORE.INTRA.DIHEDRAL>
0.052888

>  <SCORE.INTRA.DIHEDRAL.0>
15.9129

>  <SCORE.INTRA.POLAR>
0

>  <SCORE.INTRA.POLAR.0>
0

>  <SCORE.INTRA.REPUL>
0

>  <SCORE.INTRA.REPUL.0>
0

>  <SCORE.INTRA.SOLV>
-0.130681

>  <SCORE.INTRA.SOLV.lig_0>
-75.7056

>  <SCORE.INTRA.VDW>
0.144174

>  <SCORE.INTRA.VDW.0>
-4.61812

>  <SCORE.INTRA.norm>
0.00339604

>  <SCORE.RESTR>
0.00562836

>  <SCORE.RESTR.CAVITY>
0.00562836

>  <SCORE.RESTR.norm>
0.00018156

>  <SCORE.SYSTEM>
0

>  <SCORE.SYSTEM.CONST>
0

>  <SCORE.SYSTEM.DIHEDRAL>
0

>  <SCORE.SYSTEM.SOLV>
0

>  <SCORE.SYSTEM.norm>
0

>  <SCORE.heavy>
31

>  <SCORE.norm>
-0.419382

>  <RMSD>
0.490

$$$$
ligand
 OpenBabel11021811493D
libRbt.so/2013.1/901 2013/11/27
 31 33  0  0  0  0  0  0  0  0999 V2000
   20.7368   -9.1952   -5.9439 C   0  0  2  0  0  0  0  0  0  0  0  0
   21.0382   -8.7656   -4.6093 O   0  0  0  0  0  0  0  0  0  0  0  0
   21.5122  -10.7819   -0.8812 C   0  0  2  0  0  0  0  0  0  0  0  0
   21.2649  -11.6807    0.1953 N   0  0  0  0  0  0  0  0  0  0  0  0
   22.6886  -13.8062   -1.5205 C   0  0  2  0  0  0  0  0  0  0  0  0
   21.3897   -8.1608   -6.9122 C   0  0  2  0  0  0  0  0  0  0  0  0
   22.8241   -8.0957   -6.6397 N   0  0  0  0  0  0  0  0  0  0  0  0
   20.2945   -9.7933   -1.0213 C   0  0  0  0  0  0  0  0  0  0  0  0
   24.1474  -14.1759   -1.1389 C   0  0  2  0  0  0  0  0  0  0  0  0
   24.6248  -13.2280   -0.2116 O   0  0  0  0  0  0  0  0  0  0  0  0
   20.7036   -6.7500   -6.7483 C   0  0  0  0  0  0  0  0  0  0  0  0
   20.5730   -8.7957   -2.2183 C   0  0  2  0  0  0  0  0  0  0  0  0
   19.4317   -7.8680   -2.3564 N   0  0  0  0  0  0  0  0  0  0  0  0
   25.0141  -14.1786   -2.4603 C   0  0  1  0  0  0  0  0  0  0  0  0
   26.4320  -14.5075   -2.1403 N   0  0  0  0  0  0  0  0  0  0  0  0
   19.1808   -6.8505   -6.3717 C   0  0  0  0  0  0  0  0  0  0  0  0
   20.7696   -9.6334   -3.5529 C   0  0  2  0  0  0  0  0  0  0  0  0
   24.4227  -15.2859   -3.4970 C   0  0  1  0  0  0  0  0  0  0  0  0
   24.4582  -16.5953   -2.9843 O   0  0  0  0  0  0  0  0  0  0  0  0
   18.5970   -8.0338   -6.1310 C   0  0  1  0  0  0  0  0  0  0  0  0
   19.3090   -9.2531   -6.2067 O   0  0  0  0  0  0  0  0  0  0  0  0
   21.9766  -10.6253   -3.3791 C   0  0  2  0  0  0  0  0  0  0  0  0
   22.1383  -11.3812   -4.5780 O   0  0  0  0  0  0  0  0  0  0  0  0
   22.9368  -14.9348   -3.8174 C   0  0  0  0  0  0  0  0  0  0  0  0
   22.1447  -14.7812   -2.5346 O   0  0  0  0  0  0  0  0  0  0  0  0
   17.1109   -8.1690   -5.7454 C   0  0  0  0  0  0  0  0  0  0  0  0
   16.7342   -7.0304   -4.9367 N   0  0  0  0  0  0  0  0  0  0  0  0
   21.6832  -11.6009   -2.1775 C   0  0  1  0  0  0  0  0  0  0  0  0
   22.7751  -12.4622   -2.0397 O   0  0  0  0  0  0  0  0  0  0  0  0
   25.1630  -15.4101   -4.8363 C   0  0  0  0  0  0  0  0  0  0  0  0
   27.2938  -13.3737   -1.7719 C   0  0  0  0  0  0  0  0  0  0  0  0
  1  2  1  1  0  0  0
  1  6  1  0  0  0  0
  1 21  1  0  0  0  0
  3  4  1  1  0  0  0
  3  8  1  0  0  0  0
  3 28  1  0  0  0  0
  5  9  1  0  0  0  0
  5 25  1  0  0  0  0
  5 29  1  6  0  0  0
  6  7  1  1  0  0  0
  6 11  1  0  0  0  0
  8 12  1  0  0  0  0
  9 10  1  1  0  0  0
  9 14  1  0  0  0  0
 11 16  1  0  0  0  0
 12 13  1  6  0  0  0
 12 17  1  0  0  0  0
 14 15  1  1  0  0  0
 14 18  1  0  0  0  0
 15 31  1  0  0  0  0
 16 20  1  0  0  0  0
 17  2  1  6  0  0  0
 17 22  1  0  0  0  0
 18 19  1  1  0  0  0
 18 24  1  0  0  0  0
 18 30  1  0  0  0  0
 20 21  1  0  0  0  0
 20 26  1  1  0  0  0
 22 23  1  6  0  0  0
 22 28  1  0  0  0  0
 24 25  1  0  0  0  0
 26 27  1  0  0  0  0
 28 29  1  1  0  0  0
M  END
>  <CHROM.1>
-169.12814089,-162.41442682,-87.24582107,-155.75309504,-34.55869190,89.94224625
21.94205715,-11.17828012,-3.51958833,-2.55238045,-0.79490493,1.87479233

>  <Name>
ligand

>  <RI>
0

>  <Rbt.Current_Directory>
/home/itssahil/PROJECTS/Mol_Feturizer/New_Systems/rnas/4F8V

>  <Rbt.Executable>
rbdock ($Id: //depot/dev/client3/rdock/2013.1/src/exe/rbdock.cxx#4 $)

>  <Rbt.Library>
libRbt.so (2013.1, Build901 2013/11/27)

>  <Rbt.Parameter_File>
/export/apps/rDock/src/rDock_2013.1_src/data/scripts/dock_solv.prm

>  <Rbt.Receptor>
prm/pocket_docking_2.prm

>  <SCORE>
-14.6266

>  <SCORE.INTER>
-13.5473

>  <SCORE.INTER.CONST>
1

>  <SCORE.INTER.POLAR>
0

>  <SCORE.INTER.ROT>
6

>  <SCORE.INTER.SOLV>
17.1461

>  <SCORE.INTER.VDW>
-22.3469

>  <SCORE.INTER.norm>
-0.437009

>  <SCORE.INTRA>
-1.08864

>  <SCORE.INTRA.DIHEDRAL>
-4.42411

>  <SCORE.INTRA.DIHEDRAL.0>
15.9129

>  <SCORE.INTRA.POLAR>
0

>  <SCORE.INTRA.POLAR.0>
0

>  <SCORE.INTRA.REPUL>
0

>  <SCORE.INTRA.REPUL.0>
0

>  <SCORE.INTRA.SOLV>
-0.362274

>  <SCORE.INTRA.SOLV.lig_0>
-75.7056

>  <SCORE.INTRA.VDW>
1.30455

>  <SCORE.INTRA.VDW.0>
-4.61812

>  <SCORE.INTRA.norm>
-0.0351174

>  <SCORE.RESTR>
0.00928913

>  <SCORE.RESTR.CAVITY>
0.00928913

>  <SCORE.RESTR.norm>
0.000299649

>  <SCORE.SYSTEM>
0

>  <SCORE.SYSTEM.CONST>
0

>  <SCORE.SYSTEM.DIHEDRAL>
0

>  <SCORE.SYSTEM.SOLV>
0

>  <SCORE.SYSTEM.norm>
0

>  <SCORE.heavy>
31

>  <SCORE.norm>
-0.471827

>  <RMSD>
0.504

$$$$
ligand
 OpenBabel11021811493D
libRbt.so/2013.1/901 2013/11/27
 31 33  0  0  0  0  0  0  0  0999 V2000
   19.9089   -9.4365   -5.5261 C   0  0  2  0  0  0  0  0  0  0  0  0
   20.7018   -9.0667   -4.3898 O   0  0  0  0  0  0  0  0  0  0  0  0
   21.6505  -10.6768   -0.5563 C   0  0  2  0  0  0  0  0  0  0  0  0
   21.5363  -11.4402    0.6404 N   0  0  0  0  0  0  0  0  0  0  0  0
   22.5789  -13.9076   -1.2762 C   0  0  2  0  0  0  0  0  0  0  0  0
   20.3690   -8.5355   -6.7136 C   0  0  2  0  0  0  0  0  0  0  0  0
   21.8023   -8.7267   -6.9264 N   0  0  0  0  0  0  0  0  0  0  0  0
   20.4508   -9.6601   -0.6392 C   0  0  0  0  0  0  0  0  0  0  0  0
   24.0319  -14.3418   -0.9437 C   0  0  2  0  0  0  0  0  0  0  0  0
   24.5392  -13.4894    0.0576 O   0  0  0  0  0  0  0  0  0  0  0  0
   20.0229   -7.0250   -6.4198 C   0  0  0  0  0  0  0  0  0  0  0  0
   20.5813   -8.8132   -1.9701 C   0  0  2  0  0  0  0  0  0  0  0  0
   19.4560   -7.8598   -2.0545 N   0  0  0  0  0  0  0  0  0  0  0  0
   24.8870  -14.2487   -2.2693 C   0  0  1  0  0  0  0  0  0  0  0  0
   26.2996  -14.6361   -1.9941 N   0  0  0  0  0  0  0  0  0  0  0  0
   18.7160   -6.8524   -5.5635 C   0  0  0  0  0  0  0  0  0  0  0  0
   20.5644   -9.8006   -3.2136 C   0  0  2  0  0  0  0  0  0  0  0  0
   24.2611  -15.2477   -3.3922 C   0  0  1  0  0  0  0  0  0  0  0  0
   24.2704  -16.5974   -2.9958 O   0  0  0  0  0  0  0  0  0  0  0  0
   18.0546   -7.9128   -5.0763 C   0  0  1  0  0  0  0  0  0  0  0  0
   18.4862   -9.2394   -5.3067 O   0  0  0  0  0  0  0  0  0  0  0  0
   21.7582  -10.8164   -3.0957 C   0  0  2  0  0  0  0  0  0  0  0  0
   21.7282  -11.7061   -4.2103 O   0  0  0  0  0  0  0  0  0  0  0  0
   22.7811  -14.8367   -3.6651 C   0  0  0  0  0  0  0  0  0  0  0  0
   22.0038  -14.7779   -2.3655 O   0  0  0  0  0  0  0  0  0  0  0  0
   16.7790   -7.7809   -4.2214 C   0  0  0  0  0  0  0  0  0  0  0  0
   15.6260   -7.9846   -5.0707 N   0  0  0  0  0  0  0  0  0  0  0  0
   21.6142  -11.6403   -1.7608 C   0  0  1  0  0  0  0  0  0  0  0  0
   22.6922  -12.5257   -1.6774 O   0  0  0  0  0  0  0  0  0  0  0  0
   24.9868  -15.2712   -4.7450 C   0  0  0  0  0  0  0  0  0  0  0  0
   27.2232  -13.5368   -1.6743 C   0  0  0  0  0  0  0  0  0  0  0  0
  1  2  1  1  0  0  0
  1  6  1  0  0  0  0
  1 21  1  0  0  0  0
  3  4  1  1  0  0  0
  3  8  1  0  0  0  0
  3 28  1  0  0  0  0
  5  9  1  0  0  0  0
  5 25  1  0  0  0  0
  5 29  1  6  0  0  0
  6  7  1  1  0  0  0
  6 11  1  0  0  0  0
  8 12  1  0  0  0  0
  9 10  1  1  0  0  0
  9 14  1  0  0  0  0
 11 16  1  0  0  0  0
 12 13  1  6  0  0  0
 12 17  1  0  0  0  0
 14 15  1  1  0  0  0
 14 18  1  0  0  0  0
 15 31  1  0  0  0  0
 16 20  1  0  0  0  0
 17  2  1  6  0  0  0
 17 22  1  0  0  0  0
 18 19  1  1  0  0  0
 18 24  1  0  0  0  0
 18 30  1  0  0  0  0
 20 21  1  0  0  0  0
 20 26  1  1  0  0  0
 22 23  1  6  0  0  0
 22 28  1  0  0  0  0
 24 25  1  0  0  0  0
 26 27  1  0  0  0  0
 28 29  1  1  0  0  0
M  END
>  <CHROM.1>
-174.87943516,-164.11395239,-93.42214238,-139.27535107,98.42529846,104.59643113
21.65130135,-11.28222728,-3.19289073,-2.78682613,-0.82649103,1.62253898

>  <Name>
ligand

>  <RI>
0

>  <Rbt.Current_Directory>
/home/itssahil/PROJECTS/Mol_Feturizer/New_Systems/rnas/4F8V

>  <Rbt.Executable>
rbdock ($Id: //depot/dev/client3/rdock/2013.1/src/exe/rbdock.cxx#4 $)

>  <Rbt.Library>
libRbt.so (2013.1, Build901 2013/11/27)

>  <Rbt.Parameter_File>
/export/apps/rDock/src/rDock_2013.1_src/data/scripts/dock_solv.prm

>  <Rbt.Receptor>
prm/pocket_docking_2.prm

>  <SCORE>
-12.9249

>  <SCORE.INTER>
-12.9274

>  <SCORE.INTER.CONST>
1

>  <SCORE.INTER.POLAR>
0

>  <SCORE.INTER.ROT>
6

>  <SCORE.INTER.SOLV>
22.1282

>  <SCORE.INTER.VDW>
-23.5943

>  <SCORE.INTER.norm>
-0.417013

>  <SCORE.INTRA>
0.00133839

>  <SCORE.INTRA.DIHEDRAL>
-0.0674119

>  <SCORE.INTRA.DIHEDRAL.0>
15.9129

>  <SCORE.INTRA.POLAR>
0

>  <SCORE.INTRA.POLAR.0>
0

>  <SCORE.INTRA.REPUL>
0

>  <SCORE.INTRA.REPUL.0>
0

>  <SCORE.INTRA.SOLV>
-0.1878

>  <SCORE.INTRA.SOLV.lig_0>
-75.7056

>  <SCORE.INTRA.VDW>
0.128944

>  <SCORE.INTRA.VDW.0>
-4.61812

>  <SCORE.INTRA.norm>
4.31739e-05

>  <SCORE.RESTR>
0.00110733

>  <SCORE.RESTR.CAVITY>
0.00110733

>  <SCORE.RESTR.norm>
3.57202e-05

>  <SCORE.SYSTEM>
0

>  <SCORE.SYSTEM.CONST>
0

>  <SCORE.SYSTEM.DIHEDRAL>
0

>  <SCORE.SYSTEM.SOLV>
0

>  <SCORE.SYSTEM.norm>
0

>  <SCORE.heavy>
31

>  <SCORE.norm>
-0.416934

>  <RMSD>
0.505

$$$$
ligand
 OpenBabel11021811493D
libRbt.so/2013.1/901 2013/11/27
 31 33  0  0  0  0  0  0  0  0999 V2000
   19.9377   -9.4459   -5.7250 C   0  0  2  0  0  0  0  0  0  0  0  0
   20.7462   -9.1470   -4.5790 O   0  0  0  0  0  0  0  0  0  0  0  0
   21.6609  -10.9429   -0.8205 C   0  0  2  0  0  0  0  0  0  0  0  0
   21.5274  -11.7499    0.3453 N   0  0  0  0  0  0  0  0  0  0  0  0
   22.5364  -14.0885   -1.4217 C   0  0  2  0  0  0  0  0  0  0  0  0
   20.4046   -8.4955   -6.8707 C   0  0  2  0  0  0  0  0  0  0  0  0
   21.8324   -8.7015   -7.1054 N   0  0  0  0  0  0  0  0  0  0  0  0
   20.4969   -9.8830   -0.8536 C   0  0  0  0  0  0  0  0  0  0  0  0
   23.9786  -14.4082   -0.9438 C   0  0  2  0  0  0  0  0  0  0  0  0
   24.3950  -13.3944   -0.0577 O   0  0  0  0  0  0  0  0  0  0  0  0
   20.0885   -6.9955   -6.4995 C   0  0  0  0  0  0  0  0  0  0  0  0
   20.6488   -8.9878   -2.1502 C   0  0  2  0  0  0  0  0  0  0  0  0
   19.5569   -7.9936   -2.1879 N   0  0  0  0  0  0  0  0  0  0  0  0
   24.9118  -14.4819   -2.2170 C   0  0  1  0  0  0  0  0  0  0  0  0
   26.3158  -14.7656   -1.8052 N   0  0  0  0  0  0  0  0  0  0  0  0
   18.7919   -6.8423   -5.6242 C   0  0  0  0  0  0  0  0  0  0  0  0
   20.5904   -9.9228   -3.4324 C   0  0  2  0  0  0  0  0  0  0  0  0
   24.3893  -15.6637   -3.2074 C   0  0  1  0  0  0  0  0  0  0  0  0
   24.4160  -16.9364   -2.6089 O   0  0  0  0  0  0  0  0  0  0  0  0
   18.1151   -7.9135   -5.1840 C   0  0  1  0  0  0  0  0  0  0  0  0
   18.5206   -9.2345   -5.4835 O   0  0  0  0  0  0  0  0  0  0  0  0
   21.7488  -10.9831   -3.3642 C   0  0  2  0  0  0  0  0  0  0  0  0
   21.6814  -11.8253   -4.5135 O   0  0  0  0  0  0  0  0  0  0  0  0
   22.9172  -15.3590   -3.6244 C   0  0  0  0  0  0  0  0  0  0  0  0
   22.0584  -15.1361   -2.3958 O   0  0  0  0  0  0  0  0  0  0  0  0
   16.8490   -7.8014   -4.3123 C   0  0  0  0  0  0  0  0  0  0  0  0
   15.6879   -8.0163   -5.1477 N   0  0  0  0  0  0  0  0  0  0  0  0
   21.5842  -11.8551   -2.0625 C   0  0  1  0  0  0  0  0  0  0  0  0
   22.6313  -12.7797   -2.0228 O   0  0  0  0  0  0  0  0  0  0  0  0
   25.1988  -15.8619   -4.4968 C   0  0  0  0  0  0  0  0  0  0  0  0
   27.1774  -13.5935   -1.5871 C   0  0  0  0  0  0  0  0  0  0  0  0
  1  2  1  1  0  0  0
  1  6  1  0  0  0  0
  1 21  1  0  0  0  0
  3  4  1  1  0  0  0
  3  8  1  0  0  0  0
  3 28  1  0  0  0  0
  5  9  1  0  0  0  0
  5 25  1  0  0  0  0
  5 29  1  6  0  0  0
  6  7  1  1  0  0  0
  6 11  1  0  0  0  0
  8 12  1  0  0  0  0
  9 10  1  1  0  0  0
  9 14  1  0  0  0  0
 11 16  1  0  0  0  0
 12 13  1  6  0  0  0
 12 17  1  0  0  0  0
 14 15  1  1  0  0  0
 14 18  1  0  0  0  0
 15 31  1  0  0  0  0
 16 20  1  0  0  0  0
 17  2  1  6  0  0  0
 17 22  1  0  0  0  0
 18 19  1  1  0  0  0
 18 24  1  0  0  0  0
 18 30  1  0  0  0  0
 20 21  1  0  0  0  0
 20 26  1  1  0  0  0
 22 23  1  6  0  0  0
 22 28  1  0  0  0  0
 24 25  1  0  0  0  0
 26 27  1  0  0  0  0
 28 29  1  1  0  0  0
M  END
>  <CHROM.1>
-175.84403867,-150.82574505,-92.59490087,-139.49115240,101.57608273,91.31551526
21.68407497,-11.43767771,-3.28671337,-2.73213850,-0.83804604,1.67726696

>  <Name>
ligand

>  <RI>
0

>  <Rbt.Current_Directory>
/home/itssahil/PROJECTS/Mol_Feturizer/New_Systems/rnas/4F8V

>  <Rbt.Executable>
rbdock ($Id: //depot/dev/client3/rdock/2013.1/src/exe/rbdock.cxx#4 $)

>  <Rbt.Library>
libRbt.so (2013.1, Build901 2013/11/27)

>  <Rbt.Parameter_File>
/export/apps/rDock/src/rDock_2013.1_src/data/scripts/dock_solv.prm

>  <Rbt.Receptor>
prm/pocket_docking_5.prm

>  <SCORE>
-14.7143

>  <SCORE.INTER>
-15.0081

>  <SCORE.INTER.CONST>
1

>  <SCORE.INTER.POLAR>
0

>  <SCORE.INTER.ROT>
6

>  <SCORE.INTER.SOLV>
23.2025

>  <SCORE.INTER.VDW>
-25.3396

>  <SCORE.INTER.norm>
-0.484132

>  <SCORE.INTRA>
0.293818

>  <SCORE.INTRA.DIHEDRAL>
-0.280656

>  <SCORE.INTRA.DIHEDRAL.0>
15.9129

>  <SCORE.INTRA.POLAR>
0

>  <SCORE.INTRA.POLAR.0>
0

>  <SCORE.INTRA.REPUL>
0

>  <SCORE.INTRA.REPUL.0>
0

>  <SCORE.INTRA.SOLV>
0.23831

>  <SCORE.INTRA.SOLV.lig_0>
-75.7056

>  <SCORE.INTRA.VDW>
0.314991

>  <SCORE.INTRA.VDW.0>
-4.61812

>  <SCORE.INTRA.norm>
0.00947799

>  <SCORE.RESTR>
0

>  <SCORE.RESTR.CAVITY>
0

>  <SCORE.RESTR.norm>
0

>  <SCORE.SYSTEM>
0

>  <SCORE.SYSTEM.CONST>
0

>  <SCORE.SYSTEM.DIHEDRAL>
0

>  <SCORE.SYSTEM.SOLV>
0

>  <SCORE.SYSTEM.norm>
0

>  <SCORE.heavy>
31

>  <SCORE.norm>
-0.474654

>  <RMSD>
0.549

$$$$
ligand
 OpenBabel11021811493D
libRbt.so/2013.1/901 2013/11/27
 31 33  0  0  0  0  0  0  0  0999 V2000
   20.5175   -9.5276   -5.9437 C   0  0  2  0  0  0  0  0  0  0  0  0
   21.1266   -9.1495   -4.7017 O   0  0  0  0  0  0  0  0  0  0  0  0
   21.6212  -10.8462   -0.8203 C   0  0  2  0  0  0  0  0  0  0  0  0
   21.3687  -11.6363    0.3373 N   0  0  0  0  0  0  0  0  0  0  0  0
   22.6645  -13.9671   -1.2315 C   0  0  2  0  0  0  0  0  0  0  0  0
   21.2088   -8.6884   -7.0624 C   0  0  2  0  0  0  0  0  0  0  0  0
   22.6473   -8.9440   -7.0267 N   0  0  0  0  0  0  0  0  0  0  0  0
   20.4377   -9.8270   -1.0207 C   0  0  0  0  0  0  0  0  0  0  0  0
   24.1088  -14.3407   -0.8015 C   0  0  2  0  0  0  0  0  0  0  0  0
   24.5982  -13.3350    0.0561 O   0  0  0  0  0  0  0  0  0  0  0  0
   20.8873   -7.1558   -6.8737 C   0  0  0  0  0  0  0  0  0  0  0  0
   20.7221   -8.9505   -2.3077 C   0  0  2  0  0  0  0  0  0  0  0  0
   19.6127   -7.9946   -2.5024 N   0  0  0  0  0  0  0  0  0  0  0  0
   24.9915  -14.4674   -2.1061 C   0  0  1  0  0  0  0  0  0  0  0  0
   26.3967  -14.8042   -1.7412 N   0  0  0  0  0  0  0  0  0  0  0  0
   19.4655   -6.9010   -6.2536 C   0  0  0  0  0  0  0  0  0  0  0  0
   20.8533   -9.9097   -3.5665 C   0  0  2  0  0  0  0  0  0  0  0  0
   24.3855  -15.6377   -3.0619 C   0  0  1  0  0  0  0  0  0  0  0  0
   24.3818  -16.9036   -2.4485 O   0  0  0  0  0  0  0  0  0  0  0  0
   18.6850   -7.9162   -5.8542 C   0  0  1  0  0  0  0  0  0  0  0  0
   19.0885   -9.2662   -5.9713 O   0  0  0  0  0  0  0  0  0  0  0  0
   22.0269  -10.9287   -3.3319 C   0  0  2  0  0  0  0  0  0  0  0  0
   22.1298  -11.7931   -4.4620 O   0  0  0  0  0  0  0  0  0  0  0  0
   22.9129  -15.2772   -3.4299 C   0  0  0  0  0  0  0  0  0  0  0  0
   22.1090  -15.0050   -2.1744 O   0  0  0  0  0  0  0  0  0  0  0  0
   17.2925   -7.7033   -5.2291 C   0  0  0  0  0  0  0  0  0  0  0  0
   16.3115   -8.4059   -6.0268 N   0  0  0  0  0  0  0  0  0  0  0  0
   21.7286  -11.7824   -2.0420 C   0  0  1  0  0  0  0  0  0  0  0  0
   22.7910  -12.6702   -1.8524 O   0  0  0  0  0  0  0  0  0  0  0  0
   25.1389  -15.8839   -4.3768 C   0  0  0  0  0  0  0  0  0  0  0  0
   27.2957  -13.6648   -1.5019 C   0  0  0  0  0  0  0  0  0  0  0  0
  1  2  1  1  0  0  0
  1  6  1  0  0  0  0
  1 21  1  0  0  0  0
  3  4  1  1  0  0  0
  3  8  1  0  0  0  0
  3 28  1  0  0  0  0
  5  9  1  0  0  0  0
  5 25  1  0  0  0  0
  5 29  1  6  0  0  0
  6  7  1  1  0  0  0
  6 11  1  0  0  0  0
  8 12  1  0  0  0  0
  9 10  1  1  0  0  0
  9 14  1  0  0  0  0
 11 16  1  0  0  0  0
 12 13  1  6  0  0  0
 12 17  1  0  0  0  0
 14 15  1  1  0  0  0
 14 18  1  0  0  0  0
 15 31  1  0  0  0  0
 16 20  1  0  0  0  0
 17  2  1  6  0  0  0
 17 22  1  0  0  0  0
 18 19  1  1  0  0  0
 18 24  1  0  0  0  0
 18 30  1  0  0  0  0
 20 21  1  0  0  0  0
 20 26  1  1  0  0  0
 22 23  1  6  0  0  0
 22 28  1  0  0  0  0
 24 25  1  0  0  0  0
 26 27  1  0  0  0  0
 28 29  1  1  0  0  0
M  END
>  <CHROM.1>
-169.28826868,-160.73363148,-89.58601704,-141.88649643,122.15702627,90.90390436
21.94529921,-11.43945009,-3.39241667,-2.57330891,-0.82587175,1.77962892

>  <Name>
ligand

>  <RI>
0

>  <Rbt.Current_Directory>
/home/itssahil/PROJECTS/Mol_Feturizer/New_Systems/rnas/4F8V

>  <Rbt.Executable>
rbdock ($Id: //depot/dev/client3/rdock/2013.1/src/exe/rbdock.cxx#4 $)

>  <Rbt.Library>
libRbt.so (2013.1, Build901 2013/11/27)

>  <Rbt.Parameter_File>
/export/apps/rDock/src/rDock_2013.1_src/data/scripts/dock_solv.prm

>  <Rbt.Receptor>
prm/pocket_docking_6.prm

>  <SCORE>
-14.5292

>  <SCORE.INTER>
-13.6453

>  <SCORE.INTER.CONST>
1

>  <SCORE.INTER.POLAR>
0

>  <SCORE.INTER.ROT>
6

>  <SCORE.INTER.SOLV>
24.058

>  <SCORE.INTER.VDW>
-24.7162

>  <SCORE.INTER.norm>
-0.440171

>  <SCORE.INTRA>
-0.883898

>  <SCORE.INTRA.DIHEDRAL>
-2.55204

>  <SCORE.INTRA.DIHEDRAL.0>
15.9129

>  <SCORE.INTRA.POLAR>
0

>  <SCORE.INTRA.POLAR.0>
0

>  <SCORE.INTRA.REPUL>
0

>  <SCORE.INTRA.REPUL.0>
0

>  <SCORE.INTRA.SOLV>
-0.0935042

>  <SCORE.INTRA.SOLV.lig_0>
-75.7056

>  <SCORE.INTRA.VDW>
0.438876

>  <SCORE.INTRA.VDW.0>
-4.61812

>  <SCORE.INTRA.norm>
-0.0285128

>  <SCORE.RESTR>
0

>  <SCORE.RESTR.CAVITY>
0

>  <SCORE.RESTR.norm>
0

>  <SCORE.SYSTEM>
0

>  <SCORE.SYSTEM.CONST>
0

>  <SCORE.SYSTEM.DIHEDRAL>
0

>  <SCORE.SYSTEM.SOLV>
0

>  <SCORE.SYSTEM.norm>
0

>  <SCORE.heavy>
31

>  <SCORE.norm>
-0.468684

>  <RMSD>
0.559

$$$$
ligand
 OpenBabel11021811493D
libRbt.so/2013.1/901 2013/11/27
 31 33  0  0  0  0  0  0  0  0999 V2000
   20.5705   -9.4633   -5.9802 C   0  0  2  0  0  0  0  0  0  0  0  0
   21.1998   -9.1306   -4.7353 O   0  0  0  0  0  0  0  0  0  0  0  0
   21.6339  -10.8749   -0.8678 C   0  0  2  0  0  0  0  0  0  0  0  0
   21.3625  -11.6780    0.2764 N   0  0  0  0  0  0  0  0  0  0  0  0
   22.6839  -13.9719   -1.2541 C   0  0  2  0  0  0  0  0  0  0  0  0
   21.1811   -8.5215   -7.0637 C   0  0  2  0  0  0  0  0  0  0  0  0
   22.6312   -8.7024   -7.0867 N   0  0  0  0  0  0  0  0  0  0  0  0
   20.4563   -9.8499   -1.0730 C   0  0  0  0  0  0  0  0  0  0  0  0
   24.1261  -14.3343   -0.8075 C   0  0  2  0  0  0  0  0  0  0  0  0
   24.6103  -13.3083    0.0286 O   0  0  0  0  0  0  0  0  0  0  0  0
   20.7883   -7.0225   -6.7692 C   0  0  0  0  0  0  0  0  0  0  0  0
   20.7616   -8.9589   -2.3453 C   0  0  2  0  0  0  0  0  0  0  0  0
   19.6579   -7.9975   -2.5444 N   0  0  0  0  0  0  0  0  0  0  0  0
   25.0159  -14.4913   -2.1040 C   0  0  1  0  0  0  0  0  0  0  0  0
   26.4192  -14.8186   -1.7236 N   0  0  0  0  0  0  0  0  0  0  0  0
   19.3764   -6.8819   -6.0927 C   0  0  0  0  0  0  0  0  0  0  0  0
   20.9082   -9.9034   -3.6134 C   0  0  2  0  0  0  0  0  0  0  0  0
   24.4156  -15.6844   -3.0350 C   0  0  1  0  0  0  0  0  0  0  0  0
   24.4093  -16.9354   -2.3918 O   0  0  0  0  0  0  0  0  0  0  0  0
   18.6622   -7.9596   -5.7352 C   0  0  1  0  0  0  0  0  0  0  0  0
   19.1299   -9.2767   -5.9492 O   0  0  0  0  0  0  0  0  0  0  0  0
   22.0753  -10.9287   -3.3743 C   0  0  2  0  0  0  0  0  0  0  0  0
   22.1920  -11.7799   -4.5130 O   0  0  0  0  0  0  0  0  0  0  0  0
   22.9449  -15.3336   -3.4194 C   0  0  0  0  0  0  0  0  0  0  0  0
   22.1341  -15.0322   -2.1751 O   0  0  0  0  0  0  0  0  0  0  0  0
   17.2818   -7.8595   -5.0571 C   0  0  0  0  0  0  0  0  0  0  0  0
   16.2712   -8.3078   -5.9898 N   0  0  0  0  0  0  0  0  0  0  0  0
   21.7562  -11.7968   -2.0990 C   0  0  1  0  0  0  0  0  0  0  0  0
   22.8132  -12.6900   -1.9048 O   0  0  0  0  0  0  0  0  0  0  0  0
   25.1764  -15.9612   -4.3396 C   0  0  0  0  0  0  0  0  0  0  0  0
   27.3275  -13.6748   -1.5486 C   0  0  0  0  0  0  0  0  0  0  0  0
  1  2  1  1  0  0  0
  1  6  1  0  0  0  0
  1 21  1  0  0  0  0
  3  4  1  1  0  0  0
  3  8  1  0  0  0  0
  3 28  1  0  0  0  0
  5  9  1  0  0  0  0
  5 25  1  0  0  0  0
  5 29  1  6  0  0  0
  6  7  1  1  0  0  0
  6 11  1  0  0  0  0
  8 12  1  0  0  0  0
  9 10  1  1  0  0  0
  9 14  1  0  0  0  0
 11 16  1  0  0  0  0
 12 13  1  6  0  0  0
 12 17  1  0  0  0  0
 14 15  1  1  0  0  0
 14 18  1  0  0  0  0
 15 31  1  0  0  0  0
 16 20  1  0  0  0  0
 17  2  1  6  0  0  0
 17 22  1  0  0  0  0
 18 19  1  1  0  0  0
 18 24  1  0  0  0  0
 18 30  1  0  0  0  0
 20 21  1  0  0  0  0
 20 26  1  1  0  0  0
 22 23  1  6  0  0  0
 22 28  1  0  0  0  0
 24 25  1  0  0  0  0
 26 27  1  0  0  0  0
 28 29  1  1  0  0  0
M  END
>  <CHROM.1>
-174.95635504,-159.48801549,-91.47714806,-139.70196310,110.19835887,88.35653031
21.96090771,-11.43493757,-3.39120972,-2.55028233,-0.81273545,1.82135015

>  <Name>
ligand

>  <RI>
0

>  <Rbt.Current_Directory>
/home/itssahil/PROJECTS/Mol_Feturizer/New_Systems/rnas/4F8V

>  <Rbt.Executable>
rbdock ($Id: //depot/dev/client3/rdock/2013.1/src/exe/rbdock.cxx#4 $)

>  <Rbt.Library>
libRbt.so (2013.1, Build901 2013/11/27)

>  <Rbt.Parameter_File>
/export/apps/rDock/src/rDock_2013.1_src/data/scripts/dock_solv.prm

>  <Rbt.Receptor>
prm/pocket_docking_3.prm

>  <SCORE>
-14.7001

>  <SCORE.INTER>
-13.7327

>  <SCORE.INTER.CONST>
1

>  <SCORE.INTER.POLAR>
0

>  <SCORE.INTER.ROT>
6

>  <SCORE.INTER.SOLV>
23.8246

>  <SCORE.INTER.VDW>
-24.6967

>  <SCORE.INTER.norm>
-0.442991

>  <SCORE.INTRA>
-0.967372

>  <SCORE.INTRA.DIHEDRAL>
-2.71522

>  <SCORE.INTRA.DIHEDRAL.0>
15.9129

>  <SCORE.INTRA.POLAR>
0

>  <SCORE.INTRA.POLAR.0>
0

>  <SCORE.INTRA.REPUL>
0

>  <SCORE.INTRA.REPUL.0>
0

>  <SCORE.INTRA.SOLV>
0.0486719

>  <SCORE.INTRA.SOLV.lig_0>
-75.7056

>  <SCORE.INTRA.VDW>
0.365902

>  <SCORE.INTRA.VDW.0>
-4.61812

>  <SCORE.INTRA.norm>
-0.0312056

>  <SCORE.RESTR>
0

>  <SCORE.RESTR.CAVITY>
0

>  <SCORE.RESTR.norm>
0

>  <SCORE.SYSTEM>
0

>  <SCORE.SYSTEM.CONST>
0

>  <SCORE.SYSTEM.DIHEDRAL>
0

>  <SCORE.SYSTEM.SOLV>
0

>  <SCORE.SYSTEM.norm>
0

>  <SCORE.heavy>
31

>  <SCORE.norm>
-0.474196

>  <RMSD>
0.570

$$$$
ligand
 OpenBabel11021811493D
libRbt.so/2013.1/901 2013/11/27
 31 33  0  0  0  0  0  0  0  0999 V2000
   19.8732   -9.3939   -5.6949 C   0  0  2  0  0  0  0  0  0  0  0  0
   20.6942   -9.1172   -4.5522 O   0  0  0  0  0  0  0  0  0  0  0  0
   21.5908  -10.9394   -0.8019 C   0  0  2  0  0  0  0  0  0  0  0  0
   21.4492  -11.7503    0.3601 N   0  0  0  0  0  0  0  0  0  0  0  0
   22.4325  -14.0939   -1.4252 C   0  0  2  0  0  0  0  0  0  0  0  0
   20.3434   -8.4377   -6.8343 C   0  0  2  0  0  0  0  0  0  0  0  0
   21.7666   -8.6593   -7.0823 N   0  0  0  0  0  0  0  0  0  0  0  0
   20.4373   -9.8678   -0.8302 C   0  0  0  0  0  0  0  0  0  0  0  0
   23.8651  -14.4243   -0.9263 C   0  0  2  0  0  0  0  0  0  0  0  0
   24.2710  -13.4204   -0.0241 O   0  0  0  0  0  0  0  0  0  0  0  0
   20.0492   -6.9377   -6.4453 C   0  0  0  0  0  0  0  0  0  0  0  0
   20.5982   -8.9683   -2.1227 C   0  0  2  0  0  0  0  0  0  0  0  0
   19.5161   -7.9631   -2.1559 N   0  0  0  0  0  0  0  0  0  0  0  0
   24.8192  -14.4905   -2.1843 C   0  0  1  0  0  0  0  0  0  0  0  0
   26.2148  -14.7842   -1.7518 N   0  0  0  0  0  0  0  0  0  0  0  0
   18.7614   -6.7772   -5.5584 C   0  0  0  0  0  0  0  0  0  0  0  0
   20.5306   -9.8967   -3.4091 C   0  0  2  0  0  0  0  0  0  0  0  0
   24.3083  -15.6609   -3.1940 C   0  0  1  0  0  0  0  0  0  0  0  0
   24.3195  -16.9392   -2.6069 O   0  0  0  0  0  0  0  0  0  0  0  0
   18.0744   -7.8443   -5.1241 C   0  0  1  0  0  0  0  0  0  0  0  0
   18.4608   -9.1671   -5.4402 O   0  0  0  0  0  0  0  0  0  0  0  0
   21.6785  -10.9687   -3.3458 C   0  0  2  0  0  0  0  0  0  0  0  0
   21.6028  -11.8049   -4.4990 O   0  0  0  0  0  0  0  0  0  0  0  0
   22.8447  -15.3460   -3.6328 C   0  0  0  0  0  0  0  0  0  0  0  0
   21.9664  -15.1304   -2.4167 O   0  0  0  0  0  0  0  0  0  0  0  0
   16.8166   -7.7252   -4.2415 C   0  0  0  0  0  0  0  0  0  0  0  0
   15.6493   -7.9771   -5.0578 N   0  0  0  0  0  0  0  0  0  0  0  0
   21.5051  -11.8450   -2.0482 C   0  0  1  0  0  0  0  0  0  0  0  0
   22.5430  -12.7801   -2.0126 O   0  0  0  0  0  0  0  0  0  0  0  0
   25.1384  -15.8510   -4.4716 C   0  0  0  0  0  0  0  0  0  0  0  0
   27.0857  -13.6187   -1.5349 C   0  0  0  0  0  0  0  0  0  0  0  0
  1  2  1  1  0  0  0
  1  6  1  0  0  0  0
  1 21  1  0  0  0  0
  3  4  1  1  0  0  0
  3  8  1  0  0  0  0
  3 28  1  0  0  0  0
  5  9  1  0  0  0  0
  5 25  1  0  0  0  0
  5 29  1  6  0  0  0
  6  7  1  1  0  0  0
  6 11  1  0  0  0  0
  8 12  1  0  0  0  0
  9 10  1  1  0  0  0
  9 14  1  0  0  0  0
 11 16  1  0  0  0  0
 12 13  1  6  0  0  0
 12 17  1  0  0  0  0
 14 15  1  1  0  0  0
 14 18  1  0  0  0  0
 15 31  1  0  0  0  0
 16 20  1  0  0  0  0
 17  2  1  6  0  0  0
 17 22  1  0  0  0  0
 18 19  1  1  0  0  0
 18 24  1  0  0  0  0
 18 30  1  0  0  0  0
 20 21  1  0  0  0  0
 20 26  1  1  0  0  0
 22 23  1  6  0  0  0
 22 28  1  0  0  0  0
 24 25  1  0  0  0  0
 26 27  1  0  0  0  0
 28 29  1  1  0  0  0
M  END
>  <CHROM.1>
-176.29460019,-150.08097051,-93.79397556,-138.85771695,104.15730253,91.73407293
21.61310197,-11.41776571,-3.25805926,-2.72666218,-0.84424389,1.68893058

>  <Name>
ligand

>  <RI>
0

>  <Rbt.Current_Directory>
/home/itssahil/PROJECTS/Mol_Feturizer/New_Systems/rnas/4F8V

>  <Rbt.Executable>
rbdock ($Id: //depot/dev/client3/rdock/2013.1/src/exe/rbdock.cxx#4 $)

>  <Rbt.Library>
libRbt.so (2013.1, Build901 2013/11/27)

>  <Rbt.Parameter_File>
/export/apps/rDock/src/rDock_2013.1_src/data/scripts/dock_solv.prm

>  <Rbt.Receptor>
prm/pocket_docking_3.prm

>  <SCORE>
-14.637

>  <SCORE.INTER>
-15.0512

>  <SCORE.INTER.CONST>
1

>  <SCORE.INTER.POLAR>
0

>  <SCORE.INTER.ROT>
6

>  <SCORE.INTER.SOLV>
23.364

>  <SCORE.INTER.VDW>
-25.4222

>  <SCORE.INTER.norm>
-0.485524

>  <SCORE.INTRA>
0.414221

>  <SCORE.INTRA.DIHEDRAL>
-0.0423504

>  <SCORE.INTRA.DIHEDRAL.0>
15.9129

>  <SCORE.INTRA.POLAR>
0

>  <SCORE.INTRA.POLAR.0>
0

>  <SCORE.INTRA.REPUL>
0

>  <SCORE.INTRA.REPUL.0>
0

>  <SCORE.INTRA.SOLV>
0.324386

>  <SCORE.INTRA.SOLV.lig_0>
-75.7056

>  <SCORE.INTRA.VDW>
0.273203

>  <SCORE.INTRA.VDW.0>
-4.61812

>  <SCORE.INTRA.norm>
0.013362

>  <SCORE.RESTR>
0

>  <SCORE.RESTR.CAVITY>
0

>  <SCORE.RESTR.norm>
0

>  <SCORE.SYSTEM>
0

>  <SCORE.SYSTEM.CONST>
0

>  <SCORE.SYSTEM.DIHEDRAL>
0

>  <SCORE.SYSTEM.SOLV>
0

>  <SCORE.SYSTEM.norm>
0

>  <SCORE.heavy>
31

>  <SCORE.norm>
-0.472162

>  <RMSD>
0.571

$$$$
ligand
 OpenBabel11021811493D
libRbt.so/2013.1/901 2013/11/27
 31 33  0  0  0  0  0  0  0  0999 V2000
   19.8850   -9.3958   -5.6795 C   0  0  2  0  0  0  0  0  0  0  0  0
   20.6684   -9.0794   -4.5207 O   0  0  0  0  0  0  0  0  0  0  0  0
   21.6366  -10.9602   -0.8175 C   0  0  2  0  0  0  0  0  0  0  0  0
   21.5124  -11.7808    0.3397 N   0  0  0  0  0  0  0  0  0  0  0  0
   22.4022  -14.1164   -1.4795 C   0  0  2  0  0  0  0  0  0  0  0  0
   20.3586   -8.4444   -6.8215 C   0  0  2  0  0  0  0  0  0  0  0  0
   21.7932   -8.6306   -7.0296 N   0  0  0  0  0  0  0  0  0  0  0  0
   20.5049   -9.8654   -0.8008 C   0  0  0  0  0  0  0  0  0  0  0  0
   23.8300  -14.4384   -0.9615 C   0  0  2  0  0  0  0  0  0  0  0  0
   24.2218  -13.4269   -0.0616 O   0  0  0  0  0  0  0  0  0  0  0  0
   20.0139   -6.9473   -6.4640 C   0  0  0  0  0  0  0  0  0  0  0  0
   20.6464   -8.9552   -2.0880 C   0  0  2  0  0  0  0  0  0  0  0  0
   19.5846   -7.9281   -2.0790 N   0  0  0  0  0  0  0  0  0  0  0  0
   24.7991  -14.5100   -2.2077 C   0  0  1  0  0  0  0  0  0  0  0  0
   26.1905  -14.7958   -1.7567 N   0  0  0  0  0  0  0  0  0  0  0  0
   18.6997   -6.8088   -5.6129 C   0  0  0  0  0  0  0  0  0  0  0  0
   20.5223   -9.8679   -3.3815 C   0  0  2  0  0  0  0  0  0  0  0  0
   24.3041  -15.6891   -3.2152 C   0  0  1  0  0  0  0  0  0  0  0  0
   24.3128  -16.9632   -2.6191 O   0  0  0  0  0  0  0  0  0  0  0  0
   18.0308   -7.8877   -5.1793 C   0  0  1  0  0  0  0  0  0  0  0  0
   18.4609   -9.2041   -5.4645 O   0  0  0  0  0  0  0  0  0  0  0  0
   21.6494  -10.9634   -3.3631 C   0  0  2  0  0  0  0  0  0  0  0  0
   21.5230  -11.7853   -4.5221 O   0  0  0  0  0  0  0  0  0  0  0  0
   22.8447  -15.3823   -3.6733 C   0  0  0  0  0  0  0  0  0  0  0  0
   21.9514  -15.1614   -2.4692 O   0  0  0  0  0  0  0  0  0  0  0  0
   16.7478   -7.7899   -4.3311 C   0  0  0  0  0  0  0  0  0  0  0  0
   15.6054   -8.0320   -5.1848 N   0  0  0  0  0  0  0  0  0  0  0  0
   21.4961  -11.8502   -2.0700 C   0  0  1  0  0  0  0  0  0  0  0  0
   22.5152  -12.8063   -2.0747 O   0  0  0  0  0  0  0  0  0  0  0  0
   25.1499  -15.8851   -4.4815 C   0  0  0  0  0  0  0  0  0  0  0  0
   27.0529  -13.6256   -1.5319 C   0  0  0  0  0  0  0  0  0  0  0  0
  1  2  1  1  0  0  0
  1  6  1  0  0  0  0
  1 21  1  0  0  0  0
  3  4  1  1  0  0  0
  3  8  1  0  0  0  0
  3 28  1  0  0  0  0
  5  9  1  0  0  0  0
  5 25  1  0  0  0  0
  5 29  1  6  0  0  0
  6  7  1  1  0  0  0
  6 11  1  0  0  0  0
  8 12  1  0  0  0  0
  9 10  1  1  0  0  0
  9 14  1  0  0  0  0
 11 16  1  0  0  0  0
 12 13  1  6  0  0  0
 12 17  1  0  0  0  0
 14 15  1  1  0  0  0
 14 18  1  0  0  0  0
 15 31  1  0  0  0  0
 16 20  1  0  0  0  0
 17  2  1  6  0  0  0
 17 22  1  0  0  0  0
 18 19  1  1  0  0  0
 18 24  1  0  0  0  0
 18 30  1  0  0  0  0
 20 21  1  0  0  0  0
 20 26  1  1  0  0  0
 22 23  1  6  0  0  0
 22 28  1  0  0  0  0
 24 25  1  0  0  0  0
 26 27  1  0  0  0  0
 28 29  1  1  0  0  0
M  END
>  <CHROM.1>
-174.60702188,-146.73458514,-93.52574548,-143.83909537,101.83405743,90.71783532
21.60290349,-11.43055193,-3.27570795,-2.76054850,-0.85700548,1.64269757

>  <Name>
ligand

>  <RI>
0

>  <Rbt.Current_Directory>
/home/itssahil/PROJECTS/Mol_Feturizer/New_Systems/rnas/4F8V

>  <Rbt.Executable>
rbdock ($Id: //depot/dev/client3/rdock/2013.1/src/exe/rbdock.cxx#4 $)

>  <Rbt.Library>
libRbt.so (2013.1, Build901 2013/11/27)

>  <Rbt.Parameter_File>
/export/apps/rDock/src/rDock_2013.1_src/data/scripts/dock_solv.prm

>  <Rbt.Receptor>
prm/pocket_docking_3.prm

>  <SCORE>
-14.7929

>  <SCORE.INTER>
-15.0442

>  <SCORE.INTER.CONST>
1

>  <SCORE.INTER.POLAR>
0

>  <SCORE.INTER.ROT>
6

>  <SCORE.INTER.SOLV>
23.8285

>  <SCORE.INTER.VDW>
-25.5723

>  <SCORE.INTER.norm>
-0.485298

>  <SCORE.INTRA>
0.251346

>  <SCORE.INTRA.DIHEDRAL>
-0.290141

>  <SCORE.INTRA.DIHEDRAL.0>
15.9129

>  <SCORE.INTRA.POLAR>
0

>  <SCORE.INTRA.POLAR.0>
0

>  <SCORE.INTRA.REPUL>
0

>  <SCORE.INTRA.REPUL.0>
0

>  <SCORE.INTRA.SOLV>
0.0544133

>  <SCORE.INTRA.SOLV.lig_0>
-75.7056

>  <SCORE.INTRA.VDW>
0.36921

>  <SCORE.INTRA.VDW.0>
-4.61812

>  <SCORE.INTRA.norm>
0.00810794

>  <SCORE.RESTR>
0

>  <SCORE.RESTR.CAVITY>
0

>  <SCORE.RESTR.norm>
0

>  <SCORE.SYSTEM>
0

>  <SCORE.SYSTEM.CONST>
0

>  <SCORE.SYSTEM.DIHEDRAL>
0

>  <SCORE.SYSTEM.SOLV>
0

>  <SCORE.SYSTEM.norm>
0

>  <SCORE.heavy>
31

>  <SCORE.norm>
-0.47719

>  <RMSD>
0.578

$$$$
ligand
 OpenBabel11021811493D
libRbt.so/2013.1/901 2013/11/27
 31 33  0  0  0  0  0  0  0  0999 V2000
   20.4873   -9.3730   -5.8466 C   0  0  2  0  0  0  0  0  0  0  0  0
   20.8970   -8.9139   -4.5513 O   0  0  0  0  0  0  0  0  0  0  0  0
   21.5379  -10.8399   -0.8005 C   0  0  2  0  0  0  0  0  0  0  0  0
   21.3230  -11.6896    0.3219 N   0  0  0  0  0  0  0  0  0  0  0  0
   22.5115  -13.9178   -1.3556 C   0  0  2  0  0  0  0  0  0  0  0  0
   21.1378   -8.4170   -6.8939 C   0  0  2  0  0  0  0  0  0  0  0  0
   22.5879   -8.4303   -6.7118 N   0  0  0  0  0  0  0  0  0  0  0  0
   20.3701   -9.7870   -0.8848 C   0  0  0  0  0  0  0  0  0  0  0  0
   23.9559  -14.2434   -0.8883 C   0  0  2  0  0  0  0  0  0  0  0  0
   24.3958  -13.2135   -0.0327 O   0  0  0  0  0  0  0  0  0  0  0  0
   20.5481   -6.9617   -6.7460 C   0  0  0  0  0  0  0  0  0  0  0  0
   20.6125   -8.8441   -2.1330 C   0  0  2  0  0  0  0  0  0  0  0  0
   19.5176   -7.8562   -2.2188 N   0  0  0  0  0  0  0  0  0  0  0  0
   24.8717  -14.3595   -2.1709 C   0  0  1  0  0  0  0  0  0  0  0  0
   26.2773  -14.6503   -1.7701 N   0  0  0  0  0  0  0  0  0  0  0  0
   19.0487   -6.9544   -6.2740 C   0  0  0  0  0  0  0  0  0  0  0  0
   20.6610   -9.7321   -3.4486 C   0  0  2  0  0  0  0  0  0  0  0  0
   24.3223  -15.5586   -3.1254 C   0  0  1  0  0  0  0  0  0  0  0  0
   24.3415  -16.8166   -2.4962 O   0  0  0  0  0  0  0  0  0  0  0  0
   18.4123   -8.0900   -5.9506 C   0  0  1  0  0  0  0  0  0  0  0  0
   19.0449   -9.3526   -6.0198 O   0  0  0  0  0  0  0  0  0  0  0  0
   21.8206  -10.7866   -3.3297 C   0  0  2  0  0  0  0  0  0  0  0  0
   21.8490  -11.5868   -4.5103 O   0  0  0  0  0  0  0  0  0  0  0  0
   22.8487  -15.2462   -3.5311 C   0  0  0  0  0  0  0  0  0  0  0  0
   22.0085  -14.9828   -2.2976 O   0  0  0  0  0  0  0  0  0  0  0  0
   16.9481   -8.1192   -5.4704 C   0  0  0  0  0  0  0  0  0  0  0  0
   16.6260   -6.8387   -4.8797 N   0  0  0  0  0  0  0  0  0  0  0  0
   21.5648  -11.7066   -2.0767 C   0  0  1  0  0  0  0  0  0  0  0  0
   22.6143  -12.6253   -1.9898 O   0  0  0  0  0  0  0  0  0  0  0  0
   25.1127  -15.7981   -4.4197 C   0  0  0  0  0  0  0  0  0  0  0  0
   27.1824  -13.4933   -1.6928 C   0  0  0  0  0  0  0  0  0  0  0  0
  1  2  1  1  0  0  0
  1  6  1  0  0  0  0
  1 21  1  0  0  0  0
  3  4  1  1  0  0  0
  3  8  1  0  0  0  0
  3 28  1  0  0  0  0
  5  9  1  0  0  0  0
  5 25  1  0  0  0  0
  5 29  1  6  0  0  0
  6  7  1  1  0  0  0
  6 11  1  0  0  0  0
  8 12  1  0  0  0  0
  9 10  1  1  0  0  0
  9 14  1  0  0  0  0
 11 16  1  0  0  0  0
 12 13  1  6  0  0  0
 12 17  1  0  0  0  0
 14 15  1  1  0  0  0
 14 18  1  0  0  0  0
 15 31  1  0  0  0  0
 16 20  1  0  0  0  0
 17  2  1  6  0  0  0
 17 22  1  0  0  0  0
 18 19  1  1  0  0  0
 18 24  1  0  0  0  0
 18 30  1  0  0  0  0
 20 21  1  0  0  0  0
 20 26  1  1  0  0  0
 22 23  1  6  0  0  0
 22 28  1  0  0  0  0
 24 25  1  0  0  0  0
 26 27  1  0  0  0  0
 28 29  1  1  0  0  0
M  END
>  <CHROM.1>
-168.27098807,-152.98170819,-97.15529597,-156.51778959,-25.21770872,86.48430524
21.81353396,-11.30741218,-3.35830828,-2.59305682,-0.83337376,1.80016164

>  <Name>
ligand

>  <RI>
0

>  <Rbt.Current_Directory>
/home/itssahil/PROJECTS/Mol_Feturizer/New_Systems/rnas/4F8V

>  <Rbt.Executable>
rbdock ($Id: //depot/dev/client3/rdock/2013.1/src/exe/rbdock.cxx#4 $)

>  <Rbt.Library>
libRbt.so (2013.1, Build901 2013/11/27)

>  <Rbt.Parameter_File>
/export/apps/rDock/src/rDock_2013.1_src/data/scripts/dock_solv.prm

>  <Rbt.Receptor>
prm/pocket_docking_5.prm

>  <SCORE>
-16.195

>  <SCORE.INTER>
-15.5578

>  <SCORE.INTER.CONST>
1

>  <SCORE.INTER.POLAR>
0

>  <SCORE.INTER.ROT>
6

>  <SCORE.INTER.SOLV>
18.5786

>  <SCORE.INTER.VDW>
-24.1647

>  <SCORE.INTER.norm>
-0.501863

>  <SCORE.INTRA>
-0.637279

>  <SCORE.INTRA.DIHEDRAL>
-3.65833

>  <SCORE.INTRA.DIHEDRAL.0>
15.9129

>  <SCORE.INTRA.POLAR>
0

>  <SCORE.INTRA.POLAR.0>
0

>  <SCORE.INTRA.REPUL>
0

>  <SCORE.INTRA.REPUL.0>
0

>  <SCORE.INTRA.SOLV>
-0.419086

>  <SCORE.INTRA.SOLV.lig_0>
-75.7056

>  <SCORE.INTRA.VDW>
1.40143

>  <SCORE.INTRA.VDW.0>
-4.61812

>  <SCORE.INTRA.norm>
-0.0205574

>  <SCORE.RESTR>
0

>  <SCORE.RESTR.CAVITY>
0

>  <SCORE.RESTR.norm>
0

>  <SCORE.SYSTEM>
0

>  <SCORE.SYSTEM.CONST>
0

>  <SCORE.SYSTEM.DIHEDRAL>
0

>  <SCORE.SYSTEM.SOLV>
0

>  <SCORE.SYSTEM.norm>
0

>  <SCORE.heavy>
31

>  <SCORE.norm>
-0.52242

>  <RMSD>
0.581

$$$$
ligand
 OpenBabel11021811493D
libRbt.so/2013.1/901 2013/11/27
 31 33  0  0  0  0  0  0  0  0999 V2000
   20.4375   -9.4321   -5.8855 C   0  0  2  0  0  0  0  0  0  0  0  0
   20.9188   -9.0024   -4.6048 O   0  0  0  0  0  0  0  0  0  0  0  0
   21.6117  -10.9516   -0.8754 C   0  0  2  0  0  0  0  0  0  0  0  0
   21.4078  -11.8013    0.2490 N   0  0  0  0  0  0  0  0  0  0  0  0
   22.5128  -14.0522   -1.4802 C   0  0  2  0  0  0  0  0  0  0  0  0
   21.0624   -8.4772   -6.9493 C   0  0  2  0  0  0  0  0  0  0  0  0
   22.5186   -8.5289   -6.8358 N   0  0  0  0  0  0  0  0  0  0  0  0
   20.4606   -9.8786   -0.9299 C   0  0  0  0  0  0  0  0  0  0  0  0
   23.9422  -14.3762   -0.9682 C   0  0  2  0  0  0  0  0  0  0  0  0
   24.3471  -13.3550   -0.0853 O   0  0  0  0  0  0  0  0  0  0  0  0
   20.5173   -7.0100   -6.7541 C   0  0  0  0  0  0  0  0  0  0  0  0
   20.6908   -8.9358   -2.1805 C   0  0  2  0  0  0  0  0  0  0  0  0
   19.6113   -7.9290   -2.2383 N   0  0  0  0  0  0  0  0  0  0  0  0
   24.9017  -14.4713   -2.2203 C   0  0  1  0  0  0  0  0  0  0  0  0
   26.2945  -14.7599   -1.7755 N   0  0  0  0  0  0  0  0  0  0  0  0
   19.0423   -6.9727   -6.2120 C   0  0  0  0  0  0  0  0  0  0  0  0
   20.6939   -9.8201   -3.4995 C   0  0  2  0  0  0  0  0  0  0  0  0
   24.3917  -15.6611   -3.2077 C   0  0  1  0  0  0  0  0  0  0  0  0
   24.3967  -16.9268   -2.5940 O   0  0  0  0  0  0  0  0  0  0  0  0
   18.3931   -8.0968   -5.8743 C   0  0  1  0  0  0  0  0  0  0  0  0
   18.9895   -9.3736   -5.9903 O   0  0  0  0  0  0  0  0  0  0  0  0
   21.8375  -10.8948   -3.4103 C   0  0  2  0  0  0  0  0  0  0  0  0
   21.8253  -11.6913   -4.5935 O   0  0  0  0  0  0  0  0  0  0  0  0
   22.9310  -15.3512   -3.6594 C   0  0  0  0  0  0  0  0  0  0  0  0
   22.0480  -15.1078   -2.4519 O   0  0  0  0  0  0  0  0  0  0  0  0
   16.9526   -8.0970   -5.3261 C   0  0  0  0  0  0  0  0  0  0  0  0
   16.6059   -6.7504   -4.9275 N   0  0  0  0  0  0  0  0  0  0  0  0
   21.5946  -11.8144   -2.1544 C   0  0  1  0  0  0  0  0  0  0  0  0
   22.6298  -12.7512   -2.0943 O   0  0  0  0  0  0  0  0  0  0  0  0
   25.2268  -15.8801   -4.4773 C   0  0  0  0  0  0  0  0  0  0  0  0
   27.1730  -13.5938   -1.5962 C   0  0  0  0  0  0  0  0  0  0  0  0
  1  2  1  1  0  0  0
  1  6  1  0  0  0  0
  1 21  1  0  0  0  0
  3  4  1  1  0  0  0
  3  8  1  0  0  0  0
  3 28  1  0  0  0  0
  5  9  1  0  0  0  0
  5 25  1  0  0  0  0
  5 29  1  6  0  0  0
  6  7  1  1  0  0  0
  6 11  1  0  0  0  0
  8 12  1  0  0  0  0
  9 10  1  1  0  0  0
  9 14  1  0  0  0  0
 11 16  1  0  0  0  0
 12 13  1  6  0  0  0
 12 17  1  0  0  0  0
 14 15  1  1  0  0  0
 14 18  1  0  0  0  0
 15 31  1  0  0  0  0
 16 20  1  0  0  0  0
 17  2  1  6  0  0  0
 17 22  1  0  0  0  0
 18 19  1  1  0  0  0
 18 24  1  0  0  0  0
 18 30  1  0  0  0  0
 20 21  1  0  0  0  0
 20 26  1  1  0  0  0
 22 23  1  6  0  0  0
 22 28  1  0  0  0  0
 24 25  1  0  0  0  0
 26 27  1  0  0  0  0
 28 29  1  1  0  0  0
M  END
>  <CHROM.1>
-169.34560078,-150.11171240,-94.56752699,-154.73290250,-14.79261260,87.50110334
21.83020677,-11.39030702,-3.40391440,-2.62353987,-0.84828130,1.77297540

>  <Name>
ligand

>  <RI>
0

>  <Rbt.Current_Directory>
/home/itssahil/PROJECTS/Mol_Feturizer/New_Systems/rnas/4F8V

>  <Rbt.Executable>
rbdock ($Id: //depot/dev/client3/rdock/2013.1/src/exe/rbdock.cxx#4 $)

>  <Rbt.Library>
libRbt.so (2013.1, Build901 2013/11/27)

>  <Rbt.Parameter_File>
/export/apps/rDock/src/rDock_2013.1_src/data/scripts/dock_solv.prm

>  <Rbt.Receptor>
prm/pocket_docking_3.prm

>  <SCORE>
-16.2223

>  <SCORE.INTER>
-15.9343

>  <SCORE.INTER.CONST>
1

>  <SCORE.INTER.POLAR>
0

>  <SCORE.INTER.ROT>
6

>  <SCORE.INTER.SOLV>
18.6399

>  <SCORE.INTER.VDW>
-24.4362

>  <SCORE.INTER.norm>
-0.514009

>  <SCORE.INTRA>
-0.288042

>  <SCORE.INTRA.DIHEDRAL>
-3.24568

>  <SCORE.INTRA.DIHEDRAL.0>
15.9129

>  <SCORE.INTRA.POLAR>
0

>  <SCORE.INTRA.POLAR.0>
0

>  <SCORE.INTRA.REPUL>
0

>  <SCORE.INTRA.REPUL.0>
0

>  <SCORE.INTRA.SOLV>
-0.382646

>  <SCORE.INTRA.SOLV.lig_0>
-75.7056

>  <SCORE.INTRA.VDW>
1.52612

>  <SCORE.INTRA.VDW.0>
-4.61812

>  <SCORE.INTRA.norm>
-0.00929168

>  <SCORE.RESTR>
0

>  <SCORE.RESTR.CAVITY>
0

>  <SCORE.RESTR.norm>
0

>  <SCORE.SYSTEM>
0

>  <SCORE.SYSTEM.CONST>
0

>  <SCORE.SYSTEM.DIHEDRAL>
0

>  <SCORE.SYSTEM.SOLV>
0

>  <SCORE.SYSTEM.norm>
0

>  <SCORE.heavy>
31

>  <SCORE.norm>
-0.523301

>  <RMSD>
0.582

$$$$
ligand
 OpenBabel11021811493D
libRbt.so/2013.1/901 2013/11/27
 31 33  0  0  0  0  0  0  0  0999 V2000
   20.3700   -9.3195   -5.8460 C   0  0  2  0  0  0  0  0  0  0  0  0
   20.7450   -8.8451   -4.5457 O   0  0  0  0  0  0  0  0  0  0  0  0
   21.4509  -10.8210   -0.8328 C   0  0  2  0  0  0  0  0  0  0  0  0
   21.2509  -11.6788    0.2862 N   0  0  0  0  0  0  0  0  0  0  0  0
   22.3598  -13.9047   -1.4351 C   0  0  2  0  0  0  0  0  0  0  0  0
   21.0376   -8.3680   -6.8866 C   0  0  2  0  0  0  0  0  0  0  0  0
   22.4830   -8.3676   -6.6700 N   0  0  0  0  0  0  0  0  0  0  0  0
   20.2996   -9.7476   -0.8756 C   0  0  0  0  0  0  0  0  0  0  0  0
   23.7954  -14.2144   -0.9313 C   0  0  2  0  0  0  0  0  0  0  0  0
   24.2026  -13.1791   -0.0661 O   0  0  0  0  0  0  0  0  0  0  0  0
   20.4329   -6.9162   -6.7666 C   0  0  0  0  0  0  0  0  0  0  0  0
   20.5254   -8.7959   -2.1202 C   0  0  2  0  0  0  0  0  0  0  0  0
   19.4458   -7.7888   -2.1670 N   0  0  0  0  0  0  0  0  0  0  0  0
   24.7443  -14.3220   -2.1903 C   0  0  1  0  0  0  0  0  0  0  0  0
   26.1425  -14.5973   -1.7538 N   0  0  0  0  0  0  0  0  0  0  0  0
   18.9227   -6.9168   -6.3304 C   0  0  0  0  0  0  0  0  0  0  0  0
   20.5240   -9.6707   -3.4455 C   0  0  2  0  0  0  0  0  0  0  0  0
   24.2320  -15.5278   -3.1567 C   0  0  1  0  0  0  0  0  0  0  0  0
   24.2488  -16.7849   -2.5258 O   0  0  0  0  0  0  0  0  0  0  0  0
   18.2878   -8.0545   -6.0113 C   0  0  1  0  0  0  0  0  0  0  0  0
   18.9319   -9.3125   -6.0536 O   0  0  0  0  0  0  0  0  0  0  0  0
   21.6679  -10.7459   -3.3680 C   0  0  2  0  0  0  0  0  0  0  0  0
   21.6516  -11.5340   -4.5569 O   0  0  0  0  0  0  0  0  0  0  0  0
   22.7658  -15.2315   -3.5998 C   0  0  0  0  0  0  0  0  0  0  0  0
   21.8921  -14.9760   -2.3882 O   0  0  0  0  0  0  0  0  0  0  0  0
   16.8129   -8.0913   -5.5658 C   0  0  0  0  0  0  0  0  0  0  0  0
   16.7624   -8.0723   -4.1203 N   0  0  0  0  0  0  0  0  0  0  0  0
   21.4294  -11.6745   -2.1179 C   0  0  1  0  0  0  0  0  0  0  0  0
   22.4648  -12.6118   -2.0681 O   0  0  0  0  0  0  0  0  0  0  0  0
   25.0572  -15.7601   -4.4305 C   0  0  0  0  0  0  0  0  0  0  0  0
   27.0103  -13.4228   -1.5775 C   0  0  0  0  0  0  0  0  0  0  0  0
  1  2  1  1  0  0  0
  1  6  1  0  0  0  0
  1 21  1  0  0  0  0
  3  4  1  1  0  0  0
  3  8  1  0  0  0  0
  3 28  1  0  0  0  0
  5  9  1  0  0  0  0
  5 25  1  0  0  0  0
  5 29  1  6  0  0  0
  6  7  1  1  0  0  0
  6 11  1  0  0  0  0
  8 12  1  0  0  0  0
  9 10  1  1  0  0  0
  9 14  1  0  0  0  0
 11 16  1  0  0  0  0
 12 13  1  6  0  0  0
 12 17  1  0  0  0  0
 14 15  1  1  0  0  0
 14 18  1  0  0  0  0
 15 31  1  0  0  0  0
 16 20  1  0  0  0  0
 17  2  1  6  0  0  0
 17 22  1  0  0  0  0
 18 19  1  1  0  0  0
 18 24  1  0  0  0  0
 18 30  1  0  0  0  0
 20 21  1  0  0  0  0
 20 26  1  1  0  0  0
 22 23  1  6  0  0  0
 22 28  1  0  0  0  0
 24 25  1  0  0  0  0
 26 27  1  0  0  0  0
 28 29  1  1  0  0  0
M  END
>  <CHROM.1>
-166.47671745,-149.29922157,-93.62550531,-160.39631489,-94.94182871,85.96467364
21.70014861,-11.30928098,-3.35618544,-2.59052590,-0.82987819,1.80426875

>  <Name>
ligand

>  <RI>
0

>  <Rbt.Current_Directory>
/home/itssahil/PROJECTS/Mol_Feturizer/New_Systems/rnas/4F8V

>  <Rbt.Executable>
rbdock ($Id: //depot/dev/client3/rdock/2013.1/src/exe/rbdock.cxx#4 $)

>  <Rbt.Library>
libRbt.so (2013.1, Build901 2013/11/27)

>  <Rbt.Parameter_File>
/export/apps/rDock/src/rDock_2013.1_src/data/scripts/dock_solv.prm

>  <Rbt.Receptor>
prm/pocket_docking_4.prm

>  <SCORE>
-15.7225

>  <SCORE.INTER>
-15.2361

>  <SCORE.INTER.CONST>
1

>  <SCORE.INTER.POLAR>
0

>  <SCORE.INTER.ROT>
6

>  <SCORE.INTER.SOLV>
21.7217

>  <SCORE.INTER.VDW>
-24.998

>  <SCORE.INTER.norm>
-0.491488

>  <SCORE.INTRA>
-0.486332

>  <SCORE.INTRA.DIHEDRAL>
-3.62436

>  <SCORE.INTRA.DIHEDRAL.0>
15.9129

>  <SCORE.INTRA.POLAR>
0

>  <SCORE.INTRA.POLAR.0>
0

>  <SCORE.INTRA.REPUL>
0.0147045

>  <SCORE.INTRA.REPUL.0>
0

>  <SCORE.INTRA.SOLV>
1.0123

>  <SCORE.INTRA.SOLV.lig_0>
-75.7056

>  <SCORE.INTRA.VDW>
0.746173

>  <SCORE.INTRA.VDW.0>
-4.61812

>  <SCORE.INTRA.norm>
-0.0156881

>  <SCORE.RESTR>
0

>  <SCORE.RESTR.CAVITY>
0

>  <SCORE.RESTR.norm>
0

>  <SCORE.SYSTEM>
0

>  <SCORE.SYSTEM.CONST>
0

>  <SCORE.SYSTEM.DIHEDRAL>
0

>  <SCORE.SYSTEM.SOLV>
0

>  <SCORE.SYSTEM.norm>
0

>  <SCORE.heavy>
31

>  <SCORE.norm>
-0.507176

>  <RMSD>
0.583

$$$$
ligand
 OpenBabel11021811493D
libRbt.so/2013.1/901 2013/11/27
 31 33  0  0  0  0  0  0  0  0999 V2000
   20.3884   -9.5188   -5.8314 C   0  0  2  0  0  0  0  0  0  0  0  0
   20.8935   -9.0671   -4.5675 O   0  0  0  0  0  0  0  0  0  0  0  0
   21.6475  -10.9359   -0.8089 C   0  0  2  0  0  0  0  0  0  0  0  0
   21.4648  -11.7657    0.3340 N   0  0  0  0  0  0  0  0  0  0  0  0
   22.5626  -14.0552   -1.4014 C   0  0  2  0  0  0  0  0  0  0  0  0
   21.0342   -8.6159   -6.9275 C   0  0  2  0  0  0  0  0  0  0  0  0
   22.4889   -8.7104   -6.8233 N   0  0  0  0  0  0  0  0  0  0  0  0
   20.4843   -9.8763   -0.8715 C   0  0  0  0  0  0  0  0  0  0  0  0
   24.0038  -14.3958   -0.9352 C   0  0  2  0  0  0  0  0  0  0  0  0
   24.4422  -13.3879   -0.0529 O   0  0  0  0  0  0  0  0  0  0  0  0
   20.5371   -7.1271   -6.7719 C   0  0  0  0  0  0  0  0  0  0  0  0
   20.6909   -8.9558   -2.1426 C   0  0  2  0  0  0  0  0  0  0  0  0
   19.6001   -7.9617   -2.2080 N   0  0  0  0  0  0  0  0  0  0  0  0
   24.9255  -14.4834   -2.2158 C   0  0  1  0  0  0  0  0  0  0  0  0
   26.3285  -14.7875   -1.8154 N   0  0  0  0  0  0  0  0  0  0  0  0
   19.0686   -7.0271   -6.2203 C   0  0  0  0  0  0  0  0  0  0  0  0
   20.6894   -9.8655   -3.4441 C   0  0  2  0  0  0  0  0  0  0  0  0
   24.3777  -15.6578   -3.2015 C   0  0  1  0  0  0  0  0  0  0  0  0
   24.3907  -16.9306   -2.6027 O   0  0  0  0  0  0  0  0  0  0  0  0
   18.3871   -8.1197   -5.8447 C   0  0  1  0  0  0  0  0  0  0  0  0
   18.9421   -9.4175   -5.9272 O   0  0  0  0  0  0  0  0  0  0  0  0
   21.8454  -10.9261   -3.3467 C   0  0  2  0  0  0  0  0  0  0  0  0
   21.8290  -11.7456   -4.5141 O   0  0  0  0  0  0  0  0  0  0  0  0
   22.9069  -15.3318   -3.6066 C   0  0  0  0  0  0  0  0  0  0  0  0
   22.0614  -15.0959   -2.3712 O   0  0  0  0  0  0  0  0  0  0  0  0
   16.9520   -8.0580   -5.2862 C   0  0  0  0  0  0  0  0  0  0  0  0
   16.6281   -6.6807   -4.9853 N   0  0  0  0  0  0  0  0  0  0  0  0
   21.6259  -11.8235   -2.0707 C   0  0  1  0  0  0  0  0  0  0  0  0
   22.6717  -12.7481   -2.0038 O   0  0  0  0  0  0  0  0  0  0  0  0
   25.1737  -15.8681   -4.4974 C   0  0  0  0  0  0  0  0  0  0  0  0
   27.2075  -13.6279   -1.6001 C   0  0  0  0  0  0  0  0  0  0  0  0
  1  2  1  1  0  0  0
  1  6  1  0  0  0  0
  1 21  1  0  0  0  0
  3  4  1  1  0  0  0
  3  8  1  0  0  0  0
  3 28  1  0  0  0  0
  5  9  1  0  0  0  0
  5 25  1  0  0  0  0
  5 29  1  6  0  0  0
  6  7  1  1  0  0  0
  6 11  1  0  0  0  0
  8 12  1  0  0  0  0
  9 10  1  1  0  0  0
  9 14  1  0  0  0  0
 11 16  1  0  0  0  0
 12 13  1  6  0  0  0
 12 17  1  0  0  0  0
 14 15  1  1  0  0  0
 14 18  1  0  0  0  0
 15 31  1  0  0  0  0
 16 20  1  0  0  0  0
 17  2  1  6  0  0  0
 17 22  1  0  0  0  0
 18 19  1  1  0  0  0
 18 24  1  0  0  0  0
 18 30  1  0  0  0  0
 20 21  1  0  0  0  0
 20 26  1  1  0  0  0
 22 23  1  6  0  0  0
 22 28  1  0  0  0  0
 24 25  1  0  0  0  0
 26 27  1  0  0  0  0
 28 29  1  1  0  0  0
M  END
>  <CHROM.1>
-167.31458781,-152.82412066,-92.38375243,-153.95729338,-12.06927339,89.59998969
21.83935381,-11.41675791,-3.37015649,-2.65322499,-0.85489703,1.73366338

>  <Name>
ligand

>  <RI>
0

>  <Rbt.Current_Directory>
/home/itssahil/PROJECTS/Mol_Feturizer/New_Systems/rnas/4F8V

>  <Rbt.Executable>
rbdock ($Id: //depot/dev/client3/rdock/2013.1/src/exe/rbdock.cxx#4 $)

>  <Rbt.Library>
libRbt.so (2013.1, Build901 2013/11/27)

>  <Rbt.Parameter_File>
/export/apps/rDock/src/rDock_2013.1_src/data/scripts/dock_solv.prm

>  <Rbt.Receptor>
prm/pocket_docking_5.prm

>  <SCORE>
-16.2309

>  <SCORE.INTER>
-15.965

>  <SCORE.INTER.CONST>
1

>  <SCORE.INTER.POLAR>
0

>  <SCORE.INTER.ROT>
6

>  <SCORE.INTER.SOLV>
18.6358

>  <SCORE.INTER.VDW>
-24.4553

>  <SCORE.INTER.norm>
-0.515001

>  <SCORE.INTRA>
-0.265854

>  <SCORE.INTRA.DIHEDRAL>
-3.15471

>  <SCORE.INTRA.DIHEDRAL.0>
15.9129

>  <SCORE.INTRA.POLAR>
0

>  <SCORE.INTRA.POLAR.0>
0

>  <SCORE.INTRA.REPUL>
0

>  <SCORE.INTRA.REPUL.0>
0

>  <SCORE.INTRA.SOLV>
-0.450057

>  <SCORE.INTRA.SOLV.lig_0>
-75.7056

>  <SCORE.INTRA.VDW>
1.53653

>  <SCORE.INTRA.VDW.0>
-4.61812

>  <SCORE.INTRA.norm>
-0.00857595

>  <SCORE.RESTR>
0

>  <SCORE.RESTR.CAVITY>
0

>  <SCORE.RESTR.norm>
0

>  <SCORE.SYSTEM>
0

>  <SCORE.SYSTEM.CONST>
0

>  <SCORE.SYSTEM.DIHEDRAL>
0

>  <SCORE.SYSTEM.SOLV>
0

>  <SCORE.SYSTEM.norm>
0

>  <SCORE.heavy>
31

>  <SCORE.norm>
-0.523577

>  <RMSD>
0.592

$$$$
ligand
 OpenBabel11021811493D
libRbt.so/2013.1/901 2013/11/27
 31 33  0  0  0  0  0  0  0  0999 V2000
   20.2150   -9.4513   -5.8308 C   0  0  2  0  0  0  0  0  0  0  0  0
   20.6912   -8.9785   -4.5635 O   0  0  0  0  0  0  0  0  0  0  0  0
   21.4944  -10.8723   -0.8276 C   0  0  2  0  0  0  0  0  0  0  0  0
   21.3226  -11.7030    0.3162 N   0  0  0  0  0  0  0  0  0  0  0  0
   22.3534  -13.9946   -1.4280 C   0  0  2  0  0  0  0  0  0  0  0  0
   20.8623   -8.5473   -6.9252 C   0  0  2  0  0  0  0  0  0  0  0  0
   22.3166   -8.6145   -6.7965 N   0  0  0  0  0  0  0  0  0  0  0  0
   20.3476   -9.7938   -0.8622 C   0  0  0  0  0  0  0  0  0  0  0  0
   23.7863  -14.3112   -0.9209 C   0  0  2  0  0  0  0  0  0  0  0  0
   24.1920  -13.2839   -0.0455 O   0  0  0  0  0  0  0  0  0  0  0  0
   20.3362   -7.0663   -6.7923 C   0  0  0  0  0  0  0  0  0  0  0  0
   20.5420   -8.8723   -2.1344 C   0  0  2  0  0  0  0  0  0  0  0  0
   19.4664   -7.8605   -2.1735 N   0  0  0  0  0  0  0  0  0  0  0  0
   24.7402  -14.4101   -2.1769 C   0  0  1  0  0  0  0  0  0  0  0  0
   26.1360  -14.6918   -1.7371 N   0  0  0  0  0  0  0  0  0  0  0  0
   18.8573   -6.9876   -6.2656 C   0  0  0  0  0  0  0  0  0  0  0  0
   20.4980   -9.7773   -3.4385 C   0  0  2  0  0  0  0  0  0  0  0  0
   24.2295  -15.6069   -3.1555 C   0  0  1  0  0  0  0  0  0  0  0  0
   24.2414  -16.8692   -2.5349 O   0  0  0  0  0  0  0  0  0  0  0  0
   18.1895   -8.0887   -5.8903 C   0  0  1  0  0  0  0  0  0  0  0  0
   18.7689   -9.3771   -5.9511 O   0  0  0  0  0  0  0  0  0  0  0  0
   21.6384  -10.8569   -3.3691 C   0  0  2  0  0  0  0  0  0  0  0  0
   21.5839  -11.6720   -4.5384 O   0  0  0  0  0  0  0  0  0  0  0  0
   22.7657  -15.3042   -3.6020 C   0  0  0  0  0  0  0  0  0  0  0  0
   21.8875  -15.0571   -2.3918 O   0  0  0  0  0  0  0  0  0  0  0  0
   16.7445   -8.0477   -5.3558 C   0  0  0  0  0  0  0  0  0  0  0  0
   16.4615   -6.7112   -4.8807 N   0  0  0  0  0  0  0  0  0  0  0  0
   21.4315  -11.7551   -2.0915 C   0  0  1  0  0  0  0  0  0  0  0  0
   22.4633  -12.6967   -2.0498 O   0  0  0  0  0  0  0  0  0  0  0  0
   25.0595  -15.8301   -4.4277 C   0  0  0  0  0  0  0  0  0  0  0  0
   27.0261  -13.5267   -1.6177 C   0  0  0  0  0  0  0  0  0  0  0  0
  1  2  1  1  0  0  0
  1  6  1  0  0  0  0
  1 21  1  0  0  0  0
  3  4  1  1  0  0  0
  3  8  1  0  0  0  0
  3 28  1  0  0  0  0
  5  9  1  0  0  0  0
  5 25  1  0  0  0  0
  5 29  1  6  0  0  0
  6  7  1  1  0  0  0
  6 11  1  0  0  0  0
  8 12  1  0  0  0  0
  9 10  1  1  0  0  0
  9 14  1  0  0  0  0
 11 16  1  0  0  0  0
 12 13  1  6  0  0  0
 12 17  1  0  0  0  0
 14 15  1  1  0  0  0
 14 18  1  0  0  0  0
 15 31  1  0  0  0  0
 16 20  1  0  0  0  0
 17  2  1  6  0  0  0
 17 22  1  0  0  0  0
 18 19  1  1  0  0  0
 18 24  1  0  0  0  0
 18 30  1  0  0  0  0
 20 21  1  0  0  0  0
 20 26  1  1  0  0  0
 22 23  1  6  0  0  0
 22 28  1  0  0  0  0
 24 25  1  0  0  0  0
 26 27  1  0  0  0  0
 28 29  1  1  0  0  0
M  END
>  <CHROM.1>
-166.51517903,-149.04115653,-96.81366608,-157.26437691,-20.81892533,88.42387551
21.65820385,-11.35376784,-3.36695997,-2.65986845,-0.85778845,1.72075987

>  <Name>
ligand

>  <RI>
0

>  <Rbt.Current_Directory>
/home/itssahil/PROJECTS/Mol_Feturizer/New_Systems/rnas/4F8V

>  <Rbt.Executable>
rbdock ($Id: //depot/dev/client3/rdock/2013.1/src/exe/rbdock.cxx#4 $)

>  <Rbt.Library>
libRbt.so (2013.1, Build901 2013/11/27)

>  <Rbt.Parameter_File>
/export/apps/rDock/src/rDock_2013.1_src/data/scripts/dock_solv.prm

>  <Rbt.Receptor>
prm/pocket_docking_3.prm

>  <SCORE>
-16.2359

>  <SCORE.INTER>
-16.0936

>  <SCORE.INTER.CONST>
1

>  <SCORE.INTER.POLAR>
0

>  <SCORE.INTER.ROT>
6

>  <SCORE.INTER.SOLV>
19.5498

>  <SCORE.INTER.VDW>
-24.8457

>  <SCORE.INTER.norm>
-0.519149

>  <SCORE.INTRA>
-0.142254

>  <SCORE.INTRA.DIHEDRAL>
-2.70061

>  <SCORE.INTRA.DIHEDRAL.0>
15.9129

>  <SCORE.INTRA.POLAR>
0

>  <SCORE.INTRA.POLAR.0>
0

>  <SCORE.INTRA.REPUL>
0

>  <SCORE.INTRA.REPUL.0>
0

>  <SCORE.INTRA.SOLV>
-0.506876

>  <SCORE.INTRA.SOLV.lig_0>
-75.7056

>  <SCORE.INTRA.VDW>
1.46149

>  <SCORE.INTRA.VDW.0>
-4.61812

>  <SCORE.INTRA.norm>
-0.00458885

>  <SCORE.RESTR>
0

>  <SCORE.RESTR.CAVITY>
0

>  <SCORE.RESTR.norm>
0

>  <SCORE.SYSTEM>
0

>  <SCORE.SYSTEM.CONST>
0

>  <SCORE.SYSTEM.DIHEDRAL>
0

>  <SCORE.SYSTEM.SOLV>
0

>  <SCORE.SYSTEM.norm>
0

>  <SCORE.heavy>
31

>  <SCORE.norm>
-0.523737

>  <RMSD>
0.598

$$$$
ligand
 OpenBabel11021811493D
libRbt.so/2013.1/901 2013/11/27
 31 33  0  0  0  0  0  0  0  0999 V2000
   20.4180   -9.4735   -5.8258 C   0  0  2  0  0  0  0  0  0  0  0  0
   20.8789   -9.0223   -4.5449 O   0  0  0  0  0  0  0  0  0  0  0  0
   21.6712  -10.9926   -0.8465 C   0  0  2  0  0  0  0  0  0  0  0  0
   21.4970  -11.8480    0.2786 N   0  0  0  0  0  0  0  0  0  0  0  0
   22.5538  -14.0865   -1.4814 C   0  0  2  0  0  0  0  0  0  0  0  0
   21.0754   -8.5487   -6.8965 C   0  0  2  0  0  0  0  0  0  0  0  0
   22.5283   -8.6148   -6.7527 N   0  0  0  0  0  0  0  0  0  0  0  0
   20.5210   -9.9174   -0.8634 C   0  0  0  0  0  0  0  0  0  0  0  0
   23.9896  -14.3906   -0.9750 C   0  0  2  0  0  0  0  0  0  0  0  0
   24.3865  -13.3601   -0.0992 O   0  0  0  0  0  0  0  0  0  0  0  0
   20.5442   -7.0715   -6.7432 C   0  0  0  0  0  0  0  0  0  0  0  0
   20.7181   -8.9683   -2.1149 C   0  0  2  0  0  0  0  0  0  0  0  0
   19.6393   -7.9595   -2.1375 N   0  0  0  0  0  0  0  0  0  0  0  0
   24.9439  -14.4804   -2.2314 C   0  0  1  0  0  0  0  0  0  0  0  0
   26.3424  -14.7498   -1.7922 N   0  0  0  0  0  0  0  0  0  0  0  0
   19.0592   -7.0055   -6.2318 C   0  0  0  0  0  0  0  0  0  0  0  0
   20.6832   -9.8455   -3.4381 C   0  0  2  0  0  0  0  0  0  0  0  0
   24.4436  -15.6812   -3.2104 C   0  0  1  0  0  0  0  0  0  0  0  0
   24.4669  -16.9437   -2.5905 O   0  0  0  0  0  0  0  0  0  0  0  0
   18.3900   -8.1147   -5.8837 C   0  0  1  0  0  0  0  0  0  0  0  0
   18.9732   -9.4004   -5.9609 O   0  0  0  0  0  0  0  0  0  0  0  0
   21.8269  -10.9225   -3.3863 C   0  0  2  0  0  0  0  0  0  0  0  0
   21.7805  -11.7128   -4.5730 O   0  0  0  0  0  0  0  0  0  0  0  0
   22.9770  -15.3913   -3.6562 C   0  0  0  0  0  0  0  0  0  0  0  0
   22.0971  -15.1525   -2.4457 O   0  0  0  0  0  0  0  0  0  0  0  0
   16.9390   -8.0865   -5.3648 C   0  0  0  0  0  0  0  0  0  0  0  0
   16.6194   -6.7386   -4.9485 N   0  0  0  0  0  0  0  0  0  0  0  0
   21.6172  -11.8484   -2.1291 C   0  0  1  0  0  0  0  0  0  0  0  0
   22.6520  -12.7873   -2.1026 O   0  0  0  0  0  0  0  0  0  0  0  0
   25.2750  -15.8964   -4.4830 C   0  0  0  0  0  0  0  0  0  0  0  0
   27.2140  -13.5741   -1.6449 C   0  0  0  0  0  0  0  0  0  0  0  0
  1  2  1  1  0  0  0
  1  6  1  0  0  0  0
  1 21  1  0  0  0  0
  3  4  1  1  0  0  0
  3  8  1  0  0  0  0
  3 28  1  0  0  0  0
  5  9  1  0  0  0  0
  5 25  1  0  0  0  0
  5 29  1  6  0  0  0
  6  7  1  1  0  0  0
  6 11  1  0  0  0  0
  8 12  1  0  0  0  0
  9 10  1  1  0  0  0
  9 14  1  0  0  0  0
 11 16  1  0  0  0  0
 12 13  1  6  0  0  0
 12 17  1  0  0  0  0
 14 15  1  1  0  0  0
 14 18  1  0  0  0  0
 15 31  1  0  0  0  0
 16 20  1  0  0  0  0
 17  2  1  6  0  0  0
 17 22  1  0  0  0  0
 18 19  1  1  0  0  0
 18 24  1  0  0  0  0
 18 30  1  0  0  0  0
 20 21  1  0  0  0  0
 20 26  1  1  0  0  0
 22 23  1  6  0  0  0
 22 28  1  0  0  0  0
 24 25  1  0  0  0  0
 26 27  1  0  0  0  0
 28 29  1  1  0  0  0
M  END
>  <CHROM.1>
-166.08544500,-148.21573741,-95.55879592,-157.67160597,-17.19122598,86.89443070
21.85426327,-11.41711759,-3.38735296,-2.64799319,-0.85236047,1.74640124

>  <Name>
ligand

>  <RI>
0

>  <Rbt.Current_Directory>
/home/itssahil/PROJECTS/Mol_Feturizer/New_Systems/rnas/4F8V

>  <Rbt.Executable>
rbdock ($Id: //depot/dev/client3/rdock/2013.1/src/exe/rbdock.cxx#4 $)

>  <Rbt.Library>
libRbt.so (2013.1, Build901 2013/11/27)

>  <Rbt.Parameter_File>
/export/apps/rDock/src/rDock_2013.1_src/data/scripts/dock_solv.prm

>  <Rbt.Receptor>
prm/pocket_docking_4.prm

>  <SCORE>
-16.2982

>  <SCORE.INTER>
-16.0392

>  <SCORE.INTER.CONST>
1

>  <SCORE.INTER.POLAR>
0

>  <SCORE.INTER.ROT>
6

>  <SCORE.INTER.SOLV>
18.6657

>  <SCORE.INTER.VDW>
-24.5147

>  <SCORE.INTER.norm>
-0.517394

>  <SCORE.INTRA>
-0.258991

>  <SCORE.INTRA.DIHEDRAL>
-3.03882

>  <SCORE.INTRA.DIHEDRAL.0>
15.9129

>  <SCORE.INTRA.POLAR>
0

>  <SCORE.INTRA.POLAR.0>
0

>  <SCORE.INTRA.REPUL>
0

>  <SCORE.INTRA.REPUL.0>
0

>  <SCORE.INTRA.SOLV>
-0.616178

>  <SCORE.INTRA.SOLV.lig_0>
-75.7056

>  <SCORE.INTRA.VDW>
1.56851

>  <SCORE.INTRA.VDW.0>
-4.61812

>  <SCORE.INTRA.norm>
-0.00835454

>  <SCORE.RESTR>
0

>  <SCORE.RESTR.CAVITY>
0

>  <SCORE.RESTR.norm>
0

>  <SCORE.SYSTEM>
0

>  <SCORE.SYSTEM.CONST>
0

>  <SCORE.SYSTEM.DIHEDRAL>
0

>  <SCORE.SYSTEM.SOLV>
0

>  <SCORE.SYSTEM.norm>
0

>  <SCORE.heavy>
31

>  <SCORE.norm>
-0.525749

>  <RMSD>
0.599

$$$$
ligand
 OpenBabel11021811493D
libRbt.so/2013.1/901 2013/11/27
 31 33  0  0  0  0  0  0  0  0999 V2000
   19.8187   -9.4139   -5.6282 C   0  0  2  0  0  0  0  0  0  0  0  0
   20.6264   -9.0986   -4.4860 O   0  0  0  0  0  0  0  0  0  0  0  0
   21.6730  -10.9863   -0.8077 C   0  0  2  0  0  0  0  0  0  0  0  0
   21.5725  -11.8074    0.3515 N   0  0  0  0  0  0  0  0  0  0  0  0
   22.4042  -14.1516   -1.5061 C   0  0  2  0  0  0  0  0  0  0  0  0
   20.2945   -8.4884   -6.7904 C   0  0  2  0  0  0  0  0  0  0  0  0
   21.7215   -8.7080   -7.0176 N   0  0  0  0  0  0  0  0  0  0  0  0
   20.5461   -9.8872   -0.7639 C   0  0  0  0  0  0  0  0  0  0  0  0
   23.8307  -14.4743   -0.9852 C   0  0  2  0  0  0  0  0  0  0  0  0
   24.2149  -13.4715   -0.0724 O   0  0  0  0  0  0  0  0  0  0  0  0
   19.9872   -6.9796   -6.4485 C   0  0  0  0  0  0  0  0  0  0  0  0
   20.6612   -8.9764   -2.0533 C   0  0  2  0  0  0  0  0  0  0  0  0
   19.6038   -7.9454   -2.0189 N   0  0  0  0  0  0  0  0  0  0  0  0
   24.8057  -14.5288   -2.2277 C   0  0  1  0  0  0  0  0  0  0  0  0
   26.1960  -14.8147   -1.7736 N   0  0  0  0  0  0  0  0  0  0  0  0
   18.6895   -6.8016   -5.5795 C   0  0  0  0  0  0  0  0  0  0  0  0
   20.5038   -9.8876   -3.3443 C   0  0  2  0  0  0  0  0  0  0  0  0
   24.3193  -15.6985   -3.2504 C   0  0  1  0  0  0  0  0  0  0  0  0
   24.3298  -16.9790   -2.6683 O   0  0  0  0  0  0  0  0  0  0  0  0
   18.0048   -7.8599   -5.1209 C   0  0  1  0  0  0  0  0  0  0  0  0
   18.4025   -9.1890   -5.3943 O   0  0  0  0  0  0  0  0  0  0  0  0
   21.6268  -10.9873   -3.3528 C   0  0  2  0  0  0  0  0  0  0  0  0
   21.4705  -11.8077   -4.5093 O   0  0  0  0  0  0  0  0  0  0  0  0
   22.8609  -15.3917   -3.7117 C   0  0  0  0  0  0  0  0  0  0  0  0
   21.9615  -15.1871   -2.5093 O   0  0  0  0  0  0  0  0  0  0  0  0
   16.7374   -7.7232   -4.2547 C   0  0  0  0  0  0  0  0  0  0  0  0
   15.5898   -8.1153   -5.0432 N   0  0  0  0  0  0  0  0  0  0  0  0
   21.5001  -11.8746   -2.0573 C   0  0  1  0  0  0  0  0  0  0  0  0
   22.5152  -12.8346   -2.0863 O   0  0  0  0  0  0  0  0  0  0  0  0
   25.1715  -15.8775   -4.5149 C   0  0  0  0  0  0  0  0  0  0  0  0
   27.0578  -13.6445   -1.5459 C   0  0  0  0  0  0  0  0  0  0  0  0
  1  2  1  1  0  0  0
  1  6  1  0  0  0  0
  1 21  1  0  0  0  0
  3  4  1  1  0  0  0
  3  8  1  0  0  0  0
  3 28  1  0  0  0  0
  5  9  1  0  0  0  0
  5 25  1  0  0  0  0
  5 29  1  6  0  0  0
  6  7  1  1  0  0  0
  6 11  1  0  0  0  0
  8 12  1  0  0  0  0
  9 10  1  1  0  0  0
  9 14  1  0  0  0  0
 11 16  1  0  0  0  0
 12 13  1  1  0  0  0
 12 17  1  0  0  0  0
 14 15  1  1  0  0  0
 14 18  1  0  0  0  0
 15 31  1  0  0  0  0
 16 20  1  0  0  0  0
 17  2  1  6  0  0  0
 17 22  1  0  0  0  0
 18 19  1  1  0  0  0
 18 24  1  0  0  0  0
 18 30  1  0  0  0  0
 20 21  1  0  0  0  0
 20 26  1  1  0  0  0
 22 23  1  6  0  0  0
 22 28  1  0  0  0  0
 24 25  1  0  0  0  0
 26 27  1  0  0  0  0
 28 29  1  6  0  0  0
M  END
>  <CHROM.1>
-173.13944992,-145.68152806,-94.15927789,-144.05654952,108.91777896,91.63166120
21.59566549,-11.45029386,-3.26222592,-2.78871361,-0.86037157,1.61858231

>  <Name>
ligand

>  <RI>
0

>  <Rbt.Current_Directory>
/home/itssahil/PROJECTS/Mol_Feturizer/New_Systems/rnas/4F8V

>  <Rbt.Executable>
rbdock ($Id: //depot/dev/client3/rdock/2013.1/src/exe/rbdock.cxx#4 $)

>  <Rbt.Library>
libRbt.so (2013.1, Build901 2013/11/27)

>  <Rbt.Parameter_File>
/export/apps/rDock/src/rDock_2013.1_src/data/scripts/dock_solv.prm

>  <Rbt.Receptor>
prm/pocket_docking_4.prm

>  <SCORE>
-14.7446

>  <SCORE.INTER>
-15.1027

>  <SCORE.INTER.CONST>
1

>  <SCORE.INTER.POLAR>
0

>  <SCORE.INTER.ROT>
6

>  <SCORE.INTER.SOLV>
23.7655

>  <SCORE.INTER.VDW>
-25.5903

>  <SCORE.INTER.norm>
-0.487183

>  <SCORE.INTRA>
0.358031

>  <SCORE.INTRA.DIHEDRAL>
-0.100771

>  <SCORE.INTRA.DIHEDRAL.0>
15.9129

>  <SCORE.INTRA.POLAR>
0

>  <SCORE.INTRA.POLAR.0>
0

>  <SCORE.INTRA.REPUL>
0

>  <SCORE.INTRA.REPUL.0>
0

>  <SCORE.INTRA.SOLV>
0.121015

>  <SCORE.INTRA.SOLV.lig_0>
-75.7056

>  <SCORE.INTRA.VDW>
0.347909

>  <SCORE.INTRA.VDW.0>
-4.61812

>  <SCORE.INTRA.norm>
0.0115494

>  <SCORE.RESTR>
0

>  <SCORE.RESTR.CAVITY>
0

>  <SCORE.RESTR.norm>
0

>  <SCORE.SYSTEM>
0

>  <SCORE.SYSTEM.CONST>
0

>  <SCORE.SYSTEM.DIHEDRAL>
0

>  <SCORE.SYSTEM.SOLV>
0

>  <SCORE.SYSTEM.norm>
0

>  <SCORE.heavy>
31

>  <SCORE.norm>
-0.475633

>  <RMSD>
0.601

$$$$
ligand
 OpenBabel11021811493D
libRbt.so/2013.1/901 2013/11/27
 31 33  0  0  0  0  0  0  0  0999 V2000
   20.6822   -9.4471   -6.1240 C   0  0  2  0  0  0  0  0  0  0  0  0
   21.2707   -9.1224   -4.8573 O   0  0  0  0  0  0  0  0  0  0  0  0
   21.5753  -10.8813   -0.9841 C   0  0  2  0  0  0  0  0  0  0  0  0
   21.2689  -11.6927    0.1454 N   0  0  0  0  0  0  0  0  0  0  0  0
   22.6754  -13.9543   -1.3210 C   0  0  2  0  0  0  0  0  0  0  0  0
   21.3555   -8.5251   -7.1873 C   0  0  2  0  0  0  0  0  0  0  0  0
   22.8009   -8.7392   -7.1535 N   0  0  0  0  0  0  0  0  0  0  0  0
   20.3959   -9.8672   -1.2292 C   0  0  0  0  0  0  0  0  0  0  0  0
   24.1157  -14.3211   -0.8721 C   0  0  2  0  0  0  0  0  0  0  0  0
   24.6067  -13.2903   -0.0459 O   0  0  0  0  0  0  0  0  0  0  0  0
   20.9863   -7.0161   -6.9147 C   0  0  0  0  0  0  0  0  0  0  0  0
   20.7402   -8.9669   -2.4848 C   0  0  2  0  0  0  0  0  0  0  0  0
   19.6350   -8.0156   -2.7214 N   0  0  0  0  0  0  0  0  0  0  0  0
   25.0035  -14.4954   -2.1677 C   0  0  1  0  0  0  0  0  0  0  0  0
   26.4052  -14.8274   -1.7854 N   0  0  0  0  0  0  0  0  0  0  0  0
   19.5531   -6.8397   -6.2937 C   0  0  0  0  0  0  0  0  0  0  0  0
   20.9445   -9.9036   -3.7507 C   0  0  2  0  0  0  0  0  0  0  0  0
   24.3955  -15.6935   -3.0872 C   0  0  1  0  0  0  0  0  0  0  0  0
   24.3822  -16.9384   -2.4324 O   0  0  0  0  0  0  0  0  0  0  0  0
   18.8010   -7.8989   -5.9593 C   0  0  1  0  0  0  0  0  0  0  0  0
   19.2461   -9.2274   -6.1494 O   0  0  0  0  0  0  0  0  0  0  0  0
   22.1122  -10.9183   -3.4721 C   0  0  2  0  0  0  0  0  0  0  0  0
   22.2808  -11.7626   -4.6094 O   0  0  0  0  0  0  0  0  0  0  0  0
   22.9266  -15.3376   -3.4738 C   0  0  0  0  0  0  0  0  0  0  0  0
   22.1185  -15.0198   -2.2317 O   0  0  0  0  0  0  0  0  0  0  0  0
   17.3983   -7.7637   -5.3354 C   0  0  0  0  0  0  0  0  0  0  0  0
   16.4582   -8.5182   -6.1351 N   0  0  0  0  0  0  0  0  0  0  0  0
   21.7537  -11.7958   -2.2138 C   0  0  1  0  0  0  0  0  0  0  0  0
   22.8117  -12.6793   -1.9837 O   0  0  0  0  0  0  0  0  0  0  0  0
   25.1535  -15.9868   -4.3898 C   0  0  0  0  0  0  0  0  0  0  0  0
   27.3084  -13.6854   -1.5760 C   0  0  0  0  0  0  0  0  0  0  0  0
  1  2  1  1  0  0  0
  1  6  1  0  0  0  0
  1 21  1  0  0  0  0
  3  4  1  1  0  0  0
  3  8  1  0  0  0  0
  3 28  1  0  0  0  0
  5  9  1  0  0  0  0
  5 25  1  0  0  0  0
  5 29  1  6  0  0  0
  6  7  1  1  0  0  0
  6 11  1  0  0  0  0
  8 12  1  0  0  0  0
  9 10  1  1  0  0  0
  9 14  1  0  0  0  0
 11 16  1  0  0  0  0
 12 13  1  6  0  0  0
 12 17  1  0  0  0  0
 14 15  1  1  0  0  0
 14 18  1  0  0  0  0
 15 31  1  0  0  0  0
 16 20  1  0  0  0  0
 17  2  1  6  0  0  0
 17 22  1  0  0  0  0
 18 19  1  1  0  0  0
 18 24  1  0  0  0  0
 18 30  1  0  0  0  0
 20 21  1  0  0  0  0
 20 26  1  1  0  0  0
 22 23  1  6  0  0  0
 22 28  1  0  0  0  0
 24 25  1  0  0  0  0
 26 27  1  0  0  0  0
 28 29  1  1  0  0  0
M  END
>  <CHROM.1>
-173.34859556,-161.09621854,-89.42466812,-139.08987679,125.66825846,87.09857750
21.99914810,-11.43471529,-3.50366160,-2.49244596,-0.79791958,1.87678693

>  <Name>
ligand

>  <RI>
0

>  <Rbt.Current_Directory>
/home/itssahil/PROJECTS/Mol_Feturizer/New_Systems/rnas/4F8V

>  <Rbt.Executable>
rbdock ($Id: //depot/dev/client3/rdock/2013.1/src/exe/rbdock.cxx#4 $)

>  <Rbt.Library>
libRbt.so (2013.1, Build901 2013/11/27)

>  <Rbt.Parameter_File>
/export/apps/rDock/src/rDock_2013.1_src/data/scripts/dock_solv.prm

>  <Rbt.Receptor>
prm/pocket_docking_3.prm

>  <SCORE>
-14.5963

>  <SCORE.INTER>
-13.539

>  <SCORE.INTER.CONST>
1

>  <SCORE.INTER.POLAR>
0

>  <SCORE.INTER.ROT>
6

>  <SCORE.INTER.SOLV>
23.9632

>  <SCORE.INTER.VDW>
-24.6138

>  <SCORE.INTER.norm>
-0.436742

>  <SCORE.INTRA>
-1.05733

>  <SCORE.INTRA.DIHEDRAL>
-3.16564

>  <SCORE.INTRA.DIHEDRAL.0>
15.9129

>  <SCORE.INTRA.POLAR>
0

>  <SCORE.INTRA.POLAR.0>
0

>  <SCORE.INTRA.REPUL>
0

>  <SCORE.INTRA.REPUL.0>
0

>  <SCORE.INTRA.SOLV>
0.178927

>  <SCORE.INTRA.SOLV.lig_0>
-75.7056

>  <SCORE.INTRA.VDW>
0.436026

>  <SCORE.INTRA.VDW.0>
-4.61812

>  <SCORE.INTRA.norm>
-0.0341074

>  <SCORE.RESTR>
0

>  <SCORE.RESTR.CAVITY>
0

>  <SCORE.RESTR.norm>
0

>  <SCORE.SYSTEM>
0

>  <SCORE.SYSTEM.CONST>
0

>  <SCORE.SYSTEM.DIHEDRAL>
0

>  <SCORE.SYSTEM.SOLV>
0

>  <SCORE.SYSTEM.norm>
0

>  <SCORE.heavy>
31

>  <SCORE.norm>
-0.47085

>  <RMSD>
0.602

$$$$
ligand
 OpenBabel11021811493D
libRbt.so/2013.1/901 2013/11/27
 31 33  0  0  0  0  0  0  0  0999 V2000
   20.3166   -9.4525   -5.8681 C   0  0  2  0  0  0  0  0  0  0  0  0
   20.8123   -9.0190   -4.5942 O   0  0  0  0  0  0  0  0  0  0  0  0
   21.5973  -11.0094   -0.9049 C   0  0  2  0  0  0  0  0  0  0  0  0
   21.4151  -11.8613    0.2216 N   0  0  0  0  0  0  0  0  0  0  0  0
   22.3995  -14.1259   -1.5592 C   0  0  2  0  0  0  0  0  0  0  0  0
   20.9424   -8.5111   -6.9432 C   0  0  2  0  0  0  0  0  0  0  0  0
   22.3989   -8.5766   -6.8410 N   0  0  0  0  0  0  0  0  0  0  0  0
   20.4716   -9.9083   -0.9097 C   0  0  0  0  0  0  0  0  0  0  0  0
   23.8179  -14.4419   -1.0126 C   0  0  2  0  0  0  0  0  0  0  0  0
   24.1961  -13.4177   -0.1214 O   0  0  0  0  0  0  0  0  0  0  0  0
   20.4134   -7.0373   -6.7537 C   0  0  0  0  0  0  0  0  0  0  0  0
   20.6775   -8.9632   -2.1626 C   0  0  2  0  0  0  0  0  0  0  0  0
   19.6216   -7.9301   -2.1738 N   0  0  0  0  0  0  0  0  0  0  0  0
   24.8076  -14.5331   -2.2412 C   0  0  1  0  0  0  0  0  0  0  0  0
   26.1909  -14.8139   -1.7628 N   0  0  0  0  0  0  0  0  0  0  0  0
   18.9433   -6.9816   -6.2002 C   0  0  0  0  0  0  0  0  0  0  0  0
   20.6093   -9.8384   -3.4858 C   0  0  2  0  0  0  0  0  0  0  0  0
   24.3278  -15.7265   -3.2393 C   0  0  1  0  0  0  0  0  0  0  0  0
   24.3247  -16.9916   -2.6244 O   0  0  0  0  0  0  0  0  0  0  0  0
   18.2857   -8.0969   -5.8497 C   0  0  1  0  0  0  0  0  0  0  0  0
   18.8685   -9.3803   -5.9617 O   0  0  0  0  0  0  0  0  0  0  0  0
   21.7288  -10.9411   -3.4461 C   0  0  2  0  0  0  0  0  0  0  0  0
   21.6525  -11.7292   -4.6326 O   0  0  0  0  0  0  0  0  0  0  0  0
   22.8768  -15.4248   -3.7263 C   0  0  0  0  0  0  0  0  0  0  0  0
   21.9638  -15.1849   -2.5407 O   0  0  0  0  0  0  0  0  0  0  0  0
   16.8498   -8.0790   -5.2901 C   0  0  0  0  0  0  0  0  0  0  0  0
   16.5162   -6.7247   -4.9067 N   0  0  0  0  0  0  0  0  0  0  0  0
   21.5109  -11.8629   -2.1873 C   0  0  1  0  0  0  0  0  0  0  0  0
   22.5243  -12.8250   -2.1717 O   0  0  0  0  0  0  0  0  0  0  0  0
   25.1944  -15.9422   -4.4883 C   0  0  0  0  0  0  0  0  0  0  0  0
   27.0587  -13.6430   -1.5636 C   0  0  0  0  0  0  0  0  0  0  0  0
  1  2  1  1  0  0  0
  1  6  1  0  0  0  0
  1 21  1  0  0  0  0
  3  4  1  1  0  0  0
  3  8  1  0  0  0  0
  3 28  1  0  0  0  0
  5  9  1  0  0  0  0
  5 25  1  0  0  0  0
  5 29  1  6  0  0  0
  6  7  1  1  0  0  0
  6 11  1  0  0  0  0
  8 12  1  0  0  0  0
  9 10  1  1  0  0  0
  9 14  1  0  0  0  0
 11 16  1  0  0  0  0
 12 13  1  6  0  0  0
 12 17  1  0  0  0  0
 14 15  1  1  0  0  0
 14 18  1  0  0  0  0
 15 31  1  0  0  0  0
 16 20  1  0  0  0  0
 17  2  1  6  0  0  0
 17 22  1  0  0  0  0
 18 19  1  1  0  0  0
 18 24  1  0  0  0  0
 18 30  1  0  0  0  0
 20 21  1  0  0  0  0
 20 26  1  1  0  0  0
 22 23  1  6  0  0  0
 22 28  1  0  0  0  0
 24 25  1  0  0  0  0
 26 27  1  0  0  0  0
 28 29  1  1  0  0  0
M  END
>  <CHROM.1>
-168.20552792,-146.10532402,-94.56740427,-157.05097325,-14.39477324,87.39612012
21.74373630,-11.43014459,-3.41524479,-2.65974143,-0.86729257,1.73338938

>  <Name>
ligand

>  <RI>
0

>  <Rbt.Current_Directory>
/home/itssahil/PROJECTS/Mol_Feturizer/New_Systems/rnas/4F8V

>  <Rbt.Executable>
rbdock ($Id: //depot/dev/client3/rdock/2013.1/src/exe/rbdock.cxx#4 $)

>  <Rbt.Library>
libRbt.so (2013.1, Build901 2013/11/27)

>  <Rbt.Parameter_File>
/export/apps/rDock/src/rDock_2013.1_src/data/scripts/dock_solv.prm

>  <Rbt.Receptor>
prm/pocket_docking_3.prm

>  <SCORE>
-16.3666

>  <SCORE.INTER>
-16.2657

>  <SCORE.INTER.CONST>
1

>  <SCORE.INTER.POLAR>
0

>  <SCORE.INTER.ROT>
6

>  <SCORE.INTER.SOLV>
19.2368

>  <SCORE.INTER.VDW>
-24.856

>  <SCORE.INTER.norm>
-0.524699

>  <SCORE.INTRA>
-0.100979

>  <SCORE.INTRA.DIHEDRAL>
-2.8259

>  <SCORE.INTRA.DIHEDRAL.0>
15.9129

>  <SCORE.INTRA.POLAR>
0

>  <SCORE.INTRA.POLAR.0>
0

>  <SCORE.INTRA.REPUL>
0

>  <SCORE.INTRA.REPUL.0>
0

>  <SCORE.INTRA.SOLV>
-0.533095

>  <SCORE.INTRA.SOLV.lig_0>
-75.7056

>  <SCORE.INTRA.VDW>
1.57852

>  <SCORE.INTRA.VDW.0>
-4.61812

>  <SCORE.INTRA.norm>
-0.00325738

>  <SCORE.RESTR>
0

>  <SCORE.RESTR.CAVITY>
0

>  <SCORE.RESTR.norm>
0

>  <SCORE.SYSTEM>
0

>  <SCORE.SYSTEM.CONST>
0

>  <SCORE.SYSTEM.DIHEDRAL>
0

>  <SCORE.SYSTEM.SOLV>
0

>  <SCORE.SYSTEM.norm>
0

>  <SCORE.heavy>
31

>  <SCORE.norm>
-0.527956

>  <RMSD>
0.602

$$$$
ligand
 OpenBabel11021811493D
libRbt.so/2013.1/901 2013/11/27
 31 33  0  0  0  0  0  0  0  0999 V2000
   20.3205   -9.3798   -5.8072 C   0  0  2  0  0  0  0  0  0  0  0  0
   20.7084   -8.8913   -4.5159 O   0  0  0  0  0  0  0  0  0  0  0  0
   21.4604  -10.8321   -0.7935 C   0  0  2  0  0  0  0  0  0  0  0  0
   21.2740  -11.6787    0.3363 N   0  0  0  0  0  0  0  0  0  0  0  0
   22.3518  -13.9303   -1.3943 C   0  0  2  0  0  0  0  0  0  0  0  0
   20.9927   -8.4507   -6.8649 C   0  0  2  0  0  0  0  0  0  0  0  0
   22.4392   -8.4636   -6.6566 N   0  0  0  0  0  0  0  0  0  0  0  0
   20.3098   -9.7578   -0.8318 C   0  0  0  0  0  0  0  0  0  0  0  0
   23.7864  -14.2383   -0.8869 C   0  0  2  0  0  0  0  0  0  0  0  0
   24.1892  -13.2039   -0.0185 O   0  0  0  0  0  0  0  0  0  0  0  0
   20.4049   -6.9906   -6.7621 C   0  0  0  0  0  0  0  0  0  0  0  0
   20.5204   -8.8185   -2.0883 C   0  0  2  0  0  0  0  0  0  0  0  0
   19.4413   -7.8105   -2.1309 N   0  0  0  0  0  0  0  0  0  0  0  0
   24.7392  -14.3417   -2.1433 C   0  0  1  0  0  0  0  0  0  0  0  0
   26.1366  -14.6153   -1.7034 N   0  0  0  0  0  0  0  0  0  0  0  0
   18.8974   -6.9681   -6.3174 C   0  0  0  0  0  0  0  0  0  0  0  0
   20.5008   -9.7060   -3.4049 C   0  0  2  0  0  0  0  0  0  0  0  0
   24.2319  -15.5466   -3.1136 C   0  0  1  0  0  0  0  0  0  0  0  0
   24.2492  -16.8049   -2.4850 O   0  0  0  0  0  0  0  0  0  0  0  0
   18.2517   -8.0939   -5.9787 C   0  0  1  0  0  0  0  0  0  0  0  0
   18.8815   -9.3596   -6.0067 O   0  0  0  0  0  0  0  0  0  0  0  0
   21.6445  -10.7818   -3.3319 C   0  0  2  0  0  0  0  0  0  0  0  0
   21.6119  -11.5813   -4.5128 O   0  0  0  0  0  0  0  0  0  0  0  0
   22.7665  -15.2522   -3.5604 C   0  0  0  0  0  0  0  0  0  0  0  0
   21.8888  -15.0006   -2.3508 O   0  0  0  0  0  0  0  0  0  0  0  0
   16.7791   -8.1078   -5.5243 C   0  0  0  0  0  0  0  0  0  0  0  0
   16.7379   -8.1141   -4.0784 N   0  0  0  0  0  0  0  0  0  0  0  0
   21.4212  -11.6980   -2.0699 C   0  0  1  0  0  0  0  0  0  0  0  0
   22.4562  -12.6359   -2.0245 O   0  0  0  0  0  0  0  0  0  0  0  0
   25.0612  -15.7748   -4.3854 C   0  0  0  0  0  0  0  0  0  0  0  0
   27.0172  -13.4441   -1.5741 C   0  0  0  0  0  0  0  0  0  0  0  0
  1  2  1  1  0  0  0
  1  6  1  0  0  0  0
  1 21  1  0  0  0  0
  3  4  1  1  0  0  0
  3  8  1  0  0  0  0
  3 28  1  0  0  0  0
  5  9  1  0  0  0  0
  5 25  1  0  0  0  0
  5 29  1  6  0  0  0
  6  7  1  1  0  0  0
  6 11  1  0  0  0  0
  8 12  1  0  0  0  0
  9 10  1  1  0  0  0
  9 14  1  0  0  0  0
 11 16  1  0  0  0  0
 12 13  1  6  0  0  0
 12 17  1  0  0  0  0
 14 15  1  1  0  0  0
 14 18  1  0  0  0  0
 15 31  1  0  0  0  0
 16 20  1  0  0  0  0
 17  2  1  6  0  0  0
 17 22  1  0  0  0  0
 18 19  1  1  0  0  0
 18 24  1  0  0  0  0
 18 30  1  0  0  0  0
 20 21  1  0  0  0  0
 20 26  1  1  0  0  0
 22 23  1  6  0  0  0
 22 28  1  0  0  0  0
 24 25  1  0  0  0  0
 26 27  1  0  0  0  0
 28 29  1  1  0  0  0
M  END
>  <CHROM.1>
-165.63772506,-148.98019709,-95.98271850,-160.62351150,-96.87869179,86.89464547
21.68470969,-11.34213995,-3.31948865,-2.60550171,-0.83202078,1.78362436

>  <Name>
ligand

>  <RI>
0

>  <Rbt.Current_Directory>
/home/itssahil/PROJECTS/Mol_Feturizer/New_Systems/rnas/4F8V

>  <Rbt.Executable>
rbdock ($Id: //depot/dev/client3/rdock/2013.1/src/exe/rbdock.cxx#4 $)

>  <Rbt.Library>
libRbt.so (2013.1, Build901 2013/11/27)

>  <Rbt.Parameter_File>
/export/apps/rDock/src/rDock_2013.1_src/data/scripts/dock_solv.prm

>  <Rbt.Receptor>
prm/pocket_docking_4.prm

>  <SCORE>
-15.7043

>  <SCORE.INTER>
-15.2762

>  <SCORE.INTER.CONST>
1

>  <SCORE.INTER.POLAR>
0

>  <SCORE.INTER.ROT>
6

>  <SCORE.INTER.SOLV>
22.1816

>  <SCORE.INTER.VDW>
-25.178

>  <SCORE.INTER.norm>
-0.492779

>  <SCORE.INTRA>
-0.428178

>  <SCORE.INTRA.DIHEDRAL>
-3.3443

>  <SCORE.INTRA.DIHEDRAL.0>
15.9129

>  <SCORE.INTRA.POLAR>
0

>  <SCORE.INTRA.POLAR.0>
0

>  <SCORE.INTRA.REPUL>
0.0133052

>  <SCORE.INTRA.REPUL.0>
0

>  <SCORE.INTRA.SOLV>
0.993928

>  <SCORE.INTRA.SOLV.lig_0>
-75.7056

>  <SCORE.INTRA.VDW>
0.680483

>  <SCORE.INTRA.VDW.0>
-4.61812

>  <SCORE.INTRA.norm>
-0.0138122

>  <SCORE.RESTR>
0

>  <SCORE.RESTR.CAVITY>
0

>  <SCORE.RESTR.norm>
0

>  <SCORE.SYSTEM>
0

>  <SCORE.SYSTEM.CONST>
0

>  <SCORE.SYSTEM.DIHEDRAL>
0

>  <SCORE.SYSTEM.SOLV>
0

>  <SCORE.SYSTEM.norm>
0

>  <SCORE.heavy>
31

>  <SCORE.norm>
-0.506591

>  <RMSD>
0.604

$$$$
ligand
 OpenBabel11021811493D
libRbt.so/2013.1/901 2013/11/27
 31 33  0  0  0  0  0  0  0  0999 V2000
   19.8328   -9.3831   -5.6271 C   0  0  2  0  0  0  0  0  0  0  0  0
   20.6397   -9.0770   -4.4818 O   0  0  0  0  0  0  0  0  0  0  0  0
   21.6554  -10.9667   -0.7959 C   0  0  2  0  0  0  0  0  0  0  0  0
   21.5463  -11.7904    0.3607 N   0  0  0  0  0  0  0  0  0  0  0  0
   22.4176  -14.1182   -1.4700 C   0  0  2  0  0  0  0  0  0  0  0  0
   20.2986   -8.4370   -6.7767 C   0  0  2  0  0  0  0  0  0  0  0  0
   21.7270   -8.6407   -7.0093 N   0  0  0  0  0  0  0  0  0  0  0  0
   20.5231   -9.8729   -0.7622 C   0  0  0  0  0  0  0  0  0  0  0  0
   23.8486  -14.4282   -0.9536 C   0  0  2  0  0  0  0  0  0  0  0  0
   24.2343  -13.4116   -0.0568 O   0  0  0  0  0  0  0  0  0  0  0  0
   19.9785   -6.9360   -6.4128 C   0  0  0  0  0  0  0  0  0  0  0  0
   20.6478   -8.9592   -2.0487 C   0  0  2  0  0  0  0  0  0  0  0  0
   19.5854   -7.9331   -2.0238 N   0  0  0  0  0  0  0  0  0  0  0  0
   24.8162  -14.4957   -2.2011 C   0  0  1  0  0  0  0  0  0  0  0  0
   26.2104  -14.7700   -1.7518 N   0  0  0  0  0  0  0  0  0  0  0  0
   18.6808   -6.7818   -5.5393 C   0  0  0  0  0  0  0  0  0  0  0  0
   20.5085   -9.8687   -3.3429 C   0  0  2  0  0  0  0  0  0  0  0  0
   24.3284  -15.6810   -3.2050 C   0  0  1  0  0  0  0  0  0  0  0  0
   24.3475  -16.9535   -2.6057 O   0  0  0  0  0  0  0  0  0  0  0  0
   18.0062   -7.8526   -5.0948 C   0  0  1  0  0  0  0  0  0  0  0  0
   18.4151   -9.1740   -5.3878 O   0  0  0  0  0  0  0  0  0  0  0  0
   21.6366  -10.9633   -3.3414 C   0  0  2  0  0  0  0  0  0  0  0  0
   21.4965  -11.7822   -4.5009 O   0  0  0  0  0  0  0  0  0  0  0  0
   22.8660  -15.3863   -3.6614 C   0  0  0  0  0  0  0  0  0  0  0  0
   21.9730  -15.1690   -2.4564 O   0  0  0  0  0  0  0  0  0  0  0  0
   16.7391   -7.7394   -4.2247 C   0  0  0  0  0  0  0  0  0  0  0  0
   15.5798   -7.9731   -5.0576 N   0  0  0  0  0  0  0  0  0  0  0  0
   21.5001  -11.8535   -2.0488 C   0  0  1  0  0  0  0  0  0  0  0  0
   22.5199  -12.8088   -2.0687 O   0  0  0  0  0  0  0  0  0  0  0  0
   25.1735  -15.8738   -4.4721 C   0  0  0  0  0  0  0  0  0  0  0  0
   27.0468  -13.5918   -1.4759 C   0  0  0  0  0  0  0  0  0  0  0  0
  1  2  1  1  0  0  0
  1  6  1  0  0  0  0
  1 21  1  0  0  0  0
  3  4  1  1  0  0  0
  3  8  1  0  0  0  0
  3 28  1  0  0  0  0
  5  9  1  0  0  0  0
  5 25  1  0  0  0  0
  5 29  1  6  0  0  0
  6  7  1  1  0  0  0
  6 11  1  0  0  0  0
  8 12  1  0  0  0  0
  9 10  1  1  0  0  0
  9 14  1  0  0  0  0
 11 16  1  0  0  0  0
 12 13  1  1  0  0  0
 12 17  1  0  0  0  0
 14 15  1  1  0  0  0
 14 18  1  0  0  0  0
 15 31  1  0  0  0  0
 16 20  1  0  0  0  0
 17  2  1  6  0  0  0
 17 22  1  0  0  0  0
 18 19  1  1  0  0  0
 18 24  1  0  0  0  0
 18 30  1  0  0  0  0
 20 21  1  0  0  0  0
 20 26  1  1  0  0  0
 22 23  1  6  0  0  0
 22 28  1  0  0  0  0
 24 25  1  0  0  0  0
 26 27  1  0  0  0  0
 28 29  1  6  0  0  0
M  END
>  <CHROM.1>
-174.27743326,-145.82072126,-91.00322324,-143.24094369,102.09386499,90.41031788
21.59859548,-11.42064173,-3.24010980,-2.77717964,-0.85715051,1.63075034

>  <Name>
ligand

>  <RI>
0

>  <Rbt.Current_Directory>
/home/itssahil/PROJECTS/Mol_Feturizer/New_Systems/rnas/4F8V

>  <Rbt.Executable>
rbdock ($Id: //depot/dev/client3/rdock/2013.1/src/exe/rbdock.cxx#4 $)

>  <Rbt.Library>
libRbt.so (2013.1, Build901 2013/11/27)

>  <Rbt.Parameter_File>
/export/apps/rDock/src/rDock_2013.1_src/data/scripts/dock_solv.prm

>  <Rbt.Receptor>
prm/pocket_docking_4.prm

>  <SCORE>
-14.8259

>  <SCORE.INTER>
-15.2502

>  <SCORE.INTER.CONST>
1

>  <SCORE.INTER.POLAR>
0

>  <SCORE.INTER.ROT>
6

>  <SCORE.INTER.SOLV>
23.4799

>  <SCORE.INTER.VDW>
-25.5934

>  <SCORE.INTER.norm>
-0.491943

>  <SCORE.INTRA>
0.424324

>  <SCORE.INTRA.DIHEDRAL>
-0.144058

>  <SCORE.INTRA.DIHEDRAL.0>
15.9129

>  <SCORE.INTRA.POLAR>
0

>  <SCORE.INTRA.POLAR.0>
0

>  <SCORE.INTRA.REPUL>
0

>  <SCORE.INTRA.REPUL.0>
0

>  <SCORE.INTRA.SOLV>
0.13693

>  <SCORE.INTRA.SOLV.lig_0>
-75.7056

>  <SCORE.INTRA.VDW>
0.427888

>  <SCORE.INTRA.VDW.0>
-4.61812

>  <SCORE.INTRA.norm>
0.0136879

>  <SCORE.RESTR>
0

>  <SCORE.RESTR.CAVITY>
0

>  <SCORE.RESTR.norm>
0

>  <SCORE.SYSTEM>
0

>  <SCORE.SYSTEM.CONST>
0

>  <SCORE.SYSTEM.DIHEDRAL>
0

>  <SCORE.SYSTEM.SOLV>
0

>  <SCORE.SYSTEM.norm>
0

>  <SCORE.heavy>
31

>  <SCORE.norm>
-0.478255

>  <RMSD>
0.607

$$$$
ligand
 OpenBabel11021811493D
libRbt.so/2013.1/901 2013/11/27
 31 33  0  0  0  0  0  0  0  0999 V2000
   20.2852   -9.5196   -5.8566 C   0  0  2  0  0  0  0  0  0  0  0  0
   20.7780   -9.0544   -4.5928 O   0  0  0  0  0  0  0  0  0  0  0  0
   21.6284  -10.9802   -0.8838 C   0  0  2  0  0  0  0  0  0  0  0  0
   21.4687  -11.8166    0.2576 N   0  0  0  0  0  0  0  0  0  0  0  0
   22.4482  -14.1045   -1.5144 C   0  0  2  0  0  0  0  0  0  0  0  0
   20.9237   -8.6136   -6.9544 C   0  0  2  0  0  0  0  0  0  0  0  0
   22.3791   -8.6875   -6.8429 N   0  0  0  0  0  0  0  0  0  0  0  0
   20.4917   -9.8905   -0.8912 C   0  0  0  0  0  0  0  0  0  0  0  0
   23.8756  -14.4108   -0.9860 C   0  0  2  0  0  0  0  0  0  0  0  0
   24.2608  -13.3806   -0.1047 O   0  0  0  0  0  0  0  0  0  0  0  0
   20.4056   -7.1309   -6.8090 C   0  0  0  0  0  0  0  0  0  0  0  0
   20.6727   -8.9626   -2.1609 C   0  0  2  0  0  0  0  0  0  0  0  0
   19.6065   -7.9403   -2.1745 N   0  0  0  0  0  0  0  0  0  0  0  0
   24.8487  -14.5027   -2.2278 C   0  0  1  0  0  0  0  0  0  0  0  0
   26.2399  -14.7742   -1.7673 N   0  0  0  0  0  0  0  0  0  0  0  0
   18.9332   -7.0482   -6.2649 C   0  0  0  0  0  0  0  0  0  0  0  0
   20.5969   -9.8587   -3.4697 C   0  0  2  0  0  0  0  0  0  0  0  0
   24.3613  -15.7030   -3.2137 C   0  0  1  0  0  0  0  0  0  0  0  0
   24.3732  -16.9653   -2.5931 O   0  0  0  0  0  0  0  0  0  0  0  0
   18.2650   -8.1481   -5.8867 C   0  0  1  0  0  0  0  0  0  0  0  0
   18.8381   -9.4387   -5.9598 O   0  0  0  0  0  0  0  0  0  0  0  0
   21.7278  -10.9496   -3.4273 C   0  0  2  0  0  0  0  0  0  0  0  0
   21.6447  -11.7565   -4.6006 O   0  0  0  0  0  0  0  0  0  0  0  0
   22.9021  -15.4109   -3.6820 C   0  0  0  0  0  0  0  0  0  0  0  0
   22.0043  -15.1702   -2.4850 O   0  0  0  0  0  0  0  0  0  0  0  0
   16.8265   -8.1034   -5.3353 C   0  0  0  0  0  0  0  0  0  0  0  0
   16.5142   -6.7420   -4.9590 N   0  0  0  0  0  0  0  0  0  0  0  0
   21.5347  -11.8541   -2.1520 C   0  0  1  0  0  0  0  0  0  0  0  0
   22.5579  -12.8058   -2.1345 O   0  0  0  0  0  0  0  0  0  0  0  0
   25.2116  -15.9201   -4.4735 C   0  0  0  0  0  0  0  0  0  0  0  0
   27.0866  -13.5950   -1.5302 C   0  0  0  0  0  0  0  0  0  0  0  0
  1  2  1  1  0  0  0
  1  6  1  0  0  0  0
  1 21  1  0  0  0  0
  3  4  1  1  0  0  0
  3  8  1  0  0  0  0
  3 28  1  0  0  0  0
  5  9  1  0  0  0  0
  5 25  1  0  0  0  0
  5 29  1  6  0  0  0
  6  7  1  1  0  0  0
  6 11  1  0  0  0  0
  8 12  1  0  0  0  0
  9 10  1  1  0  0  0
  9 14  1  0  0  0  0
 11 16  1  0  0  0  0
 12 13  1  6  0  0  0
 12 17  1  0  0  0  0
 14 15  1  1  0  0  0
 14 18  1  0  0  0  0
 15 31  1  0  0  0  0
 16 20  1  0  0  0  0
 17  2  1  6  0  0  0
 17 22  1  0  0  0  0
 18 19  1  1  0  0  0
 18 24  1  0  0  0  0
 18 30  1  0  0  0  0
 20 21  1  0  0  0  0
 20 26  1  1  0  0  0
 22 23  1  6  0  0  0
 22 28  1  0  0  0  0
 24 25  1  0  0  0  0
 26 27  1  0  0  0  0
 28 29  1  1  0  0  0
M  END
>  <CHROM.1>
-166.38169368,-146.77371135,-92.04375146,-157.79330494,-15.87649149,88.16030563
21.75600798,-11.43840378,-3.40627732,-2.68350496,-0.86634037,1.69504791

>  <Name>
ligand

>  <RI>
0

>  <Rbt.Current_Directory>
/home/itssahil/PROJECTS/Mol_Feturizer/New_Systems/rnas/4F8V

>  <Rbt.Executable>
rbdock ($Id: //depot/dev/client3/rdock/2013.1/src/exe/rbdock.cxx#4 $)

>  <Rbt.Library>
libRbt.so (2013.1, Build901 2013/11/27)

>  <Rbt.Parameter_File>
/export/apps/rDock/src/rDock_2013.1_src/data/scripts/dock_solv.prm

>  <Rbt.Receptor>
prm/pocket_docking_3.prm

>  <SCORE>
-16.3057

>  <SCORE.INTER>
-16.2584

>  <SCORE.INTER.CONST>
1

>  <SCORE.INTER.POLAR>
0

>  <SCORE.INTER.ROT>
6

>  <SCORE.INTER.SOLV>
19.2615

>  <SCORE.INTER.VDW>
-24.8594

>  <SCORE.INTER.norm>
-0.524464

>  <SCORE.INTRA>
-0.0473237

>  <SCORE.INTRA.DIHEDRAL>
-2.74924

>  <SCORE.INTRA.DIHEDRAL.0>
15.9129

>  <SCORE.INTRA.POLAR>
0

>  <SCORE.INTRA.POLAR.0>
0

>  <SCORE.INTRA.REPUL>
0

>  <SCORE.INTRA.REPUL.0>
0

>  <SCORE.INTRA.SOLV>
-0.600462

>  <SCORE.INTRA.SOLV.lig_0>
-75.7056

>  <SCORE.INTRA.VDW>
1.62753

>  <SCORE.INTRA.VDW.0>
-4.61812

>  <SCORE.INTRA.norm>
-0.00152657

>  <SCORE.RESTR>
0

>  <SCORE.RESTR.CAVITY>
0

>  <SCORE.RESTR.norm>
0

>  <SCORE.SYSTEM>
0

>  <SCORE.SYSTEM.CONST>
0

>  <SCORE.SYSTEM.DIHEDRAL>
0

>  <SCORE.SYSTEM.SOLV>
0

>  <SCORE.SYSTEM.norm>
0

>  <SCORE.heavy>
31

>  <SCORE.norm>
-0.52599

>  <RMSD>
0.609

$$$$
ligand
 OpenBabel11021811493D
libRbt.so/2013.1/901 2013/11/27
 31 33  0  0  0  0  0  0  0  0999 V2000
   20.4413   -9.5089   -5.8423 C   0  0  2  0  0  0  0  0  0  0  0  0
   20.9177   -9.0514   -4.5694 O   0  0  0  0  0  0  0  0  0  0  0  0
   21.6382  -10.9235   -0.8058 C   0  0  2  0  0  0  0  0  0  0  0  0
   21.4473  -11.7572    0.3328 N   0  0  0  0  0  0  0  0  0  0  0  0
   22.5925  -14.0215   -1.3641 C   0  0  2  0  0  0  0  0  0  0  0  0
   21.0987   -8.6000   -6.9265 C   0  0  2  0  0  0  0  0  0  0  0  0
   22.5521   -8.6796   -6.7946 N   0  0  0  0  0  0  0  0  0  0  0  0
   20.4683   -9.8722   -0.8806 C   0  0  0  0  0  0  0  0  0  0  0  0
   24.0387  -14.3453   -0.9013 C   0  0  2  0  0  0  0  0  0  0  0  0
   24.4773  -13.3186   -0.0413 O   0  0  0  0  0  0  0  0  0  0  0  0
   20.5836   -7.1162   -6.7815 C   0  0  0  0  0  0  0  0  0  0  0  0
   20.6840   -8.9472   -2.1469 C   0  0  2  0  0  0  0  0  0  0  0  0
   19.5870   -7.9609   -2.2238 N   0  0  0  0  0  0  0  0  0  0  0  0
   24.9523  -14.4523   -2.1863 C   0  0  1  0  0  0  0  0  0  0  0  0
   26.3595  -14.7411   -1.7897 N   0  0  0  0  0  0  0  0  0  0  0  0
   19.1039   -7.0309   -6.2580 C   0  0  0  0  0  0  0  0  0  0  0  0
   20.7053   -9.8538   -3.4504 C   0  0  2  0  0  0  0  0  0  0  0  0
   24.4045  -15.6480   -3.1458 C   0  0  1  0  0  0  0  0  0  0  0  0
   24.4286  -16.9092   -2.5231 O   0  0  0  0  0  0  0  0  0  0  0  0
   18.4266   -8.1302   -5.8947 C   0  0  1  0  0  0  0  0  0  0  0  0
   18.9962   -9.4224   -5.9657 O   0  0  0  0  0  0  0  0  0  0  0  0
   21.8677  -10.9063   -3.3409 C   0  0  2  0  0  0  0  0  0  0  0  0
   21.8718  -11.7232   -4.5103 O   0  0  0  0  0  0  0  0  0  0  0  0
   22.9292  -15.3378   -3.5470 C   0  0  0  0  0  0  0  0  0  0  0  0
   22.0907  -15.0832   -2.3106 O   0  0  0  0  0  0  0  0  0  0  0  0
   16.9805   -8.0829   -5.3636 C   0  0  0  0  0  0  0  0  0  0  0  0
   16.6858   -6.7332   -4.9348 N   0  0  0  0  0  0  0  0  0  0  0  0
   21.6388  -11.8083   -2.0698 C   0  0  1  0  0  0  0  0  0  0  0  0
   22.6903  -12.7255   -1.9919 O   0  0  0  0  0  0  0  0  0  0  0  0
   25.1930  -15.8786   -4.4428 C   0  0  0  0  0  0  0  0  0  0  0  0
   27.2242  -13.5718   -1.5685 C   0  0  0  0  0  0  0  0  0  0  0  0
  1  2  1  1  0  0  0
  1  6  1  0  0  0  0
  1 21  1  0  0  0  0
  3  4  1  1  0  0  0
  3  8  1  0  0  0  0
  3 28  1  0  0  0  0
  5  9  1  0  0  0  0
  5 25  1  0  0  0  0
  5 29  1  6  0  0  0
  6  7  1  1  0  0  0
  6 11  1  0  0  0  0
  8 12  1  0  0  0  0
  9 10  1  1  0  0  0
  9 14  1  0  0  0  0
 11 16  1  0  0  0  0
 12 13  1  6  0  0  0
 12 17  1  0  0  0  0
 14 15  1  1  0  0  0
 14 18  1  0  0  0  0
 15 31  1  0  0  0  0
 16 20  1  0  0  0  0
 17  2  1  6  0  0  0
 17 22  1  0  0  0  0
 18 19  1  1  0  0  0
 18 24  1  0  0  0  0
 18 30  1  0  0  0  0
 20 21  1  0  0  0  0
 20 26  1  1  0  0  0
 22 23  1  6  0  0  0
 22 28  1  0  0  0  0
 24 25  1  0  0  0  0
 26 27  1  0  0  0  0
 28 29  1  1  0  0  0
M  END
>  <CHROM.1>
-167.04807326,-152.85671925,-90.86558797,-154.46153989,-18.16960329,87.97393002
21.86622631,-11.40273756,-3.35938411,-2.63280088,-0.84684264,1.75157443

>  <Name>
ligand

>  <RI>
0

>  <Rbt.Current_Directory>
/home/itssahil/PROJECTS/Mol_Feturizer/New_Systems/rnas/4F8V

>  <Rbt.Executable>
rbdock ($Id: //depot/dev/client3/rdock/2013.1/src/exe/rbdock.cxx#4 $)

>  <Rbt.Library>
libRbt.so (2013.1, Build901 2013/11/27)

>  <Rbt.Parameter_File>
/export/apps/rDock/src/rDock_2013.1_src/data/scripts/dock_solv.prm

>  <Rbt.Receptor>
prm/pocket_docking_4.prm

>  <SCORE>
-16.3002

>  <SCORE.INTER>
-15.9798

>  <SCORE.INTER.CONST>
1

>  <SCORE.INTER.POLAR>
0

>  <SCORE.INTER.ROT>
6

>  <SCORE.INTER.SOLV>
18.417

>  <SCORE.INTER.VDW>
-24.3922

>  <SCORE.INTER.norm>
-0.515477

>  <SCORE.INTRA>
-0.320395

>  <SCORE.INTRA.DIHEDRAL>
-3.35863

>  <SCORE.INTRA.DIHEDRAL.0>
15.9129

>  <SCORE.INTRA.POLAR>
0

>  <SCORE.INTRA.POLAR.0>
0

>  <SCORE.INTRA.REPUL>
0

>  <SCORE.INTRA.REPUL.0>
0

>  <SCORE.INTRA.SOLV>
-0.347786

>  <SCORE.INTRA.SOLV.lig_0>
-75.7056

>  <SCORE.INTRA.VDW>
1.53281

>  <SCORE.INTRA.VDW.0>
-4.61812

>  <SCORE.INTRA.norm>
-0.0103353

>  <SCORE.RESTR>
0

>  <SCORE.RESTR.CAVITY>
0

>  <SCORE.RESTR.norm>
0

>  <SCORE.SYSTEM>
0

>  <SCORE.SYSTEM.CONST>
0

>  <SCORE.SYSTEM.DIHEDRAL>
0

>  <SCORE.SYSTEM.SOLV>
0

>  <SCORE.SYSTEM.norm>
0

>  <SCORE.heavy>
31

>  <SCORE.norm>
-0.525812

>  <RMSD>
0.609

$$$$
ligand
 OpenBabel11021811493D
libRbt.so/2013.1/901 2013/11/27
 31 33  0  0  0  0  0  0  0  0999 V2000
   20.5428   -9.5194   -5.8636 C   0  0  2  0  0  0  0  0  0  0  0  0
   20.9647   -9.0434   -4.5784 O   0  0  0  0  0  0  0  0  0  0  0  0
   21.6224  -10.9051   -0.7981 C   0  0  2  0  0  0  0  0  0  0  0  0
   21.4141  -11.7379    0.3381 N   0  0  0  0  0  0  0  0  0  0  0  0
   22.6007  -14.0044   -1.3449 C   0  0  2  0  0  0  0  0  0  0  0  0
   21.2185   -8.6041   -6.9311 C   0  0  2  0  0  0  0  0  0  0  0  0
   22.6677   -8.6521   -6.7480 N   0  0  0  0  0  0  0  0  0  0  0  0
   20.4484   -9.8604   -0.8975 C   0  0  0  0  0  0  0  0  0  0  0  0
   24.0461  -14.3459   -0.8925 C   0  0  2  0  0  0  0  0  0  0  0  0
   24.4983  -13.3318   -0.0246 O   0  0  0  0  0  0  0  0  0  0  0  0
   20.6678   -7.1306   -6.8151 C   0  0  0  0  0  0  0  0  0  0  0  0
   20.6835   -8.9364   -2.1610 C   0  0  2  0  0  0  0  0  0  0  0  0
   19.5827   -7.9563   -2.2610 N   0  0  0  0  0  0  0  0  0  0  0  0
   24.9524  -14.4484   -2.1830 C   0  0  1  0  0  0  0  0  0  0  0  0
   26.3589  -14.7539   -1.7962 N   0  0  0  0  0  0  0  0  0  0  0  0
   19.1693   -7.0731   -6.3441 C   0  0  0  0  0  0  0  0  0  0  0  0
   20.7351   -9.8451   -3.4623 C   0  0  2  0  0  0  0  0  0  0  0  0
   24.3890  -15.6296   -3.1515 C   0  0  1  0  0  0  0  0  0  0  0  0
   24.4046  -16.8970   -2.5414 O   0  0  0  0  0  0  0  0  0  0  0  0
   18.5028   -8.1840   -5.9964 C   0  0  1  0  0  0  0  0  0  0  0  0
   19.1014   -9.4643   -6.0379 O   0  0  0  0  0  0  0  0  0  0  0  0
   21.9009  -10.8909   -3.3284 C   0  0  2  0  0  0  0  0  0  0  0  0
   21.9322  -11.7098   -4.4959 O   0  0  0  0  0  0  0  0  0  0  0  0
   22.9147  -15.3020   -3.5424 C   0  0  0  0  0  0  0  0  0  0  0  0
   22.0846  -15.0520   -2.2993 O   0  0  0  0  0  0  0  0  0  0  0  0
   17.0383   -8.1637   -5.5164 C   0  0  0  0  0  0  0  0  0  0  0  0
   16.7131   -6.8269   -5.0698 N   0  0  0  0  0  0  0  0  0  0  0  0
   21.6524  -11.7920   -2.0603 C   0  0  1  0  0  0  0  0  0  0  0  0
   22.7073  -12.7031   -1.9603 O   0  0  0  0  0  0  0  0  0  0  0  0
   25.1691  -15.8545   -4.4547 C   0  0  0  0  0  0  0  0  0  0  0  0
   27.2433  -13.5954   -1.5974 C   0  0  0  0  0  0  0  0  0  0  0  0
  1  2  1  1  0  0  0
  1  6  1  0  0  0  0
  1 21  1  0  0  0  0
  3  4  1  1  0  0  0
  3  8  1  0  0  0  0
  3 28  1  0  0  0  0
  5  9  1  0  0  0  0
  5 25  1  0  0  0  0
  5 29  1  6  0  0  0
  6  7  1  1  0  0  0
  6 11  1  0  0  0  0
  8 12  1  0  0  0  0
  9 10  1  1  0  0  0
  9 14  1  0  0  0  0
 11 16  1  0  0  0  0
 12 13  1  6  0  0  0
 12 17  1  0  0  0  0
 14 15  1  1  0  0  0
 14 18  1  0  0  0  0
 15 31  1  0  0  0  0
 16 20  1  0  0  0  0
 17  2  1  6  0  0  0
 17 22  1  0  0  0  0
 18 19  1  1  0  0  0
 18 24  1  0  0  0  0
 18 30  1  0  0  0  0
 20 21  1  0  0  0  0
 20 26  1  1  0  0  0
 22 23  1  6  0  0  0
 22 28  1  0  0  0  0
 24 25  1  0  0  0  0
 26 27  1  0  0  0  0
 28 29  1  1  0  0  0
M  END
>  <CHROM.1>
-166.78563268,-154.90775628,-92.19113111,-155.85940153,-19.90067698,88.66706939
21.89372205,-11.40503859,-3.37782375,-2.61055974,-0.84217533,1.76743546

>  <Name>
ligand

>  <RI>
0

>  <Rbt.Current_Directory>
/home/itssahil/PROJECTS/Mol_Feturizer/New_Systems/rnas/4F8V

>  <Rbt.Executable>
rbdock ($Id: //depot/dev/client3/rdock/2013.1/src/exe/rbdock.cxx#4 $)

>  <Rbt.Library>
libRbt.so (2013.1, Build901 2013/11/27)

>  <Rbt.Parameter_File>
/export/apps/rDock/src/rDock_2013.1_src/data/scripts/dock_solv.prm

>  <Rbt.Receptor>
prm/pocket_docking_3.prm

>  <SCORE>
-16.32

>  <SCORE.INTER>
-15.6806

>  <SCORE.INTER.CONST>
1

>  <SCORE.INTER.POLAR>
0

>  <SCORE.INTER.ROT>
6

>  <SCORE.INTER.SOLV>
18.656

>  <SCORE.INTER.VDW>
-24.2724

>  <SCORE.INTER.norm>
-0.505827

>  <SCORE.INTRA>
-0.639313

>  <SCORE.INTRA.DIHEDRAL>
-3.71523

>  <SCORE.INTRA.DIHEDRAL.0>
15.9129

>  <SCORE.INTRA.POLAR>
0

>  <SCORE.INTRA.POLAR.0>
0

>  <SCORE.INTRA.REPUL>
0

>  <SCORE.INTRA.REPUL.0>
0

>  <SCORE.INTRA.SOLV>
-0.530184

>  <SCORE.INTRA.SOLV.lig_0>
-75.7056

>  <SCORE.INTRA.VDW>
1.48339

>  <SCORE.INTRA.VDW.0>
-4.61812

>  <SCORE.INTRA.norm>
-0.020623

>  <SCORE.RESTR>
0

>  <SCORE.RESTR.CAVITY>
0

>  <SCORE.RESTR.norm>
0

>  <SCORE.SYSTEM>
0

>  <SCORE.SYSTEM.CONST>
0

>  <SCORE.SYSTEM.DIHEDRAL>
0

>  <SCORE.SYSTEM.SOLV>
0

>  <SCORE.SYSTEM.norm>
0

>  <SCORE.heavy>
31

>  <SCORE.norm>
-0.52645

>  <RMSD>
0.613

$$$$
ligand
 OpenBabel11021811493D
libRbt.so/2013.1/901 2013/11/27
 31 33  0  0  0  0  0  0  0  0999 V2000
   20.6525   -9.4219   -5.9368 C   0  0  2  0  0  0  0  0  0  0  0  0
   21.0714   -8.9888   -4.6355 O   0  0  0  0  0  0  0  0  0  0  0  0
   21.6490  -10.9542   -0.8949 C   0  0  2  0  0  0  0  0  0  0  0  0
   21.4128  -11.8121    0.2169 N   0  0  0  0  0  0  0  0  0  0  0  0
   22.6065  -14.0296   -1.4533 C   0  0  2  0  0  0  0  0  0  0  0  0
   21.2918   -8.4422   -6.9690 C   0  0  2  0  0  0  0  0  0  0  0  0
   22.7433   -8.4548   -6.7989 N   0  0  0  0  0  0  0  0  0  0  0  0
   20.4916   -9.8903   -0.9839 C   0  0  0  0  0  0  0  0  0  0  0  0
   24.0424  -14.3614   -0.9649 C   0  0  2  0  0  0  0  0  0  0  0  0
   24.4747  -13.3326   -0.1040 O   0  0  0  0  0  0  0  0  0  0  0  0
   20.6990   -6.9920   -6.7859 C   0  0  0  0  0  0  0  0  0  0  0  0
   20.7577   -8.9384   -2.2203 C   0  0  2  0  0  0  0  0  0  0  0  0
   19.6726   -7.9401   -2.3105 N   0  0  0  0  0  0  0  0  0  0  0  0
   24.9761  -14.4829   -2.2341 C   0  0  1  0  0  0  0  0  0  0  0  0
   26.3745  -14.7798   -1.8127 N   0  0  0  0  0  0  0  0  0  0  0  0
   19.2036   -6.9992   -6.3018 C   0  0  0  0  0  0  0  0  0  0  0  0
   20.8146   -9.8148   -3.5433 C   0  0  2  0  0  0  0  0  0  0  0  0
   24.4351  -15.6805   -3.1952 C   0  0  1  0  0  0  0  0  0  0  0  0
   24.4395  -16.9379   -2.5647 O   0  0  0  0  0  0  0  0  0  0  0  0
   18.5731   -8.1433   -5.9971 C   0  0  1  0  0  0  0  0  0  0  0  0
   19.2087   -9.4023   -6.0979 O   0  0  0  0  0  0  0  0  0  0  0  0
   21.9634  -10.8806   -3.4199 C   0  0  2  0  0  0  0  0  0  0  0  0
   21.9994  -11.6703   -4.6072 O   0  0  0  0  0  0  0  0  0  0  0  0
   22.9689  -15.3618   -3.6225 C   0  0  0  0  0  0  0  0  0  0  0  0
   22.1123  -15.0933   -2.4015 O   0  0  0  0  0  0  0  0  0  0  0  0
   17.1129   -8.1871   -5.5058 C   0  0  0  0  0  0  0  0  0  0  0  0
   16.6998   -6.8465   -5.1530 N   0  0  0  0  0  0  0  0  0  0  0  0
   21.6841  -11.8095   -2.1785 C   0  0  1  0  0  0  0  0  0  0  0  0
   22.7243  -12.7382   -2.0872 O   0  0  0  0  0  0  0  0  0  0  0  0
   25.2430  -15.9249   -4.4778 C   0  0  0  0  0  0  0  0  0  0  0  0
   27.2499  -13.6162   -1.6036 C   0  0  0  0  0  0  0  0  0  0  0  0
  1  2  1  1  0  0  0
  1  6  1  0  0  0  0
  1 21  1  0  0  0  0
  3  4  1  1  0  0  0
  3  8  1  0  0  0  0
  3 28  1  0  0  0  0
  5  9  1  0  0  0  0
  5 25  1  0  0  0  0
  5 29  1  6  0  0  0
  6  7  1  1  0  0  0
  6 11  1  0  0  0  0
  8 12  1  0  0  0  0
  9 10  1  1  0  0  0
  9 14  1  0  0  0  0
 11 16  1  0  0  0  0
 12 13  1  6  0  0  0
 12 17  1  0  0  0  0
 14 15  1  1  0  0  0
 14 18  1  0  0  0  0
 15 31  1  0  0  0  0
 16 20  1  0  0  0  0
 17  2  1  6  0  0  0
 17 22  1  0  0  0  0
 18 19  1  1  0  0  0
 18 24  1  0  0  0  0
 18 30  1  0  0  0  0
 20 21  1  0  0  0  0
 20 26  1  1  0  0  0
 22 23  1  6  0  0  0
 22 28  1  0  0  0  0
 24 25  1  0  0  0  0
 26 27  1  0  0  0  0
 28 29  1  1  0  0  0
M  END
>  <CHROM.1>
-169.96364494,-152.32709218,-91.73030181,-155.42844694,-12.97660715,85.78131055
21.93950876,-11.39613345,-3.43704224,-2.58007565,-0.83902160,1.81201945

>  <Name>
ligand

>  <RI>
0

>  <Rbt.Current_Directory>
/home/itssahil/PROJECTS/Mol_Feturizer/New_Systems/rnas/4F8V

>  <Rbt.Executable>
rbdock ($Id: //depot/dev/client3/rdock/2013.1/src/exe/rbdock.cxx#4 $)

>  <Rbt.Library>
libRbt.so (2013.1, Build901 2013/11/27)

>  <Rbt.Parameter_File>
/export/apps/rDock/src/rDock_2013.1_src/data/scripts/dock_solv.prm

>  <Rbt.Receptor>
prm/pocket_docking_5.prm

>  <SCORE>
-16.3228

>  <SCORE.INTER>
-15.5381

>  <SCORE.INTER.CONST>
1

>  <SCORE.INTER.POLAR>
0

>  <SCORE.INTER.ROT>
6

>  <SCORE.INTER.SOLV>
18.5597

>  <SCORE.INTER.VDW>
-24.1453

>  <SCORE.INTER.norm>
-0.501228

>  <SCORE.INTRA>
-0.784727

>  <SCORE.INTRA.DIHEDRAL>
-4.31586

>  <SCORE.INTRA.DIHEDRAL.0>
15.9129

>  <SCORE.INTRA.POLAR>
0

>  <SCORE.INTRA.POLAR.0>
0

>  <SCORE.INTRA.REPUL>
0

>  <SCORE.INTRA.REPUL.0>
0

>  <SCORE.INTRA.SOLV>
-0.539632

>  <SCORE.INTRA.SOLV.lig_0>
-75.7056

>  <SCORE.INTRA.VDW>
1.64302

>  <SCORE.INTRA.VDW.0>
-4.61812

>  <SCORE.INTRA.norm>
-0.0253138

>  <SCORE.RESTR>
0

>  <SCORE.RESTR.CAVITY>
0

>  <SCORE.RESTR.norm>
0

>  <SCORE.SYSTEM>
0

>  <SCORE.SYSTEM.CONST>
0

>  <SCORE.SYSTEM.DIHEDRAL>
0

>  <SCORE.SYSTEM.SOLV>
0

>  <SCORE.SYSTEM.norm>
0

>  <SCORE.heavy>
31

>  <SCORE.norm>
-0.526541

>  <RMSD>
0.613

$$$$
ligand
 OpenBabel11021811493D
libRbt.so/2013.1/901 2013/11/27
 31 33  0  0  0  0  0  0  0  0999 V2000
   20.5260   -9.3714   -5.9147 C   0  0  2  0  0  0  0  0  0  0  0  0
   20.8955   -8.9150   -4.6064 O   0  0  0  0  0  0  0  0  0  0  0  0
   21.5919  -10.9709   -0.9354 C   0  0  2  0  0  0  0  0  0  0  0  0
   21.3830  -11.8429    0.1709 N   0  0  0  0  0  0  0  0  0  0  0  0
   22.4371  -14.0465   -1.5603 C   0  0  2  0  0  0  0  0  0  0  0  0
   21.2081   -8.4131   -6.9394 C   0  0  2  0  0  0  0  0  0  0  0  0
   22.6519   -8.4262   -6.7128 N   0  0  0  0  0  0  0  0  0  0  0  0
   20.4661   -9.8701   -0.9477 C   0  0  0  0  0  0  0  0  0  0  0  0
   23.8610  -14.3383   -1.0144 C   0  0  2  0  0  0  0  0  0  0  0  0
   24.2392  -13.2862   -0.1563 O   0  0  0  0  0  0  0  0  0  0  0  0
   20.6136   -6.9582   -6.8068 C   0  0  0  0  0  0  0  0  0  0  0  0
   20.7018   -8.9026   -2.1782 C   0  0  2  0  0  0  0  0  0  0  0  0
   19.6459   -7.8696   -2.1964 N   0  0  0  0  0  0  0  0  0  0  0  0
   24.8430  -14.4601   -2.2465 C   0  0  1  0  0  0  0  0  0  0  0  0
   26.2310  -14.7189   -1.7696 N   0  0  0  0  0  0  0  0  0  0  0  0
   19.1004   -6.9524   -6.3812 C   0  0  0  0  0  0  0  0  0  0  0  0
   20.6661   -9.7540   -3.5181 C   0  0  2  0  0  0  0  0  0  0  0  0
   24.3634  -15.6850   -3.2058 C   0  0  1  0  0  0  0  0  0  0  0  0
   24.3718  -16.9315   -2.5539 O   0  0  0  0  0  0  0  0  0  0  0  0
   18.4547   -8.0888   -6.0798 C   0  0  1  0  0  0  0  0  0  0  0  0
   19.0896   -9.3511   -6.1322 O   0  0  0  0  0  0  0  0  0  0  0  0
   21.7849  -10.8572   -3.4710 C   0  0  2  0  0  0  0  0  0  0  0  0
   21.7377  -11.6239   -4.6729 O   0  0  0  0  0  0  0  0  0  0  0  0
   22.9074  -15.4059   -3.6915 C   0  0  0  0  0  0  0  0  0  0  0  0
   22.0010  -15.1364   -2.5072 O   0  0  0  0  0  0  0  0  0  0  0  0
   16.9764   -8.1195   -5.6450 C   0  0  0  0  0  0  0  0  0  0  0  0
   16.9152   -8.0855   -4.2002 N   0  0  0  0  0  0  0  0  0  0  0  0
   21.5370  -11.8013   -2.2345 C   0  0  1  0  0  0  0  0  0  0  0  0
   22.5503  -12.7635   -2.2116 O   0  0  0  0  0  0  0  0  0  0  0  0
   25.2228  -15.9326   -4.4538 C   0  0  0  0  0  0  0  0  0  0  0  0
   27.0588  -13.5316   -1.5071 C   0  0  0  0  0  0  0  0  0  0  0  0
  1  2  1  1  0  0  0
  1  6  1  0  0  0  0
  1 21  1  0  0  0  0
  3  4  1  1  0  0  0
  3  8  1  0  0  0  0
  3 28  1  0  0  0  0
  5  9  1  0  0  0  0
  5 25  1  0  0  0  0
  5 29  1  6  0  0  0
  6  7  1  1  0  0  0
  6 11  1  0  0  0  0
  8 12  1  0  0  0  0
  9 10  1  1  0  0  0
  9 14  1  0  0  0  0
 11 16  1  0  0  0  0
 12 13  1  6  0  0  0
 12 17  1  0  0  0  0
 14 15  1  1  0  0  0
 14 18  1  0  0  0  0
 15 31  1  0  0  0  0
 16 20  1  0  0  0  0
 17  2  1  6  0  0  0
 17 22  1  0  0  0  0
 18 19  1  1  0  0  0
 18 24  1  0  0  0  0
 18 30  1  0  0  0  0
 20 21  1  0  0  0  0
 20 26  1  1  0  0  0
 22 23  1  6  0  0  0
 22 28  1  0  0  0  0
 24 25  1  0  0  0  0
 26 27  1  0  0  0  0
 28 29  1  1  0  0  0
M  END
>  <CHROM.1>
-166.18700341,-145.28437470,-89.80792847,-161.90671844,-93.62748581,83.74893315
21.83110432,-11.41129722,-3.42596318,-2.58439733,-0.84366111,1.81001331

>  <Name>
ligand

>  <RI>
0

>  <Rbt.Current_Directory>
/home/itssahil/PROJECTS/Mol_Feturizer/New_Systems/rnas/4F8V

>  <Rbt.Executable>
rbdock ($Id: //depot/dev/client3/rdock/2013.1/src/exe/rbdock.cxx#4 $)

>  <Rbt.Library>
libRbt.so (2013.1, Build901 2013/11/27)

>  <Rbt.Parameter_File>
/export/apps/rDock/src/rDock_2013.1_src/data/scripts/dock_solv.prm

>  <Rbt.Receptor>
prm/pocket_docking_3.prm

>  <SCORE>
-15.6205

>  <SCORE.INTER>
-15.2763

>  <SCORE.INTER.CONST>
1

>  <SCORE.INTER.POLAR>
0

>  <SCORE.INTER.ROT>
6

>  <SCORE.INTER.SOLV>
21.0253

>  <SCORE.INTER.VDW>
-24.7926

>  <SCORE.INTER.norm>
-0.492783

>  <SCORE.INTRA>
-0.344254

>  <SCORE.INTRA.DIHEDRAL>
-3.53508

>  <SCORE.INTRA.DIHEDRAL.0>
15.9129

>  <SCORE.INTRA.POLAR>
0

>  <SCORE.INTRA.POLAR.0>
0

>  <SCORE.INTRA.REPUL>
0.0108861

>  <SCORE.INTRA.REPUL.0>
0

>  <SCORE.INTRA.SOLV>
0.92139

>  <SCORE.INTRA.SOLV.lig_0>
-75.7056

>  <SCORE.INTRA.VDW>
0.908161

>  <SCORE.INTRA.VDW.0>
-4.61812

>  <SCORE.INTRA.norm>
-0.011105

>  <SCORE.RESTR>
0

>  <SCORE.RESTR.CAVITY>
0

>  <SCORE.RESTR.norm>
0

>  <SCORE.SYSTEM>
0

>  <SCORE.SYSTEM.CONST>
0

>  <SCORE.SYSTEM.DIHEDRAL>
0

>  <SCORE.SYSTEM.SOLV>
0

>  <SCORE.SYSTEM.norm>
0

>  <SCORE.heavy>
31

>  <SCORE.norm>
-0.503888

>  <RMSD>
0.614

$$$$
ligand
 OpenBabel11021811493D
libRbt.so/2013.1/901 2013/11/27
 31 33  0  0  0  0  0  0  0  0999 V2000
   20.2338   -9.5290   -5.8072 C   0  0  2  0  0  0  0  0  0  0  0  0
   20.7355   -9.0469   -4.5533 O   0  0  0  0  0  0  0  0  0  0  0  0
   21.6494  -10.9470   -0.8461 C   0  0  2  0  0  0  0  0  0  0  0  0
   21.5082  -11.7734    0.3050 N   0  0  0  0  0  0  0  0  0  0  0  0
   22.4350  -14.0876   -1.4835 C   0  0  2  0  0  0  0  0  0  0  0  0
   20.8712   -8.6432   -6.9221 C   0  0  2  0  0  0  0  0  0  0  0  0
   22.3268   -8.7228   -6.8168 N   0  0  0  0  0  0  0  0  0  0  0  0
   20.5179   -9.8519   -0.8401 C   0  0  0  0  0  0  0  0  0  0  0  0
   23.8660  -14.4033   -0.9705 C   0  0  2  0  0  0  0  0  0  0  0  0
   24.2653  -13.3785   -0.0892 O   0  0  0  0  0  0  0  0  0  0  0  0
   20.3612   -7.1559   -6.7970 C   0  0  0  0  0  0  0  0  0  0  0  0
   20.6783   -8.9351   -2.1205 C   0  0  2  0  0  0  0  0  0  0  0  0
   19.6169   -7.9077   -2.1216 N   0  0  0  0  0  0  0  0  0  0  0  0
   24.8263  -14.4956   -2.2221 C   0  0  1  0  0  0  0  0  0  0  0  0
   26.2205  -14.7761   -1.7764 N   0  0  0  0  0  0  0  0  0  0  0  0
   18.8921   -7.0574   -6.2467 C   0  0  0  0  0  0  0  0  0  0  0  0
   20.5726   -9.8412   -3.4203 C   0  0  2  0  0  0  0  0  0  0  0  0
   24.3229  -15.6897   -3.2077 C   0  0  1  0  0  0  0  0  0  0  0  0
   24.3342  -16.9543   -2.5918 O   0  0  0  0  0  0  0  0  0  0  0  0
   18.2204   -8.1480   -5.8482 C   0  0  1  0  0  0  0  0  0  0  0  0
   18.7867   -9.4424   -5.9043 O   0  0  0  0  0  0  0  0  0  0  0  0
   21.6990  -10.9373   -3.3912 C   0  0  2  0  0  0  0  0  0  0  0  0
   21.5891  -11.7531   -4.5561 O   0  0  0  0  0  0  0  0  0  0  0  0
   22.8607  -15.3881   -3.6604 C   0  0  0  0  0  0  0  0  0  0  0  0
   21.9760  -15.1473   -2.4537 O   0  0  0  0  0  0  0  0  0  0  0  0
   16.7850   -8.0874   -5.2903 C   0  0  0  0  0  0  0  0  0  0  0  0
   16.4708   -6.7144   -4.9611 N   0  0  0  0  0  0  0  0  0  0  0  0
   21.5267  -11.8305   -2.1050 C   0  0  1  0  0  0  0  0  0  0  0  0
   22.5455  -12.7871   -2.0999 O   0  0  0  0  0  0  0  0  0  0  0  0
   25.1596  -15.9065   -4.4766 C   0  0  0  0  0  0  0  0  0  0  0  0
   27.0572  -13.6019   -1.4851 C   0  0  0  0  0  0  0  0  0  0  0  0
  1  2  1  1  0  0  0
  1  6  1  0  0  0  0
  1 21  1  0  0  0  0
  3  4  1  1  0  0  0
  3  8  1  0  0  0  0
  3 28  1  0  0  0  0
  5  9  1  0  0  0  0
  5 25  1  0  0  0  0
  5 29  1  6  0  0  0
  6  7  1  1  0  0  0
  6 11  1  0  0  0  0
  8 12  1  0  0  0  0
  9 10  1  1  0  0  0
  9 14  1  0  0  0  0
 11 16  1  0  0  0  0
 12 13  1  6  0  0  0
 12 17  1  0  0  0  0
 14 15  1  1  0  0  0
 14 18  1  0  0  0  0
 15 31  1  0  0  0  0
 16 20  1  0  0  0  0
 17  2  1  6  0  0  0
 17 22  1  0  0  0  0
 18 19  1  1  0  0  0
 18 24  1  0  0  0  0
 18 30  1  0  0  0  0
 20 21  1  0  0  0  0
 20 26  1  1  0  0  0
 22 23  1  6  0  0  0
 22 28  1  0  0  0  0
 24 25  1  0  0  0  0
 26 27  1  0  0  0  0
 28 29  1  1  0  0  0
M  END
>  <CHROM.1>
-165.50070505,-146.85079995,-89.39106410,-158.73358171,-14.62485969,89.07794333
21.73049414,-11.42886296,-3.37671868,-2.71671398,-0.87618604,1.65374061

>  <Name>
ligand

>  <RI>
0

>  <Rbt.Current_Directory>
/home/itssahil/PROJECTS/Mol_Feturizer/New_Systems/rnas/4F8V

>  <Rbt.Executable>
rbdock ($Id: //depot/dev/client3/rdock/2013.1/src/exe/rbdock.cxx#4 $)

>  <Rbt.Library>
libRbt.so (2013.1, Build901 2013/11/27)

>  <Rbt.Parameter_File>
/export/apps/rDock/src/rDock_2013.1_src/data/scripts/dock_solv.prm

>  <Rbt.Receptor>
prm/pocket_docking_3.prm

>  <SCORE>
-16.1972

>  <SCORE.INTER>
-16.1742

>  <SCORE.INTER.CONST>
1

>  <SCORE.INTER.POLAR>
0

>  <SCORE.INTER.ROT>
6

>  <SCORE.INTER.SOLV>
19.3648

>  <SCORE.INTER.VDW>
-24.8377

>  <SCORE.INTER.norm>
-0.521748

>  <SCORE.INTRA>
-0.0230328

>  <SCORE.INTRA.DIHEDRAL>
-2.76876

>  <SCORE.INTRA.DIHEDRAL.0>
15.9129

>  <SCORE.INTRA.POLAR>
0

>  <SCORE.INTRA.POLAR.0>
0

>  <SCORE.INTRA.REPUL>
0

>  <SCORE.INTRA.REPUL.0>
0

>  <SCORE.INTRA.SOLV>
-0.732629

>  <SCORE.INTRA.SOLV.lig_0>
-75.7056

>  <SCORE.INTRA.VDW>
1.72766

>  <SCORE.INTRA.VDW.0>
-4.61812

>  <SCORE.INTRA.norm>
-0.000742992

>  <SCORE.RESTR>
0

>  <SCORE.RESTR.CAVITY>
0

>  <SCORE.RESTR.norm>
0

>  <SCORE.SYSTEM>
0

>  <SCORE.SYSTEM.CONST>
0

>  <SCORE.SYSTEM.DIHEDRAL>
0

>  <SCORE.SYSTEM.SOLV>
0

>  <SCORE.SYSTEM.norm>
0

>  <SCORE.heavy>
31

>  <SCORE.norm>
-0.522491

>  <RMSD>
0.614

$$$$
ligand
 OpenBabel11021811493D
libRbt.so/2013.1/901 2013/11/27
 31 33  0  0  0  0  0  0  0  0999 V2000
   19.8128   -9.3569   -5.6312 C   0  0  2  0  0  0  0  0  0  0  0  0
   20.6142   -9.0466   -4.4833 O   0  0  0  0  0  0  0  0  0  0  0  0
   21.6636  -10.9826   -0.8310 C   0  0  2  0  0  0  0  0  0  0  0  0
   21.5608  -11.8129    0.3215 N   0  0  0  0  0  0  0  0  0  0  0  0
   22.3531  -14.1431   -1.5434 C   0  0  2  0  0  0  0  0  0  0  0  0
   20.2844   -8.4154   -6.7823 C   0  0  2  0  0  0  0  0  0  0  0  0
   21.7139   -8.6205   -7.0072 N   0  0  0  0  0  0  0  0  0  0  0  0
   20.5528   -9.8683   -0.7679 C   0  0  0  0  0  0  0  0  0  0  0  0
   23.7697  -14.4524   -0.9884 C   0  0  2  0  0  0  0  0  0  0  0  0
   24.1279  -13.4390   -0.0767 O   0  0  0  0  0  0  0  0  0  0  0  0
   19.9632   -6.9129   -6.4258 C   0  0  0  0  0  0  0  0  0  0  0  0
   20.6704   -8.9473   -2.0499 C   0  0  2  0  0  0  0  0  0  0  0  0
   19.6281   -7.9018   -1.9975 N   0  0  0  0  0  0  0  0  0  0  0  0
   24.7721  -14.5123   -2.2086 C   0  0  1  0  0  0  0  0  0  0  0  0
   26.1538  -14.7857   -1.7216 N   0  0  0  0  0  0  0  0  0  0  0  0
   18.6613   -6.7548   -5.5591 C   0  0  0  0  0  0  0  0  0  0  0  0
   20.4896   -9.8443   -3.3478 C   0  0  2  0  0  0  0  0  0  0  0  0
   24.3152  -15.6942   -3.2309 C   0  0  1  0  0  0  0  0  0  0  0  0
   24.3204  -16.9693   -2.6369 O   0  0  0  0  0  0  0  0  0  0  0  0
   17.9842   -7.8236   -5.1137 C   0  0  1  0  0  0  0  0  0  0  0  0
   18.3940   -9.1463   -5.3996 O   0  0  0  0  0  0  0  0  0  0  0  0
   21.5968  -10.9596   -3.3755 C   0  0  2  0  0  0  0  0  0  0  0  0
   21.4196  -11.7671   -4.5380 O   0  0  0  0  0  0  0  0  0  0  0  0
   22.8655  -15.4005   -3.7269 C   0  0  0  0  0  0  0  0  0  0  0  0
   21.9386  -15.1905   -2.5464 O   0  0  0  0  0  0  0  0  0  0  0  0
   16.7130   -7.7066   -4.2502 C   0  0  0  0  0  0  0  0  0  0  0  0
   15.5625   -8.0158   -5.0707 N   0  0  0  0  0  0  0  0  0  0  0  0
   21.4680  -11.8569   -2.0871 C   0  0  1  0  0  0  0  0  0  0  0  0
   22.4692  -12.8309   -2.1332 O   0  0  0  0  0  0  0  0  0  0  0  0
   25.1960  -15.8796   -4.4747 C   0  0  0  0  0  0  0  0  0  0  0  0
   26.9859  -13.6069   -1.4355 C   0  0  0  0  0  0  0  0  0  0  0  0
  1  2  1  1  0  0  0
  1  6  1  0  0  0  0
  1 21  1  0  0  0  0
  3  4  1  1  0  0  0
  3  8  1  0  0  0  0
  3 28  1  0  0  0  0
  5  9  1  0  0  0  0
  5 25  1  0  0  0  0
  5 29  1  6  0  0  0
  6  7  1  1  0  0  0
  6 11  1  0  0  0  0
  8 12  1  0  0  0  0
  9 10  1  1  0  0  0
  9 14  1  0  0  0  0
 11 16  1  0  0  0  0
 12 13  1  1  0  0  0
 12 17  1  0  0  0  0
 14 15  1  1  0  0  0
 14 18  1  0  0  0  0
 15 31  1  0  0  0  0
 16 20  1  0  0  0  0
 17  2  1  6  0  0  0
 17 22  1  0  0  0  0
 18 19  1  1  0  0  0
 18 24  1  0  0  0  0
 18 30  1  0  0  0  0
 20 21  1  0  0  0  0
 20 26  1  1  0  0  0
 22 23  1  6  0  0  0
 22 28  1  0  0  0  0
 24 25  1  0  0  0  0
 26 27  1  0  0  0  0
 28 29  1  6  0  0  0
M  END
>  <CHROM.1>
-173.46745003,-142.91264271,-91.84540276,-145.32028397,105.22686524,90.47982812
21.57339376,-11.41985854,-3.26051324,-2.79442070,-0.86772061,1.60945720

>  <Name>
ligand

>  <RI>
0

>  <Rbt.Current_Directory>
/home/itssahil/PROJECTS/Mol_Feturizer/New_Systems/rnas/4F8V

>  <Rbt.Executable>
rbdock ($Id: //depot/dev/client3/rdock/2013.1/src/exe/rbdock.cxx#4 $)

>  <Rbt.Library>
libRbt.so (2013.1, Build901 2013/11/27)

>  <Rbt.Parameter_File>
/export/apps/rDock/src/rDock_2013.1_src/data/scripts/dock_solv.prm

>  <Rbt.Receptor>
prm/pocket_docking_3.prm

>  <SCORE>
-14.8097

>  <SCORE.INTER>
-15.2536

>  <SCORE.INTER.CONST>
1

>  <SCORE.INTER.POLAR>
0

>  <SCORE.INTER.ROT>
6

>  <SCORE.INTER.SOLV>
23.6807

>  <SCORE.INTER.VDW>
-25.6627

>  <SCORE.INTER.norm>
-0.492053

>  <SCORE.INTRA>
0.443941

>  <SCORE.INTRA.DIHEDRAL>
-0.0252769

>  <SCORE.INTRA.DIHEDRAL.0>
15.9129

>  <SCORE.INTRA.POLAR>
0

>  <SCORE.INTRA.POLAR.0>
0

>  <SCORE.INTRA.REPUL>
0

>  <SCORE.INTRA.REPUL.0>
0

>  <SCORE.INTRA.SOLV>
0.10188

>  <SCORE.INTRA.SOLV.lig_0>
-75.7056

>  <SCORE.INTRA.VDW>
0.405639

>  <SCORE.INTRA.VDW.0>
-4.61812

>  <SCORE.INTRA.norm>
0.0143207

>  <SCORE.RESTR>
0

>  <SCORE.RESTR.CAVITY>
0

>  <SCORE.RESTR.norm>
0

>  <SCORE.SYSTEM>
0

>  <SCORE.SYSTEM.CONST>
0

>  <SCORE.SYSTEM.DIHEDRAL>
0

>  <SCORE.SYSTEM.SOLV>
0

>  <SCORE.SYSTEM.norm>
0

>  <SCORE.heavy>
31

>  <SCORE.norm>
-0.477732

>  <RMSD>
0.615

$$$$
ligand
 OpenBabel11021811493D
libRbt.so/2013.1/901 2013/11/27
 31 33  0  0  0  0  0  0  0  0999 V2000
   20.6999   -9.4396   -6.0701 C   0  0  2  0  0  0  0  0  0  0  0  0
   21.2878   -9.0983   -4.8075 O   0  0  0  0  0  0  0  0  0  0  0  0
   21.6433  -10.8600   -0.9398 C   0  0  2  0  0  0  0  0  0  0  0  0
   21.3465  -11.6651    0.1967 N   0  0  0  0  0  0  0  0  0  0  0  0
   22.6825  -13.9500   -1.2927 C   0  0  2  0  0  0  0  0  0  0  0  0
   21.3340   -8.4942   -7.1368 C   0  0  2  0  0  0  0  0  0  0  0  0
   22.7859   -8.6611   -7.1152 N   0  0  0  0  0  0  0  0  0  0  0  0
   20.4770   -9.8253   -1.1610 C   0  0  0  0  0  0  0  0  0  0  0  0
   24.1176  -14.3131   -0.8245 C   0  0  2  0  0  0  0  0  0  0  0  0
   24.5990  -13.2758   -0.0007 O   0  0  0  0  0  0  0  0  0  0  0  0
   20.9180   -6.9985   -6.8579 C   0  0  0  0  0  0  0  0  0  0  0  0
   20.8104   -8.9320   -2.4245 C   0  0  2  0  0  0  0  0  0  0  0  0
   19.7175   -7.9615   -2.6386 N   0  0  0  0  0  0  0  0  0  0  0  0
   25.0203  -14.4972   -2.1084 C   0  0  1  0  0  0  0  0  0  0  0  0
   26.4175  -14.8259   -1.7075 N   0  0  0  0  0  0  0  0  0  0  0  0
   19.4850   -6.8702   -6.2249 C   0  0  0  0  0  0  0  0  0  0  0  0
   20.9714   -9.8730   -3.6935 C   0  0  2  0  0  0  0  0  0  0  0  0
   24.4230  -15.7024   -3.0257 C   0  0  1  0  0  0  0  0  0  0  0  0
   24.4023  -16.9422   -2.3615 O   0  0  0  0  0  0  0  0  0  0  0  0
   18.7706   -7.9540   -5.8868 C   0  0  1  0  0  0  0  0  0  0  0  0
   19.2573   -9.2669   -6.0833 O   0  0  0  0  0  0  0  0  0  0  0  0
   22.1267  -10.9079   -3.4386 C   0  0  2  0  0  0  0  0  0  0  0  0
   22.2562  -11.7558   -4.5784 O   0  0  0  0  0  0  0  0  0  0  0  0
   22.9586  -15.3497   -3.4318 C   0  0  0  0  0  0  0  0  0  0  0  0
   22.1363  -15.0226   -2.2015 O   0  0  0  0  0  0  0  0  0  0  0  0
   17.3694   -7.8659   -5.2511 C   0  0  0  0  0  0  0  0  0  0  0  0
   16.4129   -8.4811   -6.1451 N   0  0  0  0  0  0  0  0  0  0  0  0
   21.7794  -11.7782   -2.1722 C   0  0  1  0  0  0  0  0  0  0  0  0
   22.8263  -12.6801   -1.9635 O   0  0  0  0  0  0  0  0  0  0  0  0
   25.1959  -16.0056   -4.3171 C   0  0  0  0  0  0  0  0  0  0  0  0
   27.3458  -13.6900   -1.5991 C   0  0  0  0  0  0  0  0  0  0  0  0
  1  2  1  1  0  0  0
  1  6  1  0  0  0  0
  1 21  1  0  0  0  0
  3  4  1  1  0  0  0
  3  8  1  0  0  0  0
  3 28  1  0  0  0  0
  5  9  1  0  0  0  0
  5 25  1  0  0  0  0
  5 29  1  6  0  0  0
  6  7  1  1  0  0  0
  6 11  1  0  0  0  0
  8 12  1  0  0  0  0
  9 10  1  1  0  0  0
  9 14  1  0  0  0  0
 11 16  1  0  0  0  0
 12 13  1  6  0  0  0
 12 17  1  0  0  0  0
 14 15  1  1  0  0  0
 14 18  1  0  0  0  0
 15 31  1  0  0  0  0
 16 20  1  0  0  0  0
 17  2  1  6  0  0  0
 17 22  1  0  0  0  0
 18 19  1  1  0  0  0
 18 24  1  0  0  0  0
 18 30  1  0  0  0  0
 20 21  1  0  0  0  0
 20 26  1  1  0  0  0
 22 23  1  6  0  0  0
 22 28  1  0  0  0  0
 24 25  1  0  0  0  0
 26 27  1  0  0  0  0
 28 29  1  1  0  0  0
M  END
>  <CHROM.1>
-174.84819537,-158.80982591,-94.04920895,-141.04630230,117.34581535,86.87104683
22.01220440,-11.42897602,-3.45450579,-2.51436083,-0.80920884,1.84925684

>  <Name>
ligand

>  <RI>
0

>  <Rbt.Current_Directory>
/home/itssahil/PROJECTS/Mol_Feturizer/New_Systems/rnas/4F8V

>  <Rbt.Executable>
rbdock ($Id: //depot/dev/client3/rdock/2013.1/src/exe/rbdock.cxx#4 $)

>  <Rbt.Library>
libRbt.so (2013.1, Build901 2013/11/27)

>  <Rbt.Parameter_File>
/export/apps/rDock/src/rDock_2013.1_src/data/scripts/dock_solv.prm

>  <Rbt.Receptor>
prm/pocket_docking_5.prm

>  <SCORE>
-14.6506

>  <SCORE.INTER>
-13.4481

>  <SCORE.INTER.CONST>
1

>  <SCORE.INTER.POLAR>
0

>  <SCORE.INTER.ROT>
6

>  <SCORE.INTER.SOLV>
24.068

>  <SCORE.INTER.VDW>
-24.5881

>  <SCORE.INTER.norm>
-0.43381

>  <SCORE.INTRA>
-1.20246

>  <SCORE.INTRA.DIHEDRAL>
-3.12954

>  <SCORE.INTRA.DIHEDRAL.0>
15.9129

>  <SCORE.INTRA.POLAR>
0

>  <SCORE.INTRA.POLAR.0>
0

>  <SCORE.INTRA.REPUL>
0

>  <SCORE.INTRA.REPUL.0>
0

>  <SCORE.INTRA.SOLV>
0.0277101

>  <SCORE.INTRA.SOLV.lig_0>
-75.7056

>  <SCORE.INTRA.VDW>
0.348456

>  <SCORE.INTRA.VDW.0>
-4.61812

>  <SCORE.INTRA.norm>
-0.038789

>  <SCORE.RESTR>
0

>  <SCORE.RESTR.CAVITY>
0

>  <SCORE.RESTR.norm>
0

>  <SCORE.SYSTEM>
0

>  <SCORE.SYSTEM.CONST>
0

>  <SCORE.SYSTEM.DIHEDRAL>
0

>  <SCORE.SYSTEM.SOLV>
0

>  <SCORE.SYSTEM.norm>
0

>  <SCORE.heavy>
31

>  <SCORE.norm>
-0.472599

>  <RMSD>
0.616

$$$$
ligand
 OpenBabel11021811493D
libRbt.so/2013.1/901 2013/11/27
 31 33  0  0  0  0  0  0  0  0999 V2000
   20.5273   -9.4921   -5.8547 C   0  0  2  0  0  0  0  0  0  0  0  0
   20.9538   -9.0271   -4.5669 O   0  0  0  0  0  0  0  0  0  0  0  0
   21.6458  -10.9436   -0.8204 C   0  0  2  0  0  0  0  0  0  0  0  0
   21.4446  -11.7880    0.3085 N   0  0  0  0  0  0  0  0  0  0  0  0
   22.5866  -14.0354   -1.3930 C   0  0  2  0  0  0  0  0  0  0  0  0
   21.2033   -8.5709   -6.9169 C   0  0  2  0  0  0  0  0  0  0  0  0
   22.6528   -8.6247   -6.7377 N   0  0  0  0  0  0  0  0  0  0  0  0
   20.4833   -9.8837   -0.8889 C   0  0  0  0  0  0  0  0  0  0  0  0
   24.0282  -14.3595   -0.9164 C   0  0  2  0  0  0  0  0  0  0  0  0
   24.4593  -13.3321   -0.0532 O   0  0  0  0  0  0  0  0  0  0  0  0
   20.6575   -7.0966   -6.7885 C   0  0  0  0  0  0  0  0  0  0  0  0
   20.7106   -8.9469   -2.1445 C   0  0  2  0  0  0  0  0  0  0  0  0
   19.6205   -7.9525   -2.2155 N   0  0  0  0  0  0  0  0  0  0  0  0
   24.9538  -14.4681   -2.1926 C   0  0  1  0  0  0  0  0  0  0  0  0
   26.3571  -14.7572   -1.7825 N   0  0  0  0  0  0  0  0  0  0  0  0
   19.1603   -7.0380   -6.3134 C   0  0  0  0  0  0  0  0  0  0  0  0
   20.7314   -9.8399   -3.4574 C   0  0  2  0  0  0  0  0  0  0  0  0
   24.4144  -15.6645   -3.1561 C   0  0  1  0  0  0  0  0  0  0  0  0
   24.4320  -16.9251   -2.5321 O   0  0  0  0  0  0  0  0  0  0  0  0
   18.4912   -8.1494   -5.9725 C   0  0  1  0  0  0  0  0  0  0  0  0
   19.0857   -9.4312   -6.0251 O   0  0  0  0  0  0  0  0  0  0  0  0
   21.8862  -10.9012   -3.3542 C   0  0  2  0  0  0  0  0  0  0  0  0
   21.8898  -11.7058   -4.5321 O   0  0  0  0  0  0  0  0  0  0  0  0
   22.9431  -15.3539   -3.5715 C   0  0  0  0  0  0  0  0  0  0  0  0
   22.0931  -15.0977   -2.3432 O   0  0  0  0  0  0  0  0  0  0  0  0
   17.0280   -8.1282   -5.4887 C   0  0  0  0  0  0  0  0  0  0  0  0
   16.7255   -6.8093   -4.9775 N   0  0  0  0  0  0  0  0  0  0  0  0
   21.6459  -11.8150   -2.0936 C   0  0  1  0  0  0  0  0  0  0  0  0
   22.6909  -12.7400   -2.0210 O   0  0  0  0  0  0  0  0  0  0  0  0
   25.2149  -15.8967   -4.4455 C   0  0  0  0  0  0  0  0  0  0  0  0
   27.2333  -13.5898   -1.6003 C   0  0  0  0  0  0  0  0  0  0  0  0
  1  2  1  1  0  0  0
  1  6  1  0  0  0  0
  1 21  1  0  0  0  0
  3  4  1  1  0  0  0
  3  8  1  0  0  0  0
  3 28  1  0  0  0  0
  5  9  1  0  0  0  0
  5 25  1  0  0  0  0
  5 29  1  6  0  0  0
  6  7  1  1  0  0  0
  6 11  1  0  0  0  0
  8 12  1  0  0  0  0
  9 10  1  1  0  0  0
  9 14  1  0  0  0  0
 11 16  1  0  0  0  0
 12 13  1  6  0  0  0
 12 17  1  0  0  0  0
 14 15  1  1  0  0  0
 14 18  1  0  0  0  0
 15 31  1  0  0  0  0
 16 20  1  0  0  0  0
 17  2  1  6  0  0  0
 17 22  1  0  0  0  0
 18 19  1  1  0  0  0
 18 24  1  0  0  0  0
 18 30  1  0  0  0  0
 20 21  1  0  0  0  0
 20 26  1  1  0  0  0
 22 23  1  6  0  0  0
 22 28  1  0  0  0  0
 24 25  1  0  0  0  0
 26 27  1  0  0  0  0
 28 29  1  1  0  0  0
M  END
>  <CHROM.1>
-166.42135514,-151.94338441,-92.93759853,-156.91595658,-22.35423596,87.18136061
21.89413046,-11.40994660,-3.37921568,-2.61572990,-0.84676379,1.76870423

>  <Name>
ligand

>  <RI>
0

>  <Rbt.Current_Directory>
/home/itssahil/PROJECTS/Mol_Feturizer/New_Systems/rnas/4F8V

>  <Rbt.Executable>
rbdock ($Id: //depot/dev/client3/rdock/2013.1/src/exe/rbdock.cxx#4 $)

>  <Rbt.Library>
libRbt.so (2013.1, Build901 2013/11/27)

>  <Rbt.Parameter_File>
/export/apps/rDock/src/rDock_2013.1_src/data/scripts/dock_solv.prm

>  <Rbt.Receptor>
prm/pocket_docking_3.prm

>  <SCORE>
-16.3106

>  <SCORE.INTER>
-15.8498

>  <SCORE.INTER.CONST>
1

>  <SCORE.INTER.POLAR>
0

>  <SCORE.INTER.ROT>
6

>  <SCORE.INTER.SOLV>
18.4798

>  <SCORE.INTER.VDW>
-24.3265

>  <SCORE.INTER.norm>
-0.511285

>  <SCORE.INTRA>
-0.460758

>  <SCORE.INTRA.DIHEDRAL>
-3.4546

>  <SCORE.INTRA.DIHEDRAL.0>
15.9129

>  <SCORE.INTRA.POLAR>
0

>  <SCORE.INTRA.POLAR.0>
0

>  <SCORE.INTRA.REPUL>
0

>  <SCORE.INTRA.REPUL.0>
0

>  <SCORE.INTRA.SOLV>
-0.503927

>  <SCORE.INTRA.SOLV.lig_0>
-75.7056

>  <SCORE.INTRA.VDW>
1.51851

>  <SCORE.INTRA.VDW.0>
-4.61812

>  <SCORE.INTRA.norm>
-0.0148632

>  <SCORE.RESTR>
0

>  <SCORE.RESTR.CAVITY>
0

>  <SCORE.RESTR.norm>
0

>  <SCORE.SYSTEM>
0

>  <SCORE.SYSTEM.CONST>
0

>  <SCORE.SYSTEM.DIHEDRAL>
0

>  <SCORE.SYSTEM.SOLV>
0

>  <SCORE.SYSTEM.norm>
0

>  <SCORE.heavy>
31

>  <SCORE.norm>
-0.526148

>  <RMSD>
0.617

$$$$
ligand
 OpenBabel11021811493D
libRbt.so/2013.1/901 2013/11/27
 31 33  0  0  0  0  0  0  0  0999 V2000
   19.8511   -9.3951   -5.6425 C   0  0  2  0  0  0  0  0  0  0  0  0
   20.6654   -9.1020   -4.4990 O   0  0  0  0  0  0  0  0  0  0  0  0
   21.6707  -11.0083   -0.8188 C   0  0  2  0  0  0  0  0  0  0  0  0
   21.5571  -11.8351    0.3351 N   0  0  0  0  0  0  0  0  0  0  0  0
   22.4223  -14.1567   -1.4919 C   0  0  2  0  0  0  0  0  0  0  0  0
   20.3100   -8.4365   -6.7846 C   0  0  2  0  0  0  0  0  0  0  0  0
   21.7369   -8.6383   -7.0284 N   0  0  0  0  0  0  0  0  0  0  0  0
   20.5437   -9.9091   -0.7820 C   0  0  0  0  0  0  0  0  0  0  0  0
   23.8497  -14.4604   -0.9619 C   0  0  2  0  0  0  0  0  0  0  0  0
   24.2256  -13.4378   -0.0679 O   0  0  0  0  0  0  0  0  0  0  0  0
   19.9931   -6.9395   -6.4021 C   0  0  0  0  0  0  0  0  0  0  0  0
   20.6733   -8.9919   -2.0655 C   0  0  2  0  0  0  0  0  0  0  0  0
   19.6159   -7.9607   -2.0377 N   0  0  0  0  0  0  0  0  0  0  0  0
   24.8277  -14.5328   -2.2010 C   0  0  1  0  0  0  0  0  0  0  0  0
   26.2188  -14.8013   -1.7386 N   0  0  0  0  0  0  0  0  0  0  0  0
   18.7010   -6.7943   -5.5188 C   0  0  0  0  0  0  0  0  0  0  0  0
   20.5299   -9.8966   -3.3627 C   0  0  2  0  0  0  0  0  0  0  0  0
   24.3509  -15.7250   -3.2019 C   0  0  1  0  0  0  0  0  0  0  0  0
   24.3680  -16.9940   -2.5952 O   0  0  0  0  0  0  0  0  0  0  0  0
   18.0287   -7.8696   -5.0818 C   0  0  1  0  0  0  0  0  0  0  0  0
   18.4350   -9.1879   -5.3919 O   0  0  0  0  0  0  0  0  0  0  0  0
   21.6527  -10.9967   -3.3643 C   0  0  2  0  0  0  0  0  0  0  0  0
   21.5090  -11.8112   -4.5264 O   0  0  0  0  0  0  0  0  0  0  0  0
   22.8916  -15.4363   -3.6722 C   0  0  0  0  0  0  0  0  0  0  0  0
   21.9882  -15.2142   -2.4758 O   0  0  0  0  0  0  0  0  0  0  0  0
   16.7672   -7.7655   -4.2025 C   0  0  0  0  0  0  0  0  0  0  0  0
   15.6015   -7.9685   -5.0345 N   0  0  0  0  0  0  0  0  0  0  0  0
   21.5114  -11.8904   -2.0746 C   0  0  1  0  0  0  0  0  0  0  0  0
   22.5265  -12.8505   -2.0972 O   0  0  0  0  0  0  0  0  0  0  0  0
   25.2069  -15.9232   -4.4610 C   0  0  0  0  0  0  0  0  0  0  0  0
   27.0881  -13.6253   -1.5800 C   0  0  0  0  0  0  0  0  0  0  0  0
  1  2  1  1  0  0  0
  1  6  1  0  0  0  0
  1 21  1  0  0  0  0
  3  4  1  1  0  0  0
  3  8  1  0  0  0  0
  3 28  1  0  0  0  0
  5  9  1  0  0  0  0
  5 25  1  0  0  0  0
  5 29  1  6  0  0  0
  6  7  1  1  0  0  0
  6 11  1  0  0  0  0
  8 12  1  0  0  0  0
  9 10  1  1  0  0  0
  9 14  1  0  0  0  0
 11 16  1  0  0  0  0
 12 13  1  1  0  0  0
 12 17  1  0  0  0  0
 14 15  1  1  0  0  0
 14 18  1  0  0  0  0
 15 31  1  0  0  0  0
 16 20  1  0  0  0  0
 17  2  1  6  0  0  0
 17 22  1  0  0  0  0
 18 19  1  1  0  0  0
 18 24  1  0  0  0  0
 18 30  1  0  0  0  0
 20 21  1  0  0  0  0
 20 26  1  1  0  0  0
 22 23  1  6  0  0  0
 22 28  1  0  0  0  0
 24 25  1  0  0  0  0
 26 27  1  0  0  0  0
 28 29  1  6  0  0  0
M  END
>  <CHROM.1>
-175.00365986,-144.85808769,-96.36414147,-142.83902312,101.20109044,89.80085054
21.61598055,-11.44919309,-3.25111477,-2.76351227,-0.85478278,1.65232833

>  <Name>
ligand

>  <RI>
0

>  <Rbt.Current_Directory>
/home/itssahil/PROJECTS/Mol_Feturizer/New_Systems/rnas/4F8V

>  <Rbt.Executable>
rbdock ($Id: //depot/dev/client3/rdock/2013.1/src/exe/rbdock.cxx#4 $)

>  <Rbt.Library>
libRbt.so (2013.1, Build901 2013/11/27)

>  <Rbt.Parameter_File>
/export/apps/rDock/src/rDock_2013.1_src/data/scripts/dock_solv.prm

>  <Rbt.Receptor>
prm/pocket_docking_4.prm

>  <SCORE>
-14.8538

>  <SCORE.INTER>
-15.3261

>  <SCORE.INTER.CONST>
1

>  <SCORE.INTER.POLAR>
0

>  <SCORE.INTER.ROT>
6

>  <SCORE.INTER.SOLV>
23.4602

>  <SCORE.INTER.VDW>
-25.6375

>  <SCORE.INTER.norm>
-0.49439

>  <SCORE.INTRA>
0.472311

>  <SCORE.INTRA.DIHEDRAL>
0.151535

>  <SCORE.INTRA.DIHEDRAL.0>
15.9129

>  <SCORE.INTRA.POLAR>
0

>  <SCORE.INTRA.POLAR.0>
0

>  <SCORE.INTRA.REPUL>
0

>  <SCORE.INTRA.REPUL.0>
0

>  <SCORE.INTRA.SOLV>
0.180148

>  <SCORE.INTRA.SOLV.lig_0>
-75.7056

>  <SCORE.INTRA.VDW>
0.306469

>  <SCORE.INTRA.VDW.0>
-4.61812

>  <SCORE.INTRA.norm>
0.0152358

>  <SCORE.RESTR>
0

>  <SCORE.RESTR.CAVITY>
0

>  <SCORE.RESTR.norm>
0

>  <SCORE.SYSTEM>
0

>  <SCORE.SYSTEM.CONST>
0

>  <SCORE.SYSTEM.DIHEDRAL>
0

>  <SCORE.SYSTEM.SOLV>
0

>  <SCORE.SYSTEM.norm>
0

>  <SCORE.heavy>
31

>  <SCORE.norm>
-0.479155

>  <RMSD>
0.617

$$$$
ligand
 OpenBabel11021811493D
libRbt.so/2013.1/901 2013/11/27
 31 33  0  0  0  0  0  0  0  0999 V2000
   20.4045   -9.3845   -5.7726 C   0  0  2  0  0  0  0  0  0  0  0  0
   20.7571   -8.8779   -4.4782 O   0  0  0  0  0  0  0  0  0  0  0  0
   21.5371  -10.8444   -0.7751 C   0  0  2  0  0  0  0  0  0  0  0  0
   21.3541  -11.6904    0.3557 N   0  0  0  0  0  0  0  0  0  0  0  0
   22.3571  -13.9547   -1.3917 C   0  0  2  0  0  0  0  0  0  0  0  0
   21.1107   -8.4741   -6.8244 C   0  0  2  0  0  0  0  0  0  0  0  0
   22.5506   -8.4892   -6.5743 N   0  0  0  0  0  0  0  0  0  0  0  0
   20.4082   -9.7467   -0.7896 C   0  0  0  0  0  0  0  0  0  0  0  0
   23.7925  -14.2808   -0.8979 C   0  0  2  0  0  0  0  0  0  0  0  0
   24.2191  -13.2484   -0.0385 O   0  0  0  0  0  0  0  0  0  0  0  0
   20.5264   -7.0104   -6.7606 C   0  0  0  0  0  0  0  0  0  0  0  0
   20.6151   -8.8083   -2.0474 C   0  0  2  0  0  0  0  0  0  0  0  0
   19.5562   -7.7784   -2.0677 N   0  0  0  0  0  0  0  0  0  0  0  0
   24.7305  -14.4031   -2.1639 C   0  0  1  0  0  0  0  0  0  0  0  0
   26.1284  -14.6945   -1.7374 N   0  0  0  0  0  0  0  0  0  0  0  0
   19.0068   -6.9754   -6.3599 C   0  0  0  0  0  0  0  0  0  0  0  0
   20.5533   -9.6914   -3.3657 C   0  0  2  0  0  0  0  0  0  0  0  0
   24.1960  -15.6049   -3.1234 C   0  0  1  0  0  0  0  0  0  0  0  0
   24.2022  -16.8605   -2.4894 O   0  0  0  0  0  0  0  0  0  0  0  0
   18.3469   -8.0936   -6.0230 C   0  0  1  0  0  0  0  0  0  0  0  0
   18.9719   -9.3619   -6.0138 O   0  0  0  0  0  0  0  0  0  0  0  0
   21.6758  -10.7906   -3.3164 C   0  0  2  0  0  0  0  0  0  0  0  0
   21.6052  -11.5858   -4.4984 O   0  0  0  0  0  0  0  0  0  0  0  0
   22.7302  -15.2917   -3.5560 C   0  0  0  0  0  0  0  0  0  0  0  0
   21.8690  -15.0224   -2.3384 O   0  0  0  0  0  0  0  0  0  0  0  0
   16.8618   -8.0950   -5.6111 C   0  0  0  0  0  0  0  0  0  0  0  0
   16.7789   -8.0612   -4.1674 N   0  0  0  0  0  0  0  0  0  0  0  0
   21.4569  -11.7056   -2.0528 C   0  0  1  0  0  0  0  0  0  0  0  0
   22.4731  -12.6647   -2.0287 O   0  0  0  0  0  0  0  0  0  0  0  0
   25.0086  -15.8504   -4.4027 C   0  0  0  0  0  0  0  0  0  0  0  0
   27.0024  -13.5282   -1.5379 C   0  0  0  0  0  0  0  0  0  0  0  0
  1  2  1  1  0  0  0
  1  6  1  0  0  0  0
  1 21  1  0  0  0  0
  3  4  1  1  0  0  0
  3  8  1  0  0  0  0
  3 28  1  0  0  0  0
  5  9  1  0  0  0  0
  5 25  1  0  0  0  0
  5 29  1  6  0  0  0
  6  7  1  1  0  0  0
  6 11  1  0  0  0  0
  8 12  1  0  0  0  0
  9 10  1  1  0  0  0
  9 14  1  0  0  0  0
 11 16  1  0  0  0  0
 12 13  1  6  0  0  0
 12 17  1  0  0  0  0
 14 15  1  1  0  0  0
 14 18  1  0  0  0  0
 15 31  1  0  0  0  0
 16 20  1  0  0  0  0
 17  2  1  6  0  0  0
 17 22  1  0  0  0  0
 18 19  1  1  0  0  0
 18 24  1  0  0  0  0
 18 30  1  0  0  0  0
 20 21  1  0  0  0  0
 20 26  1  1  0  0  0
 22 23  1  6  0  0  0
 22 28  1  0  0  0  0
 24 25  1  0  0  0  0
 26 27  1  0  0  0  0
 28 29  1  1  0  0  0
M  END
>  <CHROM.1>
-163.64501232,-148.12778541,-92.14480462,-164.05808335,-96.12393071,86.42662572
21.72601054,-11.36164076,-3.31535895,-2.62395912,-0.85784522,1.75444682

>  <Name>
ligand

>  <RI>
0

>  <Rbt.Current_Directory>
/home/itssahil/PROJECTS/Mol_Feturizer/New_Systems/rnas/4F8V

>  <Rbt.Executable>
rbdock ($Id: //depot/dev/client3/rdock/2013.1/src/exe/rbdock.cxx#4 $)

>  <Rbt.Library>
libRbt.so (2013.1, Build901 2013/11/27)

>  <Rbt.Parameter_File>
/export/apps/rDock/src/rDock_2013.1_src/data/scripts/dock_solv.prm

>  <Rbt.Receptor>
prm/pocket_docking_4.prm

>  <SCORE>
-15.6158

>  <SCORE.INTER>
-15.0776

>  <SCORE.INTER.CONST>
1

>  <SCORE.INTER.POLAR>
0

>  <SCORE.INTER.ROT>
6

>  <SCORE.INTER.SOLV>
21.7657

>  <SCORE.INTER.VDW>
-24.907

>  <SCORE.INTER.norm>
-0.486373

>  <SCORE.INTRA>
-0.538239

>  <SCORE.INTRA.DIHEDRAL>
-3.59855

>  <SCORE.INTRA.DIHEDRAL.0>
15.9129

>  <SCORE.INTRA.POLAR>
0

>  <SCORE.INTRA.POLAR.0>
0

>  <SCORE.INTRA.REPUL>
0.00609571

>  <SCORE.INTRA.REPUL.0>
0

>  <SCORE.INTRA.SOLV>
0.532196

>  <SCORE.INTRA.SOLV.lig_0>
-75.7056

>  <SCORE.INTRA.VDW>
0.964459

>  <SCORE.INTRA.VDW.0>
-4.61812

>  <SCORE.INTRA.norm>
-0.0173625

>  <SCORE.RESTR>
0

>  <SCORE.RESTR.CAVITY>
0

>  <SCORE.RESTR.norm>
0

>  <SCORE.SYSTEM>
0

>  <SCORE.SYSTEM.CONST>
0

>  <SCORE.SYSTEM.DIHEDRAL>
0

>  <SCORE.SYSTEM.SOLV>
0

>  <SCORE.SYSTEM.norm>
0

>  <SCORE.heavy>
31

>  <SCORE.norm>
-0.503736

>  <RMSD>
0.619

$$$$
ligand
 OpenBabel11021811493D
libRbt.so/2013.1/901 2013/11/27
 31 33  0  0  0  0  0  0  0  0999 V2000
   20.3810   -9.5117   -5.8257 C   0  0  2  0  0  0  0  0  0  0  0  0
   20.8258   -9.0457   -4.5445 O   0  0  0  0  0  0  0  0  0  0  0  0
   21.5732  -10.9855   -0.8207 C   0  0  2  0  0  0  0  0  0  0  0  0
   21.3825  -11.8270    0.3122 N   0  0  0  0  0  0  0  0  0  0  0  0
   22.4107  -14.1131   -1.4577 C   0  0  2  0  0  0  0  0  0  0  0  0
   21.0392   -8.5894   -6.8981 C   0  0  2  0  0  0  0  0  0  0  0  0
   22.4913   -8.6404   -6.7406 N   0  0  0  0  0  0  0  0  0  0  0  0
   20.4351   -9.8979   -0.8562 C   0  0  0  0  0  0  0  0  0  0  0  0
   23.8307  -14.4491   -0.9274 C   0  0  2  0  0  0  0  0  0  0  0  0
   24.2247  -13.4416   -0.0240 O   0  0  0  0  0  0  0  0  0  0  0  0
   20.4925   -7.1162   -6.7617 C   0  0  0  0  0  0  0  0  0  0  0  0
   20.6506   -8.9644   -2.1162 C   0  0  2  0  0  0  0  0  0  0  0  0
   19.5832   -7.9439   -2.1563 N   0  0  0  0  0  0  0  0  0  0  0  0
   24.8098  -14.5301   -2.1652 C   0  0  1  0  0  0  0  0  0  0  0  0
   26.1944  -14.8297   -1.7022 N   0  0  0  0  0  0  0  0  0  0  0  0
   19.0024   -7.0604   -6.2643 C   0  0  0  0  0  0  0  0  0  0  0  0
   20.6142   -9.8550   -3.4304 C   0  0  2  0  0  0  0  0  0  0  0  0
   24.3120  -15.7043   -3.1771 C   0  0  1  0  0  0  0  0  0  0  0  0
   24.3030  -16.9785   -2.5811 O   0  0  0  0  0  0  0  0  0  0  0  0
   18.3407   -8.1731   -5.9131 C   0  0  1  0  0  0  0  0  0  0  0  0
   18.9369   -9.4537   -5.9744 O   0  0  0  0  0  0  0  0  0  0  0  0
   21.7455  -10.9440   -3.3601 C   0  0  2  0  0  0  0  0  0  0  0  0
   21.6977  -11.7461   -4.5387 O   0  0  0  0  0  0  0  0  0  0  0  0
   22.8597  -15.3831   -3.6478 C   0  0  0  0  0  0  0  0  0  0  0  0
   21.9582  -15.1535   -2.4514 O   0  0  0  0  0  0  0  0  0  0  0  0
   16.8849   -8.1547   -5.4075 C   0  0  0  0  0  0  0  0  0  0  0  0
   16.5716   -6.8227   -4.9384 N   0  0  0  0  0  0  0  0  0  0  0  0
   21.5177  -11.8542   -2.0946 C   0  0  1  0  0  0  0  0  0  0  0  0
   22.5418  -12.8041   -2.0517 O   0  0  0  0  0  0  0  0  0  0  0  0
   25.1667  -15.9085   -4.4361 C   0  0  0  0  0  0  0  0  0  0  0  0
   27.0831  -13.6714   -1.5222 C   0  0  0  0  0  0  0  0  0  0  0  0
  1  2  1  1  0  0  0
  1  6  1  0  0  0  0
  1 21  1  0  0  0  0
  3  4  1  1  0  0  0
  3  8  1  0  0  0  0
  3 28  1  0  0  0  0
  5  9  1  0  0  0  0
  5 25  1  0  0  0  0
  5 29  1  6  0  0  0
  6  7  1  1  0  0  0
  6 11  1  0  0  0  0
  8 12  1  0  0  0  0
  9 10  1  1  0  0  0
  9 14  1  0  0  0  0
 11 16  1  0  0  0  0
 12 13  1  6  0  0  0
 12 17  1  0  0  0  0
 14 15  1  1  0  0  0
 14 18  1  0  0  0  0
 15 31  1  0  0  0  0
 16 20  1  0  0  0  0
 17  2  1  6  0  0  0
 17 22  1  0  0  0  0
 18 19  1  1  0  0  0
 18 24  1  0  0  0  0
 18 30  1  0  0  0  0
 20 21  1  0  0  0  0
 20 26  1  1  0  0  0
 22 23  1  6  0  0  0
 22 28  1  0  0  0  0
 24 25  1  0  0  0  0
 26 27  1  0  0  0  0
 28 29  1  1  0  0  0
M  END
>  <CHROM.1>
-166.81511483,-148.94269051,-95.91847018,-158.34039182,-20.22811245,89.10998787
21.76146617,-11.44870979,-3.36759131,-2.64500695,-0.86244753,1.73684261

>  <Name>
ligand

>  <RI>
0

>  <Rbt.Current_Directory>
/home/itssahil/PROJECTS/Mol_Feturizer/New_Systems/rnas/4F8V

>  <Rbt.Executable>
rbdock ($Id: //depot/dev/client3/rdock/2013.1/src/exe/rbdock.cxx#4 $)

>  <Rbt.Library>
libRbt.so (2013.1, Build901 2013/11/27)

>  <Rbt.Parameter_File>
/export/apps/rDock/src/rDock_2013.1_src/data/scripts/dock_solv.prm

>  <Rbt.Receptor>
prm/pocket_docking_3.prm

>  <SCORE>
-16.2664

>  <SCORE.INTER>
-16.0459

>  <SCORE.INTER.CONST>
1

>  <SCORE.INTER.POLAR>
0

>  <SCORE.INTER.ROT>
6

>  <SCORE.INTER.SOLV>
19.4911

>  <SCORE.INTER.VDW>
-24.7943

>  <SCORE.INTER.norm>
-0.51761

>  <SCORE.INTRA>
-0.220542

>  <SCORE.INTRA.DIHEDRAL>
-2.82822

>  <SCORE.INTRA.DIHEDRAL.0>
15.9129

>  <SCORE.INTRA.POLAR>
0

>  <SCORE.INTRA.POLAR.0>
0

>  <SCORE.INTRA.REPUL>
0

>  <SCORE.INTRA.REPUL.0>
0

>  <SCORE.INTRA.SOLV>
-0.638887

>  <SCORE.INTRA.SOLV.lig_0>
-75.7056

>  <SCORE.INTRA.VDW>
1.51301

>  <SCORE.INTRA.VDW.0>
-4.61812

>  <SCORE.INTRA.norm>
-0.00711425

>  <SCORE.RESTR>
0

>  <SCORE.RESTR.CAVITY>
0

>  <SCORE.RESTR.norm>
0

>  <SCORE.SYSTEM>
0

>  <SCORE.SYSTEM.CONST>
0

>  <SCORE.SYSTEM.DIHEDRAL>
0

>  <SCORE.SYSTEM.SOLV>
0

>  <SCORE.SYSTEM.norm>
0

>  <SCORE.heavy>
31

>  <SCORE.norm>
-0.524724

>  <RMSD>
0.620

$$$$
ligand
 OpenBabel11021811493D
libRbt.so/2013.1/901 2013/11/27
 31 33  0  0  0  0  0  0  0  0999 V2000
   20.3259   -9.5216   -5.8508 C   0  0  2  0  0  0  0  0  0  0  0  0
   20.8069   -9.0683   -4.5782 O   0  0  0  0  0  0  0  0  0  0  0  0
   21.6271  -11.0343   -0.8835 C   0  0  2  0  0  0  0  0  0  0  0  0
   21.4573  -11.8816    0.2483 N   0  0  0  0  0  0  0  0  0  0  0  0
   22.4383  -14.1574   -1.5467 C   0  0  2  0  0  0  0  0  0  0  0  0
   20.9703   -8.6018   -6.9337 C   0  0  2  0  0  0  0  0  0  0  0  0
   22.4249   -8.6722   -6.8112 N   0  0  0  0  0  0  0  0  0  0  0  0
   20.4940   -9.9408   -0.8872 C   0  0  0  0  0  0  0  0  0  0  0  0
   23.8520  -14.4639   -0.9828 C   0  0  2  0  0  0  0  0  0  0  0  0
   24.2073  -13.4435   -0.0778 O   0  0  0  0  0  0  0  0  0  0  0  0
   20.4459   -7.1226   -6.7769 C   0  0  0  0  0  0  0  0  0  0  0  0
   20.6862   -9.0007   -2.1462 C   0  0  2  0  0  0  0  0  0  0  0  0
   19.6234   -7.9748   -2.1563 N   0  0  0  0  0  0  0  0  0  0  0  0
   24.8598  -14.5349   -2.1979 C   0  0  1  0  0  0  0  0  0  0  0  0
   26.2390  -14.8059   -1.7024 N   0  0  0  0  0  0  0  0  0  0  0  0
   18.9689   -7.0505   -6.2438 C   0  0  0  0  0  0  0  0  0  0  0  0
   20.6160   -9.8832   -3.4645 C   0  0  2  0  0  0  0  0  0  0  0  0
   24.4061  -15.7245   -3.2126 C   0  0  1  0  0  0  0  0  0  0  0  0
   24.4071  -16.9948   -2.6083 O   0  0  0  0  0  0  0  0  0  0  0  0
   18.3014   -8.1565   -5.8828 C   0  0  1  0  0  0  0  0  0  0  0  0
   18.8795   -9.4443   -5.9649 O   0  0  0  0  0  0  0  0  0  0  0  0
   21.7430  -10.9782   -3.4258 C   0  0  2  0  0  0  0  0  0  0  0  0
   21.6649  -11.7730   -4.6078 O   0  0  0  0  0  0  0  0  0  0  0  0
   22.9591  -15.4332   -3.7175 C   0  0  0  0  0  0  0  0  0  0  0  0
   22.0271  -15.2124   -2.5430 O   0  0  0  0  0  0  0  0  0  0  0  0
   16.8584   -8.1223   -5.3426 C   0  0  0  0  0  0  0  0  0  0  0  0
   16.5798   -6.7940   -4.8423 N   0  0  0  0  0  0  0  0  0  0  0  0
   21.5388  -11.8949   -2.1610 C   0  0  1  0  0  0  0  0  0  0  0  0
   22.5587  -12.8502   -2.1466 O   0  0  0  0  0  0  0  0  0  0  0  0
   25.2923  -15.9211   -4.4509 C   0  0  0  0  0  0  0  0  0  0  0  0
   27.1171  -13.6351   -1.5549 C   0  0  0  0  0  0  0  0  0  0  0  0
  1  2  1  1  0  0  0
  1  6  1  0  0  0  0
  1 21  1  0  0  0  0
  3  4  1  1  0  0  0
  3  8  1  0  0  0  0
  3 28  1  0  0  0  0
  5  9  1  0  0  0  0
  5 25  1  0  0  0  0
  5 29  1  6  0  0  0
  6  7  1  1  0  0  0
  6 11  1  0  0  0  0
  8 12  1  0  0  0  0
  9 10  1  1  0  0  0
  9 14  1  0  0  0  0
 11 16  1  0  0  0  0
 12 13  1  6  0  0  0
 12 17  1  0  0  0  0
 14 15  1  1  0  0  0
 14 18  1  0  0  0  0
 15 31  1  0  0  0  0
 16 20  1  0  0  0  0
 17  2  1  6  0  0  0
 17 22  1  0  0  0  0
 18 19  1  1  0  0  0
 18 24  1  0  0  0  0
 18 30  1  0  0  0  0
 20 21  1  0  0  0  0
 20 26  1  1  0  0  0
 22 23  1  6  0  0  0
 22 28  1  0  0  0  0
 24 25  1  0  0  0  0
 26 27  1  0  0  0  0
 28 29  1  1  0  0  0
M  END
>  <CHROM.1>
-166.56826052,-145.67663264,-97.95722055,-158.05940528,-21.01523372,88.50782806
21.77812137,-11.46599788,-3.39949046,-2.66271593,-0.86062036,1.72585693

>  <Name>
ligand

>  <RI>
0

>  <Rbt.Current_Directory>
/home/itssahil/PROJECTS/Mol_Feturizer/New_Systems/rnas/4F8V

>  <Rbt.Executable>
rbdock ($Id: //depot/dev/client3/rdock/2013.1/src/exe/rbdock.cxx#4 $)

>  <Rbt.Library>
libRbt.so (2013.1, Build901 2013/11/27)

>  <Rbt.Parameter_File>
/export/apps/rDock/src/rDock_2013.1_src/data/scripts/dock_solv.prm

>  <Rbt.Receptor>
prm/pocket_docking_3.prm

>  <SCORE>
-16.3318

>  <SCORE.INTER>
-16.4669

>  <SCORE.INTER.CONST>
1

>  <SCORE.INTER.POLAR>
0

>  <SCORE.INTER.ROT>
6

>  <SCORE.INTER.SOLV>
19.1455

>  <SCORE.INTER.VDW>
-24.9597

>  <SCORE.INTER.norm>
-0.53119

>  <SCORE.INTRA>
0.135064

>  <SCORE.INTRA.DIHEDRAL>
-2.15993

>  <SCORE.INTRA.DIHEDRAL.0>
15.9129

>  <SCORE.INTRA.POLAR>
0

>  <SCORE.INTRA.POLAR.0>
0

>  <SCORE.INTRA.REPUL>
0

>  <SCORE.INTRA.REPUL.0>
0

>  <SCORE.INTRA.SOLV>
-0.48295

>  <SCORE.INTRA.SOLV.lig_0>
-75.7056

>  <SCORE.INTRA.VDW>
1.4565

>  <SCORE.INTRA.VDW.0>
-4.61812

>  <SCORE.INTRA.norm>
0.0043569

>  <SCORE.RESTR>
0

>  <SCORE.RESTR.CAVITY>
0

>  <SCORE.RESTR.norm>
0

>  <SCORE.SYSTEM>
0

>  <SCORE.SYSTEM.CONST>
0

>  <SCORE.SYSTEM.DIHEDRAL>
0

>  <SCORE.SYSTEM.SOLV>
0

>  <SCORE.SYSTEM.norm>
0

>  <SCORE.heavy>
31

>  <SCORE.norm>
-0.526833

>  <RMSD>
0.622

$$$$
ligand
 OpenBabel11021811493D
libRbt.so/2013.1/901 2013/11/27
 31 33  0  0  0  0  0  0  0  0999 V2000
   20.4153   -9.3898   -5.8711 C   0  0  2  0  0  0  0  0  0  0  0  0
   20.8883   -8.9737   -4.5829 O   0  0  0  0  0  0  0  0  0  0  0  0
   21.6179  -11.0332   -0.9203 C   0  0  2  0  0  0  0  0  0  0  0  0
   21.4157  -11.9007    0.1908 N   0  0  0  0  0  0  0  0  0  0  0  0
   22.4040  -14.1287   -1.5711 C   0  0  2  0  0  0  0  0  0  0  0  0
   21.0259   -8.4076   -6.9181 C   0  0  2  0  0  0  0  0  0  0  0  0
   22.4826   -8.4378   -6.8037 N   0  0  0  0  0  0  0  0  0  0  0  0
   20.5067   -9.9175   -0.9159 C   0  0  0  0  0  0  0  0  0  0  0  0
   23.8151  -14.4240   -0.9947 C   0  0  2  0  0  0  0  0  0  0  0  0
   24.1723  -13.3788   -0.1194 O   0  0  0  0  0  0  0  0  0  0  0  0
   20.4571   -6.9528   -6.6995 C   0  0  0  0  0  0  0  0  0  0  0  0
   20.7349   -8.9551   -2.1518 C   0  0  2  0  0  0  0  0  0  0  0  0
   19.6928   -7.9081   -2.1545 N   0  0  0  0  0  0  0  0  0  0  0  0
   24.8256  -14.5350   -2.2047 C   0  0  1  0  0  0  0  0  0  0  0  0
   26.2024  -14.7968   -1.6978 N   0  0  0  0  0  0  0  0  0  0  0  0
   18.9811   -6.9480   -6.1586 C   0  0  0  0  0  0  0  0  0  0  0  0
   20.6658   -9.8080   -3.4895 C   0  0  2  0  0  0  0  0  0  0  0  0
   24.3695  -15.7523   -3.1849 C   0  0  1  0  0  0  0  0  0  0  0  0
   24.3638  -17.0041   -2.5433 O   0  0  0  0  0  0  0  0  0  0  0  0
   18.3497   -8.0879   -5.8404 C   0  0  1  0  0  0  0  0  0  0  0  0
   18.9667   -9.3528   -5.9767 O   0  0  0  0  0  0  0  0  0  0  0  0
   21.7705  -10.9258   -3.4590 C   0  0  2  0  0  0  0  0  0  0  0  0
   21.6933  -11.6938   -4.6586 O   0  0  0  0  0  0  0  0  0  0  0  0
   22.9249  -15.4702   -3.7020 C   0  0  0  0  0  0  0  0  0  0  0  0
   21.9910  -15.2111   -2.5369 O   0  0  0  0  0  0  0  0  0  0  0  0
   16.9089   -8.1202   -5.2941 C   0  0  0  0  0  0  0  0  0  0  0  0
   16.5215   -6.7769   -4.9225 N   0  0  0  0  0  0  0  0  0  0  0  0
   21.5306  -11.8648   -2.2169 C   0  0  1  0  0  0  0  0  0  0  0  0
   22.5312  -12.8403   -2.2091 O   0  0  0  0  0  0  0  0  0  0  0  0
   25.2579  -15.9889   -4.4145 C   0  0  0  0  0  0  0  0  0  0  0  0
   27.0609  -13.6167   -1.5127 C   0  0  0  0  0  0  0  0  0  0  0  0
  1  2  1  1  0  0  0
  1  6  1  0  0  0  0
  1 21  1  0  0  0  0
  3  4  1  1  0  0  0
  3  8  1  0  0  0  0
  3 28  1  0  0  0  0
  5  9  1  0  0  0  0
  5 25  1  0  0  0  0
  5 29  1  6  0  0  0
  6  7  1  1  0  0  0
  6 11  1  0  0  0  0
  8 12  1  0  0  0  0
  9 10  1  1  0  0  0
  9 14  1  0  0  0  0
 11 16  1  0  0  0  0
 12 13  1  6  0  0  0
 12 17  1  0  0  0  0
 14 15  1  1  0  0  0
 14 18  1  0  0  0  0
 15 31  1  0  0  0  0
 16 20  1  0  0  0  0
 17  2  1  6  0  0  0
 17 22  1  0  0  0  0
 18 19  1  1  0  0  0
 18 24  1  0  0  0  0
 18 30  1  0  0  0  0
 20 21  1  0  0  0  0
 20 26  1  1  0  0  0
 22 23  1  6  0  0  0
 22 28  1  0  0  0  0
 24 25  1  0  0  0  0
 26 27  1  0  0  0  0
 28 29  1  1  0  0  0
M  END
>  <CHROM.1>
-169.86576343,-143.49962915,-94.72370213,-158.00565242,-12.57483576,84.74065191
21.78324358,-11.41821800,-3.40213268,-2.63366814,-0.86498706,1.76324252

>  <Name>
ligand

>  <RI>
0

>  <Rbt.Current_Directory>
/home/itssahil/PROJECTS/Mol_Feturizer/New_Systems/rnas/4F8V

>  <Rbt.Executable>
rbdock ($Id: //depot/dev/client3/rdock/2013.1/src/exe/rbdock.cxx#4 $)

>  <Rbt.Library>
libRbt.so (2013.1, Build901 2013/11/27)

>  <Rbt.Parameter_File>
/export/apps/rDock/src/rDock_2013.1_src/data/scripts/dock_solv.prm

>  <Rbt.Receptor>
prm/pocket_docking_3.prm

>  <SCORE>
-16.3221

>  <SCORE.INTER>
-16.0434

>  <SCORE.INTER.CONST>
1

>  <SCORE.INTER.POLAR>
0

>  <SCORE.INTER.ROT>
6

>  <SCORE.INTER.SOLV>
19.1507

>  <SCORE.INTER.VDW>
-24.6791

>  <SCORE.INTER.norm>
-0.517529

>  <SCORE.INTRA>
-0.278746

>  <SCORE.INTRA.DIHEDRAL>
-3.23281

>  <SCORE.INTRA.DIHEDRAL.0>
15.9129

>  <SCORE.INTRA.POLAR>
0

>  <SCORE.INTRA.POLAR.0>
0

>  <SCORE.INTRA.REPUL>
0

>  <SCORE.INTRA.REPUL.0>
0

>  <SCORE.INTRA.SOLV>
-0.612073

>  <SCORE.INTRA.SOLV.lig_0>
-75.7056

>  <SCORE.INTRA.VDW>
1.64369

>  <SCORE.INTRA.VDW.0>
-4.61812

>  <SCORE.INTRA.norm>
-0.00899181

>  <SCORE.RESTR>
0

>  <SCORE.RESTR.CAVITY>
0

>  <SCORE.RESTR.norm>
0

>  <SCORE.SYSTEM>
0

>  <SCORE.SYSTEM.CONST>
0

>  <SCORE.SYSTEM.DIHEDRAL>
0

>  <SCORE.SYSTEM.SOLV>
0

>  <SCORE.SYSTEM.norm>
0

>  <SCORE.heavy>
31

>  <SCORE.norm>
-0.52652

>  <RMSD>
0.622

$$$$
ligand
 OpenBabel11021811493D
libRbt.so/2013.1/901 2013/11/27
 31 33  0  0  0  0  0  0  0  0999 V2000
   19.8245   -9.4218   -5.6434 C   0  0  2  0  0  0  0  0  0  0  0  0
   20.6374   -9.1084   -4.5044 O   0  0  0  0  0  0  0  0  0  0  0  0
   21.6953  -11.0033   -0.8331 C   0  0  2  0  0  0  0  0  0  0  0  0
   21.5970  -11.8240    0.3265 N   0  0  0  0  0  0  0  0  0  0  0  0
   22.4093  -14.1663   -1.5206 C   0  0  2  0  0  0  0  0  0  0  0  0
   20.2875   -8.4865   -6.8030 C   0  0  2  0  0  0  0  0  0  0  0  0
   21.7143   -8.6959   -7.0404 N   0  0  0  0  0  0  0  0  0  0  0  0
   20.5756   -9.8973   -0.7820 C   0  0  0  0  0  0  0  0  0  0  0  0
   23.8277  -14.4649   -0.9643 C   0  0  2  0  0  0  0  0  0  0  0  0
   24.1804  -13.4448   -0.0580 O   0  0  0  0  0  0  0  0  0  0  0  0
   19.9730   -6.9817   -6.4502 C   0  0  0  0  0  0  0  0  0  0  0  0
   20.6883   -8.9869   -2.0720 C   0  0  2  0  0  0  0  0  0  0  0  0
   19.6376   -7.9493   -2.0308 N   0  0  0  0  0  0  0  0  0  0  0  0
   24.8301  -14.5257   -2.1844 C   0  0  1  0  0  0  0  0  0  0  0  0
   26.2134  -14.7889   -1.6962 N   0  0  0  0  0  0  0  0  0  0  0  0
   18.6797   -6.8168   -5.5721 C   0  0  0  0  0  0  0  0  0  0  0  0
   20.5170   -9.8968   -3.3621 C   0  0  2  0  0  0  0  0  0  0  0  0
   24.3795  -15.7154   -3.2004 C   0  0  1  0  0  0  0  0  0  0  0  0
   24.3919  -16.9873   -2.5997 O   0  0  0  0  0  0  0  0  0  0  0  0
   18.0043   -7.8820   -5.1156 C   0  0  1  0  0  0  0  0  0  0  0  0
   18.4084   -9.2070   -5.3995 O   0  0  0  0  0  0  0  0  0  0  0  0
   21.6331  -11.0035   -3.3779 C   0  0  2  0  0  0  0  0  0  0  0  0
   21.4645  -11.8227   -4.5334 O   0  0  0  0  0  0  0  0  0  0  0  0
   22.9282  -15.4323   -3.6976 C   0  0  0  0  0  0  0  0  0  0  0  0
   22.0004  -15.2212   -2.5180 O   0  0  0  0  0  0  0  0  0  0  0  0
   16.7415   -7.7583   -4.2408 C   0  0  0  0  0  0  0  0  0  0  0  0
   15.5805   -8.0396   -5.0564 N   0  0  0  0  0  0  0  0  0  0  0  0
   21.5091  -11.8903   -2.0817 C   0  0  1  0  0  0  0  0  0  0  0  0
   22.5180  -12.8566   -2.1172 O   0  0  0  0  0  0  0  0  0  0  0  0
   25.2611  -15.9025   -4.4434 C   0  0  0  0  0  0  0  0  0  0  0  0
   27.0657  -13.6072   -1.4935 C   0  0  0  0  0  0  0  0  0  0  0  0
  1  2  1  1  0  0  0
  1  6  1  0  0  0  0
  1 21  1  0  0  0  0
  3  4  1  1  0  0  0
  3  8  1  0  0  0  0
  3 28  1  0  0  0  0
  5  9  1  0  0  0  0
  5 25  1  0  0  0  0
  5 29  1  6  0  0  0
  6  7  1  1  0  0  0
  6 11  1  0  0  0  0
  8 12  1  0  0  0  0
  9 10  1  1  0  0  0
  9 14  1  0  0  0  0
 11 16  1  0  0  0  0
 12 13  1  1  0  0  0
 12 17  1  0  0  0  0
 14 15  1  1  0  0  0
 14 18  1  0  0  0  0
 15 31  1  0  0  0  0
 16 20  1  0  0  0  0
 17  2  1  6  0  0  0
 17 22  1  0  0  0  0
 18 19  1  1  0  0  0
 18 24  1  0  0  0  0
 18 30  1  0  0  0  0
 20 21  1  0  0  0  0
 20 26  1  1  0  0  0
 22 23  1  6  0  0  0
 22 28  1  0  0  0  0
 24 25  1  0  0  0  0
 26 27  1  0  0  0  0
 28 29  1  6  0  0  0
M  END
>  <CHROM.1>
-173.76820812,-143.23896505,-95.38649286,-144.30845668,103.97973562,90.73949151
21.61101683,-11.45655393,-3.25861496,-2.78703023,-0.85881083,1.61619123

>  <Name>
ligand

>  <RI>
0

>  <Rbt.Current_Directory>
/home/itssahil/PROJECTS/Mol_Feturizer/New_Systems/rnas/4F8V

>  <Rbt.Executable>
rbdock ($Id: //depot/dev/client3/rdock/2013.1/src/exe/rbdock.cxx#4 $)

>  <Rbt.Library>
libRbt.so (2013.1, Build901 2013/11/27)

>  <Rbt.Parameter_File>
/export/apps/rDock/src/rDock_2013.1_src/data/scripts/dock_solv.prm

>  <Rbt.Receptor>
prm/pocket_docking_3.prm

>  <SCORE>
-14.787

>  <SCORE.INTER>
-15.3214

>  <SCORE.INTER.CONST>
1

>  <SCORE.INTER.POLAR>
0

>  <SCORE.INTER.ROT>
6

>  <SCORE.INTER.SOLV>
23.6564

>  <SCORE.INTER.VDW>
-25.6997

>  <SCORE.INTER.norm>
-0.494239

>  <SCORE.INTRA>
0.534373

>  <SCORE.INTRA.DIHEDRAL>
0.285426

>  <SCORE.INTRA.DIHEDRAL.0>
15.9129

>  <SCORE.INTRA.POLAR>
0

>  <SCORE.INTRA.POLAR.0>
0

>  <SCORE.INTRA.REPUL>
0

>  <SCORE.INTRA.REPUL.0>
0

>  <SCORE.INTRA.SOLV>
0.149306

>  <SCORE.INTRA.SOLV.lig_0>
-75.7056

>  <SCORE.INTRA.VDW>
0.317007

>  <SCORE.INTRA.VDW.0>
-4.61812

>  <SCORE.INTRA.norm>
0.0172378

>  <SCORE.RESTR>
0

>  <SCORE.RESTR.CAVITY>
0

>  <SCORE.RESTR.norm>
0

>  <SCORE.SYSTEM>
0

>  <SCORE.SYSTEM.CONST>
0

>  <SCORE.SYSTEM.DIHEDRAL>
0

>  <SCORE.SYSTEM.SOLV>
0

>  <SCORE.SYSTEM.norm>
0

>  <SCORE.heavy>
31

>  <SCORE.norm>
-0.477001

>  <RMSD>
0.624

$$$$
ligand
 OpenBabel11021811493D
libRbt.so/2013.1/901 2013/11/27
 31 33  0  0  0  0  0  0  0  0999 V2000
   20.3517   -9.4869   -5.8844 C   0  0  2  0  0  0  0  0  0  0  0  0
   20.8688   -9.0579   -4.6176 O   0  0  0  0  0  0  0  0  0  0  0  0
   21.6615  -11.0307   -0.9205 C   0  0  2  0  0  0  0  0  0  0  0  0
   21.4819  -11.8777    0.2101 N   0  0  0  0  0  0  0  0  0  0  0  0
   22.4724  -14.1421   -1.5456 C   0  0  2  0  0  0  0  0  0  0  0  0
   20.9637   -8.5453   -6.9673 C   0  0  2  0  0  0  0  0  0  0  0  0
   22.4214   -8.6159   -6.8881 N   0  0  0  0  0  0  0  0  0  0  0  0
   20.5346   -9.9308   -0.9285 C   0  0  0  0  0  0  0  0  0  0  0  0
   23.8925  -14.4382   -0.9924 C   0  0  2  0  0  0  0  0  0  0  0  0
   24.2622  -13.3960   -0.1186 O   0  0  0  0  0  0  0  0  0  0  0  0
   20.4428   -7.0701   -6.7664 C   0  0  0  0  0  0  0  0  0  0  0  0
   20.7377   -8.9911   -2.1861 C   0  0  2  0  0  0  0  0  0  0  0  0
   19.6807   -7.9592   -2.2003 N   0  0  0  0  0  0  0  0  0  0  0  0
   24.8842  -14.5435   -2.2182 C   0  0  1  0  0  0  0  0  0  0  0  0
   26.2689  -14.8058   -1.7338 N   0  0  0  0  0  0  0  0  0  0  0  0
   18.9817   -7.0107   -6.1897 C   0  0  0  0  0  0  0  0  0  0  0  0
   20.6683   -9.8724   -3.5052 C   0  0  2  0  0  0  0  0  0  0  0  0
   24.4141  -15.7574   -3.1960 C   0  0  1  0  0  0  0  0  0  0  0  0
   24.4196  -17.0117   -2.5592 O   0  0  0  0  0  0  0  0  0  0  0  0
   18.3259   -8.1245   -5.8313 C   0  0  1  0  0  0  0  0  0  0  0  0
   18.9025   -9.4096   -5.9552 O   0  0  0  0  0  0  0  0  0  0  0  0
   21.7890  -10.9738   -3.4622 C   0  0  2  0  0  0  0  0  0  0  0  0
   21.7117  -11.7674   -4.6450 O   0  0  0  0  0  0  0  0  0  0  0  0
   22.9614  -15.4748   -3.6895 C   0  0  0  0  0  0  0  0  0  0  0  0
   22.0454  -15.2211   -2.5091 O   0  0  0  0  0  0  0  0  0  0  0  0
   16.8990   -8.1030   -5.2492 C   0  0  0  0  0  0  0  0  0  0  0  0
   16.5780   -6.7493   -4.8532 N   0  0  0  0  0  0  0  0  0  0  0  0
   21.5740  -11.8901   -2.1989 C   0  0  1  0  0  0  0  0  0  0  0  0
   22.5884  -12.8511   -2.1805 O   0  0  0  0  0  0  0  0  0  0  0  0
   25.2836  -15.9884   -4.4402 C   0  0  0  0  0  0  0  0  0  0  0  0
   27.1248  -13.6245   -1.5448 C   0  0  0  0  0  0  0  0  0  0  0  0
  1  2  1  1  0  0  0
  1  6  1  0  0  0  0
  1 21  1  0  0  0  0
  3  4  1  1  0  0  0
  3  8  1  0  0  0  0
  3 28  1  0  0  0  0
  5  9  1  0  0  0  0
  5 25  1  0  0  0  0
  5 29  1  6  0  0  0
  6  7  1  1  0  0  0
  6 11  1  0  0  0  0
  8 12  1  0  0  0  0
  9 10  1  1  0  0  0
  9 14  1  0  0  0  0
 11 16  1  0  0  0  0
 12 13  1  6  0  0  0
 12 17  1  0  0  0  0
 14 15  1  1  0  0  0
 14 18  1  0  0  0  0
 15 31  1  0  0  0  0
 16 20  1  0  0  0  0
 17  2  1  6  0  0  0
 17 22  1  0  0  0  0
 18 19  1  1  0  0  0
 18 24  1  0  0  0  0
 18 30  1  0  0  0  0
 20 21  1  0  0  0  0
 20 26  1  1  0  0  0
 22 23  1  6  0  0  0
 22 28  1  0  0  0  0
 24 25  1  0  0  0  0
 26 27  1  0  0  0  0
 28 29  1  1  0  0  0
M  END
>  <CHROM.1>
-168.86300784,-145.24509051,-94.13982317,-156.00463697,-14.59980938,86.48507012
21.80451347,-11.45417866,-3.40929804,-2.65918410,-0.86359471,1.73204402

>  <Name>
ligand

>  <RI>
0

>  <Rbt.Current_Directory>
/home/itssahil/PROJECTS/Mol_Feturizer/New_Systems/rnas/4F8V

>  <Rbt.Executable>
rbdock ($Id: //depot/dev/client3/rdock/2013.1/src/exe/rbdock.cxx#4 $)

>  <Rbt.Library>
libRbt.so (2013.1, Build901 2013/11/27)

>  <Rbt.Parameter_File>
/export/apps/rDock/src/rDock_2013.1_src/data/scripts/dock_solv.prm

>  <Rbt.Receptor>
prm/pocket_docking_4.prm

>  <SCORE>
-16.3423

>  <SCORE.INTER>
-16.3463

>  <SCORE.INTER.CONST>
1

>  <SCORE.INTER.POLAR>
0

>  <SCORE.INTER.ROT>
6

>  <SCORE.INTER.SOLV>
18.8188

>  <SCORE.INTER.VDW>
-24.7704

>  <SCORE.INTER.norm>
-0.527299

>  <SCORE.INTRA>
0.00395314

>  <SCORE.INTRA.DIHEDRAL>
-2.7275

>  <SCORE.INTRA.DIHEDRAL.0>
15.9129

>  <SCORE.INTRA.POLAR>
0

>  <SCORE.INTRA.POLAR.0>
0

>  <SCORE.INTRA.REPUL>
0

>  <SCORE.INTRA.REPUL.0>
0

>  <SCORE.INTRA.SOLV>
-0.377158

>  <SCORE.INTRA.SOLV.lig_0>
-75.7056

>  <SCORE.INTRA.VDW>
1.55628

>  <SCORE.INTRA.VDW.0>
-4.61812

>  <SCORE.INTRA.norm>
0.000127521

>  <SCORE.RESTR>
0

>  <SCORE.RESTR.CAVITY>
0

>  <SCORE.RESTR.norm>
0

>  <SCORE.SYSTEM>
0

>  <SCORE.SYSTEM.CONST>
0

>  <SCORE.SYSTEM.DIHEDRAL>
0

>  <SCORE.SYSTEM.SOLV>
0

>  <SCORE.SYSTEM.norm>
0

>  <SCORE.heavy>
31

>  <SCORE.norm>
-0.527172

>  <RMSD>
0.626

$$$$
ligand
 OpenBabel11021811493D
libRbt.so/2013.1/901 2013/11/27
 31 33  0  0  0  0  0  0  0  0999 V2000
   20.5520   -9.3929   -5.9288 C   0  0  2  0  0  0  0  0  0  0  0  0
   20.9553   -8.9605   -4.6224 O   0  0  0  0  0  0  0  0  0  0  0  0
   21.6403  -11.0427   -0.9640 C   0  0  2  0  0  0  0  0  0  0  0  0
   21.4262  -11.9199    0.1372 N   0  0  0  0  0  0  0  0  0  0  0  0
   22.4671  -14.1177   -1.6026 C   0  0  2  0  0  0  0  0  0  0  0  0
   21.2034   -8.4126   -6.9528 C   0  0  2  0  0  0  0  0  0  0  0  0
   22.6528   -8.4252   -6.7655 N   0  0  0  0  0  0  0  0  0  0  0  0
   20.5216   -9.9345   -0.9691 C   0  0  0  0  0  0  0  0  0  0  0  0
   23.8847  -14.4078   -1.0398 C   0  0  2  0  0  0  0  0  0  0  0  0
   24.2508  -13.3559   -0.1761 O   0  0  0  0  0  0  0  0  0  0  0  0
   20.6084   -6.9625   -6.7759 C   0  0  0  0  0  0  0  0  0  0  0  0
   20.7630   -8.9613   -2.1940 C   0  0  2  0  0  0  0  0  0  0  0  0
   19.7140   -7.9213   -2.2055 N   0  0  0  0  0  0  0  0  0  0  0  0
   24.8818  -14.5270   -2.2600 C   0  0  1  0  0  0  0  0  0  0  0  0
   26.2643  -14.7841   -1.7664 N   0  0  0  0  0  0  0  0  0  0  0  0
   19.1073   -6.9701   -6.3096 C   0  0  0  0  0  0  0  0  0  0  0  0
   20.7210   -9.8045   -3.5389 C   0  0  2  0  0  0  0  0  0  0  0  0
   24.4159  -15.7518   -3.2261 C   0  0  1  0  0  0  0  0  0  0  0  0
   24.4182  -16.9988   -2.5753 O   0  0  0  0  0  0  0  0  0  0  0  0
   18.4733   -8.1144   -6.0131 C   0  0  1  0  0  0  0  0  0  0  0  0
   19.1102   -9.3733   -6.1070 O   0  0  0  0  0  0  0  0  0  0  0  0
   21.8326  -10.9152   -3.4991 C   0  0  2  0  0  0  0  0  0  0  0  0
   21.7798  -11.6745   -4.7055 O   0  0  0  0  0  0  0  0  0  0  0  0
   22.9654  -15.4744   -3.7292 C   0  0  0  0  0  0  0  0  0  0  0  0
   22.0442  -15.2074   -2.5558 O   0  0  0  0  0  0  0  0  0  0  0  0
   17.0074   -8.1586   -5.5392 C   0  0  0  0  0  0  0  0  0  0  0  0
   16.6831   -6.8970   -4.9102 N   0  0  0  0  0  0  0  0  0  0  0  0
   21.5793  -11.8651   -2.2680 C   0  0  1  0  0  0  0  0  0  0  0  0
   22.5862  -12.8339   -2.2514 O   0  0  0  0  0  0  0  0  0  0  0  0
   25.2908  -15.9968   -4.4638 C   0  0  0  0  0  0  0  0  0  0  0  0
   27.1199  -13.6009   -1.5879 C   0  0  0  0  0  0  0  0  0  0  0  0
  1  2  1  1  0  0  0
  1  6  1  0  0  0  0
  1 21  1  0  0  0  0
  3  4  1  1  0  0  0
  3  8  1  0  0  0  0
  3 28  1  0  0  0  0
  5  9  1  0  0  0  0
  5 25  1  0  0  0  0
  5 29  1  6  0  0  0
  6  7  1  1  0  0  0
  6 11  1  0  0  0  0
  8 12  1  0  0  0  0
  9 10  1  1  0  0  0
  9 14  1  0  0  0  0
 11 16  1  0  0  0  0
 12 13  1  6  0  0  0
 12 17  1  0  0  0  0
 14 15  1  1  0  0  0
 14 18  1  0  0  0  0
 15 31  1  0  0  0  0
 16 20  1  0  0  0  0
 17  2  1  6  0  0  0
 17 22  1  0  0  0  0
 18 19  1  1  0  0  0
 18 24  1  0  0  0  0
 18 30  1  0  0  0  0
 20 21  1  0  0  0  0
 20 26  1  1  0  0  0
 22 23  1  6  0  0  0
 22 28  1  0  0  0  0
 24 25  1  0  0  0  0
 26 27  1  0  0  0  0
 28 29  1  1  0  0  0
M  END
>  <CHROM.1>
-168.10123465,-144.24482957,-94.18264753,-160.38020425,-25.79300550,83.46619647
21.85990264,-11.42315070,-3.46116704,-2.60478619,-0.85770899,1.79155845

>  <Name>
ligand

>  <RI>
0

>  <Rbt.Current_Directory>
/home/itssahil/PROJECTS/Mol_Feturizer/New_Systems/rnas/4F8V

>  <Rbt.Executable>
rbdock ($Id: //depot/dev/client3/rdock/2013.1/src/exe/rbdock.cxx#4 $)

>  <Rbt.Library>
libRbt.so (2013.1, Build901 2013/11/27)

>  <Rbt.Parameter_File>
/export/apps/rDock/src/rDock_2013.1_src/data/scripts/dock_solv.prm

>  <Rbt.Receptor>
prm/pocket_docking_5.prm

>  <SCORE>
-16.2994

>  <SCORE.INTER>
-15.9506

>  <SCORE.INTER.CONST>
1

>  <SCORE.INTER.POLAR>
0

>  <SCORE.INTER.ROT>
6

>  <SCORE.INTER.SOLV>
18.6398

>  <SCORE.INTER.VDW>
-24.447

>  <SCORE.INTER.norm>
-0.514536

>  <SCORE.INTRA>
-0.348803

>  <SCORE.INTRA.DIHEDRAL>
-3.2778

>  <SCORE.INTRA.DIHEDRAL.0>
15.9129

>  <SCORE.INTRA.POLAR>
0

>  <SCORE.INTRA.POLAR.0>
0

>  <SCORE.INTRA.REPUL>
0

>  <SCORE.INTRA.REPUL.0>
0

>  <SCORE.INTRA.SOLV>
-0.591442

>  <SCORE.INTRA.SOLV.lig_0>
-75.7056

>  <SCORE.INTRA.VDW>
1.58582

>  <SCORE.INTRA.VDW.0>
-4.61812

>  <SCORE.INTRA.norm>
-0.0112517

>  <SCORE.RESTR>
0

>  <SCORE.RESTR.CAVITY>
0

>  <SCORE.RESTR.norm>
0

>  <SCORE.SYSTEM>
0

>  <SCORE.SYSTEM.CONST>
0

>  <SCORE.SYSTEM.DIHEDRAL>
0

>  <SCORE.SYSTEM.SOLV>
0

>  <SCORE.SYSTEM.norm>
0

>  <SCORE.heavy>
31

>  <SCORE.norm>
-0.525787

>  <RMSD>
0.627

$$$$
ligand
 OpenBabel11021811493D
libRbt.so/2013.1/901 2013/11/27
 31 33  0  0  0  0  0  0  0  0999 V2000
   20.3286   -9.4733   -5.8618 C   0  0  2  0  0  0  0  0  0  0  0  0
   20.8473   -9.0414   -4.5966 O   0  0  0  0  0  0  0  0  0  0  0  0
   21.6692  -11.0304   -0.9146 C   0  0  2  0  0  0  0  0  0  0  0  0
   21.4961  -11.8780    0.2165 N   0  0  0  0  0  0  0  0  0  0  0  0
   22.4269  -14.1611   -1.5853 C   0  0  2  0  0  0  0  0  0  0  0  0
   20.9438   -8.5378   -6.9481 C   0  0  2  0  0  0  0  0  0  0  0  0
   22.4012   -8.6130   -6.8688 N   0  0  0  0  0  0  0  0  0  0  0  0
   20.5540   -9.9188   -0.9051 C   0  0  0  0  0  0  0  0  0  0  0  0
   23.8332  -14.4711   -1.0048 C   0  0  2  0  0  0  0  0  0  0  0  0
   24.1836  -13.4475   -0.1015 O   0  0  0  0  0  0  0  0  0  0  0  0
   20.4279   -7.0601   -6.7527 C   0  0  0  0  0  0  0  0  0  0  0  0
   20.7498   -8.9785   -2.1633 C   0  0  2  0  0  0  0  0  0  0  0  0
   19.7037   -7.9355   -2.1611 N   0  0  0  0  0  0  0  0  0  0  0  0
   24.8534  -14.5532   -2.2088 C   0  0  1  0  0  0  0  0  0  0  0  0
   26.2260  -14.8279   -1.6972 N   0  0  0  0  0  0  0  0  0  0  0  0
   18.9671   -6.9935   -6.1761 C   0  0  0  0  0  0  0  0  0  0  0  0
   20.6533   -9.8562   -3.4832 C   0  0  2  0  0  0  0  0  0  0  0  0
   24.4050  -15.7462   -3.2218 C   0  0  1  0  0  0  0  0  0  0  0  0
   24.3936  -17.0132   -2.6107 O   0  0  0  0  0  0  0  0  0  0  0  0
   18.3075   -8.1038   -5.8136 C   0  0  1  0  0  0  0  0  0  0  0  0
   18.8797   -9.3913   -5.9328 O   0  0  0  0  0  0  0  0  0  0  0  0
   21.7628  -10.9693   -3.4577 C   0  0  2  0  0  0  0  0  0  0  0  0
   21.6611  -11.7595   -4.6410 O   0  0  0  0  0  0  0  0  0  0  0  0
   22.9647  -15.4509   -3.7437 C   0  0  0  0  0  0  0  0  0  0  0  0
   22.0214  -15.2196   -2.5803 O   0  0  0  0  0  0  0  0  0  0  0  0
   16.8807   -8.0753   -5.2315 C   0  0  0  0  0  0  0  0  0  0  0  0
   16.5641   -6.7190   -4.8408 N   0  0  0  0  0  0  0  0  0  0  0  0
   21.5553  -11.8861   -2.1935 C   0  0  1  0  0  0  0  0  0  0  0  0
   22.5597  -12.8577   -2.1909 O   0  0  0  0  0  0  0  0  0  0  0  0
   25.3033  -15.9535   -4.4496 C   0  0  0  0  0  0  0  0  0  0  0  0
   27.0725  -13.6513   -1.4466 C   0  0  0  0  0  0  0  0  0  0  0  0
  1  2  1  1  0  0  0
  1  6  1  0  0  0  0
  1 21  1  0  0  0  0
  3  4  1  1  0  0  0
  3  8  1  0  0  0  0
  3 28  1  0  0  0  0
  5  9  1  0  0  0  0
  5 25  1  0  0  0  0
  5 29  1  6  0  0  0
  6  7  1  1  0  0  0
  6 11  1  0  0  0  0
  8 12  1  0  0  0  0
  9 10  1  1  0  0  0
  9 14  1  0  0  0  0
 11 16  1  0  0  0  0
 12 13  1  6  0  0  0
 12 17  1  0  0  0  0
 14 15  1  1  0  0  0
 14 18  1  0  0  0  0
 15 31  1  0  0  0  0
 16 20  1  0  0  0  0
 17  2  1  6  0  0  0
 17 22  1  0  0  0  0
 18 19  1  1  0  0  0
 18 24  1  0  0  0  0
 18 30  1  0  0  0  0
 20 21  1  0  0  0  0
 20 26  1  1  0  0  0
 22 23  1  6  0  0  0
 22 28  1  0  0  0  0
 24 25  1  0  0  0  0
 26 27  1  0  0  0  0
 28 29  1  1  0  0  0
M  END
>  <CHROM.1>
-168.35882466,-144.08850397,-93.33641654,-157.07203565,-14.58696381,88.06668924
21.78478220,-11.44961808,-3.40306143,-2.67819555,-0.87406043,1.70993073

>  <Name>
ligand

>  <RI>
0

>  <Rbt.Current_Directory>
/home/itssahil/PROJECTS/Mol_Feturizer/New_Systems/rnas/4F8V

>  <Rbt.Executable>
rbdock ($Id: //depot/dev/client3/rdock/2013.1/src/exe/rbdock.cxx#4 $)

>  <Rbt.Library>
libRbt.so (2013.1, Build901 2013/11/27)

>  <Rbt.Parameter_File>
/export/apps/rDock/src/rDock_2013.1_src/data/scripts/dock_solv.prm

>  <Rbt.Receptor>
prm/pocket_docking_6.prm

>  <SCORE>
-16.3581

>  <SCORE.INTER>
-16.4993

>  <SCORE.INTER.CONST>
1

>  <SCORE.INTER.POLAR>
0

>  <SCORE.INTER.ROT>
6

>  <SCORE.INTER.SOLV>
18.8781

>  <SCORE.INTER.VDW>
-24.8922

>  <SCORE.INTER.norm>
-0.532234

>  <SCORE.INTRA>
0.141165

>  <SCORE.INTRA.DIHEDRAL>
-2.38451

>  <SCORE.INTRA.DIHEDRAL.0>
15.9129

>  <SCORE.INTRA.POLAR>
0

>  <SCORE.INTRA.POLAR.0>
0

>  <SCORE.INTRA.REPUL>
0

>  <SCORE.INTRA.REPUL.0>
0

>  <SCORE.INTRA.SOLV>
-0.456705

>  <SCORE.INTRA.SOLV.lig_0>
-75.7056

>  <SCORE.INTRA.VDW>
1.56177

>  <SCORE.INTRA.VDW.0>
-4.61812

>  <SCORE.INTRA.norm>
0.0045537

>  <SCORE.RESTR>
0

>  <SCORE.RESTR.CAVITY>
0

>  <SCORE.RESTR.norm>
0

>  <SCORE.SYSTEM>
0

>  <SCORE.SYSTEM.CONST>
0

>  <SCORE.SYSTEM.DIHEDRAL>
0

>  <SCORE.SYSTEM.SOLV>
0

>  <SCORE.SYSTEM.norm>
0

>  <SCORE.heavy>
31

>  <SCORE.norm>
-0.52768

>  <RMSD>
0.627

$$$$
ligand
 OpenBabel11021811493D
libRbt.so/2013.1/901 2013/11/27
 31 33  0  0  0  0  0  0  0  0999 V2000
   20.3944   -9.4835   -5.9450 C   0  0  2  0  0  0  0  0  0  0  0  0
   20.8747   -9.0598   -4.6620 O   0  0  0  0  0  0  0  0  0  0  0  0
   21.6117  -11.0726   -0.9750 C   0  0  2  0  0  0  0  0  0  0  0  0
   21.4159  -11.9330    0.1428 N   0  0  0  0  0  0  0  0  0  0  0  0
   22.4482  -14.1672   -1.6054 C   0  0  2  0  0  0  0  0  0  0  0  0
   21.0105   -8.5163   -7.0027 C   0  0  2  0  0  0  0  0  0  0  0  0
   22.4673   -8.5584   -6.8921 N   0  0  0  0  0  0  0  0  0  0  0  0
   20.4821   -9.9757   -0.9891 C   0  0  0  0  0  0  0  0  0  0  0  0
   23.8597  -14.4486   -1.0232 C   0  0  2  0  0  0  0  0  0  0  0  0
   24.2017  -13.4015   -0.1440 O   0  0  0  0  0  0  0  0  0  0  0  0
   20.4553   -7.0546   -6.7958 C   0  0  0  0  0  0  0  0  0  0  0  0
   20.7032   -9.0212   -2.2323 C   0  0  2  0  0  0  0  0  0  0  0  0
   19.6438   -7.9919   -2.2524 N   0  0  0  0  0  0  0  0  0  0  0  0
   24.8768  -14.5461   -2.2287 C   0  0  1  0  0  0  0  0  0  0  0  0
   26.2540  -14.7942   -1.7160 N   0  0  0  0  0  0  0  0  0  0  0  0
   18.9810   -7.0318   -6.2509 C   0  0  0  0  0  0  0  0  0  0  0  0
   20.6582   -9.8875   -3.5624 C   0  0  2  0  0  0  0  0  0  0  0  0
   24.4383  -15.7661   -3.2136 C   0  0  1  0  0  0  0  0  0  0  0  0
   24.4431  -17.0193   -2.5746 O   0  0  0  0  0  0  0  0  0  0  0  0
   18.3404   -8.1630   -5.9205 C   0  0  1  0  0  0  0  0  0  0  0  0
   18.9458   -9.4346   -6.0469 O   0  0  0  0  0  0  0  0  0  0  0  0
   21.7811  -10.9864   -3.5134 C   0  0  2  0  0  0  0  0  0  0  0  0
   21.7255  -11.7666   -4.7063 O   0  0  0  0  0  0  0  0  0  0  0  0
   22.9932  -15.4983   -3.7367 C   0  0  0  0  0  0  0  0  0  0  0  0
   22.0512  -15.2517   -2.5754 O   0  0  0  0  0  0  0  0  0  0  0  0
   16.9010   -8.1776   -5.3699 C   0  0  0  0  0  0  0  0  0  0  0  0
   16.5838   -6.8613   -4.8607 N   0  0  0  0  0  0  0  0  0  0  0  0
   21.5478  -11.9176   -2.2643 C   0  0  1  0  0  0  0  0  0  0  0  0
   22.5645  -12.8760   -2.2401 O   0  0  0  0  0  0  0  0  0  0  0  0
   25.3348  -15.9906   -4.4396 C   0  0  0  0  0  0  0  0  0  0  0  0
   27.1444  -13.6248   -1.6559 C   0  0  0  0  0  0  0  0  0  0  0  0
  1  2  1  1  0  0  0
  1  6  1  0  0  0  0
  1 21  1  0  0  0  0
  3  4  1  1  0  0  0
  3  8  1  0  0  0  0
  3 28  1  0  0  0  0
  5  9  1  0  0  0  0
  5 25  1  0  0  0  0
  5 29  1  6  0  0  0
  6  7  1  1  0  0  0
  6 11  1  0  0  0  0
  8 12  1  0  0  0  0
  9 10  1  1  0  0  0
  9 14  1  0  0  0  0
 11 16  1  0  0  0  0
 12 13  1  6  0  0  0
 12 17  1  0  0  0  0
 14 15  1  1  0  0  0
 14 18  1  0  0  0  0
 15 31  1  0  0  0  0
 16 20  1  0  0  0  0
 17  2  1  6  0  0  0
 17 22  1  0  0  0  0
 18 19  1  1  0  0  0
 18 24  1  0  0  0  0
 18 30  1  0  0  0  0
 20 21  1  0  0  0  0
 20 26  1  1  0  0  0
 22 23  1  6  0  0  0
 22 28  1  0  0  0  0
 24 25  1  0  0  0  0
 26 27  1  0  0  0  0
 28 29  1  1  0  0  0
M  END
>  <CHROM.1>
-169.31751313,-144.30460479,-100.81620623,-156.76817169,-19.39863337,85.55920149
21.80291124,-11.47202086,-3.45744080,-2.62159041,-0.84730697,1.77800620

>  <Name>
ligand

>  <RI>
0

>  <Rbt.Current_Directory>
/home/itssahil/PROJECTS/Mol_Feturizer/New_Systems/rnas/4F8V

>  <Rbt.Executable>
rbdock ($Id: //depot/dev/client3/rdock/2013.1/src/exe/rbdock.cxx#4 $)

>  <Rbt.Library>
libRbt.so (2013.1, Build901 2013/11/27)

>  <Rbt.Parameter_File>
/export/apps/rDock/src/rDock_2013.1_src/data/scripts/dock_solv.prm

>  <Rbt.Receptor>
prm/pocket_docking_3.prm

>  <SCORE>
-16.2419

>  <SCORE.INTER>
-16.2279

>  <SCORE.INTER.CONST>
1

>  <SCORE.INTER.POLAR>
0

>  <SCORE.INTER.ROT>
6

>  <SCORE.INTER.SOLV>
19.0325

>  <SCORE.INTER.VDW>
-24.7628

>  <SCORE.INTER.norm>
-0.523481

>  <SCORE.INTRA>
-0.0140289

>  <SCORE.INTRA.DIHEDRAL>
-2.53026

>  <SCORE.INTRA.DIHEDRAL.0>
15.9129

>  <SCORE.INTRA.POLAR>
0

>  <SCORE.INTRA.POLAR.0>
0

>  <SCORE.INTRA.REPUL>
0

>  <SCORE.INTRA.REPUL.0>
0

>  <SCORE.INTRA.SOLV>
-0.337507

>  <SCORE.INTRA.SOLV.lig_0>
-75.7056

>  <SCORE.INTRA.VDW>
1.41986

>  <SCORE.INTRA.VDW.0>
-4.61812

>  <SCORE.INTRA.norm>
-0.000452545

>  <SCORE.RESTR>
0

>  <SCORE.RESTR.CAVITY>
0

>  <SCORE.RESTR.norm>
0

>  <SCORE.SYSTEM>
0

>  <SCORE.SYSTEM.CONST>
0

>  <SCORE.SYSTEM.DIHEDRAL>
0

>  <SCORE.SYSTEM.SOLV>
0

>  <SCORE.SYSTEM.norm>
0

>  <SCORE.heavy>
31

>  <SCORE.norm>
-0.523933

>  <RMSD>
0.628

$$$$
ligand
 OpenBabel11021811493D
libRbt.so/2013.1/901 2013/11/27
 31 33  0  0  0  0  0  0  0  0999 V2000
   20.3612   -9.4608   -5.8796 C   0  0  2  0  0  0  0  0  0  0  0  0
   20.8527   -9.0283   -4.6037 O   0  0  0  0  0  0  0  0  0  0  0  0
   21.6455  -11.0414   -0.9285 C   0  0  2  0  0  0  0  0  0  0  0  0
   21.4637  -11.8967    0.1955 N   0  0  0  0  0  0  0  0  0  0  0  0
   22.4271  -14.1504   -1.5754 C   0  0  2  0  0  0  0  0  0  0  0  0
   20.9893   -8.5176   -6.9518 C   0  0  2  0  0  0  0  0  0  0  0  0
   22.4455   -8.5817   -6.8453 N   0  0  0  0  0  0  0  0  0  0  0  0
   20.5294   -9.9307   -0.9208 C   0  0  0  0  0  0  0  0  0  0  0  0
   23.8419  -14.4448   -1.0079 C   0  0  2  0  0  0  0  0  0  0  0  0
   24.2018  -13.4019   -0.1309 O   0  0  0  0  0  0  0  0  0  0  0  0
   20.4583   -7.0445   -6.7622 C   0  0  0  0  0  0  0  0  0  0  0  0
   20.7350   -8.9819   -2.1710 C   0  0  2  0  0  0  0  0  0  0  0  0
   19.6881   -7.9396   -2.1705 N   0  0  0  0  0  0  0  0  0  0  0  0
   24.8459  -14.5494   -2.2238 C   0  0  1  0  0  0  0  0  0  0  0  0
   26.2260  -14.8101   -1.7255 N   0  0  0  0  0  0  0  0  0  0  0  0
   18.9865   -6.9908   -6.2130 C   0  0  0  0  0  0  0  0  0  0  0  0
   20.6501   -9.8507   -3.4975 C   0  0  2  0  0  0  0  0  0  0  0  0
   24.3870  -15.7641   -3.2058 C   0  0  1  0  0  0  0  0  0  0  0  0
   24.3874  -17.0182   -2.5686 O   0  0  0  0  0  0  0  0  0  0  0  0
   18.3289   -8.1072   -5.8657 C   0  0  1  0  0  0  0  0  0  0  0  0
   18.9133   -9.3899   -5.9775 O   0  0  0  0  0  0  0  0  0  0  0  0
   21.7602  -10.9632   -3.4703 C   0  0  2  0  0  0  0  0  0  0  0  0
   21.6690  -11.7455   -4.6596 O   0  0  0  0  0  0  0  0  0  0  0  0
   22.9389  -15.4832   -3.7139 C   0  0  0  0  0  0  0  0  0  0  0  0
   22.0109  -15.2302   -2.5428 O   0  0  0  0  0  0  0  0  0  0  0  0
   16.8913   -8.0913   -5.3104 C   0  0  0  0  0  0  0  0  0  0  0  0
   16.5797   -6.7516   -4.8627 N   0  0  0  0  0  0  0  0  0  0  0  0
   21.5429  -11.8886   -2.2140 C   0  0  1  0  0  0  0  0  0  0  0  0
   22.5481  -12.8595   -2.2095 O   0  0  0  0  0  0  0  0  0  0  0  0
   25.2690  -15.9946   -4.4412 C   0  0  0  0  0  0  0  0  0  0  0  0
   27.0699  -13.6259   -1.5028 C   0  0  0  0  0  0  0  0  0  0  0  0
  1  2  1  1  0  0  0
  1  6  1  0  0  0  0
  1 21  1  0  0  0  0
  3  4  1  1  0  0  0
  3  8  1  0  0  0  0
  3 28  1  0  0  0  0
  5  9  1  0  0  0  0
  5 25  1  0  0  0  0
  5 29  1  6  0  0  0
  6  7  1  1  0  0  0
  6 11  1  0  0  0  0
  8 12  1  0  0  0  0
  9 10  1  1  0  0  0
  9 14  1  0  0  0  0
 11 16  1  0  0  0  0
 12 13  1  6  0  0  0
 12 17  1  0  0  0  0
 14 15  1  1  0  0  0
 14 18  1  0  0  0  0
 15 31  1  0  0  0  0
 16 20  1  0  0  0  0
 17  2  1  6  0  0  0
 17 22  1  0  0  0  0
 18 19  1  1  0  0  0
 18 24  1  0  0  0  0
 18 30  1  0  0  0  0
 20 21  1  0  0  0  0
 20 26  1  1  0  0  0
 22 23  1  6  0  0  0
 22 28  1  0  0  0  0
 24 25  1  0  0  0  0
 26 27  1  0  0  0  0
 28 29  1  1  0  0  0
M  END
>  <CHROM.1>
-168.04465387,-143.82807015,-92.96154746,-157.92774061,-17.30831080,85.91845197
21.78638592,-11.44818249,-3.41557316,-2.65885901,-0.87019364,1.73082955

>  <Name>
ligand

>  <RI>
0

>  <Rbt.Current_Directory>
/home/itssahil/PROJECTS/Mol_Feturizer/New_Systems/rnas/4F8V

>  <Rbt.Executable>
rbdock ($Id: //depot/dev/client3/rdock/2013.1/src/exe/rbdock.cxx#4 $)

>  <Rbt.Library>
libRbt.so (2013.1, Build901 2013/11/27)

>  <Rbt.Parameter_File>
/export/apps/rDock/src/rDock_2013.1_src/data/scripts/dock_solv.prm

>  <Rbt.Receptor>
prm/pocket_docking_3.prm

>  <SCORE>
-16.417

>  <SCORE.INTER>
-16.3886

>  <SCORE.INTER.CONST>
1

>  <SCORE.INTER.POLAR>
0

>  <SCORE.INTER.ROT>
6

>  <SCORE.INTER.SOLV>
18.9537

>  <SCORE.INTER.VDW>
-24.8437

>  <SCORE.INTER.norm>
-0.528666

>  <SCORE.INTRA>
-0.0283618

>  <SCORE.INTRA.DIHEDRAL>
-2.76249

>  <SCORE.INTRA.DIHEDRAL.0>
15.9129

>  <SCORE.INTRA.POLAR>
0

>  <SCORE.INTRA.POLAR.0>
0

>  <SCORE.INTRA.REPUL>
0

>  <SCORE.INTRA.REPUL.0>
0

>  <SCORE.INTRA.SOLV>
-0.48796

>  <SCORE.INTRA.SOLV.lig_0>
-75.7056

>  <SCORE.INTRA.VDW>
1.59686

>  <SCORE.INTRA.VDW.0>
-4.61812

>  <SCORE.INTRA.norm>
-0.000914896

>  <SCORE.RESTR>
0

>  <SCORE.RESTR.CAVITY>
0

>  <SCORE.RESTR.norm>
0

>  <SCORE.SYSTEM>
0

>  <SCORE.SYSTEM.CONST>
0

>  <SCORE.SYSTEM.DIHEDRAL>
0

>  <SCORE.SYSTEM.SOLV>
0

>  <SCORE.SYSTEM.norm>
0

>  <SCORE.heavy>
31

>  <SCORE.norm>
-0.529581

>  <RMSD>
0.629

$$$$
ligand
 OpenBabel11021811493D
libRbt.so/2013.1/901 2013/11/27
 31 33  0  0  0  0  0  0  0  0999 V2000
   20.6485   -9.4537   -5.9162 C   0  0  2  0  0  0  0  0  0  0  0  0
   21.0577   -9.0009   -4.6186 O   0  0  0  0  0  0  0  0  0  0  0  0
   21.6691  -10.9461   -0.8727 C   0  0  2  0  0  0  0  0  0  0  0  0
   21.4414  -11.7957    0.2472 N   0  0  0  0  0  0  0  0  0  0  0  0
   22.6009  -14.0331   -1.4293 C   0  0  2  0  0  0  0  0  0  0  0  0
   21.3026   -8.4951   -6.9588 C   0  0  2  0  0  0  0  0  0  0  0  0
   22.7524   -8.5127   -6.7751 N   0  0  0  0  0  0  0  0  0  0  0  0
   20.5165   -9.8763   -0.9547 C   0  0  0  0  0  0  0  0  0  0  0  0
   24.0373  -14.3675   -0.9441 C   0  0  2  0  0  0  0  0  0  0  0  0
   24.4746  -13.3380   -0.0867 O   0  0  0  0  0  0  0  0  0  0  0  0
   20.7163   -7.0389   -6.8057 C   0  0  0  0  0  0  0  0  0  0  0  0
   20.7731   -8.9336   -2.2002 C   0  0  2  0  0  0  0  0  0  0  0  0
   19.6925   -7.9299   -2.2838 N   0  0  0  0  0  0  0  0  0  0  0  0
   24.9671  -14.4944   -2.2156 C   0  0  1  0  0  0  0  0  0  0  0  0
   26.3658  -14.7940   -1.7974 N   0  0  0  0  0  0  0  0  0  0  0  0
   19.2164   -7.0298   -6.3355 C   0  0  0  0  0  0  0  0  0  0  0  0
   20.8095   -9.8186   -3.5182 C   0  0  2  0  0  0  0  0  0  0  0  0
   24.4203  -15.6927   -3.1725 C   0  0  1  0  0  0  0  0  0  0  0  0
   24.4231  -16.9487   -2.5391 O   0  0  0  0  0  0  0  0  0  0  0  0
   18.5768   -8.1651   -6.0174 C   0  0  1  0  0  0  0  0  0  0  0  0
   19.2063   -9.4291   -6.0910 O   0  0  0  0  0  0  0  0  0  0  0  0
   21.9537  -10.8900   -3.4017 C   0  0  2  0  0  0  0  0  0  0  0  0
   21.9713  -11.6873   -4.5844 O   0  0  0  0  0  0  0  0  0  0  0  0
   22.9538  -15.3711   -3.5964 C   0  0  0  0  0  0  0  0  0  0  0  0
   22.1012  -15.0977   -2.3737 O   0  0  0  0  0  0  0  0  0  0  0  0
   17.1119   -8.1927   -5.5390 C   0  0  0  0  0  0  0  0  0  0  0  0
   16.7575   -6.8791   -5.0480 N   0  0  0  0  0  0  0  0  0  0  0  0
   21.6842  -11.8096   -2.1512 C   0  0  1  0  0  0  0  0  0  0  0  0
   22.7203  -12.7435   -2.0664 O   0  0  0  0  0  0  0  0  0  0  0  0
   25.2239  -15.9421   -4.4567 C   0  0  0  0  0  0  0  0  0  0  0  0
   27.2453  -13.6324   -1.5948 C   0  0  0  0  0  0  0  0  0  0  0  0
  1  2  1  1  0  0  0
  1  6  1  0  0  0  0
  1 21  1  0  0  0  0
  3  4  1  1  0  0  0
  3  8  1  0  0  0  0
  3 28  1  0  0  0  0
  5  9  1  0  0  0  0
  5 25  1  0  0  0  0
  5 29  1  6  0  0  0
  6  7  1  1  0  0  0
  6 11  1  0  0  0  0
  8 12  1  0  0  0  0
  9 10  1  1  0  0  0
  9 14  1  0  0  0  0
 11 16  1  0  0  0  0
 12 13  1  6  0  0  0
 12 17  1  0  0  0  0
 14 15  1  1  0  0  0
 14 18  1  0  0  0  0
 15 31  1  0  0  0  0
 16 20  1  0  0  0  0
 17  2  1  6  0  0  0
 17 22  1  0  0  0  0
 18 19  1  1  0  0  0
 18 24  1  0  0  0  0
 18 30  1  0  0  0  0
 20 21  1  0  0  0  0
 20 26  1  1  0  0  0
 22 23  1  6  0  0  0
 22 28  1  0  0  0  0
 24 25  1  0  0  0  0
 26 27  1  0  0  0  0
 28 29  1  1  0  0  0
M  END
>  <CHROM.1>
-168.74139184,-152.00045246,-91.79843673,-156.83972945,-20.38385478,86.12759998
21.94052734,-11.40943601,-3.41935320,-2.59234940,-0.84736240,1.79265277

>  <Name>
ligand

>  <RI>
0

>  <Rbt.Current_Directory>
/home/itssahil/PROJECTS/Mol_Feturizer/New_Systems/rnas/4F8V

>  <Rbt.Executable>
rbdock ($Id: //depot/dev/client3/rdock/2013.1/src/exe/rbdock.cxx#4 $)

>  <Rbt.Library>
libRbt.so (2013.1, Build901 2013/11/27)

>  <Rbt.Parameter_File>
/export/apps/rDock/src/rDock_2013.1_src/data/scripts/dock_solv.prm

>  <Rbt.Receptor>
prm/pocket_docking_3.prm

>  <SCORE>
-16.2683

>  <SCORE.INTER>
-15.5711

>  <SCORE.INTER.CONST>
1

>  <SCORE.INTER.POLAR>
0

>  <SCORE.INTER.ROT>
6

>  <SCORE.INTER.SOLV>
18.3628

>  <SCORE.INTER.VDW>
-24.1016

>  <SCORE.INTER.norm>
-0.502293

>  <SCORE.INTRA>
-0.697186

>  <SCORE.INTRA.DIHEDRAL>
-4.03628

>  <SCORE.INTRA.DIHEDRAL.0>
15.9129

>  <SCORE.INTRA.POLAR>
0

>  <SCORE.INTRA.POLAR.0>
0

>  <SCORE.INTRA.REPUL>
0

>  <SCORE.INTRA.REPUL.0>
0

>  <SCORE.INTRA.SOLV>
-0.528151

>  <SCORE.INTRA.SOLV.lig_0>
-75.7056

>  <SCORE.INTRA.VDW>
1.58503

>  <SCORE.INTRA.VDW.0>
-4.61812

>  <SCORE.INTRA.norm>
-0.0224899

>  <SCORE.RESTR>
0

>  <SCORE.RESTR.CAVITY>
0

>  <SCORE.RESTR.norm>
0

>  <SCORE.SYSTEM>
0

>  <SCORE.SYSTEM.CONST>
0

>  <SCORE.SYSTEM.DIHEDRAL>
0

>  <SCORE.SYSTEM.SOLV>
0

>  <SCORE.SYSTEM.norm>
0

>  <SCORE.heavy>
31

>  <SCORE.norm>
-0.524783

>  <RMSD>
0.630

$$$$
ligand
 OpenBabel11021811493D
libRbt.so/2013.1/901 2013/11/27
 31 33  0  0  0  0  0  0  0  0999 V2000
   19.8344   -9.4078   -5.6461 C   0  0  2  0  0  0  0  0  0  0  0  0
   20.6415   -9.1088   -4.4991 O   0  0  0  0  0  0  0  0  0  0  0  0
   21.6620  -11.0301   -0.8308 C   0  0  2  0  0  0  0  0  0  0  0  0
   21.5529  -11.8610    0.3205 N   0  0  0  0  0  0  0  0  0  0  0  0
   22.4057  -14.1773   -1.5199 C   0  0  2  0  0  0  0  0  0  0  0  0
   20.2826   -8.4374   -6.7823 C   0  0  2  0  0  0  0  0  0  0  0  0
   21.7128   -8.6178   -7.0234 N   0  0  0  0  0  0  0  0  0  0  0  0
   20.5367   -9.9295   -0.7845 C   0  0  0  0  0  0  0  0  0  0  0  0
   23.8309  -14.4779   -0.9822 C   0  0  2  0  0  0  0  0  0  0  0  0
   24.1979  -13.4570   -0.0824 O   0  0  0  0  0  0  0  0  0  0  0  0
   19.9437   -6.9468   -6.3935 C   0  0  0  0  0  0  0  0  0  0  0  0
   20.6614   -9.0078   -2.0653 C   0  0  2  0  0  0  0  0  0  0  0  0
   19.6055   -7.9753   -2.0285 N   0  0  0  0  0  0  0  0  0  0  0  0
   24.8167  -14.5427   -2.2156 C   0  0  1  0  0  0  0  0  0  0  0  0
   26.2059  -14.8080   -1.7455 N   0  0  0  0  0  0  0  0  0  0  0  0
   18.6474   -6.8242   -5.5128 C   0  0  0  0  0  0  0  0  0  0  0  0
   20.5104   -9.9075   -3.3651 C   0  0  2  0  0  0  0  0  0  0  0  0
   24.3501  -15.7332   -3.2234 C   0  0  1  0  0  0  0  0  0  0  0  0
   24.3679  -17.0041   -2.6208 O   0  0  0  0  0  0  0  0  0  0  0  0
   17.9892   -7.9109   -5.0828 C   0  0  1  0  0  0  0  0  0  0  0  0
   18.4148   -9.2219   -5.3982 O   0  0  0  0  0  0  0  0  0  0  0  0
   21.6317  -11.0090   -3.3761 C   0  0  2  0  0  0  0  0  0  0  0  0
   21.4813  -11.8191   -4.5406 O   0  0  0  0  0  0  0  0  0  0  0  0
   22.8928  -15.4479   -3.7015 C   0  0  0  0  0  0  0  0  0  0  0  0
   21.9813  -15.2329   -2.5100 O   0  0  0  0  0  0  0  0  0  0  0  0
   16.7241   -7.8288   -4.2063 C   0  0  0  0  0  0  0  0  0  0  0  0
   15.5604   -7.9704   -5.0537 N   0  0  0  0  0  0  0  0  0  0  0  0
   21.4955  -11.9073   -2.0891 C   0  0  1  0  0  0  0  0  0  0  0  0
   22.5091  -12.8687   -2.1201 O   0  0  0  0  0  0  0  0  0  0  0  0
   25.2145  -15.9241   -4.4778 C   0  0  0  0  0  0  0  0  0  0  0  0
   27.0528  -13.6258   -1.5244 C   0  0  0  0  0  0  0  0  0  0  0  0
  1  2  1  1  0  0  0
  1  6  1  0  0  0  0
  1 21  1  0  0  0  0
  3  4  1  1  0  0  0
  3  8  1  0  0  0  0
  3 28  1  0  0  0  0
  5  9  1  0  0  0  0
  5 25  1  0  0  0  0
  5 29  1  6  0  0  0
  6  7  1  1  0  0  0
  6 11  1  0  0  0  0
  8 12  1  0  0  0  0
  9 10  1  1  0  0  0
  9 14  1  0  0  0  0
 11 16  1  0  0  0  0
 12 13  1  1  0  0  0
 12 17  1  0  0  0  0
 14 15  1  1  0  0  0
 14 18  1  0  0  0  0
 15 31  1  0  0  0  0
 16 20  1  0  0  0  0
 17  2  1  6  0  0  0
 17 22  1  0  0  0  0
 18 19  1  1  0  0  0
 18 24  1  0  0  0  0
 18 30  1  0  0  0  0
 20 21  1  0  0  0  0
 20 26  1  1  0  0  0
 22 23  1  6  0  0  0
 22 28  1  0  0  0  0
 24 25  1  0  0  0  0
 26 27  1  0  0  0  0
 28 29  1  6  0  0  0
M  END
>  <CHROM.1>
-175.26010971,-144.19684691,-93.92756813,-143.67378784,98.07441067,89.84107433
21.59646960,-11.46421831,-3.25936252,-2.77451952,-0.85551590,1.63926598

>  <Name>
ligand

>  <RI>
0

>  <Rbt.Current_Directory>
/home/itssahil/PROJECTS/Mol_Feturizer/New_Systems/rnas/4F8V

>  <Rbt.Executable>
rbdock ($Id: //depot/dev/client3/rdock/2013.1/src/exe/rbdock.cxx#4 $)

>  <Rbt.Library>
libRbt.so (2013.1, Build901 2013/11/27)

>  <Rbt.Parameter_File>
/export/apps/rDock/src/rDock_2013.1_src/data/scripts/dock_solv.prm

>  <Rbt.Receptor>
prm/pocket_docking_6.prm

>  <SCORE>
-14.8835

>  <SCORE.INTER>
-15.3845

>  <SCORE.INTER.CONST>
1

>  <SCORE.INTER.POLAR>
0

>  <SCORE.INTER.ROT>
6

>  <SCORE.INTER.SOLV>
23.6917

>  <SCORE.INTER.VDW>
-25.7536

>  <SCORE.INTER.norm>
-0.496273

>  <SCORE.INTRA>
0.500951

>  <SCORE.INTRA.DIHEDRAL>
0.182336

>  <SCORE.INTRA.DIHEDRAL.0>
15.9129

>  <SCORE.INTRA.POLAR>
0

>  <SCORE.INTRA.POLAR.0>
0

>  <SCORE.INTRA.REPUL>
0

>  <SCORE.INTRA.REPUL.0>
0

>  <SCORE.INTRA.SOLV>
0.130387

>  <SCORE.INTRA.SOLV.lig_0>
-75.7056

>  <SCORE.INTRA.VDW>
0.344589

>  <SCORE.INTRA.VDW.0>
-4.61812

>  <SCORE.INTRA.norm>
0.0161597

>  <SCORE.RESTR>
0

>  <SCORE.RESTR.CAVITY>
0

>  <SCORE.RESTR.norm>
0

>  <SCORE.SYSTEM>
0

>  <SCORE.SYSTEM.CONST>
0

>  <SCORE.SYSTEM.DIHEDRAL>
0

>  <SCORE.SYSTEM.SOLV>
0

>  <SCORE.SYSTEM.norm>
0

>  <SCORE.heavy>
31

>  <SCORE.norm>
-0.480114

>  <RMSD>
0.630

$$$$
ligand
 OpenBabel11021811493D
libRbt.so/2013.1/901 2013/11/27
 31 33  0  0  0  0  0  0  0  0999 V2000
   20.7105   -9.4401   -5.9757 C   0  0  2  0  0  0  0  0  0  0  0  0
   21.1342   -9.0046   -4.6768 O   0  0  0  0  0  0  0  0  0  0  0  0
   21.6445  -10.9117   -0.8965 C   0  0  2  0  0  0  0  0  0  0  0  0
   21.3906  -11.7557    0.2220 N   0  0  0  0  0  0  0  0  0  0  0  0
   22.6362  -13.9919   -1.4010 C   0  0  2  0  0  0  0  0  0  0  0  0
   21.3421   -8.4597   -7.0119 C   0  0  2  0  0  0  0  0  0  0  0  0
   22.7945   -8.4681   -6.8486 N   0  0  0  0  0  0  0  0  0  0  0  0
   20.4806   -9.8591   -1.0264 C   0  0  0  0  0  0  0  0  0  0  0  0
   24.0751  -14.3415   -0.9343 C   0  0  2  0  0  0  0  0  0  0  0  0
   24.5338  -13.3171   -0.0819 O   0  0  0  0  0  0  0  0  0  0  0  0
   20.7462   -7.0110   -6.8275 C   0  0  0  0  0  0  0  0  0  0  0  0
   20.7663   -8.9226   -2.2702 C   0  0  2  0  0  0  0  0  0  0  0  0
   19.6753   -7.9350   -2.3988 N   0  0  0  0  0  0  0  0  0  0  0  0
   24.9874  -14.4771   -2.2175 C   0  0  1  0  0  0  0  0  0  0  0  0
   26.3882  -14.7913   -1.8172 N   0  0  0  0  0  0  0  0  0  0  0  0
   19.2530   -7.0219   -6.3363 C   0  0  0  0  0  0  0  0  0  0  0  0
   20.8600   -9.8171   -3.5788 C   0  0  2  0  0  0  0  0  0  0  0  0
   24.4162  -15.6690   -3.1681 C   0  0  1  0  0  0  0  0  0  0  0  0
   24.4141  -16.9254   -2.5355 O   0  0  0  0  0  0  0  0  0  0  0  0
   18.6272   -8.1674   -6.0275 C   0  0  1  0  0  0  0  0  0  0  0  0
   19.2658   -9.4247   -6.1300 O   0  0  0  0  0  0  0  0  0  0  0  0
   22.0145  -10.8712   -3.4147 C   0  0  2  0  0  0  0  0  0  0  0  0
   22.0835  -11.6773   -4.5895 O   0  0  0  0  0  0  0  0  0  0  0  0
   22.9478  -15.3319   -3.5732 C   0  0  0  0  0  0  0  0  0  0  0  0
   22.1136  -15.0506   -2.3397 O   0  0  0  0  0  0  0  0  0  0  0  0
   17.1694   -8.2148   -5.5293 C   0  0  0  0  0  0  0  0  0  0  0  0
   16.7789   -6.8882   -5.1051 N   0  0  0  0  0  0  0  0  0  0  0  0
   21.7153  -11.7848   -2.1666 C   0  0  1  0  0  0  0  0  0  0  0  0
   22.7609  -12.7031   -2.0388 O   0  0  0  0  0  0  0  0  0  0  0  0
   25.2009  -15.9257   -4.4625 C   0  0  0  0  0  0  0  0  0  0  0  0
   27.2658  -13.6376   -1.5672 C   0  0  0  0  0  0  0  0  0  0  0  0
  1  2  1  1  0  0  0
  1  6  1  0  0  0  0
  1 21  1  0  0  0  0
  3  4  1  1  0  0  0
  3  8  1  0  0  0  0
  3 28  1  0  0  0  0
  5  9  1  0  0  0  0
  5 25  1  0  0  0  0
  5 29  1  6  0  0  0
  6  7  1  1  0  0  0
  6 11  1  0  0  0  0
  8 12  1  0  0  0  0
  9 10  1  1  0  0  0
  9 14  1  0  0  0  0
 11 16  1  0  0  0  0
 12 13  1  6  0  0  0
 12 17  1  0  0  0  0
 14 15  1  1  0  0  0
 14 18  1  0  0  0  0
 15 31  1  0  0  0  0
 16 20  1  0  0  0  0
 17  2  1  6  0  0  0
 17 22  1  0  0  0  0
 18 19  1  1  0  0  0
 18 24  1  0  0  0  0
 18 30  1  0  0  0  0
 20 21  1  0  0  0  0
 20 26  1  1  0  0  0
 22 23  1  6  0  0  0
 22 28  1  0  0  0  0
 24 25  1  0  0  0  0
 26 27  1  0  0  0  0
 28 29  1  1  0  0  0
M  END
>  <CHROM.1>
-171.29208971,-155.22008431,-89.18944421,-153.48644347,-16.16178732,86.42733122
21.96699031,-11.39199944,-3.43894644,-2.56457278,-0.83560421,1.82139635

>  <Name>
ligand

>  <RI>
0

>  <Rbt.Current_Directory>
/home/itssahil/PROJECTS/Mol_Feturizer/New_Systems/rnas/4F8V

>  <Rbt.Executable>
rbdock ($Id: //depot/dev/client3/rdock/2013.1/src/exe/rbdock.cxx#4 $)

>  <Rbt.Library>
libRbt.so (2013.1, Build901 2013/11/27)

>  <Rbt.Parameter_File>
/export/apps/rDock/src/rDock_2013.1_src/data/scripts/dock_solv.prm

>  <Rbt.Receptor>
prm/pocket_docking_3.prm

>  <SCORE>
-16.2993

>  <SCORE.INTER>
-15.5208

>  <SCORE.INTER.CONST>
1

>  <SCORE.INTER.POLAR>
0

>  <SCORE.INTER.ROT>
6

>  <SCORE.INTER.SOLV>
18.1298

>  <SCORE.INTER.VDW>
-23.9905

>  <SCORE.INTER.norm>
-0.50067

>  <SCORE.INTRA>
-0.778579

>  <SCORE.INTRA.DIHEDRAL>
-4.46242

>  <SCORE.INTRA.DIHEDRAL.0>
15.9129

>  <SCORE.INTRA.POLAR>
0

>  <SCORE.INTRA.POLAR.0>
0

>  <SCORE.INTRA.REPUL>
0

>  <SCORE.INTRA.REPUL.0>
0

>  <SCORE.INTRA.SOLV>
-0.285352

>  <SCORE.INTRA.SOLV.lig_0>
-75.7056

>  <SCORE.INTRA.VDW>
1.5953

>  <SCORE.INTRA.VDW.0>
-4.61812

>  <SCORE.INTRA.norm>
-0.0251154

>  <SCORE.RESTR>
0

>  <SCORE.RESTR.CAVITY>
0

>  <SCORE.RESTR.norm>
0

>  <SCORE.SYSTEM>
0

>  <SCORE.SYSTEM.CONST>
0

>  <SCORE.SYSTEM.DIHEDRAL>
0

>  <SCORE.SYSTEM.SOLV>
0

>  <SCORE.SYSTEM.norm>
0

>  <SCORE.heavy>
31

>  <SCORE.norm>
-0.525785

>  <RMSD>
0.632

$$$$
ligand
 OpenBabel11021811493D
libRbt.so/2013.1/901 2013/11/27
 31 33  0  0  0  0  0  0  0  0999 V2000
   20.2793   -9.4887   -5.8883 C   0  0  2  0  0  0  0  0  0  0  0  0
   20.7725   -9.0430   -4.6176 O   0  0  0  0  0  0  0  0  0  0  0  0
   21.6120  -11.0426   -0.9453 C   0  0  2  0  0  0  0  0  0  0  0  0
   21.4439  -11.8927    0.1847 N   0  0  0  0  0  0  0  0  0  0  0  0
   22.3778  -14.1554   -1.5883 C   0  0  2  0  0  0  0  0  0  0  0  0
   20.9127   -8.5619   -6.9717 C   0  0  2  0  0  0  0  0  0  0  0  0
   22.3685   -8.6322   -6.8637 N   0  0  0  0  0  0  0  0  0  0  0  0
   20.4987   -9.9291   -0.9267 C   0  0  0  0  0  0  0  0  0  0  0  0
   23.7942  -14.4387   -1.0189 C   0  0  2  0  0  0  0  0  0  0  0  0
   24.1488  -13.3880   -0.1490 O   0  0  0  0  0  0  0  0  0  0  0  0
   20.3892   -7.0839   -6.8005 C   0  0  0  0  0  0  0  0  0  0  0  0
   20.6890   -8.9861   -2.1837 C   0  0  2  0  0  0  0  0  0  0  0  0
   19.6447   -7.9413   -2.1729 N   0  0  0  0  0  0  0  0  0  0  0  0
   24.7986  -14.5464   -2.2341 C   0  0  1  0  0  0  0  0  0  0  0  0
   26.1801  -14.7967   -1.7342 N   0  0  0  0  0  0  0  0  0  0  0  0
   18.9174   -7.0160   -6.2527 C   0  0  0  0  0  0  0  0  0  0  0  0
   20.5835   -9.8603   -3.5052 C   0  0  2  0  0  0  0  0  0  0  0  0
   24.3458  -15.7702   -3.2078 C   0  0  1  0  0  0  0  0  0  0  0  0
   24.3527  -17.0198   -2.5621 O   0  0  0  0  0  0  0  0  0  0  0  0
   18.2540   -8.1246   -5.8921 C   0  0  1  0  0  0  0  0  0  0  0  0
   18.8319   -9.4116   -5.9878 O   0  0  0  0  0  0  0  0  0  0  0  0
   21.6912  -10.9753   -3.4888 C   0  0  2  0  0  0  0  0  0  0  0  0
   21.5815  -11.7624   -4.6734 O   0  0  0  0  0  0  0  0  0  0  0  0
   22.8963  -15.5001   -3.7176 C   0  0  0  0  0  0  0  0  0  0  0  0
   21.9671  -15.2438   -2.5482 O   0  0  0  0  0  0  0  0  0  0  0  0
   16.8162   -8.0946   -5.3378 C   0  0  0  0  0  0  0  0  0  0  0  0
   16.4822   -6.7326   -4.9832 N   0  0  0  0  0  0  0  0  0  0  0  0
   21.4894  -11.8949   -2.2256 C   0  0  1  0  0  0  0  0  0  0  0  0
   22.4922  -12.8682   -2.2311 O   0  0  0  0  0  0  0  0  0  0  0  0
   25.2290  -16.0045   -4.4417 C   0  0  0  0  0  0  0  0  0  0  0  0
   27.0242  -13.6081   -1.5378 C   0  0  0  0  0  0  0  0  0  0  0  0
  1  2  1  1  0  0  0
  1  6  1  0  0  0  0
  1 21  1  0  0  0  0
  3  4  1  1  0  0  0
  3  8  1  0  0  0  0
  3 28  1  0  0  0  0
  5  9  1  0  0  0  0
  5 25  1  0  0  0  0
  5 29  1  6  0  0  0
  6  7  1  1  0  0  0
  6 11  1  0  0  0  0
  8 12  1  0  0  0  0
  9 10  1  1  0  0  0
  9 14  1  0  0  0  0
 11 16  1  0  0  0  0
 12 13  1  6  0  0  0
 12 17  1  0  0  0  0
 14 15  1  1  0  0  0
 14 18  1  0  0  0  0
 15 31  1  0  0  0  0
 16 20  1  0  0  0  0
 17  2  1  6  0  0  0
 17 22  1  0  0  0  0
 18 19  1  1  0  0  0
 18 24  1  0  0  0  0
 18 30  1  0  0  0  0
 20 21  1  0  0  0  0
 20 26  1  1  0  0  0
 22 23  1  6  0  0  0
 22 28  1  0  0  0  0
 24 25  1  0  0  0  0
 26 27  1  0  0  0  0
 28 29  1  1  0  0  0
M  END
>  <CHROM.1>
-167.06308527,-142.85758154,-93.80103932,-158.82794957,-13.82715269,85.82084672
21.72883596,-11.45711283,-3.43313254,-2.67368180,-0.87244919,1.70898508

>  <Name>
ligand

>  <RI>
0

>  <Rbt.Current_Directory>
/home/itssahil/PROJECTS/Mol_Feturizer/New_Systems/rnas/4F8V

>  <Rbt.Executable>
rbdock ($Id: //depot/dev/client3/rdock/2013.1/src/exe/rbdock.cxx#4 $)

>  <Rbt.Library>
libRbt.so (2013.1, Build901 2013/11/27)

>  <Rbt.Parameter_File>
/export/apps/rDock/src/rDock_2013.1_src/data/scripts/dock_solv.prm

>  <Rbt.Receptor>
prm/pocket_docking_5.prm

>  <SCORE>
-16.3799

>  <SCORE.INTER>
-16.3389

>  <SCORE.INTER.CONST>
1

>  <SCORE.INTER.POLAR>
0

>  <SCORE.INTER.ROT>
6

>  <SCORE.INTER.SOLV>
19.5246

>  <SCORE.INTER.VDW>
-25.0008

>  <SCORE.INTER.norm>
-0.527062

>  <SCORE.INTRA>
-0.040976

>  <SCORE.INTRA.DIHEDRAL>
-2.75086

>  <SCORE.INTRA.DIHEDRAL.0>
15.9129

>  <SCORE.INTRA.POLAR>
0

>  <SCORE.INTRA.POLAR.0>
0

>  <SCORE.INTRA.REPUL>
0

>  <SCORE.INTRA.REPUL.0>
0

>  <SCORE.INTRA.SOLV>
-0.648308

>  <SCORE.INTRA.SOLV.lig_0>
-75.7056

>  <SCORE.INTRA.VDW>
1.65861

>  <SCORE.INTRA.VDW.0>
-4.61812

>  <SCORE.INTRA.norm>
-0.00132181

>  <SCORE.RESTR>
0

>  <SCORE.RESTR.CAVITY>
0

>  <SCORE.RESTR.norm>
0

>  <SCORE.SYSTEM>
0

>  <SCORE.SYSTEM.CONST>
0

>  <SCORE.SYSTEM.DIHEDRAL>
0

>  <SCORE.SYSTEM.SOLV>
0

>  <SCORE.SYSTEM.norm>
0

>  <SCORE.heavy>
31

>  <SCORE.norm>
-0.528384

>  <RMSD>
0.633

$$$$
ligand
 OpenBabel11021811493D
libRbt.so/2013.1/901 2013/11/27
 31 33  0  0  0  0  0  0  0  0999 V2000
   20.3960   -9.4477   -5.9275 C   0  0  2  0  0  0  0  0  0  0  0  0
   20.9004   -9.0379   -4.6492 O   0  0  0  0  0  0  0  0  0  0  0  0
   21.6350  -11.0627   -0.9682 C   0  0  2  0  0  0  0  0  0  0  0  0
   21.4358  -11.9224    0.1494 N   0  0  0  0  0  0  0  0  0  0  0  0
   22.4371  -14.1645   -1.6057 C   0  0  2  0  0  0  0  0  0  0  0  0
   21.0041   -8.4782   -6.9877 C   0  0  2  0  0  0  0  0  0  0  0  0
   22.4620   -8.5341   -6.9006 N   0  0  0  0  0  0  0  0  0  0  0  0
   20.5165   -9.9543   -0.9755 C   0  0  0  0  0  0  0  0  0  0  0  0
   23.8428  -14.4505   -1.0118 C   0  0  2  0  0  0  0  0  0  0  0  0
   24.1812  -13.4041   -0.1304 O   0  0  0  0  0  0  0  0  0  0  0  0
   20.4654   -7.0132   -6.7613 C   0  0  0  0  0  0  0  0  0  0  0  0
   20.7412   -9.0006   -2.2187 C   0  0  2  0  0  0  0  0  0  0  0  0
   19.6922   -7.9606   -2.2323 N   0  0  0  0  0  0  0  0  0  0  0  0
   24.8694  -14.5523   -2.2088 C   0  0  1  0  0  0  0  0  0  0  0  0
   26.2415  -14.8049   -1.6847 N   0  0  0  0  0  0  0  0  0  0  0  0
   19.0002   -6.9813   -6.1929 C   0  0  0  0  0  0  0  0  0  0  0  0
   20.6809   -9.8648   -3.5495 C   0  0  2  0  0  0  0  0  0  0  0  0
   24.4348  -15.7713   -3.1966 C   0  0  1  0  0  0  0  0  0  0  0  0
   24.4300  -17.0241   -2.5569 O   0  0  0  0  0  0  0  0  0  0  0  0
   18.3548   -8.1093   -5.8606 C   0  0  1  0  0  0  0  0  0  0  0  0
   18.9465   -9.3852   -6.0060 O   0  0  0  0  0  0  0  0  0  0  0  0
   21.7928  -10.9750   -3.5074 C   0  0  2  0  0  0  0  0  0  0  0  0
   21.7235  -11.7532   -4.7009 O   0  0  0  0  0  0  0  0  0  0  0  0
   22.9950  -15.4988   -3.7317 C   0  0  0  0  0  0  0  0  0  0  0  0
   22.0443  -15.2483   -2.5783 O   0  0  0  0  0  0  0  0  0  0  0  0
   16.9241   -8.1151   -5.2873 C   0  0  0  0  0  0  0  0  0  0  0  0
   16.5866   -6.7738   -4.8639 N   0  0  0  0  0  0  0  0  0  0  0  0
   21.5561  -11.9054   -2.2583 C   0  0  1  0  0  0  0  0  0  0  0  0
   22.5631  -12.8742   -2.2402 O   0  0  0  0  0  0  0  0  0  0  0  0
   25.3406  -15.9996   -4.4151 C   0  0  0  0  0  0  0  0  0  0  0  0
   27.0958  -13.6208   -1.5057 C   0  0  0  0  0  0  0  0  0  0  0  0
  1  2  1  1  0  0  0
  1  6  1  0  0  0  0
  1 21  1  0  0  0  0
  3  4  1  1  0  0  0
  3  8  1  0  0  0  0
  3 28  1  0  0  0  0
  5  9  1  0  0  0  0
  5 25  1  0  0  0  0
  5 29  1  6  0  0  0
  6  7  1  1  0  0  0
  6 11  1  0  0  0  0
  8 12  1  0  0  0  0
  9 10  1  1  0  0  0
  9 14  1  0  0  0  0
 11 16  1  0  0  0  0
 12 13  1  6  0  0  0
 12 17  1  0  0  0  0
 14 15  1  1  0  0  0
 14 18  1  0  0  0  0
 15 31  1  0  0  0  0
 16 20  1  0  0  0  0
 17  2  1  6  0  0  0
 17 22  1  0  0  0  0
 18 19  1  1  0  0  0
 18 24  1  0  0  0  0
 18 30  1  0  0  0  0
 20 21  1  0  0  0  0
 20 26  1  1  0  0  0
 22 23  1  6  0  0  0
 22 28  1  0  0  0  0
 24 25  1  0  0  0  0
 26 27  1  0  0  0  0
 28 29  1  1  0  0  0
M  END
>  <CHROM.1>
-170.02365450,-143.43250544,-95.59364027,-156.05575600,-14.74173719,85.51827707
21.80758329,-11.45320010,-3.43505456,-2.63223267,-0.85920686,1.76416121

>  <Name>
ligand

>  <RI>
0

>  <Rbt.Current_Directory>
/home/itssahil/PROJECTS/Mol_Feturizer/New_Systems/rnas/4F8V

>  <Rbt.Executable>
rbdock ($Id: //depot/dev/client3/rdock/2013.1/src/exe/rbdock.cxx#4 $)

>  <Rbt.Library>
libRbt.so (2013.1, Build901 2013/11/27)

>  <Rbt.Parameter_File>
/export/apps/rDock/src/rDock_2013.1_src/data/scripts/dock_solv.prm

>  <Rbt.Receptor>
prm/pocket_docking_3.prm

>  <SCORE>
-16.3733

>  <SCORE.INTER>
-16.407

>  <SCORE.INTER.CONST>
1

>  <SCORE.INTER.POLAR>
0

>  <SCORE.INTER.ROT>
6

>  <SCORE.INTER.SOLV>
18.861

>  <SCORE.INTER.VDW>
-24.825

>  <SCORE.INTER.norm>
-0.529259

>  <SCORE.INTRA>
0.0336937

>  <SCORE.INTRA.DIHEDRAL>
-2.65384

>  <SCORE.INTRA.DIHEDRAL.0>
15.9129

>  <SCORE.INTRA.POLAR>
0

>  <SCORE.INTRA.POLAR.0>
0

>  <SCORE.INTRA.REPUL>
0

>  <SCORE.INTRA.REPUL.0>
0

>  <SCORE.INTRA.SOLV>
-0.318541

>  <SCORE.INTRA.SOLV.lig_0>
-75.7056

>  <SCORE.INTRA.VDW>
1.51988

>  <SCORE.INTRA.VDW.0>
-4.61812

>  <SCORE.INTRA.norm>
0.00108689

>  <SCORE.RESTR>
0

>  <SCORE.RESTR.CAVITY>
0

>  <SCORE.RESTR.norm>
0

>  <SCORE.SYSTEM>
0

>  <SCORE.SYSTEM.CONST>
0

>  <SCORE.SYSTEM.DIHEDRAL>
0

>  <SCORE.SYSTEM.SOLV>
0

>  <SCORE.SYSTEM.norm>
0

>  <SCORE.heavy>
31

>  <SCORE.norm>
-0.528172

>  <RMSD>
0.634

$$$$
ligand
 OpenBabel11021811493D
libRbt.so/2013.1/901 2013/11/27
 31 33  0  0  0  0  0  0  0  0999 V2000
   20.5681   -9.3957   -5.9614 C   0  0  2  0  0  0  0  0  0  0  0  0
   20.9553   -8.9674   -4.6488 O   0  0  0  0  0  0  0  0  0  0  0  0
   21.6373  -11.0803   -1.0075 C   0  0  2  0  0  0  0  0  0  0  0  0
   21.4224  -11.9667    0.0861 N   0  0  0  0  0  0  0  0  0  0  0  0
   22.4748  -14.1391   -1.6482 C   0  0  2  0  0  0  0  0  0  0  0  0
   21.2472   -8.4236   -6.9751 C   0  0  2  0  0  0  0  0  0  0  0  0
   22.6932   -8.4530   -6.7645 N   0  0  0  0  0  0  0  0  0  0  0  0
   20.5187   -9.9720   -1.0042 C   0  0  0  0  0  0  0  0  0  0  0  0
   23.8913  -14.4073   -1.0720 C   0  0  2  0  0  0  0  0  0  0  0  0
   24.2390  -13.3426   -0.2165 O   0  0  0  0  0  0  0  0  0  0  0  0
   20.6664   -6.9667   -6.8084 C   0  0  0  0  0  0  0  0  0  0  0  0
   20.7611   -8.9886   -2.2207 C   0  0  2  0  0  0  0  0  0  0  0  0
   19.7121   -7.9485   -2.2243 N   0  0  0  0  0  0  0  0  0  0  0  0
   24.8988  -14.5275   -2.2835 C   0  0  1  0  0  0  0  0  0  0  0  0
   26.2804  -14.7639   -1.7772 N   0  0  0  0  0  0  0  0  0  0  0  0
   19.1580   -6.9565   -6.3663 C   0  0  0  0  0  0  0  0  0  0  0  0
   20.7202   -9.8205   -3.5727 C   0  0  2  0  0  0  0  0  0  0  0  0
   24.4539  -15.7672   -3.2405 C   0  0  1  0  0  0  0  0  0  0  0  0
   24.4655  -17.0075   -2.5769 O   0  0  0  0  0  0  0  0  0  0  0  0
   18.5060   -8.0932   -6.0796 C   0  0  1  0  0  0  0  0  0  0  0  0
   19.1296   -9.3595   -6.1629 O   0  0  0  0  0  0  0  0  0  0  0  0
   21.8317  -10.9315   -3.5413 C   0  0  2  0  0  0  0  0  0  0  0  0
   21.7798  -11.6806   -4.7541 O   0  0  0  0  0  0  0  0  0  0  0  0
   23.0043  -15.5115   -3.7571 C   0  0  0  0  0  0  0  0  0  0  0  0
   22.0713  -15.2431   -2.5933 O   0  0  0  0  0  0  0  0  0  0  0  0
   17.0323   -8.1200   -5.6294 C   0  0  0  0  0  0  0  0  0  0  0  0
   16.9852   -8.0542   -4.1852 N   0  0  0  0  0  0  0  0  0  0  0  0
   21.5773  -11.8916   -2.3185 C   0  0  1  0  0  0  0  0  0  0  0  0
   22.5843  -12.8606   -2.3092 O   0  0  0  0  0  0  0  0  0  0  0  0
   25.3408  -16.0149   -4.4691 C   0  0  0  0  0  0  0  0  0  0  0  0
   27.1488  -13.5802   -1.6847 C   0  0  0  0  0  0  0  0  0  0  0  0
  1  2  1  1  0  0  0
  1  6  1  0  0  0  0
  1 21  1  0  0  0  0
  3  4  1  1  0  0  0
  3  8  1  0  0  0  0
  3 28  1  0  0  0  0
  5  9  1  0  0  0  0
  5 25  1  0  0  0  0
  5 29  1  6  0  0  0
  6  7  1  1  0  0  0
  6 11  1  0  0  0  0
  8 12  1  0  0  0  0
  9 10  1  1  0  0  0
  9 14  1  0  0  0  0
 11 16  1  0  0  0  0
 12 13  1  6  0  0  0
 12 17  1  0  0  0  0
 14 15  1  1  0  0  0
 14 18  1  0  0  0  0
 15 31  1  0  0  0  0
 16 20  1  0  0  0  0
 17  2  1  6  0  0  0
 17 22  1  0  0  0  0
 18 19  1  1  0  0  0
 18 24  1  0  0  0  0
 18 30  1  0  0  0  0
 20 21  1  0  0  0  0
 20 26  1  1  0  0  0
 22 23  1  6  0  0  0
 22 28  1  0  0  0  0
 24 25  1  0  0  0  0
 26 27  1  0  0  0  0
 28 29  1  1  0  0  0
M  END
>  <CHROM.1>
-166.72529141,-142.78674705,-97.89941549,-161.14271421,-91.16231102,82.14891881
21.88675382,-11.47018220,-3.47447403,-2.56139136,-0.83241656,1.85063231

>  <Name>
ligand

>  <RI>
0

>  <Rbt.Current_Directory>
/home/itssahil/PROJECTS/Mol_Feturizer/New_Systems/rnas/4F8V

>  <Rbt.Executable>
rbdock ($Id: //depot/dev/client3/rdock/2013.1/src/exe/rbdock.cxx#4 $)

>  <Rbt.Library>
libRbt.so (2013.1, Build901 2013/11/27)

>  <Rbt.Parameter_File>
/export/apps/rDock/src/rDock_2013.1_src/data/scripts/dock_solv.prm

>  <Rbt.Receptor>
prm/pocket_docking_3.prm

>  <SCORE>
-15.5465

>  <SCORE.INTER>
-15.4128

>  <SCORE.INTER.CONST>
1

>  <SCORE.INTER.POLAR>
0

>  <SCORE.INTER.ROT>
6

>  <SCORE.INTER.SOLV>
20.7051

>  <SCORE.INTER.VDW>
-24.7769

>  <SCORE.INTER.norm>
-0.497188

>  <SCORE.INTRA>
-0.133719

>  <SCORE.INTRA.DIHEDRAL>
-2.94585

>  <SCORE.INTRA.DIHEDRAL.0>
15.9129

>  <SCORE.INTRA.POLAR>
0

>  <SCORE.INTRA.POLAR.0>
0

>  <SCORE.INTRA.REPUL>
0.0162148

>  <SCORE.INTRA.REPUL.0>
0

>  <SCORE.INTRA.SOLV>
1.05388

>  <SCORE.INTRA.SOLV.lig_0>
-75.7056

>  <SCORE.INTRA.VDW>
0.731188

>  <SCORE.INTRA.VDW.0>
-4.61812

>  <SCORE.INTRA.norm>
-0.00431353

>  <SCORE.RESTR>
0

>  <SCORE.RESTR.CAVITY>
0

>  <SCORE.RESTR.norm>
0

>  <SCORE.SYSTEM>
0

>  <SCORE.SYSTEM.CONST>
0

>  <SCORE.SYSTEM.DIHEDRAL>
0

>  <SCORE.SYSTEM.SOLV>
0

>  <SCORE.SYSTEM.norm>
0

>  <SCORE.heavy>
31

>  <SCORE.norm>
-0.501501

>  <RMSD>
0.643

$$$$
ligand
 OpenBabel11021811493D
libRbt.so/2013.1/901 2013/11/27
 31 33  0  0  0  0  0  0  0  0999 V2000
   20.7513   -9.4492   -5.9113 C   0  0  2  0  0  0  0  0  0  0  0  0
   21.1284   -8.9970   -4.6037 O   0  0  0  0  0  0  0  0  0  0  0  0
   21.6178  -10.9068   -0.8219 C   0  0  2  0  0  0  0  0  0  0  0  0
   21.3600  -11.7549    0.2926 N   0  0  0  0  0  0  0  0  0  0  0  0
   22.6374  -13.9808   -1.3282 C   0  0  2  0  0  0  0  0  0  0  0  0
   21.4234   -8.4847   -6.9368 C   0  0  2  0  0  0  0  0  0  0  0  0
   22.8688   -8.4945   -6.7202 N   0  0  0  0  0  0  0  0  0  0  0  0
   20.4467   -9.8634   -0.9612 C   0  0  0  0  0  0  0  0  0  0  0  0
   24.0805  -14.3400   -0.8824 C   0  0  2  0  0  0  0  0  0  0  0  0
   24.5541  -13.3248   -0.0273 O   0  0  0  0  0  0  0  0  0  0  0  0
   20.8255   -7.0321   -6.7940 C   0  0  0  0  0  0  0  0  0  0  0  0
   20.7368   -8.9223   -2.2006 C   0  0  2  0  0  0  0  0  0  0  0  0
   19.6391   -7.9433   -2.3379 N   0  0  0  0  0  0  0  0  0  0  0  0
   24.9762  -14.4684   -2.1780 C   0  0  1  0  0  0  0  0  0  0  0  0
   26.3806  -14.7916   -1.7979 N   0  0  0  0  0  0  0  0  0  0  0  0
   19.3153   -7.0325   -6.3580 C   0  0  0  0  0  0  0  0  0  0  0  0
   20.8502   -9.8138   -3.5098 C   0  0  2  0  0  0  0  0  0  0  0  0
   24.3883  -15.6500   -3.1314 C   0  0  1  0  0  0  0  0  0  0  0  0
   24.3890  -16.9117   -2.5094 O   0  0  0  0  0  0  0  0  0  0  0  0
   18.6751   -8.1721   -6.0568 C   0  0  1  0  0  0  0  0  0  0  0  0
   19.3133   -9.4323   -6.1187 O   0  0  0  0  0  0  0  0  0  0  0  0
   22.0115  -10.8588   -3.3364 C   0  0  2  0  0  0  0  0  0  0  0  0
   22.0983  -11.6622   -4.5119 O   0  0  0  0  0  0  0  0  0  0  0  0
   22.9164  -15.3037   -3.5153 C   0  0  0  0  0  0  0  0  0  0  0  0
   22.0989  -15.0294   -2.2691 O   0  0  0  0  0  0  0  0  0  0  0  0
   17.2000   -8.2090   -5.6119 C   0  0  0  0  0  0  0  0  0  0  0  0
   16.8162   -6.8890   -5.1615 N   0  0  0  0  0  0  0  0  0  0  0  0
   21.7077  -11.7770   -2.0928 C   0  0  1  0  0  0  0  0  0  0  0  0
   22.7594  -12.6872   -1.9567 O   0  0  0  0  0  0  0  0  0  0  0  0
   25.1558  -15.8989   -4.4376 C   0  0  0  0  0  0  0  0  0  0  0  0
   27.2785  -13.6441   -1.5960 C   0  0  0  0  0  0  0  0  0  0  0  0
  1  2  1  1  0  0  0
  1  6  1  0  0  0  0
  1 21  1  0  0  0  0
  3  4  1  1  0  0  0
  3  8  1  0  0  0  0
  3 28  1  0  0  0  0
  5  9  1  0  0  0  0
  5 25  1  0  0  0  0
  5 29  1  6  0  0  0
  6  7  1  1  0  0  0
  6 11  1  0  0  0  0
  8 12  1  0  0  0  0
  9 10  1  1  0  0  0
  9 14  1  0  0  0  0
 11 16  1  0  0  0  0
 12 13  1  6  0  0  0
 12 17  1  0  0  0  0
 14 15  1  1  0  0  0
 14 18  1  0  0  0  0
 15 31  1  0  0  0  0
 16 20  1  0  0  0  0
 17  2  1  6  0  0  0
 17 22  1  0  0  0  0
 18 19  1  1  0  0  0
 18 24  1  0  0  0  0
 18 30  1  0  0  0  0
 20 21  1  0  0  0  0
 20 26  1  1  0  0  0
 22 23  1  6  0  0  0
 22 28  1  0  0  0  0
 24 25  1  0  0  0  0
 26 27  1  0  0  0  0
 28 29  1  1  0  0  0
M  END
>  <CHROM.1>
-169.24608462,-156.86701996,-91.28810101,-155.06196246,-18.79591321,86.74708013
21.97367213,-11.38951527,-3.39576712,-2.55088774,-0.83198911,1.83329455

>  <Name>
ligand

>  <RI>
0

>  <Rbt.Current_Directory>
/home/itssahil/PROJECTS/Mol_Feturizer/New_Systems/rnas/4F8V

>  <Rbt.Executable>
rbdock ($Id: //depot/dev/client3/rdock/2013.1/src/exe/rbdock.cxx#4 $)

>  <Rbt.Library>
libRbt.so (2013.1, Build901 2013/11/27)

>  <Rbt.Parameter_File>
/export/apps/rDock/src/rDock_2013.1_src/data/scripts/dock_solv.prm

>  <Rbt.Receptor>
prm/pocket_docking_4.prm

>  <SCORE>
-16.3709

>  <SCORE.INTER>
-15.3376

>  <SCORE.INTER.CONST>
1

>  <SCORE.INTER.POLAR>
0

>  <SCORE.INTER.ROT>
6

>  <SCORE.INTER.SOLV>
18.3766

>  <SCORE.INTER.VDW>
-23.9506

>  <SCORE.INTER.norm>
-0.49476

>  <SCORE.INTRA>
-1.03335

>  <SCORE.INTRA.DIHEDRAL>
-4.62902

>  <SCORE.INTRA.DIHEDRAL.0>
15.9129

>  <SCORE.INTRA.POLAR>
0

>  <SCORE.INTRA.POLAR.0>
0

>  <SCORE.INTRA.REPUL>
0

>  <SCORE.INTRA.REPUL.0>
0

>  <SCORE.INTRA.SOLV>
-0.487296

>  <SCORE.INTRA.SOLV.lig_0>
-75.7056

>  <SCORE.INTRA.VDW>
1.52481

>  <SCORE.INTRA.VDW.0>
-4.61812

>  <SCORE.INTRA.norm>
-0.0333337

>  <SCORE.RESTR>
0

>  <SCORE.RESTR.CAVITY>
0

>  <SCORE.RESTR.norm>
0

>  <SCORE.SYSTEM>
0

>  <SCORE.SYSTEM.CONST>
0

>  <SCORE.SYSTEM.DIHEDRAL>
0

>  <SCORE.SYSTEM.SOLV>
0

>  <SCORE.SYSTEM.norm>
0

>  <SCORE.heavy>
31

>  <SCORE.norm>
-0.528094

>  <RMSD>
0.648

$$$$
ligand
 OpenBabel11021811493D
libRbt.so/2013.1/901 2013/11/27
 31 33  0  0  0  0  0  0  0  0999 V2000
   19.7936   -9.3916   -5.5956 C   0  0  2  0  0  0  0  0  0  0  0  0
   20.5887   -9.0633   -4.4482 O   0  0  0  0  0  0  0  0  0  0  0  0
   21.7349  -11.0386   -0.8464 C   0  0  2  0  0  0  0  0  0  0  0  0
   21.6623  -11.8802    0.3001 N   0  0  0  0  0  0  0  0  0  0  0  0
   22.4141  -14.1780   -1.5731 C   0  0  2  0  0  0  0  0  0  0  0  0
   20.2534   -8.4499   -6.7513 C   0  0  2  0  0  0  0  0  0  0  0  0
   21.6860   -8.6357   -6.9729 N   0  0  0  0  0  0  0  0  0  0  0  0
   20.6293   -9.9223   -0.7410 C   0  0  0  0  0  0  0  0  0  0  0  0
   23.8374  -14.4418   -1.0116 C   0  0  2  0  0  0  0  0  0  0  0  0
   24.1703  -13.4018   -0.1205 O   0  0  0  0  0  0  0  0  0  0  0  0
   19.9100   -6.9502   -6.4037 C   0  0  0  0  0  0  0  0  0  0  0  0
   20.7133   -8.9888   -2.0166 C   0  0  2  0  0  0  0  0  0  0  0  0
   19.6756   -7.9415   -1.9244 N   0  0  0  0  0  0  0  0  0  0  0  0
   24.8417  -14.5020   -2.2302 C   0  0  1  0  0  0  0  0  0  0  0  0
   26.2293  -14.7321   -1.7374 N   0  0  0  0  0  0  0  0  0  0  0  0
   18.6047   -6.8060   -5.5399 C   0  0  0  0  0  0  0  0  0  0  0  0
   20.4939   -9.8722   -3.3178 C   0  0  2  0  0  0  0  0  0  0  0  0
   24.4142  -15.7149   -3.2285 C   0  0  1  0  0  0  0  0  0  0  0  0
   24.4498  -16.9773   -2.6089 O   0  0  0  0  0  0  0  0  0  0  0  0
   17.9423   -7.8819   -5.0894 C   0  0  1  0  0  0  0  0  0  0  0  0
   18.3715   -9.2002   -5.3672 O   0  0  0  0  0  0  0  0  0  0  0  0
   21.5970  -10.9897   -3.3878 C   0  0  2  0  0  0  0  0  0  0  0  0
   21.3852  -11.7850   -4.5529 O   0  0  0  0  0  0  0  0  0  0  0  0
   22.9583  -15.4663   -3.7307 C   0  0  0  0  0  0  0  0  0  0  0  0
   22.0257  -15.2550   -2.5549 O   0  0  0  0  0  0  0  0  0  0  0  0
   16.6682   -7.7783   -4.2284 C   0  0  0  0  0  0  0  0  0  0  0  0
   15.5159   -8.0055   -5.0726 N   0  0  0  0  0  0  0  0  0  0  0  0
   21.5020  -11.8997   -2.1053 C   0  0  1  0  0  0  0  0  0  0  0  0
   22.4989  -12.8754   -2.1892 O   0  0  0  0  0  0  0  0  0  0  0  0
   25.3001  -15.9041   -4.4681 C   0  0  0  0  0  0  0  0  0  0  0  0
   27.0207  -13.5279   -1.4414 C   0  0  0  0  0  0  0  0  0  0  0  0
  1  2  1  1  0  0  0
  1  6  1  0  0  0  0
  1 21  1  0  0  0  0
  3  4  1  1  0  0  0
  3  8  1  0  0  0  0
  3 28  1  0  0  0  0
  5  9  1  0  0  0  0
  5 25  1  0  0  0  0
  5 29  1  6  0  0  0
  6  7  1  1  0  0  0
  6 11  1  0  0  0  0
  8 12  1  0  0  0  0
  9 10  1  1  0  0  0
  9 14  1  0  0  0  0
 11 16  1  0  0  0  0
 12 13  1  1  0  0  0
 12 17  1  0  0  0  0
 14 15  1  1  0  0  0
 14 18  1  0  0  0  0
 15 31  1  0  0  0  0
 16 20  1  0  0  0  0
 17  2  1  6  0  0  0
 17 22  1  0  0  0  0
 18 19  1  1  0  0  0
 18 24  1  0  0  0  0
 18 30  1  0  0  0  0
 20 21  1  0  0  0  0
 20 26  1  1  0  0  0
 22 23  1  6  0  0  0
 22 28  1  0  0  0  0
 24 25  1  0  0  0  0
 26 27  1  0  0  0  0
 28 29  1  6  0  0  0
M  END
>  <CHROM.1>
-172.19412044,-139.50055610,-90.30227190,-147.76079875,100.78530286,88.38976429
21.60141130,-11.44567621,-3.25547650,-2.82480471,-0.86318943,1.57666558

>  <Name>
ligand

>  <RI>
0

>  <Rbt.Current_Directory>
/home/itssahil/PROJECTS/Mol_Feturizer/New_Systems/rnas/4F8V

>  <Rbt.Executable>
rbdock ($Id: //depot/dev/client3/rdock/2013.1/src/exe/rbdock.cxx#4 $)

>  <Rbt.Library>
libRbt.so (2013.1, Build901 2013/11/27)

>  <Rbt.Parameter_File>
/export/apps/rDock/src/rDock_2013.1_src/data/scripts/dock_solv.prm

>  <Rbt.Receptor>
prm/pocket_docking_4.prm

>  <SCORE>
-14.6943

>  <SCORE.INTER>
-15.1645

>  <SCORE.INTER.CONST>
1

>  <SCORE.INTER.POLAR>
0

>  <SCORE.INTER.ROT>
6

>  <SCORE.INTER.SOLV>
23.5805

>  <SCORE.INTER.VDW>
-25.5699

>  <SCORE.INTER.norm>
-0.489179

>  <SCORE.INTRA>
0.470256

>  <SCORE.INTRA.DIHEDRAL>
-0.0830348

>  <SCORE.INTRA.DIHEDRAL.0>
15.9129

>  <SCORE.INTRA.POLAR>
0

>  <SCORE.INTRA.POLAR.0>
0

>  <SCORE.INTRA.REPUL>
0

>  <SCORE.INTRA.REPUL.0>
0

>  <SCORE.INTRA.SOLV>
0.00837622

>  <SCORE.INTRA.SOLV.lig_0>
-75.7056

>  <SCORE.INTRA.VDW>
0.507585

>  <SCORE.INTRA.VDW.0>
-4.61812

>  <SCORE.INTRA.norm>
0.0151695

>  <SCORE.RESTR>
0

>  <SCORE.RESTR.CAVITY>
0

>  <SCORE.RESTR.norm>
0

>  <SCORE.SYSTEM>
0

>  <SCORE.SYSTEM.CONST>
0

>  <SCORE.SYSTEM.DIHEDRAL>
0

>  <SCORE.SYSTEM.SOLV>
0

>  <SCORE.SYSTEM.norm>
0

>  <SCORE.heavy>
31

>  <SCORE.norm>
-0.474009

>  <RMSD>
0.649

$$$$
ligand
 OpenBabel11021811493D
libRbt.so/2013.1/901 2013/11/27
 31 33  0  0  0  0  0  0  0  0999 V2000
   20.8057   -9.4135   -5.9194 C   0  0  2  0  0  0  0  0  0  0  0  0
   21.1583   -8.9640   -4.6041 O   0  0  0  0  0  0  0  0  0  0  0  0
   21.6276  -10.9100   -0.8383 C   0  0  2  0  0  0  0  0  0  0  0  0
   21.3628  -11.7672    0.2676 N   0  0  0  0  0  0  0  0  0  0  0  0
   22.6403  -13.9782   -1.3584 C   0  0  2  0  0  0  0  0  0  0  0  0
   21.4612   -8.4214   -6.9293 C   0  0  2  0  0  0  0  0  0  0  0  0
   22.9042   -8.3945   -6.6990 N   0  0  0  0  0  0  0  0  0  0  0  0
   20.4609   -9.8609   -0.9720 C   0  0  0  0  0  0  0  0  0  0  0  0
   24.0795  -14.3350   -0.8980 C   0  0  2  0  0  0  0  0  0  0  0  0
   24.5425  -13.3190   -0.0379 O   0  0  0  0  0  0  0  0  0  0  0  0
   20.8230   -6.9868   -6.7787 C   0  0  0  0  0  0  0  0  0  0  0  0
   20.7588   -8.9097   -2.2017 C   0  0  2  0  0  0  0  0  0  0  0  0
   19.6653   -7.9253   -2.3338 N   0  0  0  0  0  0  0  0  0  0  0  0
   24.9886  -14.4615   -2.1844 C   0  0  1  0  0  0  0  0  0  0  0  0
   26.3895  -14.7822   -1.7901 N   0  0  0  0  0  0  0  0  0  0  0  0
   19.3094   -7.0320   -6.3571 C   0  0  0  0  0  0  0  0  0  0  0  0
   20.8733   -9.7896   -3.5187 C   0  0  2  0  0  0  0  0  0  0  0  0
   24.4125  -15.6439   -3.1440 C   0  0  1  0  0  0  0  0  0  0  0  0
   24.4091  -16.9057   -2.5223 O   0  0  0  0  0  0  0  0  0  0  0  0
   18.6973   -8.1912   -6.0728 C   0  0  1  0  0  0  0  0  0  0  0  0
   19.3698   -9.4332   -6.1405 O   0  0  0  0  0  0  0  0  0  0  0  0
   22.0301  -10.8406   -3.3509 C   0  0  2  0  0  0  0  0  0  0  0  0
   22.1179  -11.6335   -4.5334 O   0  0  0  0  0  0  0  0  0  0  0  0
   22.9440  -15.3001   -3.5428 C   0  0  0  0  0  0  0  0  0  0  0  0
   22.1133  -15.0276   -2.3049 O   0  0  0  0  0  0  0  0  0  0  0  0
   17.2196   -8.2720   -5.6424 C   0  0  0  0  0  0  0  0  0  0  0  0
   16.8459   -7.0195   -5.0229 N   0  0  0  0  0  0  0  0  0  0  0  0
   21.7187  -11.7689   -2.1168 C   0  0  1  0  0  0  0  0  0  0  0  0
   22.7664  -12.6842   -1.9854 O   0  0  0  0  0  0  0  0  0  0  0  0
   25.1937  -15.8912   -4.4423 C   0  0  0  0  0  0  0  0  0  0  0  0
   27.2853  -13.6334   -1.5861 C   0  0  0  0  0  0  0  0  0  0  0  0
  1  2  1  1  0  0  0
  1  6  1  0  0  0  0
  1 21  1  0  0  0  0
  3  4  1  1  0  0  0
  3  8  1  0  0  0  0
  3 28  1  0  0  0  0
  5  9  1  0  0  0  0
  5 25  1  0  0  0  0
  5 29  1  6  0  0  0
  6  7  1  1  0  0  0
  6 11  1  0  0  0  0
  8 12  1  0  0  0  0
  9 10  1  1  0  0  0
  9 14  1  0  0  0  0
 11 16  1  0  0  0  0
 12 13  1  6  0  0  0
 12 17  1  0  0  0  0
 14 15  1  1  0  0  0
 14 18  1  0  0  0  0
 15 31  1  0  0  0  0
 16 20  1  0  0  0  0
 17  2  1  6  0  0  0
 17 22  1  0  0  0  0
 18 19  1  1  0  0  0
 18 24  1  0  0  0  0
 18 30  1  0  0  0  0
 20 21  1  0  0  0  0
 20 26  1  1  0  0  0
 22 23  1  6  0  0  0
 22 28  1  0  0  0  0
 24 25  1  0  0  0  0
 26 27  1  0  0  0  0
 28 29  1  1  0  0  0
M  END
>  <CHROM.1>
-170.22038211,-156.00799448,-91.61526451,-156.17005518,-26.15711884,86.16462030
21.99218110,-11.38213369,-3.40172543,-2.54270628,-0.82840629,1.84625267

>  <Name>
ligand

>  <RI>
0

>  <Rbt.Current_Directory>
/home/itssahil/PROJECTS/Mol_Feturizer/New_Systems/rnas/4F8V

>  <Rbt.Executable>
rbdock ($Id: //depot/dev/client3/rdock/2013.1/src/exe/rbdock.cxx#4 $)

>  <Rbt.Library>
libRbt.so (2013.1, Build901 2013/11/27)

>  <Rbt.Parameter_File>
/export/apps/rDock/src/rDock_2013.1_src/data/scripts/dock_solv.prm

>  <Rbt.Receptor>
prm/pocket_docking_6.prm

>  <SCORE>
-16.3348

>  <SCORE.INTER>
-15.3091

>  <SCORE.INTER.CONST>
1

>  <SCORE.INTER.POLAR>
0

>  <SCORE.INTER.ROT>
6

>  <SCORE.INTER.SOLV>
18.0316

>  <SCORE.INTER.VDW>
-23.8166

>  <SCORE.INTER.norm>
-0.493842

>  <SCORE.INTRA>
-1.02565

>  <SCORE.INTRA.DIHEDRAL>
-4.52853

>  <SCORE.INTRA.DIHEDRAL.0>
15.9129

>  <SCORE.INTRA.POLAR>
0

>  <SCORE.INTRA.POLAR.0>
0

>  <SCORE.INTRA.REPUL>
0

>  <SCORE.INTRA.REPUL.0>
0

>  <SCORE.INTRA.SOLV>
-0.41105

>  <SCORE.INTRA.SOLV.lig_0>
-75.7056

>  <SCORE.INTRA.VDW>
1.44414

>  <SCORE.INTRA.VDW.0>
-4.61812

>  <SCORE.INTRA.norm>
-0.0330856

>  <SCORE.RESTR>
0

>  <SCORE.RESTR.CAVITY>
0

>  <SCORE.RESTR.norm>
0

>  <SCORE.SYSTEM>
0

>  <SCORE.SYSTEM.CONST>
0

>  <SCORE.SYSTEM.DIHEDRAL>
0

>  <SCORE.SYSTEM.SOLV>
0

>  <SCORE.SYSTEM.norm>
0

>  <SCORE.heavy>
31

>  <SCORE.norm>
-0.526928

>  <RMSD>
0.653

$$$$
ligand
 OpenBabel11021811493D
libRbt.so/2013.1/901 2013/11/27
 31 33  0  0  0  0  0  0  0  0999 V2000
   20.4492   -9.4498   -5.7965 C   0  0  2  0  0  0  0  0  0  0  0  0
   20.7960   -8.9679   -4.4912 O   0  0  0  0  0  0  0  0  0  0  0  0
   21.6343  -11.0604   -0.8708 C   0  0  2  0  0  0  0  0  0  0  0  0
   21.4636  -11.9352    0.2399 N   0  0  0  0  0  0  0  0  0  0  0  0
   22.3799  -14.1536   -1.5662 C   0  0  2  0  0  0  0  0  0  0  0  0
   21.1692   -8.5266   -6.8276 C   0  0  2  0  0  0  0  0  0  0  0  0
   22.6071   -8.5561   -6.5676 N   0  0  0  0  0  0  0  0  0  0  0  0
   20.5313   -9.9377   -0.8207 C   0  0  0  0  0  0  0  0  0  0  0  0
   23.7953  -14.4345   -0.9934 C   0  0  2  0  0  0  0  0  0  0  0  0
   24.1435  -13.3864   -0.1178 O   0  0  0  0  0  0  0  0  0  0  0  0
   20.5945   -7.0602   -6.7428 C   0  0  0  0  0  0  0  0  0  0  0  0
   20.7243   -8.9672   -2.0562 C   0  0  2  0  0  0  0  0  0  0  0  0
   19.6896   -7.9136   -2.0160 N   0  0  0  0  0  0  0  0  0  0  0  0
   24.8041  -14.5335   -2.2058 C   0  0  1  0  0  0  0  0  0  0  0  0
   26.1848  -14.7811   -1.7025 N   0  0  0  0  0  0  0  0  0  0  0  0
   19.0724   -7.0214   -6.3523 C   0  0  0  0  0  0  0  0  0  0  0  0
   20.6048   -9.8092   -3.3973 C   0  0  2  0  0  0  0  0  0  0  0  0
   24.3587  -15.7545   -3.1863 C   0  0  1  0  0  0  0  0  0  0  0  0
   24.3678  -17.0070   -2.5459 O   0  0  0  0  0  0  0  0  0  0  0  0
   18.4024   -8.1404   -6.0392 C   0  0  1  0  0  0  0  0  0  0  0  0
   19.0185   -9.4131   -6.0473 O   0  0  0  0  0  0  0  0  0  0  0  0
   21.7024  -10.9343   -3.4123 C   0  0  2  0  0  0  0  0  0  0  0  0
   21.5800  -11.6924   -4.6144 O   0  0  0  0  0  0  0  0  0  0  0  0
   22.9099  -15.4873   -3.6996 C   0  0  0  0  0  0  0  0  0  0  0  0
   21.9760  -15.2393   -2.5321 O   0  0  0  0  0  0  0  0  0  0  0  0
   16.9144   -8.1385   -5.6378 C   0  0  0  0  0  0  0  0  0  0  0  0
   16.8204   -8.0276   -4.1987 N   0  0  0  0  0  0  0  0  0  0  0  0
   21.4980  -11.8813   -2.1700 C   0  0  1  0  0  0  0  0  0  0  0  0
   22.4918  -12.8632   -2.2031 O   0  0  0  0  0  0  0  0  0  0  0  0
   25.2466  -15.9805   -4.4182 C   0  0  0  0  0  0  0  0  0  0  0  0
   27.0413  -13.5952   -1.5476 C   0  0  0  0  0  0  0  0  0  0  0  0
  1  2  1  1  0  0  0
  1  6  1  0  0  0  0
  1 21  1  0  0  0  0
  3  4  1  1  0  0  0
  3  8  1  0  0  0  0
  3 28  1  0  0  0  0
  5  9  1  0  0  0  0
  5 25  1  0  0  0  0
  5 29  1  6  0  0  0
  6  7  1  1  0  0  0
  6 11  1  0  0  0  0
  8 12  1  0  0  0  0
  9 10  1  1  0  0  0
  9 14  1  0  0  0  0
 11 16  1  0  0  0  0
 12 13  1  6  0  0  0
 12 17  1  0  0  0  0
 14 15  1  1  0  0  0
 14 18  1  0  0  0  0
 15 31  1  0  0  0  0
 16 20  1  0  0  0  0
 17  2  1  6  0  0  0
 17 22  1  0  0  0  0
 18 19  1  1  0  0  0
 18 24  1  0  0  0  0
 18 30  1  0  0  0  0
 20 21  1  0  0  0  0
 20 26  1  1  0  0  0
 22 23  1  6  0  0  0
 22 28  1  0  0  0  0
 24 25  1  0  0  0  0
 26 27  1  0  0  0  0
 28 29  1  1  0  0  0
M  END
>  <CHROM.1>
-162.31747416,-141.28305912,-96.07889514,-166.72895488,-91.89132856,84.46390480
21.79585168,-11.48349300,-3.37065661,-2.62787072,-0.86131583,1.76267092

>  <Name>
ligand

>  <RI>
0

>  <Rbt.Current_Directory>
/home/itssahil/PROJECTS/Mol_Feturizer/New_Systems/rnas/4F8V

>  <Rbt.Executable>
rbdock ($Id: //depot/dev/client3/rdock/2013.1/src/exe/rbdock.cxx#4 $)

>  <Rbt.Library>
libRbt.so (2013.1, Build901 2013/11/27)

>  <Rbt.Parameter_File>
/export/apps/rDock/src/rDock_2013.1_src/data/scripts/dock_solv.prm

>  <Rbt.Receptor>
prm/pocket_docking_4.prm

>  <SCORE>
-15.613

>  <SCORE.INTER>
-15.5526

>  <SCORE.INTER.CONST>
1

>  <SCORE.INTER.POLAR>
0

>  <SCORE.INTER.ROT>
6

>  <SCORE.INTER.SOLV>
21.5508

>  <SCORE.INTER.VDW>
-25.152

>  <SCORE.INTER.norm>
-0.501696

>  <SCORE.INTRA>
-0.0604537

>  <SCORE.INTRA.DIHEDRAL>
-2.54881

>  <SCORE.INTRA.DIHEDRAL.0>
15.9129

>  <SCORE.INTRA.POLAR>
0

>  <SCORE.INTRA.POLAR.0>
0

>  <SCORE.INTRA.REPUL>
0.00478293

>  <SCORE.INTRA.REPUL.0>
0

>  <SCORE.INTRA.SOLV>
0.321971

>  <SCORE.INTRA.SOLV.lig_0>
-75.7056

>  <SCORE.INTRA.VDW>
1.02905

>  <SCORE.INTRA.VDW.0>
-4.61812

>  <SCORE.INTRA.norm>
-0.00195012

>  <SCORE.RESTR>
0

>  <SCORE.RESTR.CAVITY>
0

>  <SCORE.RESTR.norm>
0

>  <SCORE.SYSTEM>
0

>  <SCORE.SYSTEM.CONST>
0

>  <SCORE.SYSTEM.DIHEDRAL>
0

>  <SCORE.SYSTEM.SOLV>
0

>  <SCORE.SYSTEM.norm>
0

>  <SCORE.heavy>
31

>  <SCORE.norm>
-0.503646

>  <RMSD>
0.654

$$$$
ligand
 OpenBabel11021811493D
libRbt.so/2013.1/901 2013/11/27
 31 33  0  0  0  0  0  0  0  0999 V2000
   20.7930   -9.4045   -6.1322 C   0  0  2  0  0  0  0  0  0  0  0  0
   21.3476   -9.0792   -4.8504 O   0  0  0  0  0  0  0  0  0  0  0  0
   21.5464  -10.8271   -0.9653 C   0  0  2  0  0  0  0  0  0  0  0  0
   21.2125  -11.6395    0.1556 N   0  0  0  0  0  0  0  0  0  0  0  0
   22.6934  -13.8763   -1.2352 C   0  0  2  0  0  0  0  0  0  0  0  0
   21.4728   -8.4625   -7.1735 C   0  0  2  0  0  0  0  0  0  0  0  0
   22.9207   -8.6509   -7.1093 N   0  0  0  0  0  0  0  0  0  0  0  0
   20.3647   -9.8261   -1.2505 C   0  0  0  0  0  0  0  0  0  0  0  0
   24.1363  -14.2513   -0.8016 C   0  0  2  0  0  0  0  0  0  0  0  0
   24.6504  -13.2125    0.0003 O   0  0  0  0  0  0  0  0  0  0  0  0
   21.0705   -6.9624   -6.8980 C   0  0  0  0  0  0  0  0  0  0  0  0
   20.7395   -8.9247   -2.4966 C   0  0  2  0  0  0  0  0  0  0  0  0
   19.6325   -7.9858   -2.7707 N   0  0  0  0  0  0  0  0  0  0  0  0
   25.0029  -14.4560   -2.1072 C   0  0  1  0  0  0  0  0  0  0  0  0
   26.4065  -14.7969   -1.7401 N   0  0  0  0  0  0  0  0  0  0  0  0
   19.6210   -6.8165   -6.3076 C   0  0  0  0  0  0  0  0  0  0  0  0
   20.9944   -9.8616   -3.7531 C   0  0  2  0  0  0  0  0  0  0  0  0
   24.3686  -15.6622   -2.9979 C   0  0  1  0  0  0  0  0  0  0  0  0
   24.3520  -16.8961   -2.3227 O   0  0  0  0  0  0  0  0  0  0  0  0
   18.8811   -7.8916   -5.9978 C   0  0  1  0  0  0  0  0  0  0  0  0
   19.3542   -9.2104   -6.1877 O   0  0  0  0  0  0  0  0  0  0  0  0
   22.1632  -10.8632   -3.4347 C   0  0  2  0  0  0  0  0  0  0  0  0
   22.3772  -11.7079   -4.5641 O   0  0  0  0  0  0  0  0  0  0  0  0
   22.8979  -15.2968   -3.3686 C   0  0  0  0  0  0  0  0  0  0  0  0
   22.1119  -14.9503   -2.1201 O   0  0  0  0  0  0  0  0  0  0  0  0
   17.4627   -7.7864   -5.4040 C   0  0  0  0  0  0  0  0  0  0  0  0
   16.5797   -8.6556   -6.1505 N   0  0  0  0  0  0  0  0  0  0  0  0
   21.7738  -11.7421   -2.1866 C   0  0  1  0  0  0  0  0  0  0  0  0
   22.8333  -12.6137   -1.9206 O   0  0  0  0  0  0  0  0  0  0  0  0
   25.1040  -15.9848   -4.3065 C   0  0  0  0  0  0  0  0  0  0  0  0
   27.3268  -13.6618   -1.5713 C   0  0  0  0  0  0  0  0  0  0  0  0
  1  2  1  1  0  0  0
  1  6  1  0  0  0  0
  1 21  1  0  0  0  0
  3  4  1  1  0  0  0
  3  8  1  0  0  0  0
  3 28  1  0  0  0  0
  5  9  1  0  0  0  0
  5 25  1  0  0  0  0
  5 29  1  6  0  0  0
  6  7  1  1  0  0  0
  6 11  1  0  0  0  0
  8 12  1  0  0  0  0
  9 10  1  1  0  0  0
  9 14  1  0  0  0  0
 11 16  1  0  0  0  0
 12 13  1  6  0  0  0
 12 17  1  0  0  0  0
 14 15  1  1  0  0  0
 14 18  1  0  0  0  0
 15 31  1  0  0  0  0
 16 20  1  0  0  0  0
 17  2  1  6  0  0  0
 17 22  1  0  0  0  0
 18 19  1  1  0  0  0
 18 24  1  0  0  0  0
 18 30  1  0  0  0  0
 20 21  1  0  0  0  0
 20 26  1  1  0  0  0
 22 23  1  6  0  0  0
 22 28  1  0  0  0  0
 24 25  1  0  0  0  0
 26 27  1  0  0  0  0
 28 29  1  1  0  0  0
M  END
>  <CHROM.1>
-174.36772173,-163.20109029,-89.80792192,-138.47587922,131.25318706,85.76583686
22.03260828,-11.39674433,-3.47635046,-2.44940272,-0.77936479,1.91802300

>  <Name>
ligand

>  <RI>
0

>  <Rbt.Current_Directory>
/home/itssahil/PROJECTS/Mol_Feturizer/New_Systems/rnas/4F8V

>  <Rbt.Executable>
rbdock ($Id: //depot/dev/client3/rdock/2013.1/src/exe/rbdock.cxx#4 $)

>  <Rbt.Library>
libRbt.so (2013.1, Build901 2013/11/27)

>  <Rbt.Parameter_File>
/export/apps/rDock/src/rDock_2013.1_src/data/scripts/dock_solv.prm

>  <Rbt.Receptor>
prm/pocket_docking_4.prm

>  <SCORE>
-14.3769

>  <SCORE.INTER>
-13.1544

>  <SCORE.INTER.CONST>
1

>  <SCORE.INTER.POLAR>
0

>  <SCORE.INTER.ROT>
6

>  <SCORE.INTER.SOLV>
23.8706

>  <SCORE.INTER.VDW>
-24.3265

>  <SCORE.INTER.norm>
-0.424335

>  <SCORE.INTRA>
-1.22246

>  <SCORE.INTRA.DIHEDRAL>
-3.56315

>  <SCORE.INTRA.DIHEDRAL.0>
15.9129

>  <SCORE.INTRA.POLAR>
0

>  <SCORE.INTRA.POLAR.0>
0

>  <SCORE.INTRA.REPUL>
0

>  <SCORE.INTRA.REPUL.0>
0

>  <SCORE.INTRA.SOLV>
0.233191

>  <SCORE.INTRA.SOLV.lig_0>
-75.7056

>  <SCORE.INTRA.VDW>
0.442517

>  <SCORE.INTRA.VDW.0>
-4.61812

>  <SCORE.INTRA.norm>
-0.0394343

>  <SCORE.RESTR>
0

>  <SCORE.RESTR.CAVITY>
0

>  <SCORE.RESTR.norm>
0

>  <SCORE.SYSTEM>
0

>  <SCORE.SYSTEM.CONST>
0

>  <SCORE.SYSTEM.DIHEDRAL>
0

>  <SCORE.SYSTEM.SOLV>
0

>  <SCORE.SYSTEM.norm>
0

>  <SCORE.heavy>
31

>  <SCORE.norm>
-0.46377

>  <RMSD>
0.654

$$$$
ligand
 OpenBabel11021811493D
libRbt.so/2013.1/901 2013/11/27
 31 33  0  0  0  0  0  0  0  0999 V2000
   20.7927   -9.4198   -5.8908 C   0  0  2  0  0  0  0  0  0  0  0  0
   21.1425   -8.9623   -4.5774 O   0  0  0  0  0  0  0  0  0  0  0  0
   21.6231  -10.8928   -0.8050 C   0  0  2  0  0  0  0  0  0  0  0  0
   21.3622  -11.7462    0.3047 N   0  0  0  0  0  0  0  0  0  0  0  0
   22.6434  -13.9565   -1.3055 C   0  0  2  0  0  0  0  0  0  0  0  0
   21.4443   -8.4297   -6.9051 C   0  0  2  0  0  0  0  0  0  0  0  0
   22.8871   -8.3952   -6.6740 N   0  0  0  0  0  0  0  0  0  0  0  0
   20.4541   -9.8465   -0.9405 C   0  0  0  0  0  0  0  0  0  0  0  0
   24.0894  -14.3146   -0.8681 C   0  0  2  0  0  0  0  0  0  0  0  0
   24.5721  -13.2922   -0.0267 O   0  0  0  0  0  0  0  0  0  0  0  0
   20.7997   -6.9974   -6.7618 C   0  0  0  0  0  0  0  0  0  0  0  0
   20.7477   -8.8995   -2.1745 C   0  0  2  0  0  0  0  0  0  0  0  0
   19.6520   -7.9178   -2.3082 N   0  0  0  0  0  0  0  0  0  0  0  0
   24.9742  -14.4575   -2.1697 C   0  0  1  0  0  0  0  0  0  0  0  0
   26.3809  -14.7801   -1.7980 N   0  0  0  0  0  0  0  0  0  0  0  0
   19.2860   -7.0473   -6.3409 C   0  0  0  0  0  0  0  0  0  0  0  0
   20.8613   -9.7843   -3.4882 C   0  0  2  0  0  0  0  0  0  0  0  0
   24.3759  -15.6469   -3.1067 C   0  0  1  0  0  0  0  0  0  0  0  0
   24.3789  -16.9025   -2.4726 O   0  0  0  0  0  0  0  0  0  0  0  0
   18.6790   -8.2079   -6.0513 C   0  0  1  0  0  0  0  0  0  0  0  0
   19.3571   -9.4471   -6.1125 O   0  0  0  0  0  0  0  0  0  0  0  0
   22.0204  -10.8324   -3.3187 C   0  0  2  0  0  0  0  0  0  0  0  0
   22.1074  -11.6297   -4.4982 O   0  0  0  0  0  0  0  0  0  0  0  0
   22.9016  -15.3011   -3.4819 C   0  0  0  0  0  0  0  0  0  0  0  0
   22.0949  -15.0129   -2.2318 O   0  0  0  0  0  0  0  0  0  0  0  0
   17.2014   -8.2932   -5.6214 C   0  0  0  0  0  0  0  0  0  0  0  0
   16.7777   -6.9930   -5.1500 N   0  0  0  0  0  0  0  0  0  0  0  0
   21.7132  -11.7565   -2.0803 C   0  0  1  0  0  0  0  0  0  0  0  0
   22.7630  -12.6693   -1.9475 O   0  0  0  0  0  0  0  0  0  0  0  0
   25.1321  -15.9102   -4.4167 C   0  0  0  0  0  0  0  0  0  0  0  0
   27.2847  -13.6330   -1.6216 C   0  0  0  0  0  0  0  0  0  0  0  0
  1  2  1  1  0  0  0
  1  6  1  0  0  0  0
  1 21  1  0  0  0  0
  3  4  1  1  0  0  0
  3  8  1  0  0  0  0
  3 28  1  0  0  0  0
  5  9  1  0  0  0  0
  5 25  1  0  0  0  0
  5 29  1  6  0  0  0
  6  7  1  1  0  0  0
  6 11  1  0  0  0  0
  8 12  1  0  0  0  0
  9 10  1  1  0  0  0
  9 14  1  0  0  0  0
 11 16  1  0  0  0  0
 12 13  1  6  0  0  0
 12 17  1  0  0  0  0
 14 15  1  1  0  0  0
 14 18  1  0  0  0  0
 15 31  1  0  0  0  0
 16 20  1  0  0  0  0
 17  2  1  6  0  0  0
 17 22  1  0  0  0  0
 18 19  1  1  0  0  0
 18 24  1  0  0  0  0
 18 30  1  0  0  0  0
 20 21  1  0  0  0  0
 20 26  1  1  0  0  0
 22 23  1  6  0  0  0
 22 28  1  0  0  0  0
 24 25  1  0  0  0  0
 26 27  1  0  0  0  0
 28 29  1  1  0  0  0
M  END
>  <CHROM.1>
-170.18369143,-156.67004303,-91.60398136,-156.40183469,-19.65101282,85.63275858
21.97693406,-11.37823310,-3.37842647,-2.54682626,-0.82969442,1.83785792

>  <Name>
ligand

>  <RI>
0

>  <Rbt.Current_Directory>
/home/itssahil/PROJECTS/Mol_Feturizer/New_Systems/rnas/4F8V

>  <Rbt.Executable>
rbdock ($Id: //depot/dev/client3/rdock/2013.1/src/exe/rbdock.cxx#4 $)

>  <Rbt.Library>
libRbt.so (2013.1, Build901 2013/11/27)

>  <Rbt.Parameter_File>
/export/apps/rDock/src/rDock_2013.1_src/data/scripts/dock_solv.prm

>  <Rbt.Receptor>
prm/pocket_docking_4.prm

>  <SCORE>
-16.3495

>  <SCORE.INTER>
-15.0746

>  <SCORE.INTER.CONST>
1

>  <SCORE.INTER.POLAR>
0

>  <SCORE.INTER.ROT>
6

>  <SCORE.INTER.SOLV>
18.4749

>  <SCORE.INTER.VDW>
-23.808

>  <SCORE.INTER.norm>
-0.486276

>  <SCORE.INTRA>
-1.27495

>  <SCORE.INTRA.DIHEDRAL>
-5.08559

>  <SCORE.INTRA.DIHEDRAL.0>
15.9129

>  <SCORE.INTRA.POLAR>
0

>  <SCORE.INTRA.POLAR.0>
0

>  <SCORE.INTRA.REPUL>
0

>  <SCORE.INTRA.REPUL.0>
0

>  <SCORE.INTRA.SOLV>
-0.603663

>  <SCORE.INTRA.SOLV.lig_0>
-75.7056

>  <SCORE.INTRA.VDW>
1.56967

>  <SCORE.INTRA.VDW.0>
-4.61812

>  <SCORE.INTRA.norm>
-0.0411274

>  <SCORE.RESTR>
0

>  <SCORE.RESTR.CAVITY>
0

>  <SCORE.RESTR.norm>
0

>  <SCORE.SYSTEM>
0

>  <SCORE.SYSTEM.CONST>
0

>  <SCORE.SYSTEM.DIHEDRAL>
0

>  <SCORE.SYSTEM.SOLV>
0

>  <SCORE.SYSTEM.norm>
0

>  <SCORE.heavy>
31

>  <SCORE.norm>
-0.527404

>  <RMSD>
0.656

$$$$
ligand
 OpenBabel11021811493D
libRbt.so/2013.1/901 2013/11/27
 31 33  0  0  0  0  0  0  0  0999 V2000
   20.8040   -9.4362   -5.9097 C   0  0  2  0  0  0  0  0  0  0  0  0
   21.1762   -8.9799   -4.6022 O   0  0  0  0  0  0  0  0  0  0  0  0
   21.6455  -10.8746   -0.8103 C   0  0  2  0  0  0  0  0  0  0  0  0
   21.3818  -11.7183    0.3063 N   0  0  0  0  0  0  0  0  0  0  0  0
   22.6611  -13.9626   -1.3255 C   0  0  2  0  0  0  0  0  0  0  0  0
   21.4727   -8.4696   -6.9355 C   0  0  2  0  0  0  0  0  0  0  0  0
   22.9177   -8.4711   -6.7163 N   0  0  0  0  0  0  0  0  0  0  0  0
   20.4751   -9.8318   -0.9600 C   0  0  0  0  0  0  0  0  0  0  0  0
   24.0963  -14.3276   -0.8592 C   0  0  2  0  0  0  0  0  0  0  0  0
   24.5533  -13.3252    0.0199 O   0  0  0  0  0  0  0  0  0  0  0  0
   20.8665   -7.0202   -6.7961 C   0  0  0  0  0  0  0  0  0  0  0  0
   20.7718   -8.8957   -2.2014 C   0  0  2  0  0  0  0  0  0  0  0  0
   19.6749   -7.9173   -2.3485 N   0  0  0  0  0  0  0  0  0  0  0  0
   25.0154  -14.4355   -2.1401 C   0  0  1  0  0  0  0  0  0  0  0  0
   26.4130  -14.7635   -1.7396 N   0  0  0  0  0  0  0  0  0  0  0  0
   19.3555   -7.0282   -6.3627 C   0  0  0  0  0  0  0  0  0  0  0  0
   20.8923   -9.7923   -3.5065 C   0  0  2  0  0  0  0  0  0  0  0  0
   24.4460  -15.6027   -3.1219 C   0  0  1  0  0  0  0  0  0  0  0  0
   24.4367  -16.8738   -2.5194 O   0  0  0  0  0  0  0  0  0  0  0  0
   18.7211   -8.1709   -6.0609 C   0  0  1  0  0  0  0  0  0  0  0  0
   19.3663   -9.4276   -6.1197 O   0  0  0  0  0  0  0  0  0  0  0  0
   22.0526  -10.8366   -3.3228 C   0  0  2  0  0  0  0  0  0  0  0  0
   22.1457  -11.6446   -4.4946 O   0  0  0  0  0  0  0  0  0  0  0  0
   22.9810  -15.2517   -3.5271 C   0  0  0  0  0  0  0  0  0  0  0  0
   22.1407  -14.9971   -2.2919 O   0  0  0  0  0  0  0  0  0  0  0  0
   17.2453   -8.2152   -5.6186 C   0  0  0  0  0  0  0  0  0  0  0  0
   16.8627   -6.9045   -5.1411 N   0  0  0  0  0  0  0  0  0  0  0  0
   21.7422  -11.7498   -2.0772 C   0  0  1  0  0  0  0  0  0  0  0  0
   22.7932  -12.6594   -1.9318 O   0  0  0  0  0  0  0  0  0  0  0  0
   25.2373  -15.8311   -4.4177 C   0  0  0  0  0  0  0  0  0  0  0  0
   27.3236  -13.6211   -1.5675 C   0  0  0  0  0  0  0  0  0  0  0  0
  1  2  1  1  0  0  0
  1  6  1  0  0  0  0
  1 21  1  0  0  0  0
  3  4  1  1  0  0  0
  3  8  1  0  0  0  0
  3 28  1  0  0  0  0
  5  9  1  0  0  0  0
  5 25  1  0  0  0  0
  5 29  1  6  0  0  0
  6  7  1  1  0  0  0
  6 11  1  0  0  0  0
  8 12  1  0  0  0  0
  9 10  1  1  0  0  0
  9 14  1  0  0  0  0
 11 16  1  0  0  0  0
 12 13  1  6  0  0  0
 12 17  1  0  0  0  0
 14 15  1  1  0  0  0
 14 18  1  0  0  0  0
 15 31  1  0  0  0  0
 16 20  1  0  0  0  0
 17  2  1  6  0  0  0
 17 22  1  0  0  0  0
 18 19  1  1  0  0  0
 18 24  1  0  0  0  0
 18 30  1  0  0  0  0
 20 21  1  0  0  0  0
 20 26  1  1  0  0  0
 22 23  1  6  0  0  0
 22 28  1  0  0  0  0
 24 25  1  0  0  0  0
 26 27  1  0  0  0  0
 28 29  1  1  0  0  0
M  END
>  <CHROM.1>
-169.68681825,-157.09652367,-94.15132412,-154.95238486,-20.14490004,88.18763158
22.01458421,-11.36729034,-3.38663133,-2.54665660,-0.82843343,1.83554534

>  <Name>
ligand

>  <RI>
0

>  <Rbt.Current_Directory>
/home/itssahil/PROJECTS/Mol_Feturizer/New_Systems/rnas/4F8V

>  <Rbt.Executable>
rbdock ($Id: //depot/dev/client3/rdock/2013.1/src/exe/rbdock.cxx#4 $)

>  <Rbt.Library>
libRbt.so (2013.1, Build901 2013/11/27)

>  <Rbt.Parameter_File>
/export/apps/rDock/src/rDock_2013.1_src/data/scripts/dock_solv.prm

>  <Rbt.Receptor>
prm/pocket_docking_6.prm

>  <SCORE>
-16.3295

>  <SCORE.INTER>
-15.3788

>  <SCORE.INTER.CONST>
1

>  <SCORE.INTER.POLAR>
0

>  <SCORE.INTER.ROT>
6

>  <SCORE.INTER.SOLV>
18.0034

>  <SCORE.INTER.VDW>
-23.8537

>  <SCORE.INTER.norm>
-0.496091

>  <SCORE.INTRA>
-0.950698

>  <SCORE.INTRA.DIHEDRAL>
-4.27752

>  <SCORE.INTRA.DIHEDRAL.0>
15.9129

>  <SCORE.INTRA.POLAR>
0

>  <SCORE.INTRA.POLAR.0>
0

>  <SCORE.INTRA.REPUL>
0

>  <SCORE.INTRA.REPUL.0>
0

>  <SCORE.INTRA.SOLV>
-0.463813

>  <SCORE.INTRA.SOLV.lig_0>
-75.7056

>  <SCORE.INTRA.VDW>
1.41997

>  <SCORE.INTRA.VDW.0>
-4.61812

>  <SCORE.INTRA.norm>
-0.0306677

>  <SCORE.RESTR>
0

>  <SCORE.RESTR.CAVITY>
0

>  <SCORE.RESTR.norm>
0

>  <SCORE.SYSTEM>
0

>  <SCORE.SYSTEM.CONST>
0

>  <SCORE.SYSTEM.DIHEDRAL>
0

>  <SCORE.SYSTEM.SOLV>
0

>  <SCORE.SYSTEM.norm>
0

>  <SCORE.heavy>
31

>  <SCORE.norm>
-0.526759

>  <RMSD>
0.658

$$$$
ligand
 OpenBabel11021811493D
libRbt.so/2013.1/901 2013/11/27
 31 33  0  0  0  0  0  0  0  0999 V2000
   20.7540   -9.4486   -5.9548 C   0  0  2  0  0  0  0  0  0  0  0  0
   21.1474   -9.0003   -4.6507 O   0  0  0  0  0  0  0  0  0  0  0  0
   21.6350  -10.9038   -0.8655 C   0  0  2  0  0  0  0  0  0  0  0  0
   21.3747  -11.7471    0.2521 N   0  0  0  0  0  0  0  0  0  0  0  0
   22.6394  -13.9718   -1.3362 C   0  0  2  0  0  0  0  0  0  0  0  0
   21.4040   -8.4743   -6.9853 C   0  0  2  0  0  0  0  0  0  0  0  0
   22.8524   -8.4749   -6.7903 N   0  0  0  0  0  0  0  0  0  0  0  0
   20.4712   -9.8521   -1.0038 C   0  0  0  0  0  0  0  0  0  0  0  0
   24.0837  -14.3193   -0.8848 C   0  0  2  0  0  0  0  0  0  0  0  0
   24.5596  -13.2816   -0.0582 O   0  0  0  0  0  0  0  0  0  0  0  0
   20.7981   -7.0267   -6.8263 C   0  0  0  0  0  0  0  0  0  0  0  0
   20.7642   -8.9165   -2.2465 C   0  0  2  0  0  0  0  0  0  0  0  0
   19.6732   -7.9298   -2.3829 N   0  0  0  0  0  0  0  0  0  0  0  0
   24.9760  -14.4823   -2.1788 C   0  0  1  0  0  0  0  0  0  0  0  0
   26.3812  -14.7956   -1.7939 N   0  0  0  0  0  0  0  0  0  0  0  0
   19.2946   -7.0399   -6.3677 C   0  0  0  0  0  0  0  0  0  0  0  0
   20.8668   -9.8121   -3.5538 C   0  0  2  0  0  0  0  0  0  0  0  0
   24.3854  -15.6888   -3.0988 C   0  0  1  0  0  0  0  0  0  0  0  0
   24.3875  -16.9334   -2.4434 O   0  0  0  0  0  0  0  0  0  0  0  0
   18.6670   -8.1855   -6.0629 C   0  0  1  0  0  0  0  0  0  0  0  0
   19.3130   -9.4408   -6.1407 O   0  0  0  0  0  0  0  0  0  0  0  0
   22.0210  -10.8652   -3.3814 C   0  0  2  0  0  0  0  0  0  0  0  0
   22.0981  -11.6722   -4.5550 O   0  0  0  0  0  0  0  0  0  0  0  0
   22.9125  -15.3525   -3.4880 C   0  0  0  0  0  0  0  0  0  0  0  0
   22.0983  -15.0450   -2.2474 O   0  0  0  0  0  0  0  0  0  0  0  0
   17.1989   -8.2350   -5.5962 C   0  0  0  0  0  0  0  0  0  0  0  0
   16.8242   -6.9296   -5.0984 N   0  0  0  0  0  0  0  0  0  0  0  0
   21.7145  -11.7779   -2.1344 C   0  0  1  0  0  0  0  0  0  0  0  0
   22.7599  -12.6954   -1.9993 O   0  0  0  0  0  0  0  0  0  0  0  0
   25.1494  -15.9726   -4.3999 C   0  0  0  0  0  0  0  0  0  0  0  0
   27.2824  -13.6439   -1.6349 C   0  0  0  0  0  0  0  0  0  0  0  0
  1  2  1  1  0  0  0
  1  6  1  0  0  0  0
  1 21  1  0  0  0  0
  3  4  1  1  0  0  0
  3  8  1  0  0  0  0
  3 28  1  0  0  0  0
  5  9  1  0  0  0  0
  5 25  1  0  0  0  0
  5 29  1  6  0  0  0
  6  7  1  1  0  0  0
  6 11  1  0  0  0  0
  8 12  1  0  0  0  0
  9 10  1  1  0  0  0
  9 14  1  0  0  0  0
 11 16  1  0  0  0  0
 12 13  1  6  0  0  0
 12 17  1  0  0  0  0
 14 15  1  1  0  0  0
 14 18  1  0  0  0  0
 15 31  1  0  0  0  0
 16 20  1  0  0  0  0
 17  2  1  6  0  0  0
 17 22  1  0  0  0  0
 18 19  1  1  0  0  0
 18 24  1  0  0  0  0
 18 30  1  0  0  0  0
 20 21  1  0  0  0  0
 20 26  1  1  0  0  0
 22 23  1  6  0  0  0
 22 28  1  0  0  0  0
 24 25  1  0  0  0  0
 26 27  1  0  0  0  0
 28 29  1  1  0  0  0
M  END
>  <CHROM.1>
-170.53966700,-155.58416187,-91.73092523,-154.61002985,-20.38964952,85.05322575
21.97643146,-11.39571175,-3.41246054,-2.54650853,-0.83213688,1.83639638

>  <Name>
ligand

>  <RI>
0

>  <Rbt.Current_Directory>
/home/itssahil/PROJECTS/Mol_Feturizer/New_Systems/rnas/4F8V

>  <Rbt.Executable>
rbdock ($Id: //depot/dev/client3/rdock/2013.1/src/exe/rbdock.cxx#4 $)

>  <Rbt.Library>
libRbt.so (2013.1, Build901 2013/11/27)

>  <Rbt.Parameter_File>
/export/apps/rDock/src/rDock_2013.1_src/data/scripts/dock_solv.prm

>  <Rbt.Receptor>
prm/pocket_docking_6.prm

>  <SCORE>
-16.3201

>  <SCORE.INTER>
-15.3397

>  <SCORE.INTER.CONST>
1

>  <SCORE.INTER.POLAR>
0

>  <SCORE.INTER.ROT>
6

>  <SCORE.INTER.SOLV>
18.1771

>  <SCORE.INTER.VDW>
-23.8855

>  <SCORE.INTER.norm>
-0.494828

>  <SCORE.INTRA>
-0.980383

>  <SCORE.INTRA.DIHEDRAL>
-4.66995

>  <SCORE.INTRA.DIHEDRAL.0>
15.9129

>  <SCORE.INTRA.POLAR>
0

>  <SCORE.INTRA.POLAR.0>
0

>  <SCORE.INTRA.REPUL>
0

>  <SCORE.INTRA.REPUL.0>
0

>  <SCORE.INTRA.SOLV>
-0.332212

>  <SCORE.INTRA.SOLV.lig_0>
-75.7056

>  <SCORE.INTRA.VDW>
1.5207

>  <SCORE.INTRA.VDW.0>
-4.61812

>  <SCORE.INTRA.norm>
-0.0316253

>  <SCORE.RESTR>
0

>  <SCORE.RESTR.CAVITY>
0

>  <SCORE.RESTR.norm>
0

>  <SCORE.SYSTEM>
0

>  <SCORE.SYSTEM.CONST>
0

>  <SCORE.SYSTEM.DIHEDRAL>
0

>  <SCORE.SYSTEM.SOLV>
0

>  <SCORE.SYSTEM.norm>
0

>  <SCORE.heavy>
31

>  <SCORE.norm>
-0.526454

>  <RMSD>
0.663

$$$$
ligand
 OpenBabel11021811493D
libRbt.so/2013.1/901 2013/11/27
 31 33  0  0  0  0  0  0  0  0999 V2000
   20.8515   -9.4031   -5.9322 C   0  0  2  0  0  0  0  0  0  0  0  0
   21.2033   -8.9584   -4.6150 O   0  0  0  0  0  0  0  0  0  0  0  0
   21.6465  -10.9096   -0.8487 C   0  0  2  0  0  0  0  0  0  0  0  0
   21.3733  -11.7672    0.2548 N   0  0  0  0  0  0  0  0  0  0  0  0
   22.6544  -13.9788   -1.3636 C   0  0  2  0  0  0  0  0  0  0  0  0
   21.5079   -8.4075   -6.9380 C   0  0  2  0  0  0  0  0  0  0  0  0
   22.9507   -8.3818   -6.7067 N   0  0  0  0  0  0  0  0  0  0  0  0
   20.4835   -9.8571   -0.9877 C   0  0  0  0  0  0  0  0  0  0  0  0
   24.0916  -14.3416   -0.9018 C   0  0  2  0  0  0  0  0  0  0  0  0
   24.5585  -13.3272   -0.0420 O   0  0  0  0  0  0  0  0  0  0  0  0
   20.8700   -6.9733   -6.7826 C   0  0  0  0  0  0  0  0  0  0  0  0
   20.7908   -8.9055   -2.2148 C   0  0  2  0  0  0  0  0  0  0  0  0
   19.7007   -7.9180   -2.3519 N   0  0  0  0  0  0  0  0  0  0  0  0
   25.0011  -14.4731   -2.1874 C   0  0  1  0  0  0  0  0  0  0  0  0
   26.4003  -14.7998   -1.7918 N   0  0  0  0  0  0  0  0  0  0  0  0
   19.3561   -7.0197   -6.3621 C   0  0  0  0  0  0  0  0  0  0  0  0
   20.9102   -9.7844   -3.5320 C   0  0  2  0  0  0  0  0  0  0  0  0
   24.4205  -15.6535   -3.1466 C   0  0  1  0  0  0  0  0  0  0  0  0
   24.4110  -16.9149   -2.5241 O   0  0  0  0  0  0  0  0  0  0  0  0
   18.7435   -8.1798   -6.0825 C   0  0  1  0  0  0  0  0  0  0  0  0
   19.4157   -9.4216   -6.1542 O   0  0  0  0  0  0  0  0  0  0  0  0
   22.0631  -10.8387   -3.3589 C   0  0  2  0  0  0  0  0  0  0  0  0
   22.1552  -11.6307   -4.5417 O   0  0  0  0  0  0  0  0  0  0  0  0
   22.9539  -15.3035   -3.5468 C   0  0  0  0  0  0  0  0  0  0  0  0
   22.1234  -15.0264   -2.3098 O   0  0  0  0  0  0  0  0  0  0  0  0
   17.2655   -8.2617   -5.6533 C   0  0  0  0  0  0  0  0  0  0  0  0
   16.8605   -6.9755   -5.1299 N   0  0  0  0  0  0  0  0  0  0  0  0
   21.7423  -11.7674   -2.1275 C   0  0  1  0  0  0  0  0  0  0  0  0
   22.7868  -12.6858   -1.9913 O   0  0  0  0  0  0  0  0  0  0  0  0
   25.2016  -15.9052   -4.4442 C   0  0  0  0  0  0  0  0  0  0  0  0
   27.2933  -13.6541   -1.5600 C   0  0  0  0  0  0  0  0  0  0  0  0
  1  2  1  1  0  0  0
  1  6  1  0  0  0  0
  1 21  1  0  0  0  0
  3  4  1  1  0  0  0
  3  8  1  0  0  0  0
  3 28  1  0  0  0  0
  5  9  1  0  0  0  0
  5 25  1  0  0  0  0
  5 29  1  6  0  0  0
  6  7  1  1  0  0  0
  6 11  1  0  0  0  0
  8 12  1  0  0  0  0
  9 10  1  1  0  0  0
  9 14  1  0  0  0  0
 11 16  1  0  0  0  0
 12 13  1  6  0  0  0
 12 17  1  0  0  0  0
 14 15  1  1  0  0  0
 14 18  1  0  0  0  0
 15 31  1  0  0  0  0
 16 20  1  0  0  0  0
 17  2  1  6  0  0  0
 17 22  1  0  0  0  0
 18 19  1  1  0  0  0
 18 24  1  0  0  0  0
 18 30  1  0  0  0  0
 20 21  1  0  0  0  0
 20 26  1  1  0  0  0
 22 23  1  6  0  0  0
 22 28  1  0  0  0  0
 24 25  1  0  0  0  0
 26 27  1  0  0  0  0
 28 29  1  1  0  0  0
M  END
>  <CHROM.1>
-170.60417584,-156.19867615,-90.35784062,-155.90202788,-21.51187220,86.01119218
22.01828303,-11.37997037,-3.41168996,-2.53661452,-0.83104663,1.85028382

>  <Name>
ligand

>  <RI>
0

>  <Rbt.Current_Directory>
/home/itssahil/PROJECTS/Mol_Feturizer/New_Systems/rnas/4F8V

>  <Rbt.Executable>
rbdock ($Id: //depot/dev/client3/rdock/2013.1/src/exe/rbdock.cxx#4 $)

>  <Rbt.Library>
libRbt.so (2013.1, Build901 2013/11/27)

>  <Rbt.Parameter_File>
/export/apps/rDock/src/rDock_2013.1_src/data/scripts/dock_solv.prm

>  <Rbt.Receptor>
prm/pocket_docking_6.prm

>  <SCORE>
-16.4013

>  <SCORE.INTER>
-15.2839

>  <SCORE.INTER.CONST>
1

>  <SCORE.INTER.POLAR>
0

>  <SCORE.INTER.ROT>
6

>  <SCORE.INTER.SOLV>
18.0456

>  <SCORE.INTER.VDW>
-23.8045

>  <SCORE.INTER.norm>
-0.493029

>  <SCORE.INTRA>
-1.11737

>  <SCORE.INTRA.DIHEDRAL>
-4.83784

>  <SCORE.INTRA.DIHEDRAL.0>
15.9129

>  <SCORE.INTRA.POLAR>
0

>  <SCORE.INTRA.POLAR.0>
0

>  <SCORE.INTRA.REPUL>
0

>  <SCORE.INTRA.REPUL.0>
0

>  <SCORE.INTRA.SOLV>
-0.482546

>  <SCORE.INTRA.SOLV.lig_0>
-75.7056

>  <SCORE.INTRA.VDW>
1.54283

>  <SCORE.INTRA.VDW.0>
-4.61812

>  <SCORE.INTRA.norm>
-0.0360441

>  <SCORE.RESTR>
0

>  <SCORE.RESTR.CAVITY>
0

>  <SCORE.RESTR.norm>
0

>  <SCORE.SYSTEM>
0

>  <SCORE.SYSTEM.CONST>
0

>  <SCORE.SYSTEM.DIHEDRAL>
0

>  <SCORE.SYSTEM.SOLV>
0

>  <SCORE.SYSTEM.norm>
0

>  <SCORE.heavy>
31

>  <SCORE.norm>
-0.529073

>  <RMSD>
0.666

$$$$
ligand
 OpenBabel11021811493D
libRbt.so/2013.1/901 2013/11/27
 31 33  0  0  0  0  0  0  0  0999 V2000
   20.8557   -9.4191   -5.8980 C   0  0  2  0  0  0  0  0  0  0  0  0
   21.2039   -8.9698   -4.5814 O   0  0  0  0  0  0  0  0  0  0  0  0
   21.6453  -10.9054   -0.8069 C   0  0  2  0  0  0  0  0  0  0  0  0
   21.3733  -11.7610    0.2986 N   0  0  0  0  0  0  0  0  0  0  0  0
   22.6719  -13.9738   -1.3157 C   0  0  2  0  0  0  0  0  0  0  0  0
   21.5111   -8.4246   -6.9054 C   0  0  2  0  0  0  0  0  0  0  0  0
   22.9535   -8.3942   -6.6716 N   0  0  0  0  0  0  0  0  0  0  0  0
   20.4763   -9.8606   -0.9538 C   0  0  0  0  0  0  0  0  0  0  0  0
   24.1076  -14.3278   -0.8425 C   0  0  2  0  0  0  0  0  0  0  0  0
   24.5600  -13.3123    0.0237 O   0  0  0  0  0  0  0  0  0  0  0  0
   20.8690   -6.9918   -6.7552 C   0  0  0  0  0  0  0  0  0  0  0  0
   20.7822   -8.9113   -2.1829 C   0  0  2  0  0  0  0  0  0  0  0  0
   19.6865   -7.9311   -2.3274 N   0  0  0  0  0  0  0  0  0  0  0  0
   25.0289  -14.4499   -2.1205 C   0  0  1  0  0  0  0  0  0  0  0  0
   26.4269  -14.7680   -1.7137 N   0  0  0  0  0  0  0  0  0  0  0  0
   19.3544   -7.0411   -6.3373 C   0  0  0  0  0  0  0  0  0  0  0  0
   20.9119   -9.7939   -3.4967 C   0  0  2  0  0  0  0  0  0  0  0  0
   24.4648  -15.6320   -3.0875 C   0  0  1  0  0  0  0  0  0  0  0  0
   24.4586  -16.8949   -2.4681 O   0  0  0  0  0  0  0  0  0  0  0  0
   18.7446   -8.2021   -6.0555 C   0  0  1  0  0  0  0  0  0  0  0  0
   19.4204   -9.4423   -6.1225 O   0  0  0  0  0  0  0  0  0  0  0  0
   22.0706  -10.8404   -3.3158 C   0  0  2  0  0  0  0  0  0  0  0  0
   22.1720  -11.6359   -4.4955 O   0  0  0  0  0  0  0  0  0  0  0  0
   22.9992  -15.2910   -3.4995 C   0  0  0  0  0  0  0  0  0  0  0  0
   22.1563  -15.0227   -2.2690 O   0  0  0  0  0  0  0  0  0  0  0  0
   17.2661   -8.2869   -5.6287 C   0  0  0  0  0  0  0  0  0  0  0  0
   16.8279   -6.9754   -5.2042 N   0  0  0  0  0  0  0  0  0  0  0  0
   21.7510  -11.7670   -2.0824 C   0  0  1  0  0  0  0  0  0  0  0  0
   22.8007  -12.6784   -1.9392 O   0  0  0  0  0  0  0  0  0  0  0  0
   25.2587  -15.8751   -4.3790 C   0  0  0  0  0  0  0  0  0  0  0  0
   27.3250  -13.6184   -1.5244 C   0  0  0  0  0  0  0  0  0  0  0  0
  1  2  1  1  0  0  0
  1  6  1  0  0  0  0
  1 21  1  0  0  0  0
  3  4  1  1  0  0  0
  3  8  1  0  0  0  0
  3 28  1  0  0  0  0
  5  9  1  0  0  0  0
  5 25  1  0  0  0  0
  5 29  1  6  0  0  0
  6  7  1  1  0  0  0
  6 11  1  0  0  0  0
  8 12  1  0  0  0  0
  9 10  1  1  0  0  0
  9 14  1  0  0  0  0
 11 16  1  0  0  0  0
 12 13  1  6  0  0  0
 12 17  1  0  0  0  0
 14 15  1  1  0  0  0
 14 18  1  0  0  0  0
 15 31  1  0  0  0  0
 16 20  1  0  0  0  0
 17  2  1  6  0  0  0
 17 22  1  0  0  0  0
 18 19  1  1  0  0  0
 18 24  1  0  0  0  0
 18 30  1  0  0  0  0
 20 21  1  0  0  0  0
 20 26  1  1  0  0  0
 22 23  1  6  0  0  0
 22 28  1  0  0  0  0
 24 25  1  0  0  0  0
 26 27  1  0  0  0  0
 28 29  1  1  0  0  0
M  END
>  <CHROM.1>
-170.56374835,-156.20945008,-92.74703081,-155.69683418,-17.24297733,86.45513233
22.02976952,-11.37894187,-3.37233864,-2.53332420,-0.82277276,1.85049562

>  <Name>
ligand

>  <RI>
0

>  <Rbt.Current_Directory>
/home/itssahil/PROJECTS/Mol_Feturizer/New_Systems/rnas/4F8V

>  <Rbt.Executable>
rbdock ($Id: //depot/dev/client3/rdock/2013.1/src/exe/rbdock.cxx#4 $)

>  <Rbt.Library>
libRbt.so (2013.1, Build901 2013/11/27)

>  <Rbt.Parameter_File>
/export/apps/rDock/src/rDock_2013.1_src/data/scripts/dock_solv.prm

>  <Rbt.Receptor>
prm/pocket_docking_4.prm

>  <SCORE>
-16.3697

>  <SCORE.INTER>
-15.2127

>  <SCORE.INTER.CONST>
1

>  <SCORE.INTER.POLAR>
0

>  <SCORE.INTER.ROT>
6

>  <SCORE.INTER.SOLV>
18.3571

>  <SCORE.INTER.VDW>
-23.8608

>  <SCORE.INTER.norm>
-0.490731

>  <SCORE.INTRA>
-1.15699

>  <SCORE.INTRA.DIHEDRAL>
-4.82406

>  <SCORE.INTRA.DIHEDRAL.0>
15.9129

>  <SCORE.INTRA.POLAR>
0

>  <SCORE.INTRA.POLAR.0>
0

>  <SCORE.INTRA.REPUL>
0

>  <SCORE.INTRA.REPUL.0>
0

>  <SCORE.INTRA.SOLV>
-0.570303

>  <SCORE.INTRA.SOLV.lig_0>
-75.7056

>  <SCORE.INTRA.VDW>
1.54019

>  <SCORE.INTRA.VDW.0>
-4.61812

>  <SCORE.INTRA.norm>
-0.0373224

>  <SCORE.RESTR>
0

>  <SCORE.RESTR.CAVITY>
0

>  <SCORE.RESTR.norm>
0

>  <SCORE.SYSTEM>
0

>  <SCORE.SYSTEM.CONST>
0

>  <SCORE.SYSTEM.DIHEDRAL>
0

>  <SCORE.SYSTEM.SOLV>
0

>  <SCORE.SYSTEM.norm>
0

>  <SCORE.heavy>
31

>  <SCORE.norm>
-0.528054

>  <RMSD>
0.680

$$$$
ligand
 OpenBabel11021811493D
libRbt.so/2013.1/901 2013/11/27
 31 33  0  0  0  0  0  0  0  0999 V2000
   20.8670   -9.4259   -5.9419 C   0  0  2  0  0  0  0  0  0  0  0  0
   21.2277   -8.9831   -4.6265 O   0  0  0  0  0  0  0  0  0  0  0  0
   21.6180  -10.8921   -0.8328 C   0  0  2  0  0  0  0  0  0  0  0  0
   21.3318  -11.7409    0.2743 N   0  0  0  0  0  0  0  0  0  0  0  0
   22.6607  -13.9580   -1.2985 C   0  0  2  0  0  0  0  0  0  0  0  0
   21.5152   -8.4278   -6.9507 C   0  0  2  0  0  0  0  0  0  0  0  0
   22.9596   -8.4010   -6.7295 N   0  0  0  0  0  0  0  0  0  0  0  0
   20.4489   -9.8512   -1.0040 C   0  0  0  0  0  0  0  0  0  0  0  0
   24.1023  -14.3313   -0.8594 C   0  0  2  0  0  0  0  0  0  0  0  0
   24.5932  -13.3162   -0.0138 O   0  0  0  0  0  0  0  0  0  0  0  0
   20.8769   -6.9946   -6.7882 C   0  0  0  0  0  0  0  0  0  0  0  0
   20.7707   -8.9095   -2.2349 C   0  0  2  0  0  0  0  0  0  0  0  0
   19.6750   -7.9328   -2.4021 N   0  0  0  0  0  0  0  0  0  0  0  0
   24.9883  -14.4786   -2.1596 C   0  0  1  0  0  0  0  0  0  0  0  0
   26.3911  -14.8158   -1.7862 N   0  0  0  0  0  0  0  0  0  0  0  0
   19.3660   -7.0433   -6.3571 C   0  0  0  0  0  0  0  0  0  0  0  0
   20.9216   -9.8006   -3.5406 C   0  0  2  0  0  0  0  0  0  0  0  0
   24.3805  -15.6592   -3.1016 C   0  0  1  0  0  0  0  0  0  0  0  0
   24.3703  -16.9168   -2.4715 O   0  0  0  0  0  0  0  0  0  0  0  0
   18.7567   -8.2045   -6.0751 C   0  0  1  0  0  0  0  0  0  0  0  0
   19.4297   -9.4455   -6.1538 O   0  0  0  0  0  0  0  0  0  0  0  0
   22.0800  -10.8431   -3.3356 C   0  0  2  0  0  0  0  0  0  0  0  0
   22.2005  -11.6462   -4.5083 O   0  0  0  0  0  0  0  0  0  0  0  0
   22.9104  -15.2981   -3.4786 C   0  0  0  0  0  0  0  0  0  0  0  0
   22.1040  -15.0062   -2.2291 O   0  0  0  0  0  0  0  0  0  0  0  0
   17.2819   -8.2888   -5.6357 C   0  0  0  0  0  0  0  0  0  0  0  0
   16.8713   -6.9963   -5.1326 N   0  0  0  0  0  0  0  0  0  0  0  0
   21.7444  -11.7621   -2.1008 C   0  0  1  0  0  0  0  0  0  0  0  0
   22.7939  -12.6700   -1.9361 O   0  0  0  0  0  0  0  0  0  0  0  0
   25.1368  -15.9256   -4.4110 C   0  0  0  0  0  0  0  0  0  0  0  0
   27.2934  -13.6767   -1.5580 C   0  0  0  0  0  0  0  0  0  0  0  0
  1  2  1  1  0  0  0
  1  6  1  0  0  0  0
  1 21  1  0  0  0  0
  3  4  1  1  0  0  0
  3  8  1  0  0  0  0
  3 28  1  0  0  0  0
  5  9  1  0  0  0  0
  5 25  1  0  0  0  0
  5 29  1  6  0  0  0
  6  7  1  1  0  0  0
  6 11  1  0  0  0  0
  8 12  1  0  0  0  0
  9 10  1  1  0  0  0
  9 14  1  0  0  0  0
 11 16  1  0  0  0  0
 12 13  1  6  0  0  0
 12 17  1  0  0  0  0
 14 15  1  1  0  0  0
 14 18  1  0  0  0  0
 15 31  1  0  0  0  0
 16 20  1  0  0  0  0
 17  2  1  6  0  0  0
 17 22  1  0  0  0  0
 18 19  1  1  0  0  0
 18 24  1  0  0  0  0
 18 30  1  0  0  0  0
 20 21  1  0  0  0  0
 20 26  1  1  0  0  0
 22 23  1  6  0  0  0
 22 28  1  0  0  0  0
 24 25  1  0  0  0  0
 26 27  1  0  0  0  0
 28 29  1  1  0  0  0
M  END
>  <CHROM.1>
-171.73280121,-158.51350588,-89.52135715,-154.02271614,-20.35021831,86.05759876
22.01474607,-11.38697002,-3.39523228,-2.52156357,-0.82478483,1.86267078

>  <Name>
ligand

>  <RI>
0

>  <Rbt.Current_Directory>
/home/itssahil/PROJECTS/Mol_Feturizer/New_Systems/rnas/4F8V

>  <Rbt.Executable>
rbdock ($Id: //depot/dev/client3/rdock/2013.1/src/exe/rbdock.cxx#4 $)

>  <Rbt.Library>
libRbt.so (2013.1, Build901 2013/11/27)

>  <Rbt.Parameter_File>
/export/apps/rDock/src/rDock_2013.1_src/data/scripts/dock_solv.prm

>  <Rbt.Receptor>
prm/pocket_docking_3.prm

>  <SCORE>
-16.3174

>  <SCORE.INTER>
-15.1603

>  <SCORE.INTER.CONST>
1

>  <SCORE.INTER.POLAR>
0

>  <SCORE.INTER.ROT>
6

>  <SCORE.INTER.SOLV>
18.0518

>  <SCORE.INTER.VDW>
-23.7241

>  <SCORE.INTER.norm>
-0.489042

>  <SCORE.INTRA>
-1.15705

>  <SCORE.INTRA.DIHEDRAL>
-5.06421

>  <SCORE.INTRA.DIHEDRAL.0>
15.9129

>  <SCORE.INTRA.POLAR>
0

>  <SCORE.INTRA.POLAR.0>
0

>  <SCORE.INTRA.REPUL>
0

>  <SCORE.INTRA.REPUL.0>
0

>  <SCORE.INTRA.SOLV>
-0.324018

>  <SCORE.INTRA.SOLV.lig_0>
-75.7056

>  <SCORE.INTRA.VDW>
1.53706

>  <SCORE.INTRA.VDW.0>
-4.61812

>  <SCORE.INTRA.norm>
-0.0373243

>  <SCORE.RESTR>
0

>  <SCORE.RESTR.CAVITY>
0

>  <SCORE.RESTR.norm>
0

>  <SCORE.SYSTEM>
0

>  <SCORE.SYSTEM.CONST>
0

>  <SCORE.SYSTEM.DIHEDRAL>
0

>  <SCORE.SYSTEM.SOLV>
0

>  <SCORE.SYSTEM.norm>
0

>  <SCORE.heavy>
31

>  <SCORE.norm>
-0.526366

>  <RMSD>
0.682

$$$$
ligand
 OpenBabel11021811493D
libRbt.so/2013.1/901 2013/11/27
 31 33  0  0  0  0  0  0  0  0999 V2000
   20.8862   -9.3853   -5.9762 C   0  0  2  0  0  0  0  0  0  0  0  0
   21.2424   -8.9617   -4.6533 O   0  0  0  0  0  0  0  0  0  0  0  0
   21.6230  -10.9336   -0.8909 C   0  0  2  0  0  0  0  0  0  0  0  0
   21.3320  -11.7979    0.2028 N   0  0  0  0  0  0  0  0  0  0  0  0
   22.6584  -13.9750   -1.3564 C   0  0  2  0  0  0  0  0  0  0  0  0
   21.5189   -8.3600   -6.9672 C   0  0  2  0  0  0  0  0  0  0  0  0
   22.9631   -8.3170   -6.7472 N   0  0  0  0  0  0  0  0  0  0  0  0
   20.4608   -9.8822   -1.0444 C   0  0  0  0  0  0  0  0  0  0  0  0
   24.1007  -14.3294   -0.9042 C   0  0  2  0  0  0  0  0  0  0  0  0
   24.5828  -13.2920   -0.0809 O   0  0  0  0  0  0  0  0  0  0  0  0
   20.8608   -6.9391   -6.7778 C   0  0  0  0  0  0  0  0  0  0  0  0
   20.7878   -8.9232   -2.2604 C   0  0  2  0  0  0  0  0  0  0  0  0
   19.6986   -7.9367   -2.4110 N   0  0  0  0  0  0  0  0  0  0  0  0
   24.9918  -14.5016   -2.1978 C   0  0  1  0  0  0  0  0  0  0  0  0
   26.3953  -14.8218   -1.8122 N   0  0  0  0  0  0  0  0  0  0  0  0
   19.3514   -7.0169   -6.3460 C   0  0  0  0  0  0  0  0  0  0  0  0
   20.9317   -9.7943   -3.5803 C   0  0  2  0  0  0  0  0  0  0  0  0
   24.3941  -15.7075   -3.1140 C   0  0  1  0  0  0  0  0  0  0  0  0
   24.3891  -16.9501   -2.4548 O   0  0  0  0  0  0  0  0  0  0  0  0
   18.7588   -8.1915   -6.0847 C   0  0  1  0  0  0  0  0  0  0  0  0
   19.4490   -9.4213   -6.1868 O   0  0  0  0  0  0  0  0  0  0  0  0
   22.0833  -10.8477   -3.3930 C   0  0  2  0  0  0  0  0  0  0  0  0
   22.1975  -11.6328   -4.5785 O   0  0  0  0  0  0  0  0  0  0  0  0
   22.9231  -15.3639   -3.5039 C   0  0  0  0  0  0  0  0  0  0  0  0
   22.1109  -15.0479   -2.2641 O   0  0  0  0  0  0  0  0  0  0  0  0
   17.2859   -8.3045   -5.6452 C   0  0  0  0  0  0  0  0  0  0  0  0
   16.8339   -7.0069   -5.1933 N   0  0  0  0  0  0  0  0  0  0  0  0
   21.7426  -11.7840   -2.1727 C   0  0  1  0  0  0  0  0  0  0  0  0
   22.7861  -12.7014   -2.0234 O   0  0  0  0  0  0  0  0  0  0  0  0
   25.1562  -15.9997   -4.4144 C   0  0  0  0  0  0  0  0  0  0  0  0
   27.2823  -13.6718   -1.5784 C   0  0  0  0  0  0  0  0  0  0  0  0
  1  2  1  1  0  0  0
  1  6  1  0  0  0  0
  1 21  1  0  0  0  0
  3  4  1  1  0  0  0
  3  8  1  0  0  0  0
  3 28  1  0  0  0  0
  5  9  1  0  0  0  0
  5 25  1  0  0  0  0
  5 29  1  6  0  0  0
  6  7  1  1  0  0  0
  6 11  1  0  0  0  0
  8 12  1  0  0  0  0
  9 10  1  1  0  0  0
  9 14  1  0  0  0  0
 11 16  1  0  0  0  0
 12 13  1  6  0  0  0
 12 17  1  0  0  0  0
 14 15  1  1  0  0  0
 14 18  1  0  0  0  0
 15 31  1  0  0  0  0
 16 20  1  0  0  0  0
 17  2  1  6  0  0  0
 17 22  1  0  0  0  0
 18 19  1  1  0  0  0
 18 24  1  0  0  0  0
 18 30  1  0  0  0  0
 20 21  1  0  0  0  0
 20 26  1  1  0  0  0
 22 23  1  6  0  0  0
 22 28  1  0  0  0  0
 24 25  1  0  0  0  0
 26 27  1  0  0  0  0
 28 29  1  1  0  0  0
M  END
>  <CHROM.1>
-172.65542328,-156.24211960,-88.20279172,-154.45700264,-16.94042315,83.33025506
22.01828953,-11.39205178,-3.42861734,-2.50958768,-0.82129857,1.88179071

>  <Name>
ligand

>  <RI>
0

>  <Rbt.Current_Directory>
/home/itssahil/PROJECTS/Mol_Feturizer/New_Systems/rnas/4F8V

>  <Rbt.Executable>
rbdock ($Id: //depot/dev/client3/rdock/2013.1/src/exe/rbdock.cxx#4 $)

>  <Rbt.Library>
libRbt.so (2013.1, Build901 2013/11/27)

>  <Rbt.Parameter_File>
/export/apps/rDock/src/rDock_2013.1_src/data/scripts/dock_solv.prm

>  <Rbt.Receptor>
prm/pocket_docking_8.prm

>  <SCORE>
-16.2933

>  <SCORE.INTER>
-15.0492

>  <SCORE.INTER.CONST>
1

>  <SCORE.INTER.POLAR>
0

>  <SCORE.INTER.ROT>
6

>  <SCORE.INTER.SOLV>
18.265

>  <SCORE.INTER.VDW>
-23.7211

>  <SCORE.INTER.norm>
-0.485459

>  <SCORE.INTRA>
-1.24405

>  <SCORE.INTRA.DIHEDRAL>
-5.49326

>  <SCORE.INTRA.DIHEDRAL.0>
15.9129

>  <SCORE.INTRA.POLAR>
0

>  <SCORE.INTRA.POLAR.0>
0

>  <SCORE.INTRA.REPUL>
0

>  <SCORE.INTRA.REPUL.0>
0

>  <SCORE.INTRA.SOLV>
-0.364376

>  <SCORE.INTRA.SOLV.lig_0>
-75.7056

>  <SCORE.INTRA.VDW>
1.68476

>  <SCORE.INTRA.VDW.0>
-4.61812

>  <SCORE.INTRA.norm>
-0.0401308

>  <SCORE.RESTR>
0

>  <SCORE.RESTR.CAVITY>
0

>  <SCORE.RESTR.norm>
0

>  <SCORE.SYSTEM>
0

>  <SCORE.SYSTEM.CONST>
0

>  <SCORE.SYSTEM.DIHEDRAL>
0

>  <SCORE.SYSTEM.SOLV>
0

>  <SCORE.SYSTEM.norm>
0

>  <SCORE.heavy>
31

>  <SCORE.norm>
-0.52559

>  <RMSD>
0.686

$$$$
ligand
 OpenBabel11021811493D
libRbt.so/2013.1/901 2013/11/27
 31 33  0  0  0  0  0  0  0  0999 V2000
   19.9998   -8.5677   -5.9497 C   0  0  2  0  0  0  0  0  0  0  0  0
   20.4956   -8.3012   -4.6308 O   0  0  0  0  0  0  0  0  0  0  0  0
   21.3886  -10.7408   -1.2485 C   0  0  2  0  0  0  0  0  0  0  0  0
   21.2540  -11.7508   -0.2537 N   0  0  0  0  0  0  0  0  0  0  0  0
   22.5629  -13.4986   -1.9472 C   0  0  2  0  0  0  0  0  0  0  0  0
   20.7781   -7.6314   -6.9252 C   0  0  2  0  0  0  0  0  0  0  0  0
   22.2103   -7.8877   -6.7871 N   0  0  0  0  0  0  0  0  0  0  0  0
   20.2022   -9.7148   -1.1096 C   0  0  0  0  0  0  0  0  0  0  0  0
   24.0822  -13.5848   -1.6394 C   0  0  2  0  0  0  0  0  0  0  0  0
   24.4782  -12.3996   -0.9877 O   0  0  0  0  0  0  0  0  0  0  0  0
   20.4279   -6.1221   -6.6300 C   0  0  0  0  0  0  0  0  0  0  0  0
   20.3554   -8.5936   -2.2164 C   0  0  2  0  0  0  0  0  0  0  0  0
   19.2426   -7.6299   -2.0927 N   0  0  0  0  0  0  0  0  0  0  0  0
   24.8495  -13.7758   -3.0076 C   0  0  1  0  0  0  0  0  0  0  0  0
   26.3184  -13.8418   -2.7645 N   0  0  0  0  0  0  0  0  0  0  0  0
   18.9555   -5.9251   -6.1160 C   0  0  0  0  0  0  0  0  0  0  0  0
   20.3383   -9.2776   -3.6494 C   0  0  2  0  0  0  0  0  0  0  0  0
   24.3567  -15.1541   -3.7204 C   0  0  1  0  0  0  0  0  0  0  0  0
   24.6161  -16.2988   -2.9451 O   0  0  0  0  0  0  0  0  0  0  0  0
   18.1524   -6.9726   -5.8777 C   0  0  1  0  0  0  0  0  0  0  0  0
   18.5764   -8.3065   -6.0785 O   0  0  0  0  0  0  0  0  0  0  0  0
   21.5185  -10.3105   -3.7541 C   0  0  2  0  0  0  0  0  0  0  0  0
   21.4882  -10.9280   -5.0396 O   0  0  0  0  0  0  0  0  0  0  0  0
   22.8175  -15.0755   -3.9620 C   0  0  0  0  0  0  0  0  0  0  0  0
   22.0994  -14.7380   -2.6709 O   0  0  0  0  0  0  0  0  0  0  0  0
   16.7090   -6.8178   -5.3599 C   0  0  0  0  0  0  0  0  0  0  0  0
   15.9585   -8.0034   -5.7111 N   0  0  0  0  0  0  0  0  0  0  0  0
   21.3520  -11.4100   -2.6382 C   0  0  1  0  0  0  0  0  0  0  0  0
   22.4184  -12.3065   -2.7481 O   0  0  0  0  0  0  0  0  0  0  0  0
   25.0156  -15.4825   -5.0677 C   0  0  0  0  0  0  0  0  0  0  0  0
   26.7450  -14.5803   -1.5660 C   0  0  0  0  0  0  0  0  0  0  0  0
  1  2  1  1  0  0  0
  1  6  1  0  0  0  0
  1 21  1  0  0  0  0
  3  4  1  1  0  0  0
  3  8  1  0  0  0  0
  3 28  1  0  0  0  0
  5  9  1  0  0  0  0
  5 25  1  0  0  0  0
  5 29  1  6  0  0  0
  6  7  1  1  0  0  0
  6 11  1  0  0  0  0
  8 12  1  0  0  0  0
  9 10  1  6  0  0  0
  9 14  1  0  0  0  0
 11 16  1  0  0  0  0
 12 13  1  6  0  0  0
 12 17  1  0  0  0  0
 14 15  1  1  0  0  0
 14 18  1  0  0  0  0
 15 31  1  0  0  0  0
 16 20  1  0  0  0  0
 17  2  1  6  0  0  0
 17 22  1  0  0  0  0
 18 19  1  1  0  0  0
 18 24  1  0  0  0  0
 18 30  1  0  0  0  0
 20 21  1  0  0  0  0
 20 26  1  1  0  0  0
 22 23  1  6  0  0  0
 22 28  1  0  0  0  0
 24 25  1  0  0  0  0
 26 27  1  0  0  0  0
 28 29  1  1  0  0  0
M  END
>  <CHROM.1>
-157.84707450,-141.29222881,39.02148726,-155.68762417,157.14206833,64.96624834
21.63091765,-10.87105634,-3.71148688,-2.60160704,-0.80759347,1.88050358

>  <Name>
ligand

>  <RI>
0

>  <Rbt.Current_Directory>
/home/itssahil/PROJECTS/Mol_Feturizer/New_Systems/rnas/4F8V

>  <Rbt.Executable>
rbdock ($Id: //depot/dev/client3/rdock/2013.1/src/exe/rbdock.cxx#4 $)

>  <Rbt.Library>
libRbt.so (2013.1, Build901 2013/11/27)

>  <Rbt.Parameter_File>
/export/apps/rDock/src/rDock_2013.1_src/data/scripts/dock_solv.prm

>  <Rbt.Receptor>
prm/pocket_docking_2.prm

>  <SCORE>
-8.37173

>  <SCORE.INTER>
-11.0994

>  <SCORE.INTER.CONST>
1

>  <SCORE.INTER.POLAR>
0

>  <SCORE.INTER.ROT>
6

>  <SCORE.INTER.SOLV>
22.5152

>  <SCORE.INTER.VDW>
-22.5047

>  <SCORE.INTER.norm>
-0.358047

>  <SCORE.INTRA>
2.72439

>  <SCORE.INTRA.DIHEDRAL>
-2.57861

>  <SCORE.INTRA.DIHEDRAL.0>
15.9129

>  <SCORE.INTRA.POLAR>
0

>  <SCORE.INTRA.POLAR.0>
0

>  <SCORE.INTRA.REPUL>
0

>  <SCORE.INTRA.REPUL.0>
0

>  <SCORE.INTRA.SOLV>
0.170929

>  <SCORE.INTRA.SOLV.lig_0>
-75.7056

>  <SCORE.INTRA.VDW>
3.92823

>  <SCORE.INTRA.VDW.0>
-4.61812

>  <SCORE.INTRA.norm>
0.0878835

>  <SCORE.RESTR>
0.00332794

>  <SCORE.RESTR.CAVITY>
0.00332794

>  <SCORE.RESTR.norm>
0.000107353

>  <SCORE.SYSTEM>
0

>  <SCORE.SYSTEM.CONST>
0

>  <SCORE.SYSTEM.DIHEDRAL>
0

>  <SCORE.SYSTEM.SOLV>
0

>  <SCORE.SYSTEM.norm>
0

>  <SCORE.heavy>
31

>  <SCORE.norm>
-0.270056

>  <RMSD>
0.694

$$$$
ligand
 OpenBabel11021811493D
libRbt.so/2013.1/901 2013/11/27
 31 33  0  0  0  0  0  0  0  0999 V2000
   20.8517   -9.4698   -5.9148 C   0  0  2  0  0  0  0  0  0  0  0  0
   21.2119   -9.0086   -4.6057 O   0  0  0  0  0  0  0  0  0  0  0  0
   21.6509  -10.8880   -0.8025 C   0  0  2  0  0  0  0  0  0  0  0  0
   21.3793  -11.7286    0.3144 N   0  0  0  0  0  0  0  0  0  0  0  0
   22.6856  -13.9685   -1.2843 C   0  0  2  0  0  0  0  0  0  0  0  0
   21.5351   -8.5108   -6.9381 C   0  0  2  0  0  0  0  0  0  0  0  0
   22.9777   -8.5170   -6.7035 N   0  0  0  0  0  0  0  0  0  0  0  0
   20.4783   -9.8500   -0.9674 C   0  0  0  0  0  0  0  0  0  0  0  0
   24.1233  -14.3307   -0.8233 C   0  0  2  0  0  0  0  0  0  0  0  0
   24.5878  -13.3191    0.0412 O   0  0  0  0  0  0  0  0  0  0  0  0
   20.9333   -7.0583   -6.8122 C   0  0  0  0  0  0  0  0  0  0  0  0
   20.7837   -8.9173   -2.2093 C   0  0  2  0  0  0  0  0  0  0  0  0
   19.6847   -7.9434   -2.3707 N   0  0  0  0  0  0  0  0  0  0  0  0
   25.0337  -14.4549   -2.1089 C   0  0  1  0  0  0  0  0  0  0  0  0
   26.4333  -14.7808   -1.7139 N   0  0  0  0  0  0  0  0  0  0  0  0
   19.4178   -7.0583   -6.3949 C   0  0  0  0  0  0  0  0  0  0  0  0
   20.9202   -9.8181   -3.5099 C   0  0  2  0  0  0  0  0  0  0  0  0
   24.4558  -15.6323   -3.0735 C   0  0  1  0  0  0  0  0  0  0  0  0
   24.4483  -16.8964   -2.4565 O   0  0  0  0  0  0  0  0  0  0  0  0
   18.7756   -8.1969   -6.0944 C   0  0  1  0  0  0  0  0  0  0  0  0
   19.4164   -9.4565   -6.1402 O   0  0  0  0  0  0  0  0  0  0  0  0
   22.0824  -10.8575   -3.3111 C   0  0  2  0  0  0  0  0  0  0  0  0
   22.1899  -11.6693   -4.4790 O   0  0  0  0  0  0  0  0  0  0  0  0
   22.9888  -15.2832   -3.4731 C   0  0  0  0  0  0  0  0  0  0  0  0
   22.1571  -15.0130   -2.2353 O   0  0  0  0  0  0  0  0  0  0  0  0
   17.2951   -8.2333   -5.6676 C   0  0  0  0  0  0  0  0  0  0  0  0
   16.9334   -6.9398   -5.1305 N   0  0  0  0  0  0  0  0  0  0  0  0
   21.7632  -11.7674   -2.0653 C   0  0  1  0  0  0  0  0  0  0  0  0
   22.8160  -12.6726   -1.9063 O   0  0  0  0  0  0  0  0  0  0  0  0
   25.2382  -15.8769   -4.3718 C   0  0  0  0  0  0  0  0  0  0  0  0
   27.3695  -13.6481   -1.6487 C   0  0  0  0  0  0  0  0  0  0  0  0
  1  2  1  1  0  0  0
  1  6  1  0  0  0  0
  1 21  1  0  0  0  0
  3  4  1  1  0  0  0
  3  8  1  0  0  0  0
  3 28  1  0  0  0  0
  5  9  1  0  0  0  0
  5 25  1  0  0  0  0
  5 29  1  6  0  0  0
  6  7  1  1  0  0  0
  6 11  1  0  0  0  0
  8 12  1  0  0  0  0
  9 10  1  1  0  0  0
  9 14  1  0  0  0  0
 11 16  1  0  0  0  0
 12 13  1  6  0  0  0
 12 17  1  0  0  0  0
 14 15  1  1  0  0  0
 14 18  1  0  0  0  0
 15 31  1  0  0  0  0
 16 20  1  0  0  0  0
 17  2  1  6  0  0  0
 17 22  1  0  0  0  0
 18 19  1  1  0  0  0
 18 24  1  0  0  0  0
 18 30  1  0  0  0  0
 20 21  1  0  0  0  0
 20 26  1  1  0  0  0
 22 23  1  6  0  0  0
 22 28  1  0  0  0  0
 24 25  1  0  0  0  0
 26 27  1  0  0  0  0
 28 29  1  1  0  0  0
M  END
>  <CHROM.1>
-169.31058193,-157.65791989,-98.10955234,-154.83173016,-23.32670026,87.52240685
22.04533922,-11.39076369,-3.37865914,-2.52776174,-0.82144001,1.85357815

>  <Name>
ligand

>  <RI>
0

>  <Rbt.Current_Directory>
/home/itssahil/PROJECTS/Mol_Feturizer/New_Systems/rnas/4F8V

>  <Rbt.Executable>
rbdock ($Id: //depot/dev/client3/rdock/2013.1/src/exe/rbdock.cxx#4 $)

>  <Rbt.Library>
libRbt.so (2013.1, Build901 2013/11/27)

>  <Rbt.Parameter_File>
/export/apps/rDock/src/rDock_2013.1_src/data/scripts/dock_solv.prm

>  <Rbt.Receptor>
prm/pocket_docking_6.prm

>  <SCORE>
-16.3858

>  <SCORE.INTER>
-15.4172

>  <SCORE.INTER.CONST>
1

>  <SCORE.INTER.POLAR>
0

>  <SCORE.INTER.ROT>
6

>  <SCORE.INTER.SOLV>
17.9019

>  <SCORE.INTER.VDW>
-23.8454

>  <SCORE.INTER.norm>
-0.497329

>  <SCORE.INTRA>
-0.968622

>  <SCORE.INTRA.DIHEDRAL>
-4.17837

>  <SCORE.INTRA.DIHEDRAL.0>
15.9129

>  <SCORE.INTRA.POLAR>
0

>  <SCORE.INTRA.POLAR.0>
0

>  <SCORE.INTRA.REPUL>
0

>  <SCORE.INTRA.REPUL.0>
0

>  <SCORE.INTRA.SOLV>
-0.396247

>  <SCORE.INTRA.SOLV.lig_0>
-75.7056

>  <SCORE.INTRA.VDW>
1.31869

>  <SCORE.INTRA.VDW.0>
-4.61812

>  <SCORE.INTRA.norm>
-0.0312459

>  <SCORE.RESTR>
0

>  <SCORE.RESTR.CAVITY>
0

>  <SCORE.RESTR.norm>
0

>  <SCORE.SYSTEM>
0

>  <SCORE.SYSTEM.CONST>
0

>  <SCORE.SYSTEM.DIHEDRAL>
0

>  <SCORE.SYSTEM.SOLV>
0

>  <SCORE.SYSTEM.norm>
0

>  <SCORE.heavy>
31

>  <SCORE.norm>
-0.528575

>  <RMSD>
0.695

$$$$
ligand
 OpenBabel11021811493D
libRbt.so/2013.1/901 2013/11/27
 31 33  0  0  0  0  0  0  0  0999 V2000
   20.8794   -9.4537   -5.8415 C   0  0  2  0  0  0  0  0  0  0  0  0
   21.2064   -8.9870   -4.5255 O   0  0  0  0  0  0  0  0  0  0  0  0
   21.6689  -10.9139   -0.7490 C   0  0  2  0  0  0  0  0  0  0  0  0
   21.4025  -11.7660    0.3604 N   0  0  0  0  0  0  0  0  0  0  0  0
   22.6833  -13.9898   -1.2661 C   0  0  2  0  0  0  0  0  0  0  0  0
   21.5483   -8.4704   -6.8512 C   0  0  2  0  0  0  0  0  0  0  0  0
   22.9868   -8.4339   -6.5956 N   0  0  0  0  0  0  0  0  0  0  0  0
   20.5011   -9.8671   -0.8909 C   0  0  0  0  0  0  0  0  0  0  0  0
   24.1239  -14.3600   -0.8208 C   0  0  2  0  0  0  0  0  0  0  0  0
   24.6013  -13.3537    0.0429 O   0  0  0  0  0  0  0  0  0  0  0  0
   20.9010   -7.0372   -6.7290 C   0  0  0  0  0  0  0  0  0  0  0  0
   20.8007   -8.9215   -2.1245 C   0  0  2  0  0  0  0  0  0  0  0  0
   19.7062   -7.9394   -2.2642 N   0  0  0  0  0  0  0  0  0  0  0  0
   25.0210  -14.4832   -2.1159 C   0  0  1  0  0  0  0  0  0  0  0  0
   26.4230  -14.8166   -1.7361 N   0  0  0  0  0  0  0  0  0  0  0  0
   19.3803   -7.0846   -6.3339 C   0  0  0  0  0  0  0  0  0  0  0  0
   20.9199   -9.8077   -3.4367 C   0  0  2  0  0  0  0  0  0  0  0  0
   24.4284  -15.6543   -3.0791 C   0  0  1  0  0  0  0  0  0  0  0  0
   24.4215  -16.9207   -2.4668 O   0  0  0  0  0  0  0  0  0  0  0  0
   18.7686   -8.2433   -6.0468 C   0  0  1  0  0  0  0  0  0  0  0  0
   19.4478   -9.4828   -6.0878 O   0  0  0  0  0  0  0  0  0  0  0  0
   22.0776  -10.8562   -3.2609 C   0  0  2  0  0  0  0  0  0  0  0  0
   22.1696  -11.6548   -4.4392 O   0  0  0  0  0  0  0  0  0  0  0  0
   22.9590  -15.2974   -3.4628 C   0  0  0  0  0  0  0  0  0  0  0  0
   22.1408  -15.0284   -2.2158 O   0  0  0  0  0  0  0  0  0  0  0  0
   17.2838   -8.3261   -5.6419 C   0  0  0  0  0  0  0  0  0  0  0  0
   16.8618   -7.0320   -5.1525 N   0  0  0  0  0  0  0  0  0  0  0  0
   21.7644  -11.7789   -2.0230 C   0  0  1  0  0  0  0  0  0  0  0  0
   22.8131  -12.6921   -1.8845 O   0  0  0  0  0  0  0  0  0  0  0  0
   25.1967  -15.8973   -4.3860 C   0  0  0  0  0  0  0  0  0  0  0  0
   27.3272  -13.6754   -1.5264 C   0  0  0  0  0  0  0  0  0  0  0  0
  1  2  1  1  0  0  0
  1  6  1  0  0  0  0
  1 21  1  0  0  0  0
  3  4  1  1  0  0  0
  3  8  1  0  0  0  0
  3 28  1  0  0  0  0
  5  9  1  0  0  0  0
  5 25  1  0  0  0  0
  5 29  1  6  0  0  0
  6  7  1  1  0  0  0
  6 11  1  0  0  0  0
  8 12  1  0  0  0  0
  9 10  1  1  0  0  0
  9 14  1  0  0  0  0
 11 16  1  0  0  0  0
 12 13  1  6  0  0  0
 12 17  1  0  0  0  0
 14 15  1  1  0  0  0
 14 18  1  0  0  0  0
 15 31  1  0  0  0  0
 16 20  1  0  0  0  0
 17  2  1  6  0  0  0
 17 22  1  0  0  0  0
 18 19  1  1  0  0  0
 18 24  1  0  0  0  0
 18 30  1  0  0  0  0
 20 21  1  0  0  0  0
 20 26  1  1  0  0  0
 22 23  1  6  0  0  0
 22 28  1  0  0  0  0
 24 25  1  0  0  0  0
 26 27  1  0  0  0  0
 28 29  1  1  0  0  0
M  END
>  <CHROM.1>
-169.49600650,-157.29712820,-91.39618448,-157.25976185,-21.19348235,86.95682836
22.03849887,-11.40568372,-3.33678775,-2.54488334,-0.83266254,1.83486763

>  <Name>
ligand

>  <RI>
0

>  <Rbt.Current_Directory>
/home/itssahil/PROJECTS/Mol_Feturizer/New_Systems/rnas/4F8V

>  <Rbt.Executable>
rbdock ($Id: //depot/dev/client3/rdock/2013.1/src/exe/rbdock.cxx#4 $)

>  <Rbt.Library>
libRbt.so (2013.1, Build901 2013/11/27)

>  <Rbt.Parameter_File>
/export/apps/rDock/src/rDock_2013.1_src/data/scripts/dock_solv.prm

>  <Rbt.Receptor>
prm/pocket_docking_3.prm

>  <SCORE>
-16.3573

>  <SCORE.INTER>
-15.0785

>  <SCORE.INTER.CONST>
1

>  <SCORE.INTER.POLAR>
0

>  <SCORE.INTER.ROT>
6

>  <SCORE.INTER.SOLV>
18.4214

>  <SCORE.INTER.VDW>
-23.7928

>  <SCORE.INTER.norm>
-0.486403

>  <SCORE.INTRA>
-1.27881

>  <SCORE.INTRA.DIHEDRAL>
-4.97567

>  <SCORE.INTRA.DIHEDRAL.0>
15.9129

>  <SCORE.INTRA.POLAR>
0

>  <SCORE.INTRA.POLAR.0>
0

>  <SCORE.INTRA.REPUL>
0

>  <SCORE.INTRA.REPUL.0>
0

>  <SCORE.INTRA.SOLV>
-0.701501

>  <SCORE.INTRA.SOLV.lig_0>
-75.7056

>  <SCORE.INTRA.VDW>
1.55978

>  <SCORE.INTRA.VDW.0>
-4.61812

>  <SCORE.INTRA.norm>
-0.0412519

>  <SCORE.RESTR>
0

>  <SCORE.RESTR.CAVITY>
0

>  <SCORE.RESTR.norm>
0

>  <SCORE.SYSTEM>
0

>  <SCORE.SYSTEM.CONST>
0

>  <SCORE.SYSTEM.DIHEDRAL>
0

>  <SCORE.SYSTEM.SOLV>
0

>  <SCORE.SYSTEM.norm>
0

>  <SCORE.heavy>
31

>  <SCORE.norm>
-0.527655

>  <RMSD>
0.702

$$$$
ligand
 OpenBabel11021811493D
libRbt.so/2013.1/901 2013/11/27
 31 33  0  0  0  0  0  0  0  0999 V2000
   20.0628   -8.7416   -5.9612 C   0  0  2  0  0  0  0  0  0  0  0  0
   20.4042   -8.3694   -4.6191 O   0  0  0  0  0  0  0  0  0  0  0  0
   21.3974  -10.7203   -1.2022 C   0  0  2  0  0  0  0  0  0  0  0  0
   21.2940  -11.7060   -0.1797 N   0  0  0  0  0  0  0  0  0  0  0  0
   22.5448  -13.5127   -1.8931 C   0  0  2  0  0  0  0  0  0  0  0  0
   20.8537   -7.7902   -6.9116 C   0  0  2  0  0  0  0  0  0  0  0  0
   22.2817   -7.9148   -6.6264 N   0  0  0  0  0  0  0  0  0  0  0  0
   20.2096   -9.6967   -1.0578 C   0  0  0  0  0  0  0  0  0  0  0  0
   24.0676  -13.6084   -1.6059 C   0  0  2  0  0  0  0  0  0  0  0  0
   24.4789  -12.4271   -0.9565 O   0  0  0  0  0  0  0  0  0  0  0  0
   20.3548   -6.3042   -6.7363 C   0  0  0  0  0  0  0  0  0  0  0  0
   20.3281   -8.6026   -2.1955 C   0  0  2  0  0  0  0  0  0  0  0  0
   19.2138   -7.6414   -2.0667 N   0  0  0  0  0  0  0  0  0  0  0  0
   24.8155  -13.8001   -2.9847 C   0  0  1  0  0  0  0  0  0  0  0  0
   26.2871  -13.8750   -2.7613 N   0  0  0  0  0  0  0  0  0  0  0  0
   18.8282   -6.2103   -6.3737 C   0  0  0  0  0  0  0  0  0  0  0  0
   20.2776   -9.3219   -3.6103 C   0  0  2  0  0  0  0  0  0  0  0  0
   24.3055  -15.1738   -3.6942 C   0  0  1  0  0  0  0  0  0  0  0  0
   24.5686  -16.3219   -2.9253 O   0  0  0  0  0  0  0  0  0  0  0  0
   18.0935   -7.3105   -6.1521 C   0  0  1  0  0  0  0  0  0  0  0  0
   18.6422   -8.6109   -6.2366 O   0  0  0  0  0  0  0  0  0  0  0  0
   21.4602  -10.3516   -3.7201 C   0  0  2  0  0  0  0  0  0  0  0  0
   21.4000  -11.0008   -4.9888 O   0  0  0  0  0  0  0  0  0  0  0  0
   22.7636  -15.0858   -3.9152 C   0  0  0  0  0  0  0  0  0  0  0  0
   22.0647  -14.7477   -2.6137 O   0  0  0  0  0  0  0  0  0  0  0  0
   16.5988   -7.2559   -5.7805 C   0  0  0  0  0  0  0  0  0  0  0  0
   16.4396   -7.7227   -4.4206 N   0  0  0  0  0  0  0  0  0  0  0  0
   21.3285  -11.4239   -2.5736 C   0  0  1  0  0  0  0  0  0  0  0  0
   22.3965  -12.3178   -2.6890 O   0  0  0  0  0  0  0  0  0  0  0  0
   24.9445  -15.5024   -5.0511 C   0  0  0  0  0  0  0  0  0  0  0  0
   26.7244  -14.5947   -1.5552 C   0  0  0  0  0  0  0  0  0  0  0  0
  1  2  1  1  0  0  0
  1  6  1  0  0  0  0
  1 21  1  0  0  0  0
  3  4  1  1  0  0  0
  3  8  1  0  0  0  0
  3 28  1  0  0  0  0
  5  9  1  0  0  0  0
  5 25  1  0  0  0  0
  5 29  1  6  0  0  0
  6  7  1  1  0  0  0
  6 11  1  0  0  0  0
  8 12  1  0  0  0  0
  9 10  1  6  0  0  0
  9 14  1  0  0  0  0
 11 16  1  0  0  0  0
 12 13  1  6  0  0  0
 12 17  1  0  0  0  0
 14 15  1  1  0  0  0
 14 18  1  0  0  0  0
 15 31  1  0  0  0  0
 16 20  1  0  0  0  0
 17  2  1  6  0  0  0
 17 22  1  0  0  0  0
 18 19  1  1  0  0  0
 18 24  1  0  0  0  0
 18 30  1  0  0  0  0
 20 21  1  0  0  0  0
 20 26  1  1  0  0  0
 22 23  1  6  0  0  0
 22 28  1  0  0  0  0
 24 25  1  0  0  0  0
 26 27  1  0  0  0  0
 28 29  1  1  0  0  0
M  END
>  <CHROM.1>
-155.56845207,-142.08418062,37.77654869,-165.00270965,-112.59721430,67.11572880
21.61960058,-10.93676579,-3.67814992,-2.61520153,-0.81184172,1.85747900

>  <Name>
ligand

>  <RI>
0

>  <Rbt.Current_Directory>
/home/itssahil/PROJECTS/Mol_Feturizer/New_Systems/rnas/4F8V

>  <Rbt.Executable>
rbdock ($Id: //depot/dev/client3/rdock/2013.1/src/exe/rbdock.cxx#4 $)

>  <Rbt.Library>
libRbt.so (2013.1, Build901 2013/11/27)

>  <Rbt.Parameter_File>
/export/apps/rDock/src/rDock_2013.1_src/data/scripts/dock_solv.prm

>  <Rbt.Receptor>
prm/pocket_docking_2.prm

>  <SCORE>
-10.7425

>  <SCORE.INTER>
-12.7037

>  <SCORE.INTER.CONST>
1

>  <SCORE.INTER.POLAR>
0

>  <SCORE.INTER.ROT>
6

>  <SCORE.INTER.SOLV>
19.5971

>  <SCORE.INTER.VDW>
-22.6015

>  <SCORE.INTER.norm>
-0.409798

>  <SCORE.INTRA>
1.96125

>  <SCORE.INTRA.DIHEDRAL>
-4.87959

>  <SCORE.INTRA.DIHEDRAL.0>
15.9129

>  <SCORE.INTRA.POLAR>
0

>  <SCORE.INTRA.POLAR.0>
0

>  <SCORE.INTRA.REPUL>
0.000340925

>  <SCORE.INTRA.REPUL.0>
0

>  <SCORE.INTRA.SOLV>
0.914007

>  <SCORE.INTRA.SOLV.lig_0>
-75.7056

>  <SCORE.INTRA.VDW>
3.94233

>  <SCORE.INTRA.VDW.0>
-4.61812

>  <SCORE.INTRA.norm>
0.063266

>  <SCORE.RESTR>
0

>  <SCORE.RESTR.CAVITY>
0

>  <SCORE.RESTR.norm>
0

>  <SCORE.SYSTEM>
0

>  <SCORE.SYSTEM.CONST>
0

>  <SCORE.SYSTEM.DIHEDRAL>
0

>  <SCORE.SYSTEM.SOLV>
0

>  <SCORE.SYSTEM.norm>
0

>  <SCORE.heavy>
31

>  <SCORE.norm>
-0.346532

>  <RMSD>
0.708

$$$$
ligand
 OpenBabel11021811493D
libRbt.so/2013.1/901 2013/11/27
 31 33  0  0  0  0  0  0  0  0999 V2000
   20.9140   -9.4658   -5.9074 C   0  0  2  0  0  0  0  0  0  0  0  0
   21.2262   -8.9935   -4.5898 O   0  0  0  0  0  0  0  0  0  0  0  0
   21.6457  -10.9001   -0.7980 C   0  0  2  0  0  0  0  0  0  0  0  0
   21.3680  -11.7480    0.3119 N   0  0  0  0  0  0  0  0  0  0  0  0
   22.6800  -13.9735   -1.2846 C   0  0  2  0  0  0  0  0  0  0  0  0
   21.5838   -8.4797   -6.9137 C   0  0  2  0  0  0  0  0  0  0  0  0
   23.0198   -8.4314   -6.6459 N   0  0  0  0  0  0  0  0  0  0  0  0
   20.4757   -9.8589   -0.9606 C   0  0  0  0  0  0  0  0  0  0  0  0
   24.1191  -14.3424   -0.8336 C   0  0  2  0  0  0  0  0  0  0  0  0
   24.5950  -13.3321    0.0261 O   0  0  0  0  0  0  0  0  0  0  0  0
   20.9244   -7.0513   -6.8004 C   0  0  0  0  0  0  0  0  0  0  0  0
   20.7880   -8.9181   -2.1947 C   0  0  2  0  0  0  0  0  0  0  0  0
   19.6914   -7.9412   -2.3539 N   0  0  0  0  0  0  0  0  0  0  0  0
   25.0196  -14.4728   -2.1257 C   0  0  1  0  0  0  0  0  0  0  0  0
   26.4203  -14.8053   -1.7405 N   0  0  0  0  0  0  0  0  0  0  0  0
   19.4008   -7.1097   -6.4181 C   0  0  0  0  0  0  0  0  0  0  0  0
   20.9284   -9.8101   -3.5009 C   0  0  2  0  0  0  0  0  0  0  0  0
   24.4287  -15.6485   -3.0846 C   0  0  1  0  0  0  0  0  0  0  0  0
   24.4193  -16.9117   -2.4659 O   0  0  0  0  0  0  0  0  0  0  0  0
   18.7957   -8.2724   -6.1336 C   0  0  1  0  0  0  0  0  0  0  0  0
   19.4848   -9.5066   -6.1658 O   0  0  0  0  0  0  0  0  0  0  0  0
   22.0880  -10.8529   -3.3044 C   0  0  2  0  0  0  0  0  0  0  0  0
   22.1990  -11.6569   -4.4774 O   0  0  0  0  0  0  0  0  0  0  0  0
   22.9606  -15.2925   -3.4739 C   0  0  0  0  0  0  0  0  0  0  0  0
   22.1393  -15.0165   -2.2304 O   0  0  0  0  0  0  0  0  0  0  0  0
   17.3082   -8.3658   -5.7411 C   0  0  0  0  0  0  0  0  0  0  0  0
   16.9010   -7.1071   -5.1560 N   0  0  0  0  0  0  0  0  0  0  0  0
   21.7619  -11.7709   -2.0663 C   0  0  1  0  0  0  0  0  0  0  0  0
   22.8124  -12.6791   -1.9092 O   0  0  0  0  0  0  0  0  0  0  0  0
   25.2003  -15.8986   -4.3882 C   0  0  0  0  0  0  0  0  0  0  0  0
   27.3308  -13.6646   -1.5569 C   0  0  0  0  0  0  0  0  0  0  0  0
  1  2  1  1  0  0  0
  1  6  1  0  0  0  0
  1 21  1  0  0  0  0
  3  4  1  1  0  0  0
  3  8  1  0  0  0  0
  3 28  1  0  0  0  0
  5  9  1  0  0  0  0
  5 25  1  0  0  0  0
  5 29  1  6  0  0  0
  6  7  1  1  0  0  0
  6 11  1  0  0  0  0
  8 12  1  0  0  0  0
  9 10  1  1  0  0  0
  9 14  1  0  0  0  0
 11 16  1  0  0  0  0
 12 13  1  6  0  0  0
 12 17  1  0  0  0  0
 14 15  1  1  0  0  0
 14 18  1  0  0  0  0
 15 31  1  0  0  0  0
 16 20  1  0  0  0  0
 17  2  1  6  0  0  0
 17 22  1  0  0  0  0
 18 19  1  1  0  0  0
 18 24  1  0  0  0  0
 18 30  1  0  0  0  0
 20 21  1  0  0  0  0
 20 26  1  1  0  0  0
 22 23  1  6  0  0  0
 22 28  1  0  0  0  0
 24 25  1  0  0  0  0
 26 27  1  0  0  0  0
 28 29  1  1  0  0  0
M  END
>  <CHROM.1>
-169.92661819,-157.91987533,-92.41528328,-157.02213801,-25.85891073,86.86590387
22.04562866,-11.40730856,-3.37940370,-2.52754351,-0.82505493,1.84825552

>  <Name>
ligand

>  <RI>
0

>  <Rbt.Current_Directory>
/home/itssahil/PROJECTS/Mol_Feturizer/New_Systems/rnas/4F8V

>  <Rbt.Executable>
rbdock ($Id: //depot/dev/client3/rdock/2013.1/src/exe/rbdock.cxx#4 $)

>  <Rbt.Library>
libRbt.so (2013.1, Build901 2013/11/27)

>  <Rbt.Parameter_File>
/export/apps/rDock/src/rDock_2013.1_src/data/scripts/dock_solv.prm

>  <Rbt.Receptor>
prm/pocket_docking_3.prm

>  <SCORE>
-16.4205

>  <SCORE.INTER>
-15.1606

>  <SCORE.INTER.CONST>
1

>  <SCORE.INTER.POLAR>
0

>  <SCORE.INTER.ROT>
6

>  <SCORE.INTER.SOLV>
18.2728

>  <SCORE.INTER.VDW>
-23.798

>  <SCORE.INTER.norm>
-0.489052

>  <SCORE.INTRA>
-1.25989

>  <SCORE.INTRA.DIHEDRAL>
-4.84848

>  <SCORE.INTRA.DIHEDRAL.0>
15.9129

>  <SCORE.INTRA.POLAR>
0

>  <SCORE.INTRA.POLAR.0>
0

>  <SCORE.INTRA.REPUL>
0

>  <SCORE.INTRA.REPUL.0>
0

>  <SCORE.INTRA.SOLV>
-0.581436

>  <SCORE.INTRA.SOLV.lig_0>
-75.7056

>  <SCORE.INTRA.VDW>
1.45506

>  <SCORE.INTRA.VDW.0>
-4.61812

>  <SCORE.INTRA.norm>
-0.0406417

>  <SCORE.RESTR>
0

>  <SCORE.RESTR.CAVITY>
0

>  <SCORE.RESTR.norm>
0

>  <SCORE.SYSTEM>
0

>  <SCORE.SYSTEM.CONST>
0

>  <SCORE.SYSTEM.DIHEDRAL>
0

>  <SCORE.SYSTEM.SOLV>
0

>  <SCORE.SYSTEM.norm>
0

>  <SCORE.heavy>
31

>  <SCORE.norm>
-0.529694

>  <RMSD>
0.709

$$$$
ligand
 OpenBabel11021811493D
libRbt.so/2013.1/901 2013/11/27
 31 33  0  0  0  0  0  0  0  0999 V2000
   19.6695   -9.3832   -5.5368 C   0  0  2  0  0  0  0  0  0  0  0  0
   20.5097   -9.0711   -4.4175 O   0  0  0  0  0  0  0  0  0  0  0  0
   21.6713  -10.9933   -0.7920 C   0  0  2  0  0  0  0  0  0  0  0  0
   21.6035  -11.8179    0.3671 N   0  0  0  0  0  0  0  0  0  0  0  0
   22.3242  -14.1627   -1.5200 C   0  0  2  0  0  0  0  0  0  0  0  0
   20.1013   -8.4435   -6.7049 C   0  0  2  0  0  0  0  0  0  0  0  0
   21.5222   -8.6489   -6.9783 N   0  0  0  0  0  0  0  0  0  0  0  0
   20.5663   -9.8754   -0.6982 C   0  0  0  0  0  0  0  0  0  0  0  0
   23.7427  -14.4581   -0.9621 C   0  0  2  0  0  0  0  0  0  0  0  0
   24.0895  -13.4406   -0.0507 O   0  0  0  0  0  0  0  0  0  0  0  0
   19.7923   -6.9405   -6.3399 C   0  0  0  0  0  0  0  0  0  0  0  0
   20.6449   -8.9607   -1.9878 C   0  0  2  0  0  0  0  0  0  0  0  0
   19.6078   -7.9119   -1.9066 N   0  0  0  0  0  0  0  0  0  0  0  0
   24.7478  -14.5096   -2.1804 C   0  0  1  0  0  0  0  0  0  0  0  0
   26.1311  -14.7695   -1.6904 N   0  0  0  0  0  0  0  0  0  0  0  0
   18.5208   -6.7811   -5.4295 C   0  0  0  0  0  0  0  0  0  0  0  0
   20.4197   -9.8631   -3.2748 C   0  0  2  0  0  0  0  0  0  0  0  0
   24.3041  -15.6967   -3.2024 C   0  0  1  0  0  0  0  0  0  0  0  0
   24.3202  -16.9712   -2.6073 O   0  0  0  0  0  0  0  0  0  0  0  0
   17.8595   -7.8492   -4.9594 C   0  0  1  0  0  0  0  0  0  0  0  0
   18.2594   -9.1724   -5.2570 O   0  0  0  0  0  0  0  0  0  0  0  0
   21.5223  -10.9819   -3.3331 C   0  0  2  0  0  0  0  0  0  0  0  0
   21.3052  -11.7942   -4.4855 O   0  0  0  0  0  0  0  0  0  0  0  0
   22.8527  -15.4171   -3.7014 C   0  0  0  0  0  0  0  0  0  0  0  0
   21.9216  -15.2148   -2.5229 O   0  0  0  0  0  0  0  0  0  0  0  0
   16.6186   -7.7309   -4.0530 C   0  0  0  0  0  0  0  0  0  0  0  0
   15.4336   -7.9373   -4.8565 N   0  0  0  0  0  0  0  0  0  0  0  0
   21.4327  -11.8728   -2.0370 C   0  0  1  0  0  0  0  0  0  0  0  0
   22.4290  -12.8500   -2.1108 O   0  0  0  0  0  0  0  0  0  0  0  0
   25.1890  -15.8749   -4.4444 C   0  0  0  0  0  0  0  0  0  0  0  0
   26.9482  -13.5827   -1.3944 C   0  0  0  0  0  0  0  0  0  0  0  0
  1  2  1  1  0  0  0
  1  6  1  0  0  0  0
  1 21  1  0  0  0  0
  3  4  1  1  0  0  0
  3  8  1  0  0  0  0
  3 28  1  0  0  0  0
  5  9  1  0  0  0  0
  5 25  1  0  0  0  0
  5 29  1  6  0  0  0
  6  7  1  1  0  0  0
  6 11  1  0  0  0  0
  8 12  1  0  0  0  0
  9 10  1  1  0  0  0
  9 14  1  0  0  0  0
 11 16  1  0  0  0  0
 12 13  1  1  0  0  0
 12 17  1  0  0  0  0
 14 15  1  1  0  0  0
 14 18  1  0  0  0  0
 15 31  1  0  0  0  0
 16 20  1  0  0  0  0
 17  2  1  6  0  0  0
 17 22  1  0  0  0  0
 18 19  1  1  0  0  0
 18 24  1  0  0  0  0
 18 30  1  0  0  0  0
 20 21  1  0  0  0  0
 20 26  1  1  0  0  0
 22 23  1  6  0  0  0
 22 28  1  0  0  0  0
 24 25  1  0  0  0  0
 26 27  1  0  0  0  0
 28 29  1  6  0  0  0
M  END
>  <CHROM.1>
-173.76468453,-141.13135056,-91.41298364,-145.24298006,100.74680926,90.97265544
21.51016560,-11.43059281,-3.19462702,-2.83899923,-0.86701124,1.56669414

>  <Name>
ligand

>  <RI>
0

>  <Rbt.Current_Directory>
/home/itssahil/PROJECTS/Mol_Feturizer/New_Systems/rnas/4F8V

>  <Rbt.Executable>
rbdock ($Id: //depot/dev/client3/rdock/2013.1/src/exe/rbdock.cxx#4 $)

>  <Rbt.Library>
libRbt.so (2013.1, Build901 2013/11/27)

>  <Rbt.Parameter_File>
/export/apps/rDock/src/rDock_2013.1_src/data/scripts/dock_solv.prm

>  <Rbt.Receptor>
prm/pocket_docking_5.prm

>  <SCORE>
-14.7795

>  <SCORE.INTER>
-15.524

>  <SCORE.INTER.CONST>
1

>  <SCORE.INTER.POLAR>
0

>  <SCORE.INTER.ROT>
6

>  <SCORE.INTER.SOLV>
23.736

>  <SCORE.INTER.VDW>
-25.8613

>  <SCORE.INTER.norm>
-0.500773

>  <SCORE.INTRA>
0.744459

>  <SCORE.INTRA.DIHEDRAL>
0.530819

>  <SCORE.INTRA.DIHEDRAL.0>
15.9129

>  <SCORE.INTRA.POLAR>
0

>  <SCORE.INTRA.POLAR.0>
0

>  <SCORE.INTRA.REPUL>
0

>  <SCORE.INTRA.REPUL.0>
0

>  <SCORE.INTRA.SOLV>
0.142248

>  <SCORE.INTRA.SOLV.lig_0>
-75.7056

>  <SCORE.INTRA.VDW>
0.407926

>  <SCORE.INTRA.VDW.0>
-4.61812

>  <SCORE.INTRA.norm>
0.0240148

>  <SCORE.RESTR>
0

>  <SCORE.RESTR.CAVITY>
0

>  <SCORE.RESTR.norm>
0

>  <SCORE.SYSTEM>
0

>  <SCORE.SYSTEM.CONST>
0

>  <SCORE.SYSTEM.DIHEDRAL>
0

>  <SCORE.SYSTEM.SOLV>
0

>  <SCORE.SYSTEM.norm>
0

>  <SCORE.heavy>
31

>  <SCORE.norm>
-0.476758

>  <RMSD>
0.710

$$$$
ligand
 OpenBabel11021811493D
libRbt.so/2013.1/901 2013/11/27
 31 33  0  0  0  0  0  0  0  0999 V2000
   21.0127   -9.3819   -6.0595 C   0  0  2  0  0  0  0  0  0  0  0  0
   21.3509   -8.9746   -4.7268 O   0  0  0  0  0  0  0  0  0  0  0  0
   21.6256  -10.9441   -0.9539 C   0  0  2  0  0  0  0  0  0  0  0  0
   21.3106  -11.8164    0.1267 N   0  0  0  0  0  0  0  0  0  0  0  0
   22.7415  -13.9670   -1.3917 C   0  0  2  0  0  0  0  0  0  0  0  0
   21.6711   -8.3528   -7.0297 C   0  0  2  0  0  0  0  0  0  0  0  0
   23.1118   -8.3253   -6.7855 N   0  0  0  0  0  0  0  0  0  0  0  0
   20.4479   -9.9178   -1.1522 C   0  0  0  0  0  0  0  0  0  0  0  0
   24.1817  -14.3237   -0.9344 C   0  0  2  0  0  0  0  0  0  0  0  0
   24.6556  -13.2958   -0.0946 O   0  0  0  0  0  0  0  0  0  0  0  0
   21.0230   -6.9278   -6.8370 C   0  0  0  0  0  0  0  0  0  0  0  0
   20.8017   -8.9499   -2.3536 C   0  0  2  0  0  0  0  0  0  0  0  0
   19.6982   -7.9869   -2.5462 N   0  0  0  0  0  0  0  0  0  0  0  0
   25.0818  -14.4768   -2.2243 C   0  0  1  0  0  0  0  0  0  0  0  0
   26.4835  -14.7984   -1.8335 N   0  0  0  0  0  0  0  0  0  0  0  0
   19.5059   -6.9958   -6.4310 C   0  0  0  0  0  0  0  0  0  0  0  0
   21.0163   -9.8155   -3.6675 C   0  0  2  0  0  0  0  0  0  0  0  0
   24.4933  -15.6722   -3.1599 C   0  0  1  0  0  0  0  0  0  0  0  0
   24.4872  -16.9232   -2.5170 O   0  0  0  0  0  0  0  0  0  0  0  0
   18.8984   -8.1674   -6.1912 C   0  0  1  0  0  0  0  0  0  0  0  0
   19.5790   -9.4025   -6.2941 O   0  0  0  0  0  0  0  0  0  0  0  0
   22.1820  -10.8441   -3.4359 C   0  0  2  0  0  0  0  0  0  0  0  0
   22.3598  -11.6246   -4.6166 O   0  0  0  0  0  0  0  0  0  0  0  0
   23.0241  -15.3273   -3.5552 C   0  0  0  0  0  0  0  0  0  0  0  0
   22.2028  -15.0294   -2.3169 O   0  0  0  0  0  0  0  0  0  0  0  0
   17.4175   -8.2710   -5.7772 C   0  0  0  0  0  0  0  0  0  0  0  0
   17.0140   -7.0200   -5.1734 N   0  0  0  0  0  0  0  0  0  0  0  0
   21.8139  -11.7896   -2.2307 C   0  0  1  0  0  0  0  0  0  0  0  0
   22.8704  -12.6845   -2.0412 O   0  0  0  0  0  0  0  0  0  0  0  0
   25.2648  -15.9456   -4.4589 C   0  0  0  0  0  0  0  0  0  0  0  0
   27.3646  -13.6494   -1.5742 C   0  0  0  0  0  0  0  0  0  0  0  0
  1  2  1  1  0  0  0
  1  6  1  0  0  0  0
  1 21  1  0  0  0  0
  3  4  1  1  0  0  0
  3  8  1  0  0  0  0
  3 28  1  0  0  0  0
  5  9  1  0  0  0  0
  5 25  1  0  0  0  0
  5 29  1  6  0  0  0
  6  7  1  1  0  0  0
  6 11  1  0  0  0  0
  8 12  1  0  0  0  0
  9 10  1  1  0  0  0
  9 14  1  0  0  0  0
 11 16  1  0  0  0  0
 12 13  1  6  0  0  0
 12 17  1  0  0  0  0
 14 15  1  1  0  0  0
 14 18  1  0  0  0  0
 15 31  1  0  0  0  0
 16 20  1  0  0  0  0
 17  2  1  6  0  0  0
 17 22  1  0  0  0  0
 18 19  1  1  0  0  0
 18 24  1  0  0  0  0
 18 30  1  0  0  0  0
 20 21  1  0  0  0  0
 20 26  1  1  0  0  0
 22 23  1  6  0  0  0
 22 28  1  0  0  0  0
 24 25  1  0  0  0  0
 26 27  1  0  0  0  0
 28 29  1  1  0  0  0
M  END
>  <CHROM.1>
-172.58202339,-158.79240782,-87.99358499,-152.24229218,-23.62636311,83.92198643
22.11285955,-11.38540884,-3.48710177,-2.46996936,-0.79765421,1.92788314

>  <Name>
ligand

>  <RI>
0

>  <Rbt.Current_Directory>
/home/itssahil/PROJECTS/Mol_Feturizer/New_Systems/rnas/4F8V

>  <Rbt.Executable>
rbdock ($Id: //depot/dev/client3/rdock/2013.1/src/exe/rbdock.cxx#4 $)

>  <Rbt.Library>
libRbt.so (2013.1, Build901 2013/11/27)

>  <Rbt.Parameter_File>
/export/apps/rDock/src/rDock_2013.1_src/data/scripts/dock_solv.prm

>  <Rbt.Receptor>
prm/pocket_docking_4.prm

>  <SCORE>
-16.1848

>  <SCORE.INTER>
-15.1261

>  <SCORE.INTER.CONST>
1

>  <SCORE.INTER.POLAR>
0

>  <SCORE.INTER.ROT>
6

>  <SCORE.INTER.SOLV>
17.4123

>  <SCORE.INTER.VDW>
-23.4882

>  <SCORE.INTER.norm>
-0.487939

>  <SCORE.INTRA>
-1.05873

>  <SCORE.INTRA.DIHEDRAL>
-5.13052

>  <SCORE.INTRA.DIHEDRAL.0>
15.9129

>  <SCORE.INTRA.POLAR>
0

>  <SCORE.INTRA.POLAR.0>
0

>  <SCORE.INTRA.REPUL>
0

>  <SCORE.INTRA.REPUL.0>
0

>  <SCORE.INTRA.SOLV>
-0.0043659

>  <SCORE.INTRA.SOLV.lig_0>
-75.7056

>  <SCORE.INTRA.VDW>
1.50871

>  <SCORE.INTRA.VDW.0>
-4.61812

>  <SCORE.INTRA.norm>
-0.0341526

>  <SCORE.RESTR>
0

>  <SCORE.RESTR.CAVITY>
0

>  <SCORE.RESTR.norm>
0

>  <SCORE.SYSTEM>
0

>  <SCORE.SYSTEM.CONST>
0

>  <SCORE.SYSTEM.DIHEDRAL>
0

>  <SCORE.SYSTEM.SOLV>
0

>  <SCORE.SYSTEM.norm>
0

>  <SCORE.heavy>
31

>  <SCORE.norm>
-0.522091

>  <RMSD>
0.727

$$$$
ligand
 OpenBabel11021811493D
libRbt.so/2013.1/901 2013/11/27
 31 33  0  0  0  0  0  0  0  0999 V2000
   20.9287   -9.4666   -5.8984 C   0  0  2  0  0  0  0  0  0  0  0  0
   21.2335   -8.9932   -4.5796 O   0  0  0  0  0  0  0  0  0  0  0  0
   21.6467  -10.9061   -0.7903 C   0  0  2  0  0  0  0  0  0  0  0  0
   21.3663  -11.7547    0.3184 N   0  0  0  0  0  0  0  0  0  0  0  0
   22.6800  -13.9680   -1.2513 C   0  0  2  0  0  0  0  0  0  0  0  0
   21.5855   -8.4690   -6.9021 C   0  0  2  0  0  0  0  0  0  0  0  0
   23.0205   -8.4018   -6.6333 N   0  0  0  0  0  0  0  0  0  0  0  0
   20.4797   -9.8614   -0.9518 C   0  0  0  0  0  0  0  0  0  0  0  0
   24.1231  -14.3312   -0.8084 C   0  0  2  0  0  0  0  0  0  0  0  0
   24.6106  -13.3048    0.0253 O   0  0  0  0  0  0  0  0  0  0  0  0
   20.9066   -7.0501   -6.7858 C   0  0  0  0  0  0  0  0  0  0  0  0
   20.7950   -8.9198   -2.1845 C   0  0  2  0  0  0  0  0  0  0  0  0
   19.7012   -7.9396   -2.3426 N   0  0  0  0  0  0  0  0  0  0  0  0
   25.0091  -14.4903   -2.1072 C   0  0  1  0  0  0  0  0  0  0  0  0
   26.4132  -14.8184   -1.7304 N   0  0  0  0  0  0  0  0  0  0  0  0
   19.3837   -7.1301   -6.4046 C   0  0  0  0  0  0  0  0  0  0  0  0
   20.9332   -9.8104   -3.4919 C   0  0  2  0  0  0  0  0  0  0  0  0
   24.4052  -15.6838   -3.0354 C   0  0  1  0  0  0  0  0  0  0  0  0
   24.3996  -16.9341   -2.3909 O   0  0  0  0  0  0  0  0  0  0  0  0
   18.7943   -8.3017   -6.1231 C   0  0  1  0  0  0  0  0  0  0  0  0
   19.5003   -9.5263   -6.1578 O   0  0  0  0  0  0  0  0  0  0  0  0
   22.0897  -10.8568   -3.2965 C   0  0  2  0  0  0  0  0  0  0  0  0
   22.1987  -11.6595   -4.4706 O   0  0  0  0  0  0  0  0  0  0  0  0
   22.9338  -15.3321   -3.4160 C   0  0  0  0  0  0  0  0  0  0  0  0
   22.1267  -15.0288   -2.1697 O   0  0  0  0  0  0  0  0  0  0  0  0
   17.3080   -8.4163   -5.7318 C   0  0  0  0  0  0  0  0  0  0  0  0
   16.9203   -7.2186   -5.0194 N   0  0  0  0  0  0  0  0  0  0  0  0
   21.7607  -11.7756   -2.0598 C   0  0  1  0  0  0  0  0  0  0  0  0
   22.8086  -12.6869   -1.9037 O   0  0  0  0  0  0  0  0  0  0  0  0
   25.1620  -15.9625   -4.3418 C   0  0  0  0  0  0  0  0  0  0  0  0
   27.3348  -13.6786   -1.6060 C   0  0  0  0  0  0  0  0  0  0  0  0
  1  2  1  1  0  0  0
  1  6  1  0  0  0  0
  1 21  1  0  0  0  0
  3  4  1  1  0  0  0
  3  8  1  0  0  0  0
  3 28  1  0  0  0  0
  5  9  1  0  0  0  0
  5 25  1  0  0  0  0
  5 29  1  6  0  0  0
  6  7  1  1  0  0  0
  6 11  1  0  0  0  0
  8 12  1  0  0  0  0
  9 10  1  1  0  0  0
  9 14  1  0  0  0  0
 11 16  1  0  0  0  0
 12 13  1  6  0  0  0
 12 17  1  0  0  0  0
 14 15  1  1  0  0  0
 14 18  1  0  0  0  0
 15 31  1  0  0  0  0
 16 20  1  0  0  0  0
 17  2  1  6  0  0  0
 17 22  1  0  0  0  0
 18 19  1  1  0  0  0
 18 24  1  0  0  0  0
 18 30  1  0  0  0  0
 20 21  1  0  0  0  0
 20 26  1  1  0  0  0
 22 23  1  6  0  0  0
 22 28  1  0  0  0  0
 24 25  1  0  0  0  0
 26 27  1  0  0  0  0
 28 29  1  1  0  0  0
M  END
>  <CHROM.1>
-170.60278549,-157.45522944,-93.57595654,-157.43784595,-31.74957932,85.25597913
22.04334686,-11.42020626,-3.35864701,-2.51903970,-0.82244727,1.85868293

>  <Name>
ligand

>  <RI>
0

>  <Rbt.Current_Directory>
/home/itssahil/PROJECTS/Mol_Feturizer/New_Systems/rnas/4F8V

>  <Rbt.Executable>
rbdock ($Id: //depot/dev/client3/rdock/2013.1/src/exe/rbdock.cxx#4 $)

>  <Rbt.Library>
libRbt.so (2013.1, Build901 2013/11/27)

>  <Rbt.Parameter_File>
/export/apps/rDock/src/rDock_2013.1_src/data/scripts/dock_solv.prm

>  <Rbt.Receptor>
prm/pocket_docking_4.prm

>  <SCORE>
-16.412

>  <SCORE.INTER>
-15.0976

>  <SCORE.INTER.CONST>
1

>  <SCORE.INTER.POLAR>
0

>  <SCORE.INTER.ROT>
6

>  <SCORE.INTER.SOLV>
18.2346

>  <SCORE.INTER.VDW>
-23.7433

>  <SCORE.INTER.norm>
-0.48702

>  <SCORE.INTRA>
-1.31439

>  <SCORE.INTRA.DIHEDRAL>
-4.86937

>  <SCORE.INTRA.DIHEDRAL.0>
15.9129

>  <SCORE.INTRA.POLAR>
0

>  <SCORE.INTRA.POLAR.0>
0

>  <SCORE.INTRA.REPUL>
0

>  <SCORE.INTRA.REPUL.0>
0

>  <SCORE.INTRA.SOLV>
-0.47046

>  <SCORE.INTRA.SOLV.lig_0>
-75.7056

>  <SCORE.INTRA.VDW>
1.35553

>  <SCORE.INTRA.VDW.0>
-4.61812

>  <SCORE.INTRA.norm>
-0.0423997

>  <SCORE.RESTR>
0

>  <SCORE.RESTR.CAVITY>
0

>  <SCORE.RESTR.norm>
0

>  <SCORE.SYSTEM>
0

>  <SCORE.SYSTEM.CONST>
0

>  <SCORE.SYSTEM.DIHEDRAL>
0

>  <SCORE.SYSTEM.SOLV>
0

>  <SCORE.SYSTEM.norm>
0

>  <SCORE.heavy>
31

>  <SCORE.norm>
-0.529419

>  <RMSD>
0.730

$$$$
ligand
 OpenBabel11021811493D
libRbt.so/2013.1/901 2013/11/27
 31 33  0  0  0  0  0  0  0  0999 V2000
   20.9415   -9.4611   -5.8948 C   0  0  2  0  0  0  0  0  0  0  0  0
   21.2339   -8.9842   -4.5744 O   0  0  0  0  0  0  0  0  0  0  0  0
   21.6320  -10.8880   -0.7789 C   0  0  2  0  0  0  0  0  0  0  0  0
   21.3495  -11.7371    0.3289 N   0  0  0  0  0  0  0  0  0  0  0  0
   22.6938  -13.9415   -1.2253 C   0  0  2  0  0  0  0  0  0  0  0  0
   21.5965   -8.4590   -6.8950 C   0  0  2  0  0  0  0  0  0  0  0  0
   23.0291   -8.3796   -6.6170 N   0  0  0  0  0  0  0  0  0  0  0  0
   20.4580   -9.8528   -0.9514 C   0  0  0  0  0  0  0  0  0  0  0  0
   24.1409  -14.3057   -0.7967 C   0  0  2  0  0  0  0  0  0  0  0  0
   24.6378  -13.2790    0.0311 O   0  0  0  0  0  0  0  0  0  0  0  0
   20.9051   -7.0457   -6.7843 C   0  0  0  0  0  0  0  0  0  0  0  0
   20.7756   -8.9107   -2.1830 C   0  0  2  0  0  0  0  0  0  0  0  0
   19.6753   -7.9395   -2.3515 N   0  0  0  0  0  0  0  0  0  0  0  0
   25.0136  -14.4667   -2.1043 C   0  0  1  0  0  0  0  0  0  0  0  0
   26.4211  -14.7958   -1.7414 N   0  0  0  0  0  0  0  0  0  0  0  0
   19.3805   -7.1381   -6.4129 C   0  0  0  0  0  0  0  0  0  0  0  0
   20.9313   -9.8022   -3.4879 C   0  0  2  0  0  0  0  0  0  0  0  0
   24.3992  -15.6604   -3.0253 C   0  0  1  0  0  0  0  0  0  0  0  0
   24.3989  -16.9102   -2.3797 O   0  0  0  0  0  0  0  0  0  0  0  0
   18.7990   -8.3143   -6.1343 C   0  0  1  0  0  0  0  0  0  0  0  0
   19.5154   -9.5330   -6.1633 O   0  0  0  0  0  0  0  0  0  0  0  0
   22.0946  -10.8389   -3.2816 C   0  0  2  0  0  0  0  0  0  0  0  0
   22.2195  -11.6425   -4.4535 O   0  0  0  0  0  0  0  0  0  0  0  0
   22.9243  -15.3077   -3.3913 C   0  0  0  0  0  0  0  0  0  0  0  0
   22.1302  -15.0025   -2.1372 O   0  0  0  0  0  0  0  0  0  0  0  0
   17.3112   -8.4409   -5.7524 C   0  0  0  0  0  0  0  0  0  0  0  0
   16.9136   -7.2536   -5.0283 N   0  0  0  0  0  0  0  0  0  0  0  0
   21.7631  -11.7584   -2.0460 C   0  0  1  0  0  0  0  0  0  0  0  0
   22.8169  -12.6611   -1.8801 O   0  0  0  0  0  0  0  0  0  0  0  0
   25.1425  -15.9410   -4.3391 C   0  0  0  0  0  0  0  0  0  0  0  0
   27.3363  -13.6540   -1.5913 C   0  0  0  0  0  0  0  0  0  0  0  0
  1  2  1  1  0  0  0
  1  6  1  0  0  0  0
  1 21  1  0  0  0  0
  3  4  1  1  0  0  0
  3  8  1  0  0  0  0
  3 28  1  0  0  0  0
  5  9  1  0  0  0  0
  5 25  1  0  0  0  0
  5 29  1  6  0  0  0
  6  7  1  1  0  0  0
  6 11  1  0  0  0  0
  8 12  1  0  0  0  0
  9 10  1  1  0  0  0
  9 14  1  0  0  0  0
 11 16  1  0  0  0  0
 12 13  1  6  0  0  0
 12 17  1  0  0  0  0
 14 15  1  1  0  0  0
 14 18  1  0  0  0  0
 15 31  1  0  0  0  0
 16 20  1  0  0  0  0
 17  2  1  6  0  0  0
 17 22  1  0  0  0  0
 18 19  1  1  0  0  0
 18 24  1  0  0  0  0
 18 30  1  0  0  0  0
 20 21  1  0  0  0  0
 20 26  1  1  0  0  0
 22 23  1  6  0  0  0
 22 28  1  0  0  0  0
 24 25  1  0  0  0  0
 26 27  1  0  0  0  0
 28 29  1  1  0  0  0
M  END
>  <CHROM.1>
-170.70278239,-158.56962702,-91.96669606,-157.34208821,-32.48800299,85.18009699
22.04424416,-11.40806967,-3.35207181,-2.51454689,-0.81740159,1.86181422

>  <Name>
ligand

>  <RI>
0

>  <Rbt.Current_Directory>
/home/itssahil/PROJECTS/Mol_Feturizer/New_Systems/rnas/4F8V

>  <Rbt.Executable>
rbdock ($Id: //depot/dev/client3/rdock/2013.1/src/exe/rbdock.cxx#4 $)

>  <Rbt.Library>
libRbt.so (2013.1, Build901 2013/11/27)

>  <Rbt.Parameter_File>
/export/apps/rDock/src/rDock_2013.1_src/data/scripts/dock_solv.prm

>  <Rbt.Receptor>
prm/pocket_docking_4.prm

>  <SCORE>
-16.4458

>  <SCORE.INTER>
-15.047

>  <SCORE.INTER.CONST>
1

>  <SCORE.INTER.POLAR>
0

>  <SCORE.INTER.ROT>
6

>  <SCORE.INTER.SOLV>
18.2752

>  <SCORE.INTER.VDW>
-23.7231

>  <SCORE.INTER.norm>
-0.485388

>  <SCORE.INTRA>
-1.3988

>  <SCORE.INTRA.DIHEDRAL>
-5.0803

>  <SCORE.INTRA.DIHEDRAL.0>
15.9129

>  <SCORE.INTRA.POLAR>
0

>  <SCORE.INTRA.POLAR.0>
0

>  <SCORE.INTRA.REPUL>
0

>  <SCORE.INTRA.REPUL.0>
0

>  <SCORE.INTRA.SOLV>
-0.463874

>  <SCORE.INTRA.SOLV.lig_0>
-75.7056

>  <SCORE.INTRA.VDW>
1.37328

>  <SCORE.INTRA.VDW.0>
-4.61812

>  <SCORE.INTRA.norm>
-0.0451227

>  <SCORE.RESTR>
0

>  <SCORE.RESTR.CAVITY>
0

>  <SCORE.RESTR.norm>
0

>  <SCORE.SYSTEM>
0

>  <SCORE.SYSTEM.CONST>
0

>  <SCORE.SYSTEM.DIHEDRAL>
0

>  <SCORE.SYSTEM.SOLV>
0

>  <SCORE.SYSTEM.norm>
0

>  <SCORE.heavy>
31

>  <SCORE.norm>
-0.530511

>  <RMSD>
0.732

$$$$
ligand
 OpenBabel11021811493D
libRbt.so/2013.1/901 2013/11/27
 31 33  0  0  0  0  0  0  0  0999 V2000
   20.9614   -9.4423   -5.9355 C   0  0  2  0  0  0  0  0  0  0  0  0
   21.2630   -8.9776   -4.6128 O   0  0  0  0  0  0  0  0  0  0  0  0
   21.6291  -10.8936   -0.8202 C   0  0  2  0  0  0  0  0  0  0  0  0
   21.3362  -11.7448    0.2833 N   0  0  0  0  0  0  0  0  0  0  0  0
   22.6853  -13.9441   -1.2568 C   0  0  2  0  0  0  0  0  0  0  0  0
   21.5995   -8.4246   -6.9309 C   0  0  2  0  0  0  0  0  0  0  0  0
   23.0341   -8.3376   -6.6656 N   0  0  0  0  0  0  0  0  0  0  0  0
   20.4601   -9.8535   -0.9974 C   0  0  0  0  0  0  0  0  0  0  0  0
   24.1277  -14.3035   -0.8087 C   0  0  2  0  0  0  0  0  0  0  0  0
   24.6135  -13.2705    0.0180 O   0  0  0  0  0  0  0  0  0  0  0  0
   20.8989   -7.0177   -6.7982 C   0  0  0  0  0  0  0  0  0  0  0  0
   20.7893   -8.9091   -2.2242 C   0  0  2  0  0  0  0  0  0  0  0  0
   19.6938   -7.9333   -2.3971 N   0  0  0  0  0  0  0  0  0  0  0  0
   25.0161  -14.4721   -2.1047 C   0  0  1  0  0  0  0  0  0  0  0  0
   26.4196  -14.7968   -1.7230 N   0  0  0  0  0  0  0  0  0  0  0  0
   19.3786   -7.1254   -6.4134 C   0  0  0  0  0  0  0  0  0  0  0  0
   20.9503   -9.7975   -3.5306 C   0  0  2  0  0  0  0  0  0  0  0  0
   24.4142  -15.6729   -3.0248 C   0  0  1  0  0  0  0  0  0  0  0  0
   24.4078  -16.9182   -2.3707 O   0  0  0  0  0  0  0  0  0  0  0  0
   18.8085   -8.3088   -6.1420 C   0  0  1  0  0  0  0  0  0  0  0  0
   19.5334   -9.5218   -6.1912 O   0  0  0  0  0  0  0  0  0  0  0  0
   22.1083  -10.8392   -3.3196 C   0  0  2  0  0  0  0  0  0  0  0  0
   22.2378  -11.6399   -4.4930 O   0  0  0  0  0  0  0  0  0  0  0  0
   22.9432  -15.3247   -3.4106 C   0  0  0  0  0  0  0  0  0  0  0  0
   22.1339  -15.0120   -2.1680 O   0  0  0  0  0  0  0  0  0  0  0  0
   17.3254   -8.4506   -5.7475 C   0  0  0  0  0  0  0  0  0  0  0  0
   16.9091   -7.2474   -5.0609 N   0  0  0  0  0  0  0  0  0  0  0  0
   21.7652  -11.7609   -2.0890 C   0  0  1  0  0  0  0  0  0  0  0  0
   22.8146  -12.6680   -1.9187 O   0  0  0  0  0  0  0  0  0  0  0  0
   25.1733  -15.9613   -4.3278 C   0  0  0  0  0  0  0  0  0  0  0  0
   27.3440  -13.6572   -1.6196 C   0  0  0  0  0  0  0  0  0  0  0  0
  1  2  1  1  0  0  0
  1  6  1  0  0  0  0
  1 21  1  0  0  0  0
  3  4  1  1  0  0  0
  3  8  1  0  0  0  0
  3 28  1  0  0  0  0
  5  9  1  0  0  0  0
  5 25  1  0  0  0  0
  5 29  1  6  0  0  0
  6  7  1  1  0  0  0
  6 11  1  0  0  0  0
  8 12  1  0  0  0  0
  9 10  1  1  0  0  0
  9 14  1  0  0  0  0
 11 16  1  0  0  0  0
 12 13  1  6  0  0  0
 12 17  1  0  0  0  0
 14 15  1  1  0  0  0
 14 18  1  0  0  0  0
 15 31  1  0  0  0  0
 16 20  1  0  0  0  0
 17  2  1  6  0  0  0
 17 22  1  0  0  0  0
 18 19  1  1  0  0  0
 18 24  1  0  0  0  0
 18 30  1  0  0  0  0
 20 21  1  0  0  0  0
 20 26  1  1  0  0  0
 22 23  1  6  0  0  0
 22 28  1  0  0  0  0
 24 25  1  0  0  0  0
 26 27  1  0  0  0  0
 28 29  1  1  0  0  0
M  END
>  <CHROM.1>
-172.07048419,-157.76113930,-94.20291634,-156.53984952,-29.86473482,84.54168833
22.05062353,-11.40565644,-3.37647104,-2.50138253,-0.81203493,1.87814653

>  <Name>
ligand

>  <RI>
0

>  <Rbt.Current_Directory>
/home/itssahil/PROJECTS/Mol_Feturizer/New_Systems/rnas/4F8V

>  <Rbt.Executable>
rbdock ($Id: //depot/dev/client3/rdock/2013.1/src/exe/rbdock.cxx#4 $)

>  <Rbt.Library>
libRbt.so (2013.1, Build901 2013/11/27)

>  <Rbt.Parameter_File>
/export/apps/rDock/src/rDock_2013.1_src/data/scripts/dock_solv.prm

>  <Rbt.Receptor>
prm/pocket_docking_5.prm

>  <SCORE>
-16.3818

>  <SCORE.INTER>
-14.9974

>  <SCORE.INTER.CONST>
1

>  <SCORE.INTER.POLAR>
0

>  <SCORE.INTER.ROT>
6

>  <SCORE.INTER.SOLV>
18.1876

>  <SCORE.INTER.VDW>
-23.6608

>  <SCORE.INTER.norm>
-0.483787

>  <SCORE.INTRA>
-1.3844

>  <SCORE.INTRA.DIHEDRAL>
-5.09075

>  <SCORE.INTRA.DIHEDRAL.0>
15.9129

>  <SCORE.INTRA.POLAR>
0

>  <SCORE.INTRA.POLAR.0>
0

>  <SCORE.INTRA.REPUL>
0

>  <SCORE.INTRA.REPUL.0>
0

>  <SCORE.INTRA.SOLV>
-0.391859

>  <SCORE.INTRA.SOLV.lig_0>
-75.7056

>  <SCORE.INTRA.VDW>
1.3569

>  <SCORE.INTRA.VDW.0>
-4.61812

>  <SCORE.INTRA.norm>
-0.0446581

>  <SCORE.RESTR>
0

>  <SCORE.RESTR.CAVITY>
0

>  <SCORE.RESTR.norm>
0

>  <SCORE.SYSTEM>
0

>  <SCORE.SYSTEM.CONST>
0

>  <SCORE.SYSTEM.DIHEDRAL>
0

>  <SCORE.SYSTEM.SOLV>
0

>  <SCORE.SYSTEM.norm>
0

>  <SCORE.heavy>
31

>  <SCORE.norm>
-0.528445

>  <RMSD>
0.734

$$$$
ligand
 OpenBabel11021811493D
libRbt.so/2013.1/901 2013/11/27
 31 33  0  0  0  0  0  0  0  0999 V2000
   21.0273   -9.3845   -5.9666 C   0  0  2  0  0  0  0  0  0  0  0  0
   21.3534   -8.9565   -4.6373 O   0  0  0  0  0  0  0  0  0  0  0  0
   21.6252  -10.8876   -0.8445 C   0  0  2  0  0  0  0  0  0  0  0  0
   21.3077  -11.7469    0.2458 N   0  0  0  0  0  0  0  0  0  0  0  0
   22.7264  -13.9180   -1.2475 C   0  0  2  0  0  0  0  0  0  0  0  0
   21.6635   -8.3501   -6.9458 C   0  0  2  0  0  0  0  0  0  0  0  0
   23.1028   -8.2868   -6.6994 N   0  0  0  0  0  0  0  0  0  0  0  0
   20.4522   -9.8576   -1.0515 C   0  0  0  0  0  0  0  0  0  0  0  0
   24.1707  -14.2889   -0.8154 C   0  0  2  0  0  0  0  0  0  0  0  0
   24.6758  -13.2575    0.0016 O   0  0  0  0  0  0  0  0  0  0  0  0
   20.9822   -6.9386   -6.7682 C   0  0  0  0  0  0  0  0  0  0  0  0
   20.8086   -8.9041   -2.2636 C   0  0  2  0  0  0  0  0  0  0  0  0
   19.7095   -7.9377   -2.4644 N   0  0  0  0  0  0  0  0  0  0  0  0
   25.0419  -14.4704   -2.1213 C   0  0  1  0  0  0  0  0  0  0  0  0
   26.4469  -14.8065   -1.7552 N   0  0  0  0  0  0  0  0  0  0  0  0
   19.4664   -7.0377   -6.3641 C   0  0  0  0  0  0  0  0  0  0  0  0
   21.0165   -9.7845   -3.5687 C   0  0  2  0  0  0  0  0  0  0  0  0
   24.4181  -15.6688   -3.0297 C   0  0  1  0  0  0  0  0  0  0  0  0
   24.4082  -16.9117   -2.3710 O   0  0  0  0  0  0  0  0  0  0  0  0
   18.8857   -8.2207   -6.1137 C   0  0  1  0  0  0  0  0  0  0  0  0
   19.5949   -9.4406   -6.2034 O   0  0  0  0  0  0  0  0  0  0  0  0
   22.1776  -10.8164   -3.3284 C   0  0  2  0  0  0  0  0  0  0  0  0
   22.3493  -11.6101   -4.5011 O   0  0  0  0  0  0  0  0  0  0  0  0
   22.9459  -15.3085   -3.3991 C   0  0  0  0  0  0  0  0  0  0  0  0
   22.1544  -14.9841   -2.1481 O   0  0  0  0  0  0  0  0  0  0  0  0
   17.4068   -8.3545   -5.7012 C   0  0  0  0  0  0  0  0  0  0  0  0
   16.9461   -7.0786   -5.1990 N   0  0  0  0  0  0  0  0  0  0  0  0
   21.8070  -11.7473   -2.1127 C   0  0  1  0  0  0  0  0  0  0  0  0
   22.8593  -12.6455   -1.9157 O   0  0  0  0  0  0  0  0  0  0  0  0
   25.1589  -15.9689   -4.3406 C   0  0  0  0  0  0  0  0  0  0  0  0
   27.3585  -13.6675   -1.5669 C   0  0  0  0  0  0  0  0  0  0  0  0
  1  2  1  1  0  0  0
  1  6  1  0  0  0  0
  1 21  1  0  0  0  0
  3  4  1  1  0  0  0
  3  8  1  0  0  0  0
  3 28  1  0  0  0  0
  5  9  1  0  0  0  0
  5 25  1  0  0  0  0
  5 29  1  6  0  0  0
  6  7  1  1  0  0  0
  6 11  1  0  0  0  0
  8 12  1  0  0  0  0
  9 10  1  1  0  0  0
  9 14  1  0  0  0  0
 11 16  1  0  0  0  0
 12 13  1  6  0  0  0
 12 17  1  0  0  0  0
 14 15  1  1  0  0  0
 14 18  1  0  0  0  0
 15 31  1  0  0  0  0
 16 20  1  0  0  0  0
 17  2  1  6  0  0  0
 17 22  1  0  0  0  0
 18 19  1  1  0  0  0
 18 24  1  0  0  0  0
 18 30  1  0  0  0  0
 20 21  1  0  0  0  0
 20 26  1  1  0  0  0
 22 23  1  6  0  0  0
 22 28  1  0  0  0  0
 24 25  1  0  0  0  0
 26 27  1  0  0  0  0
 28 29  1  1  0  0  0
M  END
>  <CHROM.1>
-173.62158081,-159.81069571,-89.71730933,-153.08784011,-19.57096961,83.65311500
22.09198859,-11.37383456,-3.38881608,-2.47200910,-0.80259864,1.91580725

>  <Name>
ligand

>  <RI>
0

>  <Rbt.Current_Directory>
/home/itssahil/PROJECTS/Mol_Feturizer/New_Systems/rnas/4F8V

>  <Rbt.Executable>
rbdock ($Id: //depot/dev/client3/rdock/2013.1/src/exe/rbdock.cxx#4 $)

>  <Rbt.Library>
libRbt.so (2013.1, Build901 2013/11/27)

>  <Rbt.Parameter_File>
/export/apps/rDock/src/rDock_2013.1_src/data/scripts/dock_solv.prm

>  <Rbt.Receptor>
prm/pocket_docking_4.prm

>  <SCORE>
-16.2882

>  <SCORE.INTER>
-14.8696

>  <SCORE.INTER.CONST>
1

>  <SCORE.INTER.POLAR>
0

>  <SCORE.INTER.ROT>
6

>  <SCORE.INTER.SOLV>
17.8938

>  <SCORE.INTER.VDW>
-23.4776

>  <SCORE.INTER.norm>
-0.479663

>  <SCORE.INTRA>
-1.41868

>  <SCORE.INTRA.DIHEDRAL>
-5.70498

>  <SCORE.INTRA.DIHEDRAL.0>
15.9129

>  <SCORE.INTRA.POLAR>
0

>  <SCORE.INTRA.POLAR.0>
0

>  <SCORE.INTRA.REPUL>
0

>  <SCORE.INTRA.REPUL.0>
0

>  <SCORE.INTRA.SOLV>
-0.215944

>  <SCORE.INTRA.SOLV.lig_0>
-75.7056

>  <SCORE.INTRA.VDW>
1.54179

>  <SCORE.INTRA.VDW.0>
-4.61812

>  <SCORE.INTRA.norm>
-0.0457638

>  <SCORE.RESTR>
0

>  <SCORE.RESTR.CAVITY>
0

>  <SCORE.RESTR.norm>
0

>  <SCORE.SYSTEM>
0

>  <SCORE.SYSTEM.CONST>
0

>  <SCORE.SYSTEM.DIHEDRAL>
0

>  <SCORE.SYSTEM.SOLV>
0

>  <SCORE.SYSTEM.norm>
0

>  <SCORE.heavy>
31

>  <SCORE.norm>
-0.525427

>  <RMSD>
0.746

$$$$
ligand
 OpenBabel11021811493D
libRbt.so/2013.1/901 2013/11/27
 31 33  0  0  0  0  0  0  0  0999 V2000
   21.0375   -9.4055   -5.9659 C   0  0  2  0  0  0  0  0  0  0  0  0
   21.3512   -8.9714   -4.6356 O   0  0  0  0  0  0  0  0  0  0  0  0
   21.6697  -10.9276   -0.8594 C   0  0  2  0  0  0  0  0  0  0  0  0
   21.3653  -11.7936    0.2294 N   0  0  0  0  0  0  0  0  0  0  0  0
   22.7637  -13.9521   -1.2871 C   0  0  2  0  0  0  0  0  0  0  0  0
   21.7111   -8.3942   -6.9443 C   0  0  2  0  0  0  0  0  0  0  0  0
   23.1472   -8.3586   -6.6752 N   0  0  0  0  0  0  0  0  0  0  0  0
   20.4956   -9.8947   -1.0442 C   0  0  0  0  0  0  0  0  0  0  0  0
   24.2124  -14.3173   -0.8647 C   0  0  2  0  0  0  0  0  0  0  0  0
   24.7196  -13.2829   -0.0528 O   0  0  0  0  0  0  0  0  0  0  0  0
   21.0569   -6.9671   -6.7912 C   0  0  0  0  0  0  0  0  0  0  0  0
   20.8375   -8.9338   -2.2547 C   0  0  2  0  0  0  0  0  0  0  0  0
   19.7373   -7.9646   -2.4348 N   0  0  0  0  0  0  0  0  0  0  0  0
   25.0749  -14.4975   -2.1766 C   0  0  1  0  0  0  0  0  0  0  0  0
   26.4837  -14.8281   -1.8201 N   0  0  0  0  0  0  0  0  0  0  0  0
   19.5330   -7.0306   -6.4108 C   0  0  0  0  0  0  0  0  0  0  0  0
   21.0272   -9.8059   -3.5681 C   0  0  2  0  0  0  0  0  0  0  0  0
   24.4489  -15.6995   -3.0788 C   0  0  1  0  0  0  0  0  0  0  0  0
   24.4482  -16.9415   -2.4183 O   0  0  0  0  0  0  0  0  0  0  0  0
   18.9236   -8.1986   -6.1588 C   0  0  1  0  0  0  0  0  0  0  0  0
   19.6082   -9.4339   -6.2254 O   0  0  0  0  0  0  0  0  0  0  0  0
   22.1898  -10.8410   -3.3497 C   0  0  2  0  0  0  0  0  0  0  0  0
   22.3451  -11.6272   -4.5297 O   0  0  0  0  0  0  0  0  0  0  0  0
   22.9728  -15.3450   -3.4382 C   0  0  0  0  0  0  0  0  0  0  0  0
   22.1891  -15.0215   -2.1820 O   0  0  0  0  0  0  0  0  0  0  0  0
   17.4357   -8.2974   -5.7692 C   0  0  0  0  0  0  0  0  0  0  0  0
   17.0304   -7.0503   -5.1586 N   0  0  0  0  0  0  0  0  0  0  0  0
   21.8337  -11.7793   -2.1354 C   0  0  1  0  0  0  0  0  0  0  0  0
   22.8873  -12.6801   -1.9579 O   0  0  0  0  0  0  0  0  0  0  0  0
   25.1814  -15.9988   -4.3945 C   0  0  0  0  0  0  0  0  0  0  0  0
   27.3831  -13.6848   -1.6021 C   0  0  0  0  0  0  0  0  0  0  0  0
  1  2  1  1  0  0  0
  1  6  1  0  0  0  0
  1 21  1  0  0  0  0
  3  4  1  1  0  0  0
  3  8  1  0  0  0  0
  3 28  1  0  0  0  0
  5  9  1  0  0  0  0
  5 25  1  0  0  0  0
  5 29  1  6  0  0  0
  6  7  1  1  0  0  0
  6 11  1  0  0  0  0
  8 12  1  0  0  0  0
  9 10  1  1  0  0  0
  9 14  1  0  0  0  0
 11 16  1  0  0  0  0
 12 13  1  6  0  0  0
 12 17  1  0  0  0  0
 14 15  1  1  0  0  0
 14 18  1  0  0  0  0
 15 31  1  0  0  0  0
 16 20  1  0  0  0  0
 17  2  1  6  0  0  0
 17 22  1  0  0  0  0
 18 19  1  1  0  0  0
 18 24  1  0  0  0  0
 18 30  1  0  0  0  0
 20 21  1  0  0  0  0
 20 26  1  1  0  0  0
 22 23  1  6  0  0  0
 22 28  1  0  0  0  0
 24 25  1  0  0  0  0
 26 27  1  0  0  0  0
 28 29  1  1  0  0  0
M  END
>  <CHROM.1>
-171.12801244,-159.05016472,-88.02380100,-154.63743629,-25.42128894,83.13753393
22.12564775,-11.39586177,-3.41359317,-2.48096373,-0.81032305,1.90869800

>  <Name>
ligand

>  <RI>
0

>  <Rbt.Current_Directory>
/home/itssahil/PROJECTS/Mol_Feturizer/New_Systems/rnas/4F8V

>  <Rbt.Executable>
rbdock ($Id: //depot/dev/client3/rdock/2013.1/src/exe/rbdock.cxx#4 $)

>  <Rbt.Library>
libRbt.so (2013.1, Build901 2013/11/27)

>  <Rbt.Parameter_File>
/export/apps/rDock/src/rDock_2013.1_src/data/scripts/dock_solv.prm

>  <Rbt.Receptor>
prm/pocket_docking_3.prm

>  <SCORE>
-16.2681

>  <SCORE.INTER>
-14.912

>  <SCORE.INTER.CONST>
1

>  <SCORE.INTER.POLAR>
0

>  <SCORE.INTER.ROT>
6

>  <SCORE.INTER.SOLV>
17.6155

>  <SCORE.INTER.VDW>
-23.4132

>  <SCORE.INTER.norm>
-0.481032

>  <SCORE.INTRA>
-1.35613

>  <SCORE.INTRA.DIHEDRAL>
-5.55641

>  <SCORE.INTRA.DIHEDRAL.0>
15.9129

>  <SCORE.INTRA.POLAR>
0

>  <SCORE.INTRA.POLAR.0>
0

>  <SCORE.INTRA.REPUL>
0

>  <SCORE.INTRA.REPUL.0>
0

>  <SCORE.INTRA.SOLV>
-0.268404

>  <SCORE.INTRA.SOLV.lig_0>
-75.7056

>  <SCORE.INTRA.VDW>
1.55628

>  <SCORE.INTRA.VDW.0>
-4.61812

>  <SCORE.INTRA.norm>
-0.043746

>  <SCORE.RESTR>
0

>  <SCORE.RESTR.CAVITY>
0

>  <SCORE.RESTR.norm>
0

>  <SCORE.SYSTEM>
0

>  <SCORE.SYSTEM.CONST>
0

>  <SCORE.SYSTEM.DIHEDRAL>
0

>  <SCORE.SYSTEM.SOLV>
0

>  <SCORE.SYSTEM.norm>
0

>  <SCORE.heavy>
31

>  <SCORE.norm>
-0.524778

>  <RMSD>
0.757

$$$$
ligand
 OpenBabel11021811493D
libRbt.so/2013.1/901 2013/11/27
 31 33  0  0  0  0  0  0  0  0999 V2000
   21.0043   -9.4642   -5.9322 C   0  0  2  0  0  0  0  0  0  0  0  0
   21.3092   -8.9983   -4.6107 O   0  0  0  0  0  0  0  0  0  0  0  0
   21.6722  -10.9100   -0.8157 C   0  0  2  0  0  0  0  0  0  0  0  0
   21.3769  -11.7580    0.2896 N   0  0  0  0  0  0  0  0  0  0  0  0
   22.7101  -13.9702   -1.2565 C   0  0  2  0  0  0  0  0  0  0  0  0
   21.6357   -8.4447   -6.9301 C   0  0  2  0  0  0  0  0  0  0  0  0
   23.0710   -8.3533   -6.6701 N   0  0  0  0  0  0  0  0  0  0  0  0
   20.5083   -9.8643   -0.9925 C   0  0  0  0  0  0  0  0  0  0  0  0
   24.1521  -14.3449   -0.8199 C   0  0  2  0  0  0  0  0  0  0  0  0
   24.6530  -13.3204    0.0082 O   0  0  0  0  0  0  0  0  0  0  0  0
   20.9313   -7.0400   -6.7952 C   0  0  0  0  0  0  0  0  0  0  0  0
   20.8402   -8.9235   -2.2215 C   0  0  2  0  0  0  0  0  0  0  0  0
   19.7494   -7.9424   -2.3940 N   0  0  0  0  0  0  0  0  0  0  0  0
   25.0301  -14.5157   -2.1227 C   0  0  1  0  0  0  0  0  0  0  0  0
   26.4331  -14.8551   -1.7522 N   0  0  0  0  0  0  0  0  0  0  0  0
   19.4127   -7.1522   -6.4049 C   0  0  0  0  0  0  0  0  0  0  0  0
   20.9942   -9.8148   -3.5266 C   0  0  2  0  0  0  0  0  0  0  0  0
   24.4108  -15.7066   -3.0442 C   0  0  1  0  0  0  0  0  0  0  0  0
   24.3974  -16.9549   -2.3959 O   0  0  0  0  0  0  0  0  0  0  0  0
   18.8472   -8.3374   -6.1312 C   0  0  1  0  0  0  0  0  0  0  0  0
   19.5756   -9.5481   -6.1828 O   0  0  0  0  0  0  0  0  0  0  0  0
   22.1473  -10.8621   -3.3161 C   0  0  2  0  0  0  0  0  0  0  0  0
   22.2706  -11.6654   -4.4884 O   0  0  0  0  0  0  0  0  0  0  0  0
   22.9406  -15.3430   -3.4184 C   0  0  0  0  0  0  0  0  0  0  0  0
   22.1427  -15.0288   -2.1689 O   0  0  0  0  0  0  0  0  0  0  0  0
   17.3660   -8.4836   -5.7313 C   0  0  0  0  0  0  0  0  0  0  0  0
   16.9831   -7.3377   -4.9358 N   0  0  0  0  0  0  0  0  0  0  0  0
   21.8017  -11.7801   -2.0833 C   0  0  1  0  0  0  0  0  0  0  0  0
   22.8466  -12.6923   -1.9134 O   0  0  0  0  0  0  0  0  0  0  0  0
   25.1584  -15.9959   -4.3537 C   0  0  0  0  0  0  0  0  0  0  0  0
   27.3371  -13.7174   -1.5238 C   0  0  0  0  0  0  0  0  0  0  0  0
  1  2  1  1  0  0  0
  1  6  1  0  0  0  0
  1 21  1  0  0  0  0
  3  4  1  1  0  0  0
  3  8  1  0  0  0  0
  3 28  1  0  0  0  0
  5  9  1  0  0  0  0
  5 25  1  0  0  0  0
  5 29  1  6  0  0  0
  6  7  1  1  0  0  0
  6 11  1  0  0  0  0
  8 12  1  0  0  0  0
  9 10  1  1  0  0  0
  9 14  1  0  0  0  0
 11 16  1  0  0  0  0
 12 13  1  6  0  0  0
 12 17  1  0  0  0  0
 14 15  1  1  0  0  0
 14 18  1  0  0  0  0
 15 31  1  0  0  0  0
 16 20  1  0  0  0  0
 17  2  1  6  0  0  0
 17 22  1  0  0  0  0
 18 19  1  1  0  0  0
 18 24  1  0  0  0  0
 18 30  1  0  0  0  0
 20 21  1  0  0  0  0
 20 26  1  1  0  0  0
 22 23  1  6  0  0  0
 22 28  1  0  0  0  0
 24 25  1  0  0  0  0
 26 27  1  0  0  0  0
 28 29  1  1  0  0  0
M  END
>  <CHROM.1>
-172.52200910,-158.38376435,-88.55307334,-156.60775641,-35.14600146,84.94392779
22.08046280,-11.43479552,-3.37096327,-2.51034578,-0.82331470,1.86619065

>  <Name>
ligand

>  <RI>
0

>  <Rbt.Current_Directory>
/home/itssahil/PROJECTS/Mol_Feturizer/New_Systems/rnas/4F8V

>  <Rbt.Executable>
rbdock ($Id: //depot/dev/client3/rdock/2013.1/src/exe/rbdock.cxx#4 $)

>  <Rbt.Library>
libRbt.so (2013.1, Build901 2013/11/27)

>  <Rbt.Parameter_File>
/export/apps/rDock/src/rDock_2013.1_src/data/scripts/dock_solv.prm

>  <Rbt.Receptor>
prm/pocket_docking_4.prm

>  <SCORE>
-16.3827

>  <SCORE.INTER>
-15.0408

>  <SCORE.INTER.CONST>
1

>  <SCORE.INTER.POLAR>
0

>  <SCORE.INTER.ROT>
6

>  <SCORE.INTER.SOLV>
17.9389

>  <SCORE.INTER.VDW>
-23.6069

>  <SCORE.INTER.norm>
-0.485188

>  <SCORE.INTRA>
-1.34184

>  <SCORE.INTRA.DIHEDRAL>
-5.08434

>  <SCORE.INTRA.DIHEDRAL.0>
15.9129

>  <SCORE.INTRA.POLAR>
0

>  <SCORE.INTRA.POLAR.0>
0

>  <SCORE.INTRA.REPUL>
0

>  <SCORE.INTRA.REPUL.0>
0

>  <SCORE.INTRA.SOLV>
-0.28789

>  <SCORE.INTRA.SOLV.lig_0>
-75.7056

>  <SCORE.INTRA.VDW>
1.34428

>  <SCORE.INTRA.VDW.0>
-4.61812

>  <SCORE.INTRA.norm>
-0.0432851

>  <SCORE.RESTR>
0

>  <SCORE.RESTR.CAVITY>
0

>  <SCORE.RESTR.norm>
0

>  <SCORE.SYSTEM>
0

>  <SCORE.SYSTEM.CONST>
0

>  <SCORE.SYSTEM.DIHEDRAL>
0

>  <SCORE.SYSTEM.SOLV>
0

>  <SCORE.SYSTEM.norm>
0

>  <SCORE.heavy>
31

>  <SCORE.norm>
-0.528473

>  <RMSD>
0.757

$$$$
ligand
 OpenBabel11021811493D
libRbt.so/2013.1/901 2013/11/27
 31 33  0  0  0  0  0  0  0  0999 V2000
   21.0581   -9.4662   -5.9606 C   0  0  2  0  0  0  0  0  0  0  0  0
   21.3379   -8.9915   -4.6367 O   0  0  0  0  0  0  0  0  0  0  0  0
   21.6659  -10.8851   -0.8294 C   0  0  2  0  0  0  0  0  0  0  0  0
   21.3633  -11.7317    0.2749 N   0  0  0  0  0  0  0  0  0  0  0  0
   22.7317  -13.9543   -1.2811 C   0  0  2  0  0  0  0  0  0  0  0  0
   21.7061   -8.4519   -6.9531 C   0  0  2  0  0  0  0  0  0  0  0  0
   23.1362   -8.3564   -6.6674 N   0  0  0  0  0  0  0  0  0  0  0  0
   20.4942   -9.8517   -1.0268 C   0  0  0  0  0  0  0  0  0  0  0  0
   24.1678  -14.3336   -0.8292 C   0  0  2  0  0  0  0  0  0  0  0  0
   24.6496  -13.3280    0.0327 O   0  0  0  0  0  0  0  0  0  0  0  0
   20.9971   -7.0475   -6.8400 C   0  0  0  0  0  0  0  0  0  0  0  0
   20.8342   -8.9123   -2.2546 C   0  0  2  0  0  0  0  0  0  0  0  0
   19.7363   -7.9428   -2.4464 N   0  0  0  0  0  0  0  0  0  0  0  0
   25.0686  -14.4680   -2.1206 C   0  0  1  0  0  0  0  0  0  0  0  0
   26.4667  -14.8105   -1.7346 N   0  0  0  0  0  0  0  0  0  0  0  0
   19.4718   -7.1598   -6.4769 C   0  0  0  0  0  0  0  0  0  0  0  0
   21.0156   -9.8070   -3.5540 C   0  0  2  0  0  0  0  0  0  0  0  0
   24.4709  -15.6380   -3.0821 C   0  0  1  0  0  0  0  0  0  0  0  0
   24.4523  -16.9022   -2.4655 O   0  0  0  0  0  0  0  0  0  0  0  0
   18.9032   -8.3441   -6.2063 C   0  0  1  0  0  0  0  0  0  0  0  0
   19.6343   -9.5540   -6.2368 O   0  0  0  0  0  0  0  0  0  0  0  0
   22.1759  -10.8419   -3.3230 C   0  0  2  0  0  0  0  0  0  0  0  0
   22.3239  -11.6483   -4.4903 O   0  0  0  0  0  0  0  0  0  0  0  0
   23.0056  -15.2714   -3.4723 C   0  0  0  0  0  0  0  0  0  0  0  0
   22.1849  -14.9920   -2.2292 O   0  0  0  0  0  0  0  0  0  0  0  0
   17.4151   -8.4903   -5.8327 C   0  0  0  0  0  0  0  0  0  0  0  0
   17.0382   -7.3844   -4.9800 N   0  0  0  0  0  0  0  0  0  0  0  0
   21.8219  -11.7586   -2.0916 C   0  0  1  0  0  0  0  0  0  0  0  0
   22.8734  -12.6597   -1.9034 O   0  0  0  0  0  0  0  0  0  0  0  0
   25.2421  -15.8912   -4.3853 C   0  0  0  0  0  0  0  0  0  0  0  0
   27.3978  -13.6798   -1.5985 C   0  0  0  0  0  0  0  0  0  0  0  0
  1  2  1  1  0  0  0
  1  6  1  0  0  0  0
  1 21  1  0  0  0  0
  3  4  1  1  0  0  0
  3  8  1  0  0  0  0
  3 28  1  0  0  0  0
  5  9  1  0  0  0  0
  5 25  1  0  0  0  0
  5 29  1  6  0  0  0
  6  7  1  1  0  0  0
  6 11  1  0  0  0  0
  8 12  1  0  0  0  0
  9 10  1  1  0  0  0
  9 14  1  0  0  0  0
 11 16  1  0  0  0  0
 12 13  1  6  0  0  0
 12 17  1  0  0  0  0
 14 15  1  1  0  0  0
 14 18  1  0  0  0  0
 15 31  1  0  0  0  0
 16 20  1  0  0  0  0
 17  2  1  6  0  0  0
 17 22  1  0  0  0  0
 18 19  1  1  0  0  0
 18 24  1  0  0  0  0
 18 30  1  0  0  0  0
 20 21  1  0  0  0  0
 20 26  1  1  0  0  0
 22 23  1  6  0  0  0
 22 28  1  0  0  0  0
 24 25  1  0  0  0  0
 26 27  1  0  0  0  0
 28 29  1  1  0  0  0
M  END
>  <CHROM.1>
-171.93507723,-159.67860194,-94.68006004,-156.68882891,-38.79062929,86.98387695
22.11725281,-11.41621262,-3.40225718,-2.49659701,-0.81010206,1.88024286

>  <Name>
ligand

>  <RI>
0

>  <Rbt.Current_Directory>
/home/itssahil/PROJECTS/Mol_Feturizer/New_Systems/rnas/4F8V

>  <Rbt.Executable>
rbdock ($Id: //depot/dev/client3/rdock/2013.1/src/exe/rbdock.cxx#4 $)

>  <Rbt.Library>
libRbt.so (2013.1, Build901 2013/11/27)

>  <Rbt.Parameter_File>
/export/apps/rDock/src/rDock_2013.1_src/data/scripts/dock_solv.prm

>  <Rbt.Receptor>
prm/pocket_docking_8.prm

>  <SCORE>
-16.3268

>  <SCORE.INTER>
-15.0271

>  <SCORE.INTER.CONST>
1

>  <SCORE.INTER.POLAR>
0

>  <SCORE.INTER.ROT>
6

>  <SCORE.INTER.SOLV>
17.7579

>  <SCORE.INTER.VDW>
-23.5374

>  <SCORE.INTER.norm>
-0.484745

>  <SCORE.INTRA>
-1.29973

>  <SCORE.INTRA.DIHEDRAL>
-4.53475

>  <SCORE.INTRA.DIHEDRAL.0>
15.9129

>  <SCORE.INTRA.POLAR>
0

>  <SCORE.INTRA.POLAR.0>
0

>  <SCORE.INTRA.REPUL>
0

>  <SCORE.INTRA.REPUL.0>
0

>  <SCORE.INTRA.SOLV>
-0.29351

>  <SCORE.INTRA.SOLV.lig_0>
-75.7056

>  <SCORE.INTRA.VDW>
1.1144

>  <SCORE.INTRA.VDW.0>
-4.61812

>  <SCORE.INTRA.norm>
-0.0419267

>  <SCORE.RESTR>
0

>  <SCORE.RESTR.CAVITY>
0

>  <SCORE.RESTR.norm>
0

>  <SCORE.SYSTEM>
0

>  <SCORE.SYSTEM.CONST>
0

>  <SCORE.SYSTEM.DIHEDRAL>
0

>  <SCORE.SYSTEM.SOLV>
0

>  <SCORE.SYSTEM.norm>
0

>  <SCORE.heavy>
31

>  <SCORE.norm>
-0.526672

>  <RMSD>
0.758

$$$$
ligand
 OpenBabel11021811493D
libRbt.so/2013.1/901 2013/11/27
 31 33  0  0  0  0  0  0  0  0999 V2000
   21.0058   -9.4618   -5.9063 C   0  0  2  0  0  0  0  0  0  0  0  0
   21.2704   -8.9795   -4.5820 O   0  0  0  0  0  0  0  0  0  0  0  0
   21.6134  -10.8718   -0.7755 C   0  0  2  0  0  0  0  0  0  0  0  0
   21.3168  -11.7203    0.3291 N   0  0  0  0  0  0  0  0  0  0  0  0
   22.7029  -13.9199   -1.1972 C   0  0  2  0  0  0  0  0  0  0  0  0
   21.6706   -8.4566   -6.8970 C   0  0  2  0  0  0  0  0  0  0  0  0
   23.0973   -8.3649   -6.5934 N   0  0  0  0  0  0  0  0  0  0  0  0
   20.4357   -9.8450   -0.9714 C   0  0  0  0  0  0  0  0  0  0  0  0
   24.1495  -14.2898   -0.7715 C   0  0  2  0  0  0  0  0  0  0  0  0
   24.6516  -13.2656    0.0563 O   0  0  0  0  0  0  0  0  0  0  0  0
   20.9659   -7.0487   -6.8023 C   0  0  0  0  0  0  0  0  0  0  0  0
   20.7690   -8.9035   -2.1994 C   0  0  2  0  0  0  0  0  0  0  0  0
   19.6654   -7.9401   -2.3898 N   0  0  0  0  0  0  0  0  0  0  0  0
   25.0193  -14.4529   -2.0808 C   0  0  1  0  0  0  0  0  0  0  0  0
   26.4262  -14.7874   -1.7207 N   0  0  0  0  0  0  0  0  0  0  0  0
   19.4356   -7.1527   -6.4583 C   0  0  0  0  0  0  0  0  0  0  0  0
   20.9540   -9.7969   -3.4991 C   0  0  2  0  0  0  0  0  0  0  0  0
   24.3989  -15.6436   -3.0017 C   0  0  1  0  0  0  0  0  0  0  0  0
   24.3951  -16.8939   -2.3571 O   0  0  0  0  0  0  0  0  0  0  0  0
   18.8588   -8.3330   -6.1873 C   0  0  1  0  0  0  0  0  0  0  0  0
   19.5854   -9.5459   -6.2004 O   0  0  0  0  0  0  0  0  0  0  0  0
   22.1203  -10.8254   -3.2696 C   0  0  2  0  0  0  0  0  0  0  0  0
   22.2714  -11.6308   -4.4372 O   0  0  0  0  0  0  0  0  0  0  0  0
   22.9246  -15.2851   -3.3648 C   0  0  0  0  0  0  0  0  0  0  0  0
   22.1338  -14.9781   -2.1089 O   0  0  0  0  0  0  0  0  0  0  0  0
   17.3654   -8.4709   -5.8321 C   0  0  0  0  0  0  0  0  0  0  0  0
   16.9969   -7.3920   -4.9418 N   0  0  0  0  0  0  0  0  0  0  0  0
   21.7729  -11.7442   -2.0380 C   0  0  1  0  0  0  0  0  0  0  0  0
   22.8296  -12.6394   -1.8511 O   0  0  0  0  0  0  0  0  0  0  0  0
   25.1388  -15.9257   -4.3170 C   0  0  0  0  0  0  0  0  0  0  0  0
   27.3496  -13.6502   -1.5867 C   0  0  0  0  0  0  0  0  0  0  0  0
  1  2  1  1  0  0  0
  1  6  1  0  0  0  0
  1 21  1  0  0  0  0
  3  4  1  1  0  0  0
  3  8  1  0  0  0  0
  3 28  1  0  0  0  0
  5  9  1  0  0  0  0
  5 25  1  0  0  0  0
  5 29  1  6  0  0  0
  6  7  1  1  0  0  0
  6 11  1  0  0  0  0
  8 12  1  0  0  0  0
  9 10  1  1  0  0  0
  9 14  1  0  0  0  0
 11 16  1  0  0  0  0
 12 13  1  6  0  0  0
 12 17  1  0  0  0  0
 14 15  1  1  0  0  0
 14 18  1  0  0  0  0
 15 31  1  0  0  0  0
 16 20  1  0  0  0  0
 17  2  1  6  0  0  0
 17 22  1  0  0  0  0
 18 19  1  1  0  0  0
 18 24  1  0  0  0  0
 18 30  1  0  0  0  0
 20 21  1  0  0  0  0
 20 26  1  1  0  0  0
 22 23  1  6  0  0  0
 22 28  1  0  0  0  0
 24 25  1  0  0  0  0
 26 27  1  0  0  0  0
 28 29  1  1  0  0  0
M  END
>  <CHROM.1>
-170.75058142,-159.90394661,-92.65816856,-157.39092578,-41.39450194,85.27061945
22.06730763,-11.40507961,-3.34893244,-2.49269075,-0.80817932,1.88181407

>  <Name>
ligand

>  <RI>
0

>  <Rbt.Current_Directory>
/home/itssahil/PROJECTS/Mol_Feturizer/New_Systems/rnas/4F8V

>  <Rbt.Executable>
rbdock ($Id: //depot/dev/client3/rdock/2013.1/src/exe/rbdock.cxx#4 $)

>  <Rbt.Library>
libRbt.so (2013.1, Build901 2013/11/27)

>  <Rbt.Parameter_File>
/export/apps/rDock/src/rDock_2013.1_src/data/scripts/dock_solv.prm

>  <Rbt.Receptor>
prm/pocket_docking_3.prm

>  <SCORE>
-16.4055

>  <SCORE.INTER>
-14.9798

>  <SCORE.INTER.CONST>
1

>  <SCORE.INTER.POLAR>
0

>  <SCORE.INTER.ROT>
6

>  <SCORE.INTER.SOLV>
18.2047

>  <SCORE.INTER.VDW>
-23.6548

>  <SCORE.INTER.norm>
-0.48322

>  <SCORE.INTRA>
-1.42565

>  <SCORE.INTRA.DIHEDRAL>
-4.86269

>  <SCORE.INTRA.DIHEDRAL.0>
15.9129

>  <SCORE.INTRA.POLAR>
0

>  <SCORE.INTRA.POLAR.0>
0

>  <SCORE.INTRA.REPUL>
0

>  <SCORE.INTRA.REPUL.0>
0

>  <SCORE.INTRA.SOLV>
-0.319488

>  <SCORE.INTRA.SOLV.lig_0>
-75.7056

>  <SCORE.INTRA.VDW>
1.16544

>  <SCORE.INTRA.VDW.0>
-4.61812

>  <SCORE.INTRA.norm>
-0.0459887

>  <SCORE.RESTR>
0

>  <SCORE.RESTR.CAVITY>
0

>  <SCORE.RESTR.norm>
0

>  <SCORE.SYSTEM>
0

>  <SCORE.SYSTEM.CONST>
0

>  <SCORE.SYSTEM.DIHEDRAL>
0

>  <SCORE.SYSTEM.SOLV>
0

>  <SCORE.SYSTEM.norm>
0

>  <SCORE.heavy>
31

>  <SCORE.norm>
-0.529209

>  <RMSD>
0.759

$$$$
ligand
 OpenBabel11021811493D
libRbt.so/2013.1/901 2013/11/27
 31 33  0  0  0  0  0  0  0  0999 V2000
   21.0537   -9.4538   -5.9945 C   0  0  2  0  0  0  0  0  0  0  0  0
   21.3539   -8.9923   -4.6703 O   0  0  0  0  0  0  0  0  0  0  0  0
   21.6640  -10.8981   -0.8676 C   0  0  2  0  0  0  0  0  0  0  0  0
   21.3533  -11.7443    0.2348 N   0  0  0  0  0  0  0  0  0  0  0  0
   22.7029  -13.9691   -1.3104 C   0  0  2  0  0  0  0  0  0  0  0  0
   21.6866   -8.4297   -6.9867 C   0  0  2  0  0  0  0  0  0  0  0  0
   23.1210   -8.3372   -6.7219 N   0  0  0  0  0  0  0  0  0  0  0  0
   20.5026   -9.8527   -1.0623 C   0  0  0  0  0  0  0  0  0  0  0  0
   24.1342  -14.3477   -0.8429 C   0  0  2  0  0  0  0  0  0  0  0  0
   24.6123  -13.3339    0.0115 O   0  0  0  0  0  0  0  0  0  0  0  0
   20.9798   -7.0264   -6.8487 C   0  0  0  0  0  0  0  0  0  0  0  0
   20.8515   -8.9139   -2.2880 C   0  0  2  0  0  0  0  0  0  0  0  0
   19.7632   -7.9330   -2.4772 N   0  0  0  0  0  0  0  0  0  0  0  0
   25.0448  -14.4993   -2.1255 C   0  0  1  0  0  0  0  0  0  0  0  0
   26.4388  -14.8417   -1.7245 N   0  0  0  0  0  0  0  0  0  0  0  0
   19.4602   -7.1423   -6.4634 C   0  0  0  0  0  0  0  0  0  0  0  0
   21.0238   -9.8072   -3.5895 C   0  0  2  0  0  0  0  0  0  0  0  0
   24.4511  -15.6782   -3.0784 C   0  0  1  0  0  0  0  0  0  0  0  0
   24.4236  -16.9353   -2.4478 O   0  0  0  0  0  0  0  0  0  0  0  0
   18.8956   -8.3292   -6.1959 C   0  0  1  0  0  0  0  0  0  0  0  0
   19.6258   -9.5388   -6.2497 O   0  0  0  0  0  0  0  0  0  0  0  0
   22.1738  -10.8541   -3.3612 C   0  0  2  0  0  0  0  0  0  0  0  0
   22.3135  -11.6592   -4.5305 O   0  0  0  0  0  0  0  0  0  0  0  0
   22.9900  -15.3117   -3.4844 C   0  0  0  0  0  0  0  0  0  0  0  0
   22.1604  -15.0158   -2.2511 O   0  0  0  0  0  0  0  0  0  0  0  0
   17.4133   -8.4790   -5.8011 C   0  0  0  0  0  0  0  0  0  0  0  0
   16.9900   -7.2772   -5.1163 N   0  0  0  0  0  0  0  0  0  0  0  0
   21.8111  -11.7701   -2.1320 C   0  0  1  0  0  0  0  0  0  0  0  0
   22.8536  -12.6820   -1.9461 O   0  0  0  0  0  0  0  0  0  0  0  0
   25.2318  -15.9485   -4.3726 C   0  0  0  0  0  0  0  0  0  0  0  0
   27.3519  -13.7070   -1.5183 C   0  0  0  0  0  0  0  0  0  0  0  0
  1  2  1  1  0  0  0
  1  6  1  0  0  0  0
  1 21  1  0  0  0  0
  3  4  1  1  0  0  0
  3  8  1  0  0  0  0
  3 28  1  0  0  0  0
  5  9  1  0  0  0  0
  5 25  1  0  0  0  0
  5 29  1  6  0  0  0
  6  7  1  1  0  0  0
  6 11  1  0  0  0  0
  8 12  1  0  0  0  0
  9 10  1  1  0  0  0
  9 14  1  0  0  0  0
 11 16  1  0  0  0  0
 12 13  1  6  0  0  0
 12 17  1  0  0  0  0
 14 15  1  1  0  0  0
 14 18  1  0  0  0  0
 15 31  1  0  0  0  0
 16 20  1  0  0  0  0
 17  2  1  6  0  0  0
 17 22  1  0  0  0  0
 18 19  1  1  0  0  0
 18 24  1  0  0  0  0
 18 30  1  0  0  0  0
 20 21  1  0  0  0  0
 20 26  1  1  0  0  0
 22 23  1  6  0  0  0
 22 28  1  0  0  0  0
 24 25  1  0  0  0  0
 26 27  1  0  0  0  0
 28 29  1  1  0  0  0
M  END
>  <CHROM.1>
-173.19159180,-158.51141279,-91.28151481,-155.91364897,-29.56551772,86.09875619
22.10385526,-11.42143047,-3.42169057,-2.49543075,-0.81761848,1.87813410

>  <Name>
ligand

>  <RI>
0

>  <Rbt.Current_Directory>
/home/itssahil/PROJECTS/Mol_Feturizer/New_Systems/rnas/4F8V

>  <Rbt.Executable>
rbdock ($Id: //depot/dev/client3/rdock/2013.1/src/exe/rbdock.cxx#4 $)

>  <Rbt.Library>
libRbt.so (2013.1, Build901 2013/11/27)

>  <Rbt.Parameter_File>
/export/apps/rDock/src/rDock_2013.1_src/data/scripts/dock_solv.prm

>  <Rbt.Receptor>
prm/pocket_docking_4.prm

>  <SCORE>
-16.359

>  <SCORE.INTER>
-15.0346

>  <SCORE.INTER.CONST>
1

>  <SCORE.INTER.POLAR>
0

>  <SCORE.INTER.ROT>
6

>  <SCORE.INTER.SOLV>
17.8523

>  <SCORE.INTER.VDW>
-23.5738

>  <SCORE.INTER.norm>
-0.484986

>  <SCORE.INTRA>
-1.3244

>  <SCORE.INTRA.DIHEDRAL>
-5.00856

>  <SCORE.INTRA.DIHEDRAL.0>
15.9129

>  <SCORE.INTRA.POLAR>
0

>  <SCORE.INTRA.POLAR.0>
0

>  <SCORE.INTRA.REPUL>
0

>  <SCORE.INTRA.REPUL.0>
0

>  <SCORE.INTRA.SOLV>
-0.338111

>  <SCORE.INTRA.SOLV.lig_0>
-75.7056

>  <SCORE.INTRA.VDW>
1.34893

>  <SCORE.INTRA.VDW.0>
-4.61812

>  <SCORE.INTRA.norm>
-0.0427226

>  <SCORE.RESTR>
0

>  <SCORE.RESTR.CAVITY>
0

>  <SCORE.RESTR.norm>
0

>  <SCORE.SYSTEM>
0

>  <SCORE.SYSTEM.CONST>
0

>  <SCORE.SYSTEM.DIHEDRAL>
0

>  <SCORE.SYSTEM.SOLV>
0

>  <SCORE.SYSTEM.norm>
0

>  <SCORE.heavy>
31

>  <SCORE.norm>
-0.527708

>  <RMSD>
0.759

$$$$
ligand
 OpenBabel11021811493D
libRbt.so/2013.1/901 2013/11/27
 31 33  0  0  0  0  0  0  0  0999 V2000
   21.0265   -9.4543   -5.9335 C   0  0  2  0  0  0  0  0  0  0  0  0
   21.3128   -8.9824   -4.6099 O   0  0  0  0  0  0  0  0  0  0  0  0
   21.6404  -10.8734   -0.8013 C   0  0  2  0  0  0  0  0  0  0  0  0
   21.3383  -11.7200    0.3032 N   0  0  0  0  0  0  0  0  0  0  0  0
   22.7199  -13.9259   -1.2190 C   0  0  2  0  0  0  0  0  0  0  0  0
   21.6850   -8.4477   -6.9268 C   0  0  2  0  0  0  0  0  0  0  0  0
   23.1164   -8.3682   -6.6423 N   0  0  0  0  0  0  0  0  0  0  0  0
   20.4669   -9.8425   -1.0005 C   0  0  0  0  0  0  0  0  0  0  0  0
   24.1640  -14.3005   -0.7892 C   0  0  2  0  0  0  0  0  0  0  0  0
   24.6673  -13.2777    0.0397 O   0  0  0  0  0  0  0  0  0  0  0  0
   20.9920   -7.0353   -6.8135 C   0  0  0  0  0  0  0  0  0  0  0  0
   20.8063   -8.9030   -2.2285 C   0  0  2  0  0  0  0  0  0  0  0  0
   19.7066   -7.9358   -2.4220 N   0  0  0  0  0  0  0  0  0  0  0  0
   25.0369  -14.4670   -2.0960 C   0  0  1  0  0  0  0  0  0  0  0  0
   26.4417  -14.8062   -1.7319 N   0  0  0  0  0  0  0  0  0  0  0  0
   19.4659   -7.1304   -6.4492 C   0  0  0  0  0  0  0  0  0  0  0  0
   20.9910   -9.7980   -3.5271 C   0  0  2  0  0  0  0  0  0  0  0  0
   24.4150  -15.6559   -3.0181 C   0  0  1  0  0  0  0  0  0  0  0  0
   24.4052  -16.9060   -2.3732 O   0  0  0  0  0  0  0  0  0  0  0  0
   18.8842   -8.3082   -6.1777 C   0  0  1  0  0  0  0  0  0  0  0  0
   19.6016   -9.5262   -6.2085 O   0  0  0  0  0  0  0  0  0  0  0  0
   22.1531  -10.8304   -3.2943 C   0  0  2  0  0  0  0  0  0  0  0  0
   22.3040  -11.6372   -4.4610 O   0  0  0  0  0  0  0  0  0  0  0  0
   22.9429  -15.2926   -3.3854 C   0  0  0  0  0  0  0  0  0  0  0  0
   22.1497  -14.9824   -2.1319 O   0  0  0  0  0  0  0  0  0  0  0  0
   17.3949   -8.4375   -5.8028 C   0  0  0  0  0  0  0  0  0  0  0  0
   16.9632   -7.2063   -5.1782 N   0  0  0  0  0  0  0  0  0  0  0  0
   21.7997  -11.7472   -2.0629 C   0  0  1  0  0  0  0  0  0  0  0  0
   22.8527  -12.6460   -1.8730 O   0  0  0  0  0  0  0  0  0  0  0  0
   25.1575  -15.9411   -4.3314 C   0  0  0  0  0  0  0  0  0  0  0  0
   27.3572  -13.6694   -1.5499 C   0  0  0  0  0  0  0  0  0  0  0  0
  1  2  1  1  0  0  0
  1  6  1  0  0  0  0
  1 21  1  0  0  0  0
  3  4  1  1  0  0  0
  3  8  1  0  0  0  0
  3 28  1  0  0  0  0
  5  9  1  0  0  0  0
  5 25  1  0  0  0  0
  5 29  1  6  0  0  0
  6  7  1  1  0  0  0
  6 11  1  0  0  0  0
  8 12  1  0  0  0  0
  9 10  1  1  0  0  0
  9 14  1  0  0  0  0
 11 16  1  0  0  0  0
 12 13  1  6  0  0  0
 12 17  1  0  0  0  0
 14 15  1  1  0  0  0
 14 18  1  0  0  0  0
 15 31  1  0  0  0  0
 16 20  1  0  0  0  0
 17  2  1  6  0  0  0
 17 22  1  0  0  0  0
 18 19  1  1  0  0  0
 18 24  1  0  0  0  0
 18 30  1  0  0  0  0
 20 21  1  0  0  0  0
 20 26  1  1  0  0  0
 22 23  1  6  0  0  0
 22 28  1  0  0  0  0
 24 25  1  0  0  0  0
 26 27  1  0  0  0  0
 28 29  1  1  0  0  0
M  END
>  <CHROM.1>
-171.48390605,-159.88877028,-90.60583962,-156.24519188,-27.60935343,85.29568030
22.08878868,-11.40006434,-3.37269084,-2.49432179,-0.81377087,1.87733181

>  <Name>
ligand

>  <RI>
0

>  <Rbt.Current_Directory>
/home/itssahil/PROJECTS/Mol_Feturizer/New_Systems/rnas/4F8V

>  <Rbt.Executable>
rbdock ($Id: //depot/dev/client3/rdock/2013.1/src/exe/rbdock.cxx#4 $)

>  <Rbt.Library>
libRbt.so (2013.1, Build901 2013/11/27)

>  <Rbt.Parameter_File>
/export/apps/rDock/src/rDock_2013.1_src/data/scripts/dock_solv.prm

>  <Rbt.Receptor>
prm/pocket_docking_4.prm

>  <SCORE>
-16.398

>  <SCORE.INTER>
-14.9144

>  <SCORE.INTER.CONST>
1

>  <SCORE.INTER.POLAR>
0

>  <SCORE.INTER.ROT>
6

>  <SCORE.INTER.SOLV>
18.1608

>  <SCORE.INTER.VDW>
-23.5965

>  <SCORE.INTER.norm>
-0.481111

>  <SCORE.INTRA>
-1.48358

>  <SCORE.INTRA.DIHEDRAL>
-5.43888

>  <SCORE.INTRA.DIHEDRAL.0>
15.9129

>  <SCORE.INTRA.POLAR>
0

>  <SCORE.INTRA.POLAR.0>
0

>  <SCORE.INTRA.REPUL>
0

>  <SCORE.INTRA.REPUL.0>
0

>  <SCORE.INTRA.SOLV>
-0.458759

>  <SCORE.INTRA.SOLV.lig_0>
-75.7056

>  <SCORE.INTRA.VDW>
1.46524

>  <SCORE.INTRA.VDW.0>
-4.61812

>  <SCORE.INTRA.norm>
-0.0478573

>  <SCORE.RESTR>
0

>  <SCORE.RESTR.CAVITY>
0

>  <SCORE.RESTR.norm>
0

>  <SCORE.SYSTEM>
0

>  <SCORE.SYSTEM.CONST>
0

>  <SCORE.SYSTEM.DIHEDRAL>
0

>  <SCORE.SYSTEM.SOLV>
0

>  <SCORE.SYSTEM.norm>
0

>  <SCORE.heavy>
31

>  <SCORE.norm>
-0.528968

>  <RMSD>
0.761

$$$$
ligand
 OpenBabel11021811493D
libRbt.so/2013.1/901 2013/11/27
 31 33  0  0  0  0  0  0  0  0999 V2000
   21.0351   -9.4415   -5.9372 C   0  0  2  0  0  0  0  0  0  0  0  0
   21.3035   -8.9738   -4.6085 O   0  0  0  0  0  0  0  0  0  0  0  0
   21.6516  -10.9131   -0.8261 C   0  0  2  0  0  0  0  0  0  0  0  0
   21.3542  -11.7721    0.2701 N   0  0  0  0  0  0  0  0  0  0  0  0
   22.7222  -13.9508   -1.2610 C   0  0  2  0  0  0  0  0  0  0  0  0
   21.6850   -8.4180   -6.9190 C   0  0  2  0  0  0  0  0  0  0  0  0
   23.1127   -8.3175   -6.6228 N   0  0  0  0  0  0  0  0  0  0  0  0
   20.4810   -9.8749   -1.0038 C   0  0  0  0  0  0  0  0  0  0  0  0
   24.1673  -14.3100   -0.8214 C   0  0  2  0  0  0  0  0  0  0  0  0
   24.6598  -13.2745   -0.0020 O   0  0  0  0  0  0  0  0  0  0  0  0
   20.9685   -7.0178   -6.8021 C   0  0  0  0  0  0  0  0  0  0  0  0
   20.8152   -8.9218   -2.2225 C   0  0  2  0  0  0  0  0  0  0  0  0
   19.7182   -7.9477   -2.3958 N   0  0  0  0  0  0  0  0  0  0  0  0
   25.0466  -14.4846   -2.1228 C   0  0  1  0  0  0  0  0  0  0  0  0
   26.4524  -14.8094   -1.7495 N   0  0  0  0  0  0  0  0  0  0  0  0
   19.4413   -7.1397   -6.4502 C   0  0  0  0  0  0  0  0  0  0  0  0
   20.9864   -9.8013   -3.5335 C   0  0  2  0  0  0  0  0  0  0  0  0
   24.4371  -15.6882   -3.0341 C   0  0  1  0  0  0  0  0  0  0  0  0
   24.4339  -16.9311   -2.3753 O   0  0  0  0  0  0  0  0  0  0  0  0
   18.8766   -8.3284   -6.1909 C   0  0  1  0  0  0  0  0  0  0  0  0
   19.6137   -9.5345   -6.2238 O   0  0  0  0  0  0  0  0  0  0  0  0
   22.1458  -10.8414   -3.3222 C   0  0  2  0  0  0  0  0  0  0  0  0
   22.2845  -11.6343   -4.4999 O   0  0  0  0  0  0  0  0  0  0  0  0
   22.9639  -15.3398   -3.4112 C   0  0  0  0  0  0  0  0  0  0  0  0
   22.1635  -15.0216   -2.1644 O   0  0  0  0  0  0  0  0  0  0  0  0
   17.3867   -8.4840   -5.8285 C   0  0  0  0  0  0  0  0  0  0  0  0
   17.0101   -7.4106   -4.9350 N   0  0  0  0  0  0  0  0  0  0  0  0
   21.7977  -11.7719   -2.0995 C   0  0  1  0  0  0  0  0  0  0  0  0
   22.8483  -12.6774   -1.9287 O   0  0  0  0  0  0  0  0  0  0  0  0
   25.1870  -15.9824   -4.3412 C   0  0  0  0  0  0  0  0  0  0  0  0
   27.3643  -13.6652   -1.5982 C   0  0  0  0  0  0  0  0  0  0  0  0
  1  2  1  1  0  0  0
  1  6  1  0  0  0  0
  1 21  1  0  0  0  0
  3  4  1  1  0  0  0
  3  8  1  0  0  0  0
  3 28  1  0  0  0  0
  5  9  1  0  0  0  0
  5 25  1  0  0  0  0
  5 29  1  6  0  0  0
  6  7  1  1  0  0  0
  6 11  1  0  0  0  0
  8 12  1  0  0  0  0
  9 10  1  1  0  0  0
  9 14  1  0  0  0  0
 11 16  1  0  0  0  0
 12 13  1  6  0  0  0
 12 17  1  0  0  0  0
 14 15  1  1  0  0  0
 14 18  1  0  0  0  0
 15 31  1  0  0  0  0
 16 20  1  0  0  0  0
 17  2  1  6  0  0  0
 17 22  1  0  0  0  0
 18 19  1  1  0  0  0
 18 24  1  0  0  0  0
 18 30  1  0  0  0  0
 20 21  1  0  0  0  0
 20 26  1  1  0  0  0
 22 23  1  6  0  0  0
 22 28  1  0  0  0  0
 24 25  1  0  0  0  0
 26 27  1  0  0  0  0
 28 29  1  1  0  0  0
M  END
>  <CHROM.1>
-171.49436694,-158.00551255,-91.57830700,-157.73198926,-40.71502014,83.73370760
22.09374700,-11.42012581,-3.38162711,-2.49056124,-0.80926794,1.89023345

>  <Name>
ligand

>  <RI>
0

>  <Rbt.Current_Directory>
/home/itssahil/PROJECTS/Mol_Feturizer/New_Systems/rnas/4F8V

>  <Rbt.Executable>
rbdock ($Id: //depot/dev/client3/rdock/2013.1/src/exe/rbdock.cxx#4 $)

>  <Rbt.Library>
libRbt.so (2013.1, Build901 2013/11/27)

>  <Rbt.Parameter_File>
/export/apps/rDock/src/rDock_2013.1_src/data/scripts/dock_solv.prm

>  <Rbt.Receptor>
prm/pocket_docking_3.prm

>  <SCORE>
-16.349

>  <SCORE.INTER>
-14.9127

>  <SCORE.INTER.CONST>
1

>  <SCORE.INTER.POLAR>
0

>  <SCORE.INTER.ROT>
6

>  <SCORE.INTER.SOLV>
18.0481

>  <SCORE.INTER.VDW>
-23.5578

>  <SCORE.INTER.norm>
-0.481055

>  <SCORE.INTRA>
-1.43627

>  <SCORE.INTRA.DIHEDRAL>
-5.00556

>  <SCORE.INTRA.DIHEDRAL.0>
15.9129

>  <SCORE.INTRA.POLAR>
0

>  <SCORE.INTRA.POLAR.0>
0

>  <SCORE.INTRA.REPUL>
0

>  <SCORE.INTRA.REPUL.0>
0

>  <SCORE.INTRA.SOLV>
-0.308945

>  <SCORE.INTRA.SOLV.lig_0>
-75.7056

>  <SCORE.INTRA.VDW>
1.22099

>  <SCORE.INTRA.VDW.0>
-4.61812

>  <SCORE.INTRA.norm>
-0.0463313

>  <SCORE.RESTR>
0

>  <SCORE.RESTR.CAVITY>
0

>  <SCORE.RESTR.norm>
0

>  <SCORE.SYSTEM>
0

>  <SCORE.SYSTEM.CONST>
0

>  <SCORE.SYSTEM.DIHEDRAL>
0

>  <SCORE.SYSTEM.SOLV>
0

>  <SCORE.SYSTEM.norm>
0

>  <SCORE.heavy>
31

>  <SCORE.norm>
-0.527386

>  <RMSD>
0.764

$$$$
ligand
 OpenBabel11021811493D
libRbt.so/2013.1/901 2013/11/27
 31 33  0  0  0  0  0  0  0  0999 V2000
   21.0642   -9.4223   -5.9644 C   0  0  2  0  0  0  0  0  0  0  0  0
   21.3448   -8.9605   -4.6361 O   0  0  0  0  0  0  0  0  0  0  0  0
   21.6438  -10.8806   -0.8398 C   0  0  2  0  0  0  0  0  0  0  0  0
   21.3317  -11.7333    0.2572 N   0  0  0  0  0  0  0  0  0  0  0  0
   22.7102  -13.9295   -1.2599 C   0  0  2  0  0  0  0  0  0  0  0  0
   21.7114   -8.3984   -6.9475 C   0  0  2  0  0  0  0  0  0  0  0  0
   23.1418   -8.3055   -6.6617 N   0  0  0  0  0  0  0  0  0  0  0  0
   20.4775   -9.8412   -1.0368 C   0  0  0  0  0  0  0  0  0  0  0  0
   24.1500  -14.3036   -0.8155 C   0  0  2  0  0  0  0  0  0  0  0  0
   24.6470  -13.2774    0.0130 O   0  0  0  0  0  0  0  0  0  0  0  0
   21.0024   -6.9952   -6.8203 C   0  0  0  0  0  0  0  0  0  0  0  0
   20.8281   -8.8951   -2.2565 C   0  0  2  0  0  0  0  0  0  0  0  0
   19.7351   -7.9199   -2.4479 N   0  0  0  0  0  0  0  0  0  0  0  0
   25.0343  -14.4772   -2.1136 C   0  0  1  0  0  0  0  0  0  0  0  0
   26.4354  -14.8161   -1.7354 N   0  0  0  0  0  0  0  0  0  0  0  0
   19.4773   -7.1113   -6.4574 C   0  0  0  0  0  0  0  0  0  0  0  0
   21.0132   -9.7818   -3.5607 C   0  0  2  0  0  0  0  0  0  0  0  0
   24.4194  -15.6698   -3.0357 C   0  0  1  0  0  0  0  0  0  0  0  0
   24.4025  -16.9168   -2.3848 O   0  0  0  0  0  0  0  0  0  0  0  0
   18.9090   -8.2983   -6.1979 C   0  0  1  0  0  0  0  0  0  0  0  0
   19.6403   -9.5077   -6.2406 O   0  0  0  0  0  0  0  0  0  0  0  0
   22.1680  -10.8230   -3.3301 C   0  0  2  0  0  0  0  0  0  0  0  0
   22.3192  -11.6222   -4.5019 O   0  0  0  0  0  0  0  0  0  0  0  0
   22.9511  -15.3068   -3.4178 C   0  0  0  0  0  0  0  0  0  0  0  0
   22.1471  -14.9898   -2.1728 O   0  0  0  0  0  0  0  0  0  0  0  0
   17.4212   -8.4483   -5.8249 C   0  0  0  0  0  0  0  0  0  0  0  0
   17.0094   -7.2822   -5.0744 N   0  0  0  0  0  0  0  0  0  0  0  0
   21.8035  -11.7464   -2.1069 C   0  0  1  0  0  0  0  0  0  0  0  0
   22.8502  -12.6529   -1.9188 O   0  0  0  0  0  0  0  0  0  0  0  0
   25.1733  -15.9620   -4.3408 C   0  0  0  0  0  0  0  0  0  0  0  0
   27.3501  -13.6792   -1.5490 C   0  0  0  0  0  0  0  0  0  0  0  0
  1  2  1  1  0  0  0
  1  6  1  0  0  0  0
  1 21  1  0  0  0  0
  3  4  1  1  0  0  0
  3  8  1  0  0  0  0
  3 28  1  0  0  0  0
  5  9  1  0  0  0  0
  5 25  1  0  0  0  0
  5 29  1  6  0  0  0
  6  7  1  1  0  0  0
  6 11  1  0  0  0  0
  8 12  1  0  0  0  0
  9 10  1  1  0  0  0
  9 14  1  0  0  0  0
 11 16  1  0  0  0  0
 12 13  1  6  0  0  0
 12 17  1  0  0  0  0
 14 15  1  1  0  0  0
 14 18  1  0  0  0  0
 15 31  1  0  0  0  0
 16 20  1  0  0  0  0
 17  2  1  6  0  0  0
 17 22  1  0  0  0  0
 18 19  1  1  0  0  0
 18 24  1  0  0  0  0
 18 30  1  0  0  0  0
 20 21  1  0  0  0  0
 20 26  1  1  0  0  0
 22 23  1  6  0  0  0
 22 28  1  0  0  0  0
 24 25  1  0  0  0  0
 26 27  1  0  0  0  0
 28 29  1  1  0  0  0
M  END
>  <CHROM.1>
-172.45617838,-159.01841182,-90.52958931,-156.37440209,-33.06016793,84.49585401
22.10007611,-11.39693931,-3.39478785,-2.48256224,-0.81221733,1.89363826

>  <Name>
ligand

>  <RI>
0

>  <Rbt.Current_Directory>
/home/itssahil/PROJECTS/Mol_Feturizer/New_Systems/rnas/4F8V

>  <Rbt.Executable>
rbdock ($Id: //depot/dev/client3/rdock/2013.1/src/exe/rbdock.cxx#4 $)

>  <Rbt.Library>
libRbt.so (2013.1, Build901 2013/11/27)

>  <Rbt.Parameter_File>
/export/apps/rDock/src/rDock_2013.1_src/data/scripts/dock_solv.prm

>  <Rbt.Receptor>
prm/pocket_docking_4.prm

>  <SCORE>
-16.3367

>  <SCORE.INTER>
-14.8779

>  <SCORE.INTER.CONST>
1

>  <SCORE.INTER.POLAR>
0

>  <SCORE.INTER.ROT>
6

>  <SCORE.INTER.SOLV>
17.8643

>  <SCORE.INTER.VDW>
-23.4734

>  <SCORE.INTER.norm>
-0.479933

>  <SCORE.INTRA>
-1.45873

>  <SCORE.INTRA.DIHEDRAL>
-5.26709

>  <SCORE.INTRA.DIHEDRAL.0>
15.9129

>  <SCORE.INTRA.POLAR>
0

>  <SCORE.INTRA.POLAR.0>
0

>  <SCORE.INTRA.REPUL>
0

>  <SCORE.INTRA.REPUL.0>
0

>  <SCORE.INTRA.SOLV>
-0.31937

>  <SCORE.INTRA.SOLV.lig_0>
-75.7056

>  <SCORE.INTRA.VDW>
1.3345

>  <SCORE.INTRA.VDW.0>
-4.61812

>  <SCORE.INTRA.norm>
-0.0470558

>  <SCORE.RESTR>
0

>  <SCORE.RESTR.CAVITY>
0

>  <SCORE.RESTR.norm>
0

>  <SCORE.SYSTEM>
0

>  <SCORE.SYSTEM.CONST>
0

>  <SCORE.SYSTEM.DIHEDRAL>
0

>  <SCORE.SYSTEM.SOLV>
0

>  <SCORE.SYSTEM.norm>
0

>  <SCORE.heavy>
31

>  <SCORE.norm>
-0.526989

>  <RMSD>
0.766

$$$$
ligand
 OpenBabel11021811493D
libRbt.so/2013.1/901 2013/11/27
 31 33  0  0  0  0  0  0  0  0999 V2000
   21.0410   -9.4040   -6.0491 C   0  0  2  0  0  0  0  0  0  0  0  0
   21.3837   -8.9763   -4.7239 O   0  0  0  0  0  0  0  0  0  0  0  0
   21.6179  -10.8658   -0.9077 C   0  0  2  0  0  0  0  0  0  0  0  0
   21.2890  -11.7123    0.1892 N   0  0  0  0  0  0  0  0  0  0  0  0
   22.7101  -13.9167   -1.2956 C   0  0  2  0  0  0  0  0  0  0  0  0
   21.8105   -8.4758   -7.0391 C   0  0  2  0  0  0  0  0  0  0  0  0
   23.2420   -8.5661   -6.7585 N   0  0  0  0  0  0  0  0  0  0  0  0
   20.4489   -9.8358   -1.1364 C   0  0  0  0  0  0  0  0  0  0  0  0
   24.1452  -14.2943   -0.8391 C   0  0  2  0  0  0  0  0  0  0  0  0
   24.6357  -13.2719   -0.0022 O   0  0  0  0  0  0  0  0  0  0  0  0
   21.2879   -6.9927   -6.9162 C   0  0  0  0  0  0  0  0  0  0  0  0
   20.8180   -8.8965   -2.3559 C   0  0  2  0  0  0  0  0  0  0  0  0
   19.7228   -7.9302   -2.5770 N   0  0  0  0  0  0  0  0  0  0  0  0
   25.0414  -14.4641   -2.1296 C   0  0  1  0  0  0  0  0  0  0  0  0
   26.4385  -14.8062   -1.7396 N   0  0  0  0  0  0  0  0  0  0  0  0
   19.7620   -6.9105   -6.5477 C   0  0  0  0  0  0  0  0  0  0  0  0
   21.0357   -9.7918   -3.6492 C   0  0  2  0  0  0  0  0  0  0  0  0
   24.4336  -15.6525   -3.0619 C   0  0  1  0  0  0  0  0  0  0  0  0
   24.4092  -16.9019   -2.4160 O   0  0  0  0  0  0  0  0  0  0  0  0
   19.0470   -8.0136   -6.2808 C   0  0  1  0  0  0  0  0  0  0  0  0
   19.6169   -9.3070   -6.3202 O   0  0  0  0  0  0  0  0  0  0  0  0
   22.1924  -10.8233   -3.3872 C   0  0  2  0  0  0  0  0  0  0  0  0
   22.3729  -11.6302   -4.5495 O   0  0  0  0  0  0  0  0  0  0  0  0
   22.9694  -15.2861   -3.4563 C   0  0  0  0  0  0  0  0  0  0  0  0
   22.1542  -14.9729   -2.2178 O   0  0  0  0  0  0  0  0  0  0  0  0
   17.5537   -7.9697   -5.9021 C   0  0  0  0  0  0  0  0  0  0  0  0
   17.4102   -8.3860   -4.5242 N   0  0  0  0  0  0  0  0  0  0  0  0
   21.8091  -11.7399   -2.1646 C   0  0  1  0  0  0  0  0  0  0  0  0
   22.8578  -12.6379   -1.9483 O   0  0  0  0  0  0  0  0  0  0  0  0
   25.1994  -15.9407   -4.3611 C   0  0  0  0  0  0  0  0  0  0  0  0
   27.3535  -13.6714   -1.5427 C   0  0  0  0  0  0  0  0  0  0  0  0
  1  2  1  1  0  0  0
  1  6  1  0  0  0  0
  1 21  1  0  0  0  0
  3  4  1  1  0  0  0
  3  8  1  0  0  0  0
  3 28  1  0  0  0  0
  5  9  1  0  0  0  0
  5 25  1  0  0  0  0
  5 29  1  6  0  0  0
  6  7  1  1  0  0  0
  6 11  1  0  0  0  0
  8 12  1  0  0  0  0
  9 10  1  1  0  0  0
  9 14  1  0  0  0  0
 11 16  1  0  0  0  0
 12 13  1  6  0  0  0
 12 17  1  0  0  0  0
 14 15  1  1  0  0  0
 14 18  1  0  0  0  0
 15 31  1  0  0  0  0
 16 20  1  0  0  0  0
 17  2  1  6  0  0  0
 17 22  1  0  0  0  0
 18 19  1  1  0  0  0
 18 24  1  0  0  0  0
 18 30  1  0  0  0  0
 20 21  1  0  0  0  0
 20 26  1  1  0  0  0
 22 23  1  6  0  0  0
 22 28  1  0  0  0  0
 24 25  1  0  0  0  0
 26 27  1  0  0  0  0
 28 29  1  1  0  0  0
M  END
>  <CHROM.1>
-167.99307760,-160.24906523,-90.63922489,-151.66986445,-112.51212990,85.20205250
22.14788502,-11.39935584,-3.43405616,-2.42400640,-0.78679404,1.96107875

>  <Name>
ligand

>  <RI>
0

>  <Rbt.Current_Directory>
/home/itssahil/PROJECTS/Mol_Feturizer/New_Systems/rnas/4F8V

>  <Rbt.Executable>
rbdock ($Id: //depot/dev/client3/rdock/2013.1/src/exe/rbdock.cxx#4 $)

>  <Rbt.Library>
libRbt.so (2013.1, Build901 2013/11/27)

>  <Rbt.Parameter_File>
/export/apps/rDock/src/rDock_2013.1_src/data/scripts/dock_solv.prm

>  <Rbt.Receptor>
prm/pocket_docking_3.prm

>  <SCORE>
-15.4334

>  <SCORE.INTER>
-14.3634

>  <SCORE.INTER.CONST>
1

>  <SCORE.INTER.POLAR>
0

>  <SCORE.INTER.ROT>
6

>  <SCORE.INTER.SOLV>
19.1125

>  <SCORE.INTER.VDW>
-23.5464

>  <SCORE.INTER.norm>
-0.463334

>  <SCORE.INTRA>
-1.07009

>  <SCORE.INTRA.DIHEDRAL>
-5.09956

>  <SCORE.INTRA.DIHEDRAL.0>
15.9129

>  <SCORE.INTRA.POLAR>
0

>  <SCORE.INTRA.POLAR.0>
0

>  <SCORE.INTRA.REPUL>
0

>  <SCORE.INTRA.REPUL.0>
0

>  <SCORE.INTRA.SOLV>
2.03208

>  <SCORE.INTRA.SOLV.lig_0>
-75.7056

>  <SCORE.INTRA.VDW>
0.46365

>  <SCORE.INTRA.VDW.0>
-4.61812

>  <SCORE.INTRA.norm>
-0.034519

>  <SCORE.RESTR>
0

>  <SCORE.RESTR.CAVITY>
0

>  <SCORE.RESTR.norm>
0

>  <SCORE.SYSTEM>
0

>  <SCORE.SYSTEM.CONST>
0

>  <SCORE.SYSTEM.DIHEDRAL>
0

>  <SCORE.SYSTEM.SOLV>
0

>  <SCORE.SYSTEM.norm>
0

>  <SCORE.heavy>
31

>  <SCORE.norm>
-0.497853

>  <RMSD>
0.776

$$$$
ligand
 OpenBabel11021811493D
libRbt.so/2013.1/901 2013/11/27
 31 33  0  0  0  0  0  0  0  0999 V2000
   20.7112   -9.0858   -5.7666 C   0  0  2  0  0  0  0  0  0  0  0  0
   20.9286   -8.5687   -4.4468 O   0  0  0  0  0  0  0  0  0  0  0  0
   21.1803  -10.3228   -0.5676 C   0  0  2  0  0  0  0  0  0  0  0  0
   20.8753  -11.1536    0.5481 N   0  0  0  0  0  0  0  0  0  0  0  0
   22.4517  -13.3493   -0.9052 C   0  0  2  0  0  0  0  0  0  0  0  0
   21.3722   -8.0826   -6.7619 C   0  0  2  0  0  0  0  0  0  0  0  0
   22.7876   -7.9436   -6.4252 N   0  0  0  0  0  0  0  0  0  0  0  0
   19.9581   -9.3727   -0.8559 C   0  0  0  0  0  0  0  0  0  0  0  0
   23.9046  -13.6927   -0.4790 C   0  0  2  0  0  0  0  0  0  0  0  0
   24.3736  -12.6793    0.3809 O   0  0  0  0  0  0  0  0  0  0  0  0
   20.6257   -6.6940   -6.7148 C   0  0  0  0  0  0  0  0  0  0  0  0
   20.3008   -8.4507   -2.0961 C   0  0  2  0  0  0  0  0  0  0  0  0
   19.1558   -7.5593   -2.3731 N   0  0  0  0  0  0  0  0  0  0  0  0
   24.7875  -13.7960   -1.7855 C   0  0  1  0  0  0  0  0  0  0  0  0
   26.2003  -14.1032   -1.4242 N   0  0  0  0  0  0  0  0  0  0  0  0
   19.0908   -6.8348   -6.4064 C   0  0  0  0  0  0  0  0  0  0  0  0
   20.6032   -9.3704   -3.3547 C   0  0  2  0  0  0  0  0  0  0  0  0
   24.2053  -14.9763   -2.7440 C   0  0  1  0  0  0  0  0  0  0  0  0
   24.2304  -16.2439   -2.1346 O   0  0  0  0  0  0  0  0  0  0  0  0
   18.5409   -8.0254   -6.1245 C   0  0  1  0  0  0  0  0  0  0  0  0
   19.3017   -9.2169   -6.0938 O   0  0  0  0  0  0  0  0  0  0  0  0
   21.8124  -10.3218   -3.0334 C   0  0  2  0  0  0  0  0  0  0  0  0
   22.0692  -11.1517   -4.1648 O   0  0  0  0  0  0  0  0  0  0  0  0
   22.7246  -14.6469   -3.1082 C   0  0  0  0  0  0  0  0  0  0  0  0
   21.9173  -14.3962   -1.8504 O   0  0  0  0  0  0  0  0  0  0  0  0
   17.0436   -8.1988   -5.8033 C   0  0  0  0  0  0  0  0  0  0  0  0
   16.5350   -6.9551   -5.2679 N   0  0  0  0  0  0  0  0  0  0  0  0
   21.4542  -11.2220   -1.7911 C   0  0  1  0  0  0  0  0  0  0  0  0
   22.5488  -12.0481   -1.5222 O   0  0  0  0  0  0  0  0  0  0  0  0
   24.9616  -15.2018   -4.0610 C   0  0  0  0  0  0  0  0  0  0  0  0
   27.2284  -13.2557   -2.0475 C   0  0  0  0  0  0  0  0  0  0  0  0
  1  2  1  1  0  0  0
  1  6  1  0  0  0  0
  1 21  1  0  0  0  0
  3  4  1  1  0  0  0
  3  8  1  0  0  0  0
  3 28  1  0  0  0  0
  5  9  1  0  0  0  0
  5 25  1  0  0  0  0
  5 29  1  6  0  0  0
  6  7  1  1  0  0  0
  6 11  1  0  0  0  0
  8 12  1  0  0  0  0
  9 10  1  1  0  0  0
  9 14  1  0  0  0  0
 11 16  1  0  0  0  0
 12 13  1  6  0  0  0
 12 17  1  0  0  0  0
 14 15  1  1  0  0  0
 14 18  1  0  0  0  0
 15 31  1  0  0  0  0
 16 20  1  0  0  0  0
 17  2  1  6  0  0  0
 17 22  1  0  0  0  0
 18 19  1  1  0  0  0
 18 24  1  0  0  0  0
 18 30  1  0  0  0  0
 20 21  1  0  0  0  0
 20 26  1  1  0  0  0
 22 23  1  6  0  0  0
 22 28  1  0  0  0  0
 24 25  1  0  0  0  0
 26 27  1  0  0  0  0
 28 29  1  1  0  0  0
M  END
>  <CHROM.1>
-170.99960250,-165.36899015,-130.89666990,-154.97250406,-25.89871544,89.13958107
21.76598853,-10.91117466,-3.19511306,-2.45766107,-0.74109832,1.91650979

>  <Name>
ligand

>  <RI>
0

>  <Rbt.Current_Directory>
/home/itssahil/PROJECTS/Mol_Feturizer/New_Systems/rnas/4F8V

>  <Rbt.Executable>
rbdock ($Id: //depot/dev/client3/rdock/2013.1/src/exe/rbdock.cxx#4 $)

>  <Rbt.Library>
libRbt.so (2013.1, Build901 2013/11/27)

>  <Rbt.Parameter_File>
/export/apps/rDock/src/rDock_2013.1_src/data/scripts/dock_solv.prm

>  <Rbt.Receptor>
prm/pocket_docking_2.prm

>  <SCORE>
-13.9179

>  <SCORE.INTER>
-12.5546

>  <SCORE.INTER.CONST>
1

>  <SCORE.INTER.POLAR>
0

>  <SCORE.INTER.ROT>
6

>  <SCORE.INTER.SOLV>
19.7269

>  <SCORE.INTER.VDW>
-22.5454

>  <SCORE.INTER.norm>
-0.404988

>  <SCORE.INTRA>
-1.50717

>  <SCORE.INTRA.DIHEDRAL>
-4.86504

>  <SCORE.INTRA.DIHEDRAL.0>
15.9129

>  <SCORE.INTRA.POLAR>
0

>  <SCORE.INTRA.POLAR.0>
0

>  <SCORE.INTRA.REPUL>
0

>  <SCORE.INTRA.REPUL.0>
0

>  <SCORE.INTRA.SOLV>
-0.585299

>  <SCORE.INTRA.SOLV.lig_0>
-75.7056

>  <SCORE.INTRA.VDW>
1.218

>  <SCORE.INTRA.VDW.0>
-4.61812

>  <SCORE.INTRA.norm>
-0.0486185

>  <SCORE.RESTR>
0.143859

>  <SCORE.RESTR.CAVITY>
0.143859

>  <SCORE.RESTR.norm>
0.0046406

>  <SCORE.SYSTEM>
0

>  <SCORE.SYSTEM.CONST>
0

>  <SCORE.SYSTEM.DIHEDRAL>
0

>  <SCORE.SYSTEM.SOLV>
0

>  <SCORE.SYSTEM.norm>
0

>  <SCORE.heavy>
31

>  <SCORE.norm>
-0.448966

>  <RMSD>
0.821

$$$$
ligand
 OpenBabel11021811493D
libRbt.so/2013.1/901 2013/11/27
 31 33  0  0  0  0  0  0  0  0999 V2000
   20.5788   -8.8762   -5.9276 C   0  0  2  0  0  0  0  0  0  0  0  0
   21.0126   -8.4838   -4.6183 O   0  0  0  0  0  0  0  0  0  0  0  0
   21.2162  -10.2223   -0.7292 C   0  0  2  0  0  0  0  0  0  0  0  0
   20.9138  -11.0665    0.3771 N   0  0  0  0  0  0  0  0  0  0  0  0
   22.6682  -13.0652   -0.8104 C   0  0  2  0  0  0  0  0  0  0  0  0
   21.2909   -7.9310   -6.9441 C   0  0  2  0  0  0  0  0  0  0  0  0
   22.7368   -8.0406   -6.7611 N   0  0  0  0  0  0  0  0  0  0  0  0
   19.9600   -9.3326   -1.0610 C   0  0  0  0  0  0  0  0  0  0  0  0
   24.1588  -13.4655   -0.6414 C   0  0  2  0  0  0  0  0  0  0  0  0
   24.8543  -12.3821   -0.0680 O   0  0  0  0  0  0  0  0  0  0  0  0
   20.7930   -6.4468   -6.7519 C   0  0  0  0  0  0  0  0  0  0  0  0
   20.2999   -8.3955   -2.2906 C   0  0  2  0  0  0  0  0  0  0  0  0
   19.1232   -7.5607   -2.6083 N   0  0  0  0  0  0  0  0  0  0  0  0
   24.7330  -13.8309   -2.0675 C   0  0  1  0  0  0  0  0  0  0  0  0
   26.1724  -14.2016   -1.9587 N   0  0  0  0  0  0  0  0  0  0  0  0
   19.2956   -6.3602   -6.2814 C   0  0  0  0  0  0  0  0  0  0  0  0
   20.6893   -9.2999   -3.5364 C   0  0  2  0  0  0  0  0  0  0  0  0
   23.8972  -15.0835   -2.6864 C   0  0  1  0  0  0  0  0  0  0  0  0
   23.9863  -16.2473   -1.9013 O   0  0  0  0  0  0  0  0  0  0  0  0
   18.5885   -7.4631   -5.9938 C   0  0  1  0  0  0  0  0  0  0  0  0
   19.1410   -8.7602   -6.1015 O   0  0  0  0  0  0  0  0  0  0  0  0
   21.9314  -10.1915   -3.1720 C   0  0  2  0  0  0  0  0  0  0  0  0
   22.2667  -11.0084   -4.2923 O   0  0  0  0  0  0  0  0  0  0  0  0
   22.3921  -14.6856   -2.7876 C   0  0  0  0  0  0  0  0  0  0  0  0
   21.8887  -14.1883   -1.4474 O   0  0  0  0  0  0  0  0  0  0  0  0
   17.1239   -7.4154   -5.5162 C   0  0  0  0  0  0  0  0  0  0  0  0
   16.4013   -8.5139   -6.1193 N   0  0  0  0  0  0  0  0  0  0  0  0
   21.5749  -11.1075   -1.9409 C   0  0  1  0  0  0  0  0  0  0  0  0
   22.6984  -11.8796   -1.6331 O   0  0  0  0  0  0  0  0  0  0  0  0
   24.3393  -15.5602   -4.0772 C   0  0  0  0  0  0  0  0  0  0  0  0
   27.1343  -13.0899   -2.0101 C   0  0  0  0  0  0  0  0  0  0  0  0
  1  2  1  1  0  0  0
  1  6  1  0  0  0  0
  1 21  1  0  0  0  0
  3  4  1  1  0  0  0
  3  8  1  0  0  0  0
  3 28  1  0  0  0  0
  5  9  1  0  0  0  0
  5 25  1  0  0  0  0
  5 29  1  6  0  0  0
  6  7  1  1  0  0  0
  6 11  1  0  0  0  0
  8 12  1  0  0  0  0
  9 10  1  6  0  0  0
  9 14  1  0  0  0  0
 11 16  1  0  0  0  0
 12 13  1  6  0  0  0
 12 17  1  0  0  0  0
 14 15  1  1  0  0  0
 14 18  1  0  0  0  0
 15 31  1  0  0  0  0
 16 20  1  0  0  0  0
 17  2  1  6  0  0  0
 17 22  1  0  0  0  0
 18 19  1  1  0  0  0
 18 24  1  0  0  0  0
 18 30  1  0  0  0  0
 20 21  1  0  0  0  0
 20 26  1  1  0  0  0
 22 23  1  6  0  0  0
 22 28  1  0  0  0  0
 24 25  1  0  0  0  0
 26 27  1  0  0  0  0
 28 29  1  1  0  0  0
M  END
>  <CHROM.1>
-170.09489772,-174.08094242,-86.14310248,-140.48313222,141.63850708,77.60811098
21.76589223,-10.82061174,-3.29495506,-2.39537461,-0.71326364,1.98310330

>  <Name>
ligand

>  <RI>
0

>  <Rbt.Current_Directory>
/home/itssahil/PROJECTS/Mol_Feturizer/New_Systems/rnas/4F8V

>  <Rbt.Executable>
rbdock ($Id: //depot/dev/client3/rdock/2013.1/src/exe/rbdock.cxx#4 $)

>  <Rbt.Library>
libRbt.so (2013.1, Build901 2013/11/27)

>  <Rbt.Parameter_File>
/export/apps/rDock/src/rDock_2013.1_src/data/scripts/dock_solv.prm

>  <Rbt.Receptor>
prm/pocket_docking_2.prm

>  <SCORE>
-12.4728

>  <SCORE.INTER>
-10.5551

>  <SCORE.INTER.CONST>
1

>  <SCORE.INTER.POLAR>
0

>  <SCORE.INTER.ROT>
6

>  <SCORE.INTER.SOLV>
23.8092

>  <SCORE.INTER.VDW>
-22.5732

>  <SCORE.INTER.norm>
-0.340488

>  <SCORE.INTRA>
-2.065

>  <SCORE.INTRA.DIHEDRAL>
-5.80623

>  <SCORE.INTRA.DIHEDRAL.0>
15.9129

>  <SCORE.INTRA.POLAR>
0

>  <SCORE.INTRA.POLAR.0>
0

>  <SCORE.INTRA.REPUL>
0

>  <SCORE.INTRA.REPUL.0>
0

>  <SCORE.INTRA.SOLV>
0.0693702

>  <SCORE.INTRA.SOLV.lig_0>
-75.7056

>  <SCORE.INTRA.VDW>
0.803434

>  <SCORE.INTRA.VDW.0>
-4.61812

>  <SCORE.INTRA.norm>
-0.0666128

>  <SCORE.RESTR>
0.147302

>  <SCORE.RESTR.CAVITY>
0.147302

>  <SCORE.RESTR.norm>
0.00475167

>  <SCORE.SYSTEM>
0

>  <SCORE.SYSTEM.CONST>
0

>  <SCORE.SYSTEM.DIHEDRAL>
0

>  <SCORE.SYSTEM.SOLV>
0

>  <SCORE.SYSTEM.norm>
0

>  <SCORE.heavy>
31

>  <SCORE.norm>
-0.402349

>  <RMSD>
0.842

$$$$
ligand
 OpenBabel11021811493D
libRbt.so/2013.1/901 2013/11/27
 31 33  0  0  0  0  0  0  0  0999 V2000
   20.4824   -8.5042   -5.9421 C   0  0  2  0  0  0  0  0  0  0  0  0
   20.8727   -8.1746   -4.6021 O   0  0  0  0  0  0  0  0  0  0  0  0
   21.4147  -10.2837   -0.9352 C   0  0  2  0  0  0  0  0  0  0  0  0
   21.2305  -11.2541    0.0907 N   0  0  0  0  0  0  0  0  0  0  0  0
   23.0646  -12.9019   -1.2410 C   0  0  2  0  0  0  0  0  0  0  0  0
   21.1172   -7.4292   -6.8775 C   0  0  2  0  0  0  0  0  0  0  0  0
   22.5660   -7.4287   -6.6848 N   0  0  0  0  0  0  0  0  0  0  0  0
   20.0907   -9.4479   -1.1021 C   0  0  0  0  0  0  0  0  0  0  0  0
   24.5958  -13.1078   -1.0883 C   0  0  2  0  0  0  0  0  0  0  0  0
   25.1571  -11.9328   -0.5490 O   0  0  0  0  0  0  0  0  0  0  0  0
   20.4926   -6.0110   -6.5832 C   0  0  0  0  0  0  0  0  0  0  0  0
   20.2993   -8.3703   -2.2427 C   0  0  2  0  0  0  0  0  0  0  0  0
   19.0585   -7.5854   -2.4059 N   0  0  0  0  0  0  0  0  0  0  0  0
   25.1919  -13.4302   -2.5159 C   0  0  1  0  0  0  0  0  0  0  0  0
   26.6679  -13.6145   -2.4232 N   0  0  0  0  0  0  0  0  0  0  0  0
   18.9904   -6.0872   -6.1265 C   0  0  0  0  0  0  0  0  0  0  0  0
   20.6644   -9.1159   -3.5963 C   0  0  2  0  0  0  0  0  0  0  0  0
   24.5121  -14.7916   -3.0949 C   0  0  1  0  0  0  0  0  0  0  0  0
   24.7580  -15.9169   -2.2875 O   0  0  0  0  0  0  0  0  0  0  0  0
   18.3786   -7.2645   -5.9295 C   0  0  1  0  0  0  0  0  0  0  0  0
   19.0410   -8.4984   -6.1250 O   0  0  0  0  0  0  0  0  0  0  0  0
   21.9766   -9.9578   -3.3965 C   0  0  2  0  0  0  0  0  0  0  0  0
   22.2902  -10.6328   -4.6133 O   0  0  0  0  0  0  0  0  0  0  0  0
   22.9677  -14.5884   -3.1794 C   0  0  0  0  0  0  0  0  0  0  0  0
   22.4241  -14.1281   -1.8417 O   0  0  0  0  0  0  0  0  0  0  0  0
   16.9124   -7.3771   -5.4682 C   0  0  0  0  0  0  0  0  0  0  0  0
   16.3223   -8.5506   -6.0740 N   0  0  0  0  0  0  0  0  0  0  0  0
   21.7503  -11.0157   -2.2513 C   0  0  1  0  0  0  0  0  0  0  0  0
   22.9338  -11.7408   -2.0884 O   0  0  0  0  0  0  0  0  0  0  0  0
   24.9916  -15.2402   -4.4827 C   0  0  0  0  0  0  0  0  0  0  0  0
   27.1466  -14.4787   -1.3333 C   0  0  0  0  0  0  0  0  0  0  0  0
  1  2  1  1  0  0  0
  1  6  1  0  0  0  0
  1 21  1  0  0  0  0
  3  4  1  1  0  0  0
  3  8  1  0  0  0  0
  3 28  1  0  0  0  0
  5  9  1  0  0  0  0
  5 25  1  0  0  0  0
  5 29  1  6  0  0  0
  6  7  1  1  0  0  0
  6 11  1  0  0  0  0
  8 12  1  0  0  0  0
  9 10  1  6  0  0  0
  9 14  1  0  0  0  0
 11 16  1  0  0  0  0
 12 13  1  6  0  0  0
 12 17  1  0  0  0  0
 14 15  1  1  0  0  0
 14 18  1  0  0  0  0
 15 31  1  0  0  0  0
 16 20  1  0  0  0  0
 17  2  1  6  0  0  0
 17 22  1  0  0  0  0
 18 19  1  1  0  0  0
 18 24  1  0  0  0  0
 18 30  1  0  0  0  0
 20 21  1  0  0  0  0
 20 26  1  1  0  0  0
 22 23  1  6  0  0  0
 22 28  1  0  0  0  0
 24 25  1  0  0  0  0
 26 27  1  0  0  0  0
 28 29  1  1  0  0  0
M  END
>  <CHROM.1>
-167.45833231,-165.08354258,46.73956351,-145.53396014,146.32794138,68.52270973
21.91345454,-10.65170400,-3.44567748,-2.49670275,-0.70795677,1.94096722

>  <Name>
ligand

>  <RI>
0

>  <Rbt.Current_Directory>
/home/itssahil/PROJECTS/Mol_Feturizer/New_Systems/rnas/4F8V

>  <Rbt.Executable>
rbdock ($Id: //depot/dev/client3/rdock/2013.1/src/exe/rbdock.cxx#4 $)

>  <Rbt.Library>
libRbt.so (2013.1, Build901 2013/11/27)

>  <Rbt.Parameter_File>
/export/apps/rDock/src/rDock_2013.1_src/data/scripts/dock_solv.prm

>  <Rbt.Receptor>
prm/pocket_docking_4.prm

>  <SCORE>
-10.4953

>  <SCORE.INTER>
-10.3882

>  <SCORE.INTER.CONST>
1

>  <SCORE.INTER.POLAR>
0

>  <SCORE.INTER.ROT>
6

>  <SCORE.INTER.SOLV>
22.9016

>  <SCORE.INTER.VDW>
-22.1593

>  <SCORE.INTER.norm>
-0.335103

>  <SCORE.INTRA>
-0.107069

>  <SCORE.INTRA.DIHEDRAL>
-6.73387

>  <SCORE.INTRA.DIHEDRAL.0>
15.9129

>  <SCORE.INTRA.POLAR>
0

>  <SCORE.INTRA.POLAR.0>
0

>  <SCORE.INTRA.REPUL>
0

>  <SCORE.INTRA.REPUL.0>
0

>  <SCORE.INTRA.SOLV>
0.131777

>  <SCORE.INTRA.SOLV.lig_0>
-75.7056

>  <SCORE.INTRA.VDW>
3.19398

>  <SCORE.INTRA.VDW.0>
-4.61812

>  <SCORE.INTRA.norm>
-0.00345385

>  <SCORE.RESTR>
0

>  <SCORE.RESTR.CAVITY>
0

>  <SCORE.RESTR.norm>
0

>  <SCORE.SYSTEM>
0

>  <SCORE.SYSTEM.CONST>
0

>  <SCORE.SYSTEM.DIHEDRAL>
0

>  <SCORE.SYSTEM.SOLV>
0

>  <SCORE.SYSTEM.norm>
0

>  <SCORE.heavy>
31

>  <SCORE.norm>
-0.338557

>  <RMSD>
0.906

$$$$
ligand
 OpenBabel11021811493D
libRbt.so/2013.1/901 2013/11/27
 31 33  0  0  0  0  0  0  0  0999 V2000
   20.5449   -8.5144   -5.8906 C   0  0  2  0  0  0  0  0  0  0  0  0
   20.7524   -8.1324   -4.5240 O   0  0  0  0  0  0  0  0  0  0  0  0
   21.3726  -10.3348   -0.9250 C   0  0  2  0  0  0  0  0  0  0  0  0
   21.1959  -11.3180    0.0900 N   0  0  0  0  0  0  0  0  0  0  0  0
   22.9290  -12.9617   -1.2945 C   0  0  2  0  0  0  0  0  0  0  0  0
   21.0476   -7.3311   -6.7743 C   0  0  2  0  0  0  0  0  0  0  0  0
   22.4497   -7.0657   -6.4585 N   0  0  0  0  0  0  0  0  0  0  0  0
   20.0763   -9.4456   -1.0167 C   0  0  0  0  0  0  0  0  0  0  0  0
   24.4632  -13.1441   -1.1416 C   0  0  2  0  0  0  0  0  0  0  0  0
   25.0112  -11.9482   -0.6357 O   0  0  0  0  0  0  0  0  0  0  0  0
   20.1493   -6.0555   -6.5422 C   0  0  0  0  0  0  0  0  0  0  0  0
   20.2765   -8.3538   -2.1453 C   0  0  2  0  0  0  0  0  0  0  0  0
   19.0615   -7.5187   -2.2379 N   0  0  0  0  0  0  0  0  0  0  0  0
   25.0590  -13.4970   -2.5620 C   0  0  1  0  0  0  0  0  0  0  0  0
   26.5375  -13.6600   -2.4695 N   0  0  0  0  0  0  0  0  0  0  0  0
   18.6537   -6.4120   -6.2151 C   0  0  0  0  0  0  0  0  0  0  0  0
   20.5519   -9.0853   -3.5276 C   0  0  2  0  0  0  0  0  0  0  0  0
   24.3949  -14.8818   -3.1022 C   0  0  1  0  0  0  0  0  0  0  0  0
   24.6575  -15.9820   -2.2659 O   0  0  0  0  0  0  0  0  0  0  0  0
   18.2552   -7.6839   -6.0646 C   0  0  1  0  0  0  0  0  0  0  0  0
   19.1480   -8.7724   -6.1961 O   0  0  0  0  0  0  0  0  0  0  0  0
   21.8377   -9.9808   -3.4025 C   0  0  2  0  0  0  0  0  0  0  0  0
   22.0705  -10.6425   -4.6446 O   0  0  0  0  0  0  0  0  0  0  0  0
   22.8477  -14.7005   -3.1870 C   0  0  0  0  0  0  0  0  0  0  0  0
   22.3024  -14.2116   -1.8602 O   0  0  0  0  0  0  0  0  0  0  0  0
   16.8011   -8.0696   -5.7296 C   0  0  0  0  0  0  0  0  0  0  0  0
   16.1398   -6.9257   -5.1408 N   0  0  0  0  0  0  0  0  0  0  0  0
   21.6207  -11.0523   -2.2682 C   0  0  1  0  0  0  0  0  0  0  0  0
   22.7808  -11.8255   -2.1722 O   0  0  0  0  0  0  0  0  0  0  0  0
   24.8759  -15.3612   -4.4792 C   0  0  0  0  0  0  0  0  0  0  0  0
   27.0307  -14.4869   -1.3573 C   0  0  0  0  0  0  0  0  0  0  0  0
  1  2  1  1  0  0  0
  1  6  1  0  0  0  0
  1 21  1  0  0  0  0
  3  4  1  1  0  0  0
  3  8  1  0  0  0  0
  3 28  1  0  0  0  0
  5  9  1  0  0  0  0
  5 25  1  0  0  0  0
  5 29  1  6  0  0  0
  6  7  1  1  0  0  0
  6 11  1  0  0  0  0
  8 12  1  0  0  0  0
  9 10  1  6  0  0  0
  9 14  1  0  0  0  0
 11 16  1  0  0  0  0
 12 13  1  6  0  0  0
 12 17  1  0  0  0  0
 14 15  1  1  0  0  0
 14 18  1  0  0  0  0
 15 31  1  0  0  0  0
 16 20  1  0  0  0  0
 17  2  1  6  0  0  0
 17 22  1  0  0  0  0
 18 19  1  1  0  0  0
 18 24  1  0  0  0  0
 18 30  1  0  0  0  0
 20 21  1  0  0  0  0
 20 26  1  1  0  0  0
 22 23  1  6  0  0  0
 22 28  1  0  0  0  0
 24 25  1  0  0  0  0
 26 27  1  0  0  0  0
 28 29  1  1  0  0  0
M  END
>  <CHROM.1>
-171.56341631,-159.55642045,46.64915348,-158.03818723,-20.99439623,64.73723822
21.80117647,-10.66843473,-3.41940718,-2.52136938,-0.73233852,1.92680167

>  <Name>
ligand

>  <RI>
0

>  <Rbt.Current_Directory>
/home/itssahil/PROJECTS/Mol_Feturizer/New_Systems/rnas/4F8V

>  <Rbt.Executable>
rbdock ($Id: //depot/dev/client3/rdock/2013.1/src/exe/rbdock.cxx#4 $)

>  <Rbt.Library>
libRbt.so (2013.1, Build901 2013/11/27)

>  <Rbt.Parameter_File>
/export/apps/rDock/src/rDock_2013.1_src/data/scripts/dock_solv.prm

>  <Rbt.Receptor>
prm/pocket_docking_6.prm

>  <SCORE>
-13.1777

>  <SCORE.INTER>
-12.6499

>  <SCORE.INTER.CONST>
1

>  <SCORE.INTER.POLAR>
0

>  <SCORE.INTER.ROT>
6

>  <SCORE.INTER.SOLV>
18.4232

>  <SCORE.INTER.VDW>
-22.1743

>  <SCORE.INTER.norm>
-0.408062

>  <SCORE.INTRA>
-0.527765

>  <SCORE.INTRA.DIHEDRAL>
-9.10926

>  <SCORE.INTRA.DIHEDRAL.0>
15.9129

>  <SCORE.INTRA.POLAR>
0

>  <SCORE.INTRA.POLAR.0>
0

>  <SCORE.INTRA.REPUL>
0

>  <SCORE.INTRA.REPUL.0>
0

>  <SCORE.INTRA.SOLV>
-0.463541

>  <SCORE.INTRA.SOLV.lig_0>
-75.7056

>  <SCORE.INTRA.VDW>
4.25864

>  <SCORE.INTRA.VDW.0>
-4.61812

>  <SCORE.INTRA.norm>
-0.0170247

>  <SCORE.RESTR>
0

>  <SCORE.RESTR.CAVITY>
0

>  <SCORE.RESTR.norm>
0

>  <SCORE.SYSTEM>
0

>  <SCORE.SYSTEM.CONST>
0

>  <SCORE.SYSTEM.DIHEDRAL>
0

>  <SCORE.SYSTEM.SOLV>
0

>  <SCORE.SYSTEM.norm>
0

>  <SCORE.heavy>
31

>  <SCORE.norm>
-0.425086

>  <RMSD>
0.949

$$$$
ligand
 OpenBabel11021811493D
libRbt.so/2013.1/901 2013/11/27
 31 33  0  0  0  0  0  0  0  0999 V2000
   19.9835   -9.4090   -5.8009 C   0  0  2  0  0  0  0  0  0  0  0  0
   20.5226   -8.9443   -4.5560 O   0  0  0  0  0  0  0  0  0  0  0  0
   21.6056  -10.9280   -0.9393 C   0  0  2  0  0  0  0  0  0  0  0  0
   21.5165  -11.7792    0.1989 N   0  0  0  0  0  0  0  0  0  0  0  0
   22.2985  -14.0248   -2.9231 C   0  0  2  0  0  0  0  0  0  0  0  0
   20.5921   -8.5115   -6.9225 C   0  0  2  0  0  0  0  0  0  0  0  0
   22.0497   -8.5973   -6.8600 N   0  0  0  0  0  0  0  0  0  0  0  0
   20.4799   -9.8302   -0.8551 C   0  0  0  0  0  0  0  0  0  0  0  0
   23.4194  -14.9010   -2.3014 C   0  0  2  0  0  0  0  0  0  0  0  0
   23.2395  -14.9386   -0.9041 O   0  0  0  0  0  0  0  0  0  0  0  0
   20.0914   -7.0242   -6.7645 C   0  0  0  0  0  0  0  0  0  0  0  0
   20.5823   -8.8859   -2.1214 C   0  0  2  0  0  0  0  0  0  0  0  0
   19.5259   -7.8559   -2.0492 N   0  0  0  0  0  0  0  0  0  0  0  0
   24.8122  -14.2619   -2.6875 C   0  0  1  0  0  0  0  0  0  0  0  0
   25.9222  -15.0587   -2.0924 N   0  0  0  0  0  0  0  0  0  0  0  0
   18.6390   -6.9276   -6.1711 C   0  0  0  0  0  0  0  0  0  0  0  0
   20.4112   -9.7629   -3.4341 C   0  0  2  0  0  0  0  0  0  0  0  0
   24.9706  -14.2397   -4.3077 C   0  0  1  0  0  0  0  0  0  0  0  0
   24.9385  -15.5233   -4.8823 O   0  0  0  0  0  0  0  0  0  0  0  0
   17.9749   -8.0208   -5.7671 C   0  0  1  0  0  0  0  0  0  0  0  0
   18.5345   -9.3163   -5.8553 O   0  0  0  0  0  0  0  0  0  0  0  0
   21.5335  -10.8624   -3.4830 C   0  0  2  0  0  0  0  0  0  0  0  0
   21.3649  -11.6521   -4.6588 O   0  0  0  0  0  0  0  0  0  0  0  0
   23.7992  -13.4098   -4.9183 C   0  0  0  0  0  0  0  0  0  0  0  0
   22.4677  -13.9339   -4.4190 O   0  0  0  0  0  0  0  0  0  0  0  0
   16.5563   -7.9623   -5.1676 C   0  0  0  0  0  0  0  0  0  0  0  0
   16.2866   -6.6069   -4.7405 N   0  0  0  0  0  0  0  0  0  0  0  0
   21.4195  -11.7833   -2.2099 C   0  0  1  0  0  0  0  0  0  0  0  0
   22.4338  -12.7425   -2.2744 O   0  0  0  0  0  0  0  0  0  0  0  0
   26.2809  -13.6450   -4.8432 C   0  0  0  0  0  0  0  0  0  0  0  0
   26.9458  -14.2984   -1.3589 C   0  0  0  0  0  0  0  0  0  0  0  0
  1  2  1  1  0  0  0
  1  6  1  0  0  0  0
  1 21  1  0  0  0  0
  3  4  1  1  0  0  0
  3  8  1  0  0  0  0
  3 28  1  0  0  0  0
  5  9  1  0  0  0  0
  5 25  1  0  0  0  0
  5 29  1  1  0  0  0
  6  7  1  1  0  0  0
  6 11  1  0  0  0  0
  8 12  1  0  0  0  0
  9 10  1  1  0  0  0
  9 14  1  0  0  0  0
 11 16  1  0  0  0  0
 12 13  1  1  0  0  0
 12 17  1  0  0  0  0
 14 15  1  1  0  0  0
 14 18  1  0  0  0  0
 15 31  1  0  0  0  0
 16 20  1  0  0  0  0
 17  2  1  6  0  0  0
 17 22  1  0  0  0  0
 18 19  1  6  0  0  0
 18 24  1  0  0  0  0
 18 30  1  0  0  0  0
 20 21  1  0  0  0  0
 20 26  1  1  0  0  0
 22 23  1  6  0  0  0
 22 28  1  0  0  0  0
 24 25  1  0  0  0  0
 26 27  1  0  0  0  0
 28 29  1  6  0  0  0
M  END
>  <CHROM.1>
-164.33037210,-159.70734267,-130.66322469,-159.97099352,-17.94531999,151.81272298
21.67615138,-11.19221828,-3.75079968,-2.69054127,-0.76018412,1.82647150

>  <Name>
ligand

>  <RI>
0

>  <Rbt.Current_Directory>
/home/itssahil/PROJECTS/Mol_Feturizer/New_Systems/rnas/4F8V

>  <Rbt.Executable>
rbdock ($Id: //depot/dev/client3/rdock/2013.1/src/exe/rbdock.cxx#4 $)

>  <Rbt.Library>
libRbt.so (2013.1, Build901 2013/11/27)

>  <Rbt.Parameter_File>
/export/apps/rDock/src/rDock_2013.1_src/data/scripts/dock_solv.prm

>  <Rbt.Receptor>
prm/pocket_docking_6.prm

>  <SCORE>
-12.6417

>  <SCORE.INTER>
-11.3461

>  <SCORE.INTER.CONST>
1

>  <SCORE.INTER.POLAR>
0

>  <SCORE.INTER.ROT>
6

>  <SCORE.INTER.SOLV>
18.5879

>  <SCORE.INTER.VDW>
-21.36

>  <SCORE.INTER.norm>
-0.366003

>  <SCORE.INTRA>
-1.29565

>  <SCORE.INTRA.DIHEDRAL>
-4.67497

>  <SCORE.INTRA.DIHEDRAL.0>
15.9129

>  <SCORE.INTRA.POLAR>
0

>  <SCORE.INTRA.POLAR.0>
0

>  <SCORE.INTRA.REPUL>
0

>  <SCORE.INTRA.REPUL.0>
0

>  <SCORE.INTRA.SOLV>
-1.76716

>  <SCORE.INTRA.SOLV.lig_0>
-75.7056

>  <SCORE.INTRA.VDW>
1.92541

>  <SCORE.INTRA.VDW.0>
-4.61812

>  <SCORE.INTRA.norm>
-0.0417953

>  <SCORE.RESTR>
0

>  <SCORE.RESTR.CAVITY>
0

>  <SCORE.RESTR.norm>
0

>  <SCORE.SYSTEM>
0

>  <SCORE.SYSTEM.CONST>
0

>  <SCORE.SYSTEM.DIHEDRAL>
0

>  <SCORE.SYSTEM.SOLV>
0

>  <SCORE.SYSTEM.norm>
0

>  <SCORE.heavy>
31

>  <SCORE.norm>
-0.407798

>  <RMSD>
0.991

$$$$
ligand
 OpenBabel11021811493D
libRbt.so/2013.1/901 2013/11/27
 31 33  0  0  0  0  0  0  0  0999 V2000
   19.4184   -9.4035   -5.4491 C   0  0  2  0  0  0  0  0  0  0  0  0
   20.2922   -9.0508   -4.3681 O   0  0  0  0  0  0  0  0  0  0  0  0
   21.6588  -10.9052   -0.7790 C   0  0  2  0  0  0  0  0  0  0  0  0
   21.6605  -11.7148    0.3926 N   0  0  0  0  0  0  0  0  0  0  0  0
   22.2258  -14.0315   -2.7894 C   0  0  2  0  0  0  0  0  0  0  0  0
   19.8510   -8.5484   -6.6802 C   0  0  2  0  0  0  0  0  0  0  0  0
   21.2590   -8.8126   -6.9700 N   0  0  0  0  0  0  0  0  0  0  0  0
   20.5420   -9.8031   -0.6460 C   0  0  0  0  0  0  0  0  0  0  0  0
   23.3595  -14.9270   -2.2209 C   0  0  2  0  0  0  0  0  0  0  0  0
   23.2148  -15.0031   -0.8211 O   0  0  0  0  0  0  0  0  0  0  0  0
   19.5939   -7.0177   -6.4001 C   0  0  0  0  0  0  0  0  0  0  0  0
   20.5434   -8.9051   -1.9495 C   0  0  2  0  0  0  0  0  0  0  0  0
   19.4949   -7.8712   -1.8314 N   0  0  0  0  0  0  0  0  0  0  0  0
   24.7439  -14.2805   -2.6242 C   0  0  1  0  0  0  0  0  0  0  0  0
   25.8663  -15.0959   -2.0797 N   0  0  0  0  0  0  0  0  0  0  0  0
   18.3483   -6.7660   -5.4749 C   0  0  0  0  0  0  0  0  0  0  0  0
   20.2703   -9.8284   -3.2123 C   0  0  2  0  0  0  0  0  0  0  0  0
   24.8614  -14.2136   -4.2467 C   0  0  1  0  0  0  0  0  0  0  0  0
   24.8111  -15.4806   -4.8557 O   0  0  0  0  0  0  0  0  0  0  0  0
   17.6670   -7.7837   -4.9279 C   0  0  1  0  0  0  0  0  0  0  0  0
   18.0216   -9.1338   -5.1536 O   0  0  0  0  0  0  0  0  0  0  0  0
   21.3864  -10.9309   -3.3098 C   0  0  2  0  0  0  0  0  0  0  0  0
   21.1266  -11.7621   -4.4396 O   0  0  0  0  0  0  0  0  0  0  0  0
   23.6774  -13.3645   -4.8042 C   0  0  0  0  0  0  0  0  0  0  0  0
   22.3574  -13.8994   -4.2861 O   0  0  0  0  0  0  0  0  0  0  0  0
   16.4506   -7.5742   -4.0050 C   0  0  0  0  0  0  0  0  0  0  0  0
   15.2439   -7.8381   -4.7577 N   0  0  0  0  0  0  0  0  0  0  0  0
   21.3740  -11.8053   -1.9994 C   0  0  1  0  0  0  0  0  0  0  0  0
   22.3810  -12.7680   -2.1091 O   0  0  0  0  0  0  0  0  0  0  0  0
   26.1595  -13.6070   -4.7984 C   0  0  0  0  0  0  0  0  0  0  0  0
   26.9448  -14.3512   -1.4119 C   0  0  0  0  0  0  0  0  0  0  0  0
  1  2  1  1  0  0  0
  1  6  1  0  0  0  0
  1 21  1  0  0  0  0
  3  4  1  1  0  0  0
  3  8  1  0  0  0  0
  3 28  1  0  0  0  0
  5  9  1  0  0  0  0
  5 25  1  0  0  0  0
  5 29  1  1  0  0  0
  6  7  1  1  0  0  0
  6 11  1  0  0  0  0
  8 12  1  0  0  0  0
  9 10  1  1  0  0  0
  9 14  1  0  0  0  0
 11 16  1  0  0  0  0
 12 13  1  1  0  0  0
 12 17  1  0  0  0  0
 14 15  1  6  0  0  0
 14 18  1  0  0  0  0
 15 31  1  0  0  0  0
 16 20  1  0  0  0  0
 17  2  1  6  0  0  0
 17 22  1  0  0  0  0
 18 19  1  6  0  0  0
 18 24  1  0  0  0  0
 18 30  1  0  0  0  0
 20 21  1  0  0  0  0
 20 26  1  1  0  0  0
 22 23  1  6  0  0  0
 22 28  1  0  0  0  0
 24 25  1  0  0  0  0
 26 27  1  0  0  0  0
 28 29  1  6  0  0  0
M  END
>  <CHROM.1>
-169.36421319,-160.12028391,-133.69711851,-146.19717919,102.73941905,156.80764297
21.47055442,-11.21944299,-3.52395058,-2.79035260,-0.75032250,1.75701899

>  <Name>
ligand

>  <RI>
0

>  <Rbt.Current_Directory>
/home/itssahil/PROJECTS/Mol_Feturizer/New_Systems/rnas/4F8V

>  <Rbt.Executable>
rbdock ($Id: //depot/dev/client3/rdock/2013.1/src/exe/rbdock.cxx#4 $)

>  <Rbt.Library>
libRbt.so (2013.1, Build901 2013/11/27)

>  <Rbt.Parameter_File>
/export/apps/rDock/src/rDock_2013.1_src/data/scripts/dock_solv.prm

>  <Rbt.Receptor>
prm/pocket_docking_4.prm

>  <SCORE>
-11.6297

>  <SCORE.INTER>
-10.2242

>  <SCORE.INTER.CONST>
1

>  <SCORE.INTER.POLAR>
0

>  <SCORE.INTER.ROT>
6

>  <SCORE.INTER.SOLV>
23.0205

>  <SCORE.INTER.VDW>
-22.0897

>  <SCORE.INTER.norm>
-0.329814

>  <SCORE.INTRA>
-1.40543

>  <SCORE.INTRA.DIHEDRAL>
-3.83482

>  <SCORE.INTRA.DIHEDRAL.0>
15.9129

>  <SCORE.INTRA.POLAR>
0

>  <SCORE.INTRA.POLAR.0>
0

>  <SCORE.INTRA.REPUL>
0

>  <SCORE.INTRA.REPUL.0>
0

>  <SCORE.INTRA.SOLV>
-1.16271

>  <SCORE.INTRA.SOLV.lig_0>
-75.7056

>  <SCORE.INTRA.VDW>
1.09333

>  <SCORE.INTRA.VDW.0>
-4.61812

>  <SCORE.INTRA.norm>
-0.0453365

>  <SCORE.RESTR>
0

>  <SCORE.RESTR.CAVITY>
0

>  <SCORE.RESTR.norm>
0

>  <SCORE.SYSTEM>
0

>  <SCORE.SYSTEM.CONST>
0

>  <SCORE.SYSTEM.DIHEDRAL>
0

>  <SCORE.SYSTEM.SOLV>
0

>  <SCORE.SYSTEM.norm>
0

>  <SCORE.heavy>
31

>  <SCORE.norm>
-0.375151

>  <RMSD>
1.070

$$$$
ligand
 OpenBabel11021811493D
libRbt.so/2013.1/901 2013/11/27
 31 33  0  0  0  0  0  0  0  0999 V2000
   19.4811   -9.3615   -5.5113 C   0  0  2  0  0  0  0  0  0  0  0  0
   20.3568   -9.0246   -4.4268 O   0  0  0  0  0  0  0  0  0  0  0  0
   21.6882  -10.9009   -0.8358 C   0  0  2  0  0  0  0  0  0  0  0  0
   21.6775  -11.7157    0.3321 N   0  0  0  0  0  0  0  0  0  0  0  0
   22.2649  -14.0099   -2.8768 C   0  0  2  0  0  0  0  0  0  0  0  0
   19.9017   -8.4775   -6.7260 C   0  0  2  0  0  0  0  0  0  0  0  0
   21.3104   -8.7245   -7.0271 N   0  0  0  0  0  0  0  0  0  0  0  0
   20.5752   -9.7945   -0.7063 C   0  0  0  0  0  0  0  0  0  0  0  0
   23.3720  -14.9278   -2.2916 C   0  0  2  0  0  0  0  0  0  0  0  0
   23.1846  -15.0280   -0.8984 O   0  0  0  0  0  0  0  0  0  0  0  0
   19.6339   -6.9550   -6.4128 C   0  0  0  0  0  0  0  0  0  0  0  0
   20.5904   -8.8907   -2.0058 C   0  0  2  0  0  0  0  0  0  0  0  0
   19.5455   -7.8528   -1.8909 N   0  0  0  0  0  0  0  0  0  0  0  0
   24.7743  -14.2887   -2.6414 C   0  0  1  0  0  0  0  0  0  0  0  0
   25.8715  -15.1258   -2.0790 N   0  0  0  0  0  0  0  0  0  0  0  0
   18.3904   -6.7325   -5.4774 C   0  0  0  0  0  0  0  0  0  0  0  0
   20.3228   -9.8072   -3.2747 C   0  0  2  0  0  0  0  0  0  0  0  0
   24.9411  -14.1933   -4.2581 C   0  0  1  0  0  0  0  0  0  0  0  0
   24.8963  -15.4483   -4.8919 O   0  0  0  0  0  0  0  0  0  0  0  0
   17.7194   -7.7668   -4.9490 C   0  0  1  0  0  0  0  0  0  0  0  0
   18.0836   -9.1090   -5.2043 O   0  0  0  0  0  0  0  0  0  0  0  0
   21.4348  -10.9142   -3.3687 C   0  0  2  0  0  0  0  0  0  0  0  0
   21.1799  -11.7392   -4.5041 O   0  0  0  0  0  0  0  0  0  0  0  0
   23.7829  -13.3215   -4.8347 C   0  0  0  0  0  0  0  0  0  0  0  0
   22.4427  -13.8518   -4.3662 O   0  0  0  0  0  0  0  0  0  0  0  0
   16.5054   -7.5862   -4.0167 C   0  0  0  0  0  0  0  0  0  0  0  0
   15.2964   -7.8168   -4.7766 N   0  0  0  0  0  0  0  0  0  0  0  0
   21.4088  -11.7943   -2.0623 C   0  0  1  0  0  0  0  0  0  0  0  0
   22.4124  -12.7609   -2.1687 O   0  0  0  0  0  0  0  0  0  0  0  0
   26.2611  -13.5905   -4.7594 C   0  0  0  0  0  0  0  0  0  0  0  0
   26.9151  -14.4095   -1.3295 C   0  0  0  0  0  0  0  0  0  0  0  0
  1  2  1  1  0  0  0
  1  6  1  0  0  0  0
  1 21  1  0  0  0  0
  3  4  1  1  0  0  0
  3  8  1  0  0  0  0
  3 28  1  0  0  0  0
  5  9  1  0  0  0  0
  5 25  1  0  0  0  0
  5 29  1  1  0  0  0
  6  7  1  1  0  0  0
  6 11  1  0  0  0  0
  8 12  1  0  0  0  0
  9 10  1  1  0  0  0
  9 14  1  0  0  0  0
 11 16  1  0  0  0  0
 12 13  1  1  0  0  0
 12 17  1  0  0  0  0
 14 15  1  6  0  0  0
 14 18  1  0  0  0  0
 15 31  1  0  0  0  0
 16 20  1  0  0  0  0
 17  2  1  6  0  0  0
 17 22  1  0  0  0  0
 18 19  1  6  0  0  0
 18 24  1  0  0  0  0
 18 30  1  0  0  0  0
 20 21  1  0  0  0  0
 20 26  1  1  0  0  0
 22 23  1  6  0  0  0
 22 28  1  0  0  0  0
 24 25  1  0  0  0  0
 26 27  1  0  0  0  0
 28 29  1  6  0  0  0
M  END
>  <CHROM.1>
-170.89424918,-159.59867201,-131.85826596,-145.64465085,101.57466665,158.00482777
21.51625452,-11.20164131,-3.56364144,-2.77478439,-0.74877837,1.77699968

>  <Name>
ligand

>  <RI>
0

>  <Rbt.Current_Directory>
/home/itssahil/PROJECTS/Mol_Feturizer/New_Systems/rnas/4F8V

>  <Rbt.Executable>
rbdock ($Id: //depot/dev/client3/rdock/2013.1/src/exe/rbdock.cxx#4 $)

>  <Rbt.Library>
libRbt.so (2013.1, Build901 2013/11/27)

>  <Rbt.Parameter_File>
/export/apps/rDock/src/rDock_2013.1_src/data/scripts/dock_solv.prm

>  <Rbt.Receptor>
prm/pocket_docking_3.prm

>  <SCORE>
-11.569

>  <SCORE.INTER>
-10.1028

>  <SCORE.INTER.CONST>
1

>  <SCORE.INTER.POLAR>
0

>  <SCORE.INTER.ROT>
6

>  <SCORE.INTER.SOLV>
22.675

>  <SCORE.INTER.VDW>
-21.8935

>  <SCORE.INTER.norm>
-0.325898

>  <SCORE.INTRA>
-1.46616

>  <SCORE.INTRA.DIHEDRAL>
-3.91591

>  <SCORE.INTRA.DIHEDRAL.0>
15.9129

>  <SCORE.INTRA.POLAR>
0

>  <SCORE.INTRA.POLAR.0>
0

>  <SCORE.INTRA.REPUL>
0

>  <SCORE.INTRA.REPUL.0>
0

>  <SCORE.INTRA.SOLV>
-1.13954

>  <SCORE.INTRA.SOLV.lig_0>
-75.7056

>  <SCORE.INTRA.VDW>
1.06156

>  <SCORE.INTRA.VDW.0>
-4.61812

>  <SCORE.INTRA.norm>
-0.0472955

>  <SCORE.RESTR>
0

>  <SCORE.RESTR.CAVITY>
0

>  <SCORE.RESTR.norm>
0

>  <SCORE.SYSTEM>
0

>  <SCORE.SYSTEM.CONST>
0

>  <SCORE.SYSTEM.DIHEDRAL>
0

>  <SCORE.SYSTEM.SOLV>
0

>  <SCORE.SYSTEM.norm>
0

>  <SCORE.heavy>
31

>  <SCORE.norm>
-0.373193

>  <RMSD>
1.081

$$$$
ligand
 OpenBabel11021811493D
libRbt.so/2013.1/901 2013/11/27
 31 33  0  0  0  0  0  0  0  0999 V2000
   20.2001   -9.0020   -5.7446 C   0  0  2  0  0  0  0  0  0  0  0  0
   20.4602   -8.4705   -4.4383 O   0  0  0  0  0  0  0  0  0  0  0  0
   21.8342  -10.3945   -0.8888 C   0  0  2  0  0  0  0  0  0  0  0  0
   21.8834  -11.2985    0.2104 N   0  0  0  0  0  0  0  0  0  0  0  0
   23.2705  -13.1168   -1.4504 C   0  0  2  0  0  0  0  0  0  0  0  0
   20.8450   -8.0202   -6.7711 C   0  0  2  0  0  0  0  0  0  0  0  0
   22.2708   -7.8941   -6.4757 N   0  0  0  0  0  0  0  0  0  0  0  0
   20.5318   -9.5162   -0.7799 C   0  0  0  0  0  0  0  0  0  0  0  0
   24.6505  -13.6288   -1.9444 C   0  0  2  0  0  0  0  0  0  0  0  0
   25.5871  -12.5818   -1.8300 O   0  0  0  0  0  0  0  0  0  0  0  0
   20.1168   -6.6219   -6.7219 C   0  0  0  0  0  0  0  0  0  0  0  0
   20.4808   -8.5125   -2.0028 C   0  0  2  0  0  0  0  0  0  0  0  0
   19.2587   -7.6881   -1.9073 N   0  0  0  0  0  0  0  0  0  0  0  0
   24.4905  -14.0993   -3.4445 C   0  0  1  0  0  0  0  0  0  0  0  0
   25.7991  -14.5802   -3.9712 N   0  0  0  0  0  0  0  0  0  0  0  0
   18.5895   -6.7399   -6.3693 C   0  0  0  0  0  0  0  0  0  0  0  0
   20.4819   -9.3458   -3.3546 C   0  0  2  0  0  0  0  0  0  0  0  0
   23.3996  -15.3052   -3.5234 C   0  0  1  0  0  0  0  0  0  0  0  0
   23.7757  -16.4382   -2.7793 O   0  0  0  0  0  0  0  0  0  0  0  0
   18.0335   -7.9198   -6.0564 C   0  0  1  0  0  0  0  0  0  0  0  0
   18.7805   -9.1200   -6.0308 O   0  0  0  0  0  0  0  0  0  0  0  0
   21.7808  -10.2278   -3.4284 C   0  0  2  0  0  0  0  0  0  0  0  0
   21.7676  -10.9810   -4.6396 O   0  0  0  0  0  0  0  0  0  0  0  0
   22.0376  -14.7916   -2.9623 C   0  0  0  0  0  0  0  0  0  0  0  0
   22.2282  -14.1991   -1.5806 O   0  0  0  0  0  0  0  0  0  0  0  0
   16.5437   -8.0706   -5.6916 C   0  0  0  0  0  0  0  0  0  0  0  0
   16.3523   -7.6350   -4.3256 N   0  0  0  0  0  0  0  0  0  0  0  0
   21.8163  -11.2109   -2.1979 C   0  0  1  0  0  0  0  0  0  0  0  0
   22.9844  -11.9733   -2.2835 O   0  0  0  0  0  0  0  0  0  0  0  0
   23.1325  -15.8744   -4.9241 C   0  0  0  0  0  0  0  0  0  0  0  0
   26.1046  -14.2308   -5.3670 C   0  0  0  0  0  0  0  0  0  0  0  0
  1  2  1  1  0  0  0
  1  6  1  0  0  0  0
  1 21  1  0  0  0  0
  3  4  1  1  0  0  0
  3  8  1  0  0  0  0
  3 28  1  0  0  0  0
  5  9  1  0  0  0  0
  5 25  1  0  0  0  0
  5 29  1  6  0  0  0
  6  7  1  1  0  0  0
  6 11  1  0  0  0  0
  8 12  1  0  0  0  0
  9 10  1  6  0  0  0
  9 14  1  0  0  0  0
 11 16  1  0  0  0  0
 12 13  1  1  0  0  0
 12 17  1  0  0  0  0
 14 15  1  1  0  0  0
 14 18  1  0  0  0  0
 15 31  1  0  0  0  0
 16 20  1  0  0  0  0
 17  2  1  6  0  0  0
 17 22  1  0  0  0  0
 18 19  1  1  0  0  0
 18 24  1  0  0  0  0
 18 30  1  0  0  0  0
 20 21  1  0  0  0  0
 20 26  1  1  0  0  0
 22 23  1  6  0  0  0
 22 28  1  0  0  0  0
 24 25  1  0  0  0  0
 26 27  1  0  0  0  0
 28 29  1  6  0  0  0
M  END
>  <CHROM.1>
-155.02936757,178.82757071,-141.28790740,-168.21354613,-78.08749149,70.61446612
21.62126667,-10.99387807,-3.67212147,-2.77268795,-0.87337096,1.70245606

>  <Name>
ligand

>  <RI>
0

>  <Rbt.Current_Directory>
/home/itssahil/PROJECTS/Mol_Feturizer/New_Systems/rnas/4F8V

>  <Rbt.Executable>
rbdock ($Id: //depot/dev/client3/rdock/2013.1/src/exe/rbdock.cxx#4 $)

>  <Rbt.Library>
libRbt.so (2013.1, Build901 2013/11/27)

>  <Rbt.Parameter_File>
/export/apps/rDock/src/rDock_2013.1_src/data/scripts/dock_solv.prm

>  <Rbt.Receptor>
prm/pocket_docking_2.prm

>  <SCORE>
-10.8628

>  <SCORE.INTER>
-8.2166

>  <SCORE.INTER.CONST>
1

>  <SCORE.INTER.POLAR>
0

>  <SCORE.INTER.ROT>
6

>  <SCORE.INTER.SOLV>
18.4171

>  <SCORE.INTER.VDW>
-19.2168

>  <SCORE.INTER.norm>
-0.265051

>  <SCORE.INTRA>
-2.69435

>  <SCORE.INTRA.DIHEDRAL>
-7.96838

>  <SCORE.INTRA.DIHEDRAL.0>
15.9129

>  <SCORE.INTRA.POLAR>
0

>  <SCORE.INTRA.POLAR.0>
0

>  <SCORE.INTRA.REPUL>
0

>  <SCORE.INTRA.REPUL.0>
0

>  <SCORE.INTRA.SOLV>
-0.839324

>  <SCORE.INTRA.SOLV.lig_0>
-75.7056

>  <SCORE.INTRA.VDW>
1.7095

>  <SCORE.INTRA.VDW.0>
-4.61812

>  <SCORE.INTRA.norm>
-0.0869144

>  <SCORE.RESTR>
0.048094

>  <SCORE.RESTR.CAVITY>
0.048094

>  <SCORE.RESTR.norm>
0.00155142

>  <SCORE.SYSTEM>
0

>  <SCORE.SYSTEM.CONST>
0

>  <SCORE.SYSTEM.DIHEDRAL>
0

>  <SCORE.SYSTEM.SOLV>
0

>  <SCORE.SYSTEM.norm>
0

>  <SCORE.heavy>
31

>  <SCORE.norm>
-0.350414

>  <RMSD>
1.190

$$$$
ligand
 OpenBabel11021811493D
libRbt.so/2013.1/901 2013/11/27
 31 33  0  0  0  0  0  0  0  0999 V2000
   20.4771   -8.7185   -5.7953 C   0  0  2  0  0  0  0  0  0  0  0  0
   20.6763   -8.2379   -4.4590 O   0  0  0  0  0  0  0  0  0  0  0  0
   21.7068  -10.2305   -0.8319 C   0  0  2  0  0  0  0  0  0  0  0  0
   21.6642  -11.1685    0.2388 N   0  0  0  0  0  0  0  0  0  0  0  0
   23.3691  -12.7631   -1.1768 C   0  0  2  0  0  0  0  0  0  0  0  0
   21.0395   -7.6280   -6.7587 C   0  0  2  0  0  0  0  0  0  0  0  0
   22.4453   -7.3904   -6.4372 N   0  0  0  0  0  0  0  0  0  0  0  0
   20.3677   -9.4021   -0.8490 C   0  0  0  0  0  0  0  0  0  0  0  0
   24.7371  -13.3353   -1.6367 C   0  0  2  0  0  0  0  0  0  0  0  0
   25.6788  -12.2870   -1.6617 O   0  0  0  0  0  0  0  0  0  0  0  0
   20.1871   -6.3057   -6.6448 C   0  0  0  0  0  0  0  0  0  0  0  0
   20.4189   -8.3605   -2.0398 C   0  0  2  0  0  0  0  0  0  0  0  0
   19.1631   -7.5827   -2.0625 N   0  0  0  0  0  0  0  0  0  0  0  0
   24.5449  -13.9735   -3.0695 C   0  0  1  0  0  0  0  0  0  0  0  0
   25.8411  -14.5182   -3.5639 N   0  0  0  0  0  0  0  0  0  0  0  0
   18.6737   -6.5798   -6.3202 C   0  0  0  0  0  0  0  0  0  0  0  0
   20.6071   -9.1476   -3.4060 C   0  0  2  0  0  0  0  0  0  0  0  0
   23.4492  -15.1749   -2.9879 C   0  0  1  0  0  0  0  0  0  0  0  0
   23.8373  -16.2173   -2.1268 O   0  0  0  0  0  0  0  0  0  0  0  0
   18.2242   -7.8203   -6.0787 C   0  0  1  0  0  0  0  0  0  0  0  0
   19.0767   -8.9480   -6.1071 O   0  0  0  0  0  0  0  0  0  0  0  0
   21.9387   -9.9810   -3.3545 C   0  0  2  0  0  0  0  0  0  0  0  0
   22.0935  -10.6934   -4.5807 O   0  0  0  0  0  0  0  0  0  0  0  0
   22.1005  -14.5934   -2.4620 C   0  0  0  0  0  0  0  0  0  0  0  0
   22.3212  -13.8478   -1.1612 O   0  0  0  0  0  0  0  0  0  0  0  0
   16.7510   -8.1243   -5.7432 C   0  0  0  0  0  0  0  0  0  0  0  0
   16.1852   -6.9846   -5.0552 N   0  0  0  0  0  0  0  0  0  0  0  0
   21.8705  -11.0029   -2.1574 C   0  0  1  0  0  0  0  0  0  0  0  0
   23.0690  -11.7210   -2.1293 O   0  0  0  0  0  0  0  0  0  0  0  0
   23.1517  -15.8991   -4.3086 C   0  0  0  0  0  0  0  0  0  0  0  0
   26.2488  -14.0982   -4.9134 C   0  0  0  0  0  0  0  0  0  0  0  0
  1  2  1  1  0  0  0
  1  6  1  0  0  0  0
  1 21  1  0  0  0  0
  3  4  1  1  0  0  0
  3  8  1  0  0  0  0
  3 28  1  0  0  0  0
  5  9  1  0  0  0  0
  5 25  1  0  0  0  0
  5 29  1  6  0  0  0
  6  7  1  1  0  0  0
  6 11  1  0  0  0  0
  8 12  1  0  0  0  0
  9 10  1  6  0  0  0
  9 14  1  0  0  0  0
 11 16  1  0  0  0  0
 12 13  1  6  0  0  0
 12 17  1  0  0  0  0
 14 15  1  1  0  0  0
 14 18  1  0  0  0  0
 15 31  1  0  0  0  0
 16 20  1  0  0  0  0
 17  2  1  6  0  0  0
 17 22  1  0  0  0  0
 18 19  1  1  0  0  0
 18 24  1  0  0  0  0
 18 30  1  0  0  0  0
 20 21  1  0  0  0  0
 20 26  1  1  0  0  0
 22 23  1  6  0  0  0
 22 28  1  0  0  0  0
 24 25  1  0  0  0  0
 26 27  1  0  0  0  0
 28 29  1  1  0  0  0
M  END
>  <CHROM.1>
-162.64164578,174.77305224,-129.09601845,-163.09377579,-30.37179549,61.71827588
21.70210528,-10.77539097,-3.53887611,-2.58452405,-0.82094814,1.87119260

>  <Name>
ligand

>  <RI>
0

>  <Rbt.Current_Directory>
/home/itssahil/PROJECTS/Mol_Feturizer/New_Systems/rnas/4F8V

>  <Rbt.Executable>
rbdock ($Id: //depot/dev/client3/rdock/2013.1/src/exe/rbdock.cxx#4 $)

>  <Rbt.Library>
libRbt.so (2013.1, Build901 2013/11/27)

>  <Rbt.Parameter_File>
/export/apps/rDock/src/rDock_2013.1_src/data/scripts/dock_solv.prm

>  <Rbt.Receptor>
prm/pocket_docking_3.prm

>  <SCORE>
-12.528

>  <SCORE.INTER>
-9.73062

>  <SCORE.INTER.CONST>
1

>  <SCORE.INTER.POLAR>
0

>  <SCORE.INTER.ROT>
6

>  <SCORE.INTER.SOLV>
17.9263

>  <SCORE.INTER.VDW>
-20.0625

>  <SCORE.INTER.norm>
-0.313891

>  <SCORE.INTRA>
-2.79739

>  <SCORE.INTRA.DIHEDRAL>
-9.26365

>  <SCORE.INTRA.DIHEDRAL.0>
15.9129

>  <SCORE.INTRA.POLAR>
0

>  <SCORE.INTRA.POLAR.0>
0

>  <SCORE.INTRA.REPUL>
0

>  <SCORE.INTRA.REPUL.0>
0

>  <SCORE.INTRA.SOLV>
-0.96108

>  <SCORE.INTRA.SOLV.lig_0>
-75.7056

>  <SCORE.INTRA.VDW>
2.31498

>  <SCORE.INTRA.VDW.0>
-4.61812

>  <SCORE.INTRA.norm>
-0.0902383

>  <SCORE.RESTR>
0

>  <SCORE.RESTR.CAVITY>
0

>  <SCORE.RESTR.norm>
0

>  <SCORE.SYSTEM>
0

>  <SCORE.SYSTEM.CONST>
0

>  <SCORE.SYSTEM.DIHEDRAL>
0

>  <SCORE.SYSTEM.SOLV>
0

>  <SCORE.SYSTEM.norm>
0

>  <SCORE.heavy>
31

>  <SCORE.norm>
-0.404129

>  <RMSD>
1.260

$$$$
ligand
 OpenBabel11021811493D
libRbt.so/2013.1/901 2013/11/27
 31 33  0  0  0  0  0  0  0  0999 V2000
   20.1113   -8.8287   -5.7785 C   0  0  2  0  0  0  0  0  0  0  0  0
   20.4651   -8.2875   -4.4986 O   0  0  0  0  0  0  0  0  0  0  0  0
   21.4690   -9.9918   -0.7202 C   0  0  2  0  0  0  0  0  0  0  0  0
   21.4214  -10.8469    0.4176 N   0  0  0  0  0  0  0  0  0  0  0  0
   23.1031  -12.6308   -0.9460 C   0  0  2  0  0  0  0  0  0  0  0  0
   20.7766   -7.9179   -6.8564 C   0  0  2  0  0  0  0  0  0  0  0  0
   22.2194   -7.8858   -6.6251 N   0  0  0  0  0  0  0  0  0  0  0  0
   20.1235   -9.1792   -0.8147 C   0  0  0  0  0  0  0  0  0  0  0  0
   24.4284  -13.2822   -1.4252 C   0  0  2  0  0  0  0  0  0  0  0  0
   25.4329  -12.2939   -1.4512 O   0  0  0  0  0  0  0  0  0  0  0  0
   20.1498   -6.4712   -6.8120 C   0  0  0  0  0  0  0  0  0  0  0  0
   20.1802   -8.2298   -2.0800 C   0  0  2  0  0  0  0  0  0  0  0  0
   18.9185   -7.4673   -2.1753 N   0  0  0  0  0  0  0  0  0  0  0  0
   24.1828  -13.8941   -2.8613 C   0  0  1  0  0  0  0  0  0  0  0  0
   25.4377  -14.5133   -3.3741 N   0  0  0  0  0  0  0  0  0  0  0  0
   18.6351   -6.4735   -6.3918 C   0  0  0  0  0  0  0  0  0  0  0  0
   20.3909   -9.1158   -3.3808 C   0  0  2  0  0  0  0  0  0  0  0  0
   23.0157  -15.0262   -2.7784 C   0  0  1  0  0  0  0  0  0  0  0  0
   23.3472  -16.0985   -1.9303 O   0  0  0  0  0  0  0  0  0  0  0  0
   18.0132   -7.6041   -6.0255 C   0  0  1  0  0  0  0  0  0  0  0  0
   18.6756   -8.8530   -6.0010 O   0  0  0  0  0  0  0  0  0  0  0  0
   21.7286   -9.9310   -3.2518 C   0  0  2  0  0  0  0  0  0  0  0  0
   21.9036  -10.7322   -4.4189 O   0  0  0  0  0  0  0  0  0  0  0  0
   21.7109  -14.3674   -2.2332 C   0  0  0  0  0  0  0  0  0  0  0  0
   21.9904  -13.6488   -0.9286 O   0  0  0  0  0  0  0  0  0  0  0  0
   16.5341   -7.6415   -5.5939 C   0  0  0  0  0  0  0  0  0  0  0  0
   16.3398   -6.6981   -4.5147 N   0  0  0  0  0  0  0  0  0  0  0  0
   21.6546  -10.8603   -1.9819 C   0  0  1  0  0  0  0  0  0  0  0  0
   22.8586  -11.5634   -1.8863 O   0  0  0  0  0  0  0  0  0  0  0  0
   22.6607  -15.7185   -4.1020 C   0  0  0  0  0  0  0  0  0  0  0  0
   26.0254  -15.5736   -2.5410 C   0  0  0  0  0  0  0  0  0  0  0  0
  1  2  1  1  0  0  0
  1  6  1  0  0  0  0
  1 21  1  0  0  0  0
  3  4  1  1  0  0  0
  3  8  1  0  0  0  0
  3 28  1  0  0  0  0
  5  9  1  0  0  0  0
  5 25  1  0  0  0  0
  5 29  1  6  0  0  0
  6  7  1  1  0  0  0
  6 11  1  0  0  0  0
  8 12  1  0  0  0  0
  9 10  1  6  0  0  0
  9 14  1  0  0  0  0
 11 16  1  0  0  0  0
 12 13  1  6  0  0  0
 12 17  1  0  0  0  0
 14 15  1  1  0  0  0
 14 18  1  0  0  0  0
 15 31  1  0  0  0  0
 16 20  1  0  0  0  0
 17  2  1  6  0  0  0
 17 22  1  0  0  0  0
 18 19  1  1  0  0  0
 18 24  1  0  0  0  0
 18 30  1  0  0  0  0
 20 21  1  0  0  0  0
 20 26  1  1  0  0  0
 22 23  1  6  0  0  0
 22 28  1  0  0  0  0
 24 25  1  0  0  0  0
 26 27  1  0  0  0  0
 28 29  1  1  0  0  0
M  END
>  <CHROM.1>
-159.10537251,168.14259242,57.83689123,-154.89946777,-54.84270177,68.79055582
21.44291193,-10.74291325,-3.34911094,-2.64374590,-0.88175485,1.74196952

>  <Name>
ligand

>  <RI>
0

>  <Rbt.Current_Directory>
/home/itssahil/PROJECTS/Mol_Feturizer/New_Systems/rnas/4F8V

>  <Rbt.Executable>
rbdock ($Id: //depot/dev/client3/rdock/2013.1/src/exe/rbdock.cxx#4 $)

>  <Rbt.Library>
libRbt.so (2013.1, Build901 2013/11/27)

>  <Rbt.Parameter_File>
/export/apps/rDock/src/rDock_2013.1_src/data/scripts/dock_solv.prm

>  <Rbt.Receptor>
prm/pocket_docking_2.prm

>  <SCORE>
-4.66488

>  <SCORE.INTER>
-5.22026

>  <SCORE.INTER.CONST>
1

>  <SCORE.INTER.POLAR>
0

>  <SCORE.INTER.ROT>
6

>  <SCORE.INTER.SOLV>
18.0508

>  <SCORE.INTER.VDW>
-17.0971

>  <SCORE.INTER.norm>
-0.168396

>  <SCORE.INTRA>
0.418489

>  <SCORE.INTRA.DIHEDRAL>
-6.66101

>  <SCORE.INTRA.DIHEDRAL.0>
15.9129

>  <SCORE.INTRA.POLAR>
0

>  <SCORE.INTRA.POLAR.0>
0

>  <SCORE.INTRA.REPUL>
0

>  <SCORE.INTRA.REPUL.0>
0

>  <SCORE.INTRA.SOLV>
0.643532

>  <SCORE.INTRA.SOLV.lig_0>
-75.7056

>  <SCORE.INTRA.VDW>
3.42723

>  <SCORE.INTRA.VDW.0>
-4.61812

>  <SCORE.INTRA.norm>
0.0134996

>  <SCORE.RESTR>
0.136895

>  <SCORE.RESTR.CAVITY>
0.136895

>  <SCORE.RESTR.norm>
0.00441597

>  <SCORE.SYSTEM>
0

>  <SCORE.SYSTEM.CONST>
0

>  <SCORE.SYSTEM.DIHEDRAL>
0

>  <SCORE.SYSTEM.SOLV>
0

>  <SCORE.SYSTEM.norm>
0

>  <SCORE.heavy>
31

>  <SCORE.norm>
-0.15048

>  <RMSD>
1.319

$$$$
ligand
 OpenBabel11021811493D
libRbt.so/2013.1/901 2013/11/27
 31 33  0  0  0  0  0  0  0  0999 V2000
   20.0847   -8.8408   -5.8605 C   0  0  2  0  0  0  0  0  0  0  0  0
   20.4596   -8.4471   -4.5335 O   0  0  0  0  0  0  0  0  0  0  0  0
   21.4062  -10.7209   -1.0518 C   0  0  2  0  0  0  0  0  0  0  0  0
   21.2833  -11.6755   -0.0022 N   0  0  0  0  0  0  0  0  0  0  0  0
   22.4016  -13.4931   -3.4099 C   0  0  2  0  0  0  0  0  0  0  0  0
   20.6322   -7.7482   -6.8301 C   0  0  2  0  0  0  0  0  0  0  0  0
   22.0784   -7.6366   -6.6509 N   0  0  0  0  0  0  0  0  0  0  0  0
   20.2388   -9.6704   -0.9366 C   0  0  0  0  0  0  0  0  0  0  0  0
   23.3643  -14.5192   -2.7536 C   0  0  2  0  0  0  0  0  0  0  0  0
   22.8760  -14.8389   -1.4708 O   0  0  0  0  0  0  0  0  0  0  0  0
   19.9075   -6.3719   -6.5679 C   0  0  0  0  0  0  0  0  0  0  0  0
   20.3790   -8.6110   -2.1043 C   0  0  2  0  0  0  0  0  0  0  0  0
   19.2839   -7.6247   -2.0030 N   0  0  0  0  0  0  0  0  0  0  0  0
   24.8009  -13.8650   -2.6784 C   0  0  1  0  0  0  0  0  0  0  0  0
   25.7580  -14.8076   -2.0330 N   0  0  0  0  0  0  0  0  0  0  0  0
   18.4183   -6.5451   -6.0954 C   0  0  0  0  0  0  0  0  0  0  0  0
   20.3141   -9.3684   -3.4985 C   0  0  2  0  0  0  0  0  0  0  0  0
   25.3183  -13.5134   -4.1814 C   0  0  1  0  0  0  0  0  0  0  0  0
   25.4304  -14.6480   -5.0053 O   0  0  0  0  0  0  0  0  0  0  0  0
   17.8959   -7.7582   -5.8615 C   0  0  1  0  0  0  0  0  0  0  0  0
   18.6455   -8.9452   -6.0302 O   0  0  0  0  0  0  0  0  0  0  0  0
   21.4761  -10.4239   -3.5790 C   0  0  2  0  0  0  0  0  0  0  0  0
   21.4030  -11.1070   -4.8291 O   0  0  0  0  0  0  0  0  0  0  0  0
   24.3044  -12.5330   -4.8482 C   0  0  0  0  0  0  0  0  0  0  0  0
   22.9009  -13.1004   -4.7778 O   0  0  0  0  0  0  0  0  0  0  0  0
   16.4453   -7.9649   -5.3837 C   0  0  0  0  0  0  0  0  0  0  0  0
   15.9499   -6.7170   -4.8456 N   0  0  0  0  0  0  0  0  0  0  0  0
   21.3233  -11.4610   -2.4030 C   0  0  1  0  0  0  0  0  0  0  0  0
   22.3734  -12.3787   -2.4929 O   0  0  0  0  0  0  0  0  0  0  0  0
   26.7085  -12.8687   -4.2760 C   0  0  0  0  0  0  0  0  0  0  0  0
   26.8062  -14.1986   -1.1998 C   0  0  0  0  0  0  0  0  0  0  0  0
  1  2  1  1  0  0  0
  1  6  1  0  0  0  0
  1 21  1  0  0  0  0
  3  4  1  1  0  0  0
  3  8  1  0  0  0  0
  3 28  1  0  0  0  0
  5  9  1  0  0  0  0
  5 25  1  0  0  0  0
  5 29  1  1  0  0  0
  6  7  1  1  0  0  0
  6 11  1  0  0  0  0
  8 12  1  0  0  0  0
  9 10  1  1  0  0  0
  9 14  1  0  0  0  0
 11 16  1  0  0  0  0
 12 13  1  6  0  0  0
 12 17  1  0  0  0  0
 14 15  1  6  0  0  0
 14 18  1  0  0  0  0
 15 31  1  0  0  0  0
 16 20  1  0  0  0  0
 17  2  1  6  0  0  0
 17 22  1  0  0  0  0
 18 19  1  6  0  0  0
 18 24  1  0  0  0  0
 18 30  1  0  0  0  0
 20 21  1  0  0  0  0
 20 26  1  1  0  0  0
 22 23  1  6  0  0  0
 22 28  1  0  0  0  0
 24 25  1  0  0  0  0
 26 27  1  0  0  0  0
 28 29  1  1  0  0  0
M  END
>  <CHROM.1>
-168.16294268,-155.90102997,-145.51784206,-163.72951751,-18.06501409,161.41246657
21.66217978,-10.76353772,-3.82166674,-2.59243176,-0.66089602,1.99591808

>  <Name>
ligand

>  <RI>
0

>  <Rbt.Current_Directory>
/home/itssahil/PROJECTS/Mol_Feturizer/New_Systems/rnas/4F8V

>  <Rbt.Executable>
rbdock ($Id: //depot/dev/client3/rdock/2013.1/src/exe/rbdock.cxx#4 $)

>  <Rbt.Library>
libRbt.so (2013.1, Build901 2013/11/27)

>  <Rbt.Parameter_File>
/export/apps/rDock/src/rDock_2013.1_src/data/scripts/dock_solv.prm

>  <Rbt.Receptor>
prm/pocket_docking_6.prm

>  <SCORE>
-12.6262

>  <SCORE.INTER>
-10.5352

>  <SCORE.INTER.CONST>
1

>  <SCORE.INTER.POLAR>
0

>  <SCORE.INTER.ROT>
6

>  <SCORE.INTER.SOLV>
18.9696

>  <SCORE.INTER.VDW>
-20.9466

>  <SCORE.INTER.norm>
-0.339844

>  <SCORE.INTRA>
-2.09108

>  <SCORE.INTRA.DIHEDRAL>
-7.11614

>  <SCORE.INTRA.DIHEDRAL.0>
15.9129

>  <SCORE.INTRA.POLAR>
0

>  <SCORE.INTRA.POLAR.0>
0

>  <SCORE.INTRA.REPUL>
0

>  <SCORE.INTRA.REPUL.0>
0

>  <SCORE.INTRA.SOLV>
-2.27214

>  <SCORE.INTRA.SOLV.lig_0>
-75.7056

>  <SCORE.INTRA.VDW>
2.60306

>  <SCORE.INTRA.VDW.0>
-4.61812

>  <SCORE.INTRA.norm>
-0.0674542

>  <SCORE.RESTR>
0

>  <SCORE.RESTR.CAVITY>
0

>  <SCORE.RESTR.norm>
0

>  <SCORE.SYSTEM>
0

>  <SCORE.SYSTEM.CONST>
0

>  <SCORE.SYSTEM.DIHEDRAL>
0

>  <SCORE.SYSTEM.SOLV>
0

>  <SCORE.SYSTEM.norm>
0

>  <SCORE.heavy>
31

>  <SCORE.norm>
-0.407298

>  <RMSD>
1.344

$$$$
ligand
 OpenBabel11021811493D
libRbt.so/2013.1/901 2013/11/27
 31 33  0  0  0  0  0  0  0  0999 V2000
   20.4186   -8.5570   -6.1215 C   0  0  2  0  0  0  0  0  0  0  0  0
   20.7323   -8.2951   -4.7469 O   0  0  0  0  0  0  0  0  0  0  0  0
   21.5602  -10.8638   -1.4447 C   0  0  2  0  0  0  0  0  0  0  0  0
   21.4151  -11.9219   -0.5027 N   0  0  0  0  0  0  0  0  0  0  0  0
   22.8255  -13.3523   -3.9813 C   0  0  2  0  0  0  0  0  0  0  0  0
   20.9048   -7.3220   -6.9415 C   0  0  2  0  0  0  0  0  0  0  0  0
   22.3341   -7.1286   -6.7052 N   0  0  0  0  0  0  0  0  0  0  0  0
   20.3408   -9.8770   -1.3079 C   0  0  0  0  0  0  0  0  0  0  0  0
   23.7559  -14.4190   -3.3433 C   0  0  2  0  0  0  0  0  0  0  0  0
   23.1701  -14.8679   -2.1426 O   0  0  0  0  0  0  0  0  0  0  0  0
   20.0731   -6.0415   -6.5460 C   0  0  0  0  0  0  0  0  0  0  0  0
   20.5056   -8.7023   -2.3559 C   0  0  2  0  0  0  0  0  0  0  0  0
   19.3621   -7.7750   -2.2341 N   0  0  0  0  0  0  0  0  0  0  0  0
   25.1638  -13.7497   -3.0842 C   0  0  1  0  0  0  0  0  0  0  0  0
   26.0873  -14.7324   -2.4498 N   0  0  0  0  0  0  0  0  0  0  0  0
   18.5907   -6.3752   -6.1437 C   0  0  0  0  0  0  0  0  0  0  0  0
   20.5642   -9.3196   -3.8178 C   0  0  2  0  0  0  0  0  0  0  0  0
   25.7963  -13.2477   -4.4980 C   0  0  1  0  0  0  0  0  0  0  0  0
   26.0061  -14.2967   -5.4114 O   0  0  0  0  0  0  0  0  0  0  0  0
   18.1554   -7.6417   -6.0672 C   0  0  1  0  0  0  0  0  0  0  0  0
   18.9956   -8.7439   -6.3474 O   0  0  0  0  0  0  0  0  0  0  0  0
   21.7763  -10.3150   -3.9209 C   0  0  2  0  0  0  0  0  0  0  0  0
   21.8140  -10.8731   -5.2332 O   0  0  0  0  0  0  0  0  0  0  0  0
   24.8170  -12.2264   -5.1550 C   0  0  0  0  0  0  0  0  0  0  0  0
   23.4275  -12.8226   -5.2587 O   0  0  0  0  0  0  0  0  0  0  0  0
   16.7138   -8.0065   -5.6623 C   0  0  0  0  0  0  0  0  0  0  0  0
   16.0991   -6.8543   -5.0401 N   0  0  0  0  0  0  0  0  0  0  0  0
   21.5972  -11.4689   -2.8635 C   0  0  1  0  0  0  0  0  0  0  0  0
   22.6919  -12.3309   -2.9703 O   0  0  0  0  0  0  0  0  0  0  0  0
   27.1725  -12.5724   -4.4123 C   0  0  0  0  0  0  0  0  0  0  0  0
   26.8826  -14.2367   -1.3159 C   0  0  0  0  0  0  0  0  0  0  0  0
  1  2  1  1  0  0  0
  1  6  1  0  0  0  0
  1 21  1  0  0  0  0
  3  4  1  1  0  0  0
  3  8  1  0  0  0  0
  3 28  1  0  0  0  0
  5  9  1  0  0  0  0
  5 25  1  0  0  0  0
  5 29  1  1  0  0  0
  6  7  1  1  0  0  0
  6 11  1  0  0  0  0
  8 12  1  0  0  0  0
  9 10  1  1  0  0  0
  9 14  1  0  0  0  0
 11 16  1  0  0  0  0
 12 13  1  6  0  0  0
 12 17  1  0  0  0  0
 14 15  1  6  0  0  0
 14 18  1  0  0  0  0
 15 31  1  0  0  0  0
 16 20  1  0  0  0  0
 17  2  1  6  0  0  0
 17 22  1  0  0  0  0
 18 19  1  6  0  0  0
 18 24  1  0  0  0  0
 18 30  1  0  0  0  0
 20 21  1  0  0  0  0
 20 26  1  1  0  0  0
 22 23  1  6  0  0  0
 22 28  1  0  0  0  0
 24 25  1  0  0  0  0
 26 27  1  0  0  0  0
 28 29  1  1  0  0  0
M  END
>  <CHROM.1>
-171.54386653,-154.04568821,-135.32789003,-161.70403398,-16.18854066,161.00720605
21.95752103,-10.65000857,-4.14034581,-2.54649766,-0.59501004,2.12021384

>  <Name>
ligand

>  <RI>
0

>  <Rbt.Current_Directory>
/home/itssahil/PROJECTS/Mol_Feturizer/New_Systems/rnas/4F8V

>  <Rbt.Executable>
rbdock ($Id: //depot/dev/client3/rdock/2013.1/src/exe/rbdock.cxx#4 $)

>  <Rbt.Library>
libRbt.so (2013.1, Build901 2013/11/27)

>  <Rbt.Parameter_File>
/export/apps/rDock/src/rDock_2013.1_src/data/scripts/dock_solv.prm

>  <Rbt.Receptor>
prm/pocket_docking_5.prm

>  <SCORE>
-12.5972

>  <SCORE.INTER>
-10.3612

>  <SCORE.INTER.CONST>
1

>  <SCORE.INTER.POLAR>
0

>  <SCORE.INTER.ROT>
6

>  <SCORE.INTER.SOLV>
16.8456

>  <SCORE.INTER.VDW>
-20.1227

>  <SCORE.INTER.norm>
-0.334232

>  <SCORE.INTRA>
-2.23601

>  <SCORE.INTRA.DIHEDRAL>
-6.53328

>  <SCORE.INTRA.DIHEDRAL.0>
15.9129

>  <SCORE.INTRA.POLAR>
0

>  <SCORE.INTRA.POLAR.0>
0

>  <SCORE.INTRA.REPUL>
0

>  <SCORE.INTRA.REPUL.0>
0

>  <SCORE.INTRA.SOLV>
-2.14348

>  <SCORE.INTRA.SOLV.lig_0>
-75.7056

>  <SCORE.INTRA.VDW>
2.10237

>  <SCORE.INTRA.VDW.0>
-4.61812

>  <SCORE.INTRA.norm>
-0.0721294

>  <SCORE.RESTR>
0

>  <SCORE.RESTR.CAVITY>
0

>  <SCORE.RESTR.norm>
0

>  <SCORE.SYSTEM>
0

>  <SCORE.SYSTEM.CONST>
0

>  <SCORE.SYSTEM.DIHEDRAL>
0

>  <SCORE.SYSTEM.SOLV>
0

>  <SCORE.SYSTEM.norm>
0

>  <SCORE.heavy>
31

>  <SCORE.norm>
-0.406362

>  <RMSD>
1.638

$$$$
ligand
 OpenBabel11021811493D
libRbt.so/2013.1/901 2013/11/27
 31 33  0  0  0  0  0  0  0  0999 V2000
   20.4208   -8.5328   -6.1523 C   0  0  2  0  0  0  0  0  0  0  0  0
   20.7176   -8.2714   -4.7739 O   0  0  0  0  0  0  0  0  0  0  0  0
   21.5409  -10.8514   -1.4792 C   0  0  2  0  0  0  0  0  0  0  0  0
   21.3948  -11.9130   -0.5414 N   0  0  0  0  0  0  0  0  0  0  0  0
   22.8425  -13.2888   -4.0573 C   0  0  2  0  0  0  0  0  0  0  0  0
   20.8905   -7.2851   -6.9625 C   0  0  2  0  0  0  0  0  0  0  0  0
   22.3138   -7.0658   -6.7128 N   0  0  0  0  0  0  0  0  0  0  0  0
   20.3202   -9.8662   -1.3415 C   0  0  0  0  0  0  0  0  0  0  0  0
   23.7460  -14.3872   -3.4345 C   0  0  2  0  0  0  0  0  0  0  0  0
   23.1169  -14.8849   -2.2757 O   0  0  0  0  0  0  0  0  0  0  0  0
   20.0313   -6.0224   -6.5686 C   0  0  0  0  0  0  0  0  0  0  0  0
   20.4862   -8.6875   -2.3849 C   0  0  2  0  0  0  0  0  0  0  0  0
   19.3415   -7.7618   -2.2621 N   0  0  0  0  0  0  0  0  0  0  0  0
   25.1464  -13.7372   -3.0976 C   0  0  1  0  0  0  0  0  0  0  0  0
   26.0436  -14.7513   -2.4749 N   0  0  0  0  0  0  0  0  0  0  0  0
   18.5520   -6.3860   -6.1808 C   0  0  0  0  0  0  0  0  0  0  0  0
   20.5485   -9.2994   -3.8489 C   0  0  2  0  0  0  0  0  0  0  0  0
   25.8299  -13.1773   -4.4651 C   0  0  1  0  0  0  0  0  0  0  0  0
   26.0677  -14.1865   -5.4156 O   0  0  0  0  0  0  0  0  0  0  0  0
   18.1403   -7.6609   -6.1137 C   0  0  1  0  0  0  0  0  0  0  0  0
   19.0036   -8.7457   -6.3914 O   0  0  0  0  0  0  0  0  0  0  0  0
   21.7618  -10.2933   -3.9530 C   0  0  2  0  0  0  0  0  0  0  0  0
   21.8028  -10.8465   -5.2672 O   0  0  0  0  0  0  0  0  0  0  0  0
   24.8780  -12.1232   -5.1105 C   0  0  0  0  0  0  0  0  0  0  0  0
   23.4908  -12.7071   -5.2885 O   0  0  0  0  0  0  0  0  0  0  0  0
   16.7024   -8.0548   -5.7231 C   0  0  0  0  0  0  0  0  0  0  0  0
   16.0756   -6.9320   -5.0606 N   0  0  0  0  0  0  0  0  0  0  0  0
   21.5815  -11.4513   -2.9002 C   0  0  1  0  0  0  0  0  0  0  0  0
   22.6773  -12.3118   -3.0078 O   0  0  0  0  0  0  0  0  0  0  0  0
   27.2047  -12.5136   -4.3020 C   0  0  0  0  0  0  0  0  0  0  0  0
   26.8694  -14.2841   -1.3509 C   0  0  0  0  0  0  0  0  0  0  0  0
  1  2  1  1  0  0  0
  1  6  1  0  0  0  0
  1 21  1  0  0  0  0
  3  4  1  1  0  0  0
  3  8  1  0  0  0  0
  3 28  1  0  0  0  0
  5  9  1  0  0  0  0
  5 25  1  0  0  0  0
  5 29  1  1  0  0  0
  6  7  1  1  0  0  0
  6 11  1  0  0  0  0
  8 12  1  0  0  0  0
  9 10  1  1  0  0  0
  9 14  1  0  0  0  0
 11 16  1  0  0  0  0
 12 13  1  6  0  0  0
 12 17  1  0  0  0  0
 14 15  1  6  0  0  0
 14 18  1  0  0  0  0
 15 31  1  0  0  0  0
 16 20  1  0  0  0  0
 17  2  1  6  0  0  0
 17 22  1  0  0  0  0
 18 19  1  6  0  0  0
 18 24  1  0  0  0  0
 18 30  1  0  0  0  0
 20 21  1  0  0  0  0
 20 26  1  1  0  0  0
 22 23  1  6  0  0  0
 22 28  1  0  0  0  0
 24 25  1  0  0  0  0
 26 27  1  0  0  0  0
 28 29  1  1  0  0  0
M  END
>  <CHROM.1>
-172.15952530,-153.92293076,-139.37924432,-162.36693792,-18.09535841,163.91942260
21.95114800,-10.62855280,-4.16870817,-2.53879974,-0.58001190,2.13521169

>  <Name>
ligand

>  <RI>
0

>  <Rbt.Current_Directory>
/home/itssahil/PROJECTS/Mol_Feturizer/New_Systems/rnas/4F8V

>  <Rbt.Executable>
rbdock ($Id: //depot/dev/client3/rdock/2013.1/src/exe/rbdock.cxx#4 $)

>  <Rbt.Library>
libRbt.so (2013.1, Build901 2013/11/27)

>  <Rbt.Parameter_File>
/export/apps/rDock/src/rDock_2013.1_src/data/scripts/dock_solv.prm

>  <Rbt.Receptor>
prm/pocket_docking_4.prm

>  <SCORE>
-12.6619

>  <SCORE.INTER>
-10.2972

>  <SCORE.INTER.CONST>
1

>  <SCORE.INTER.POLAR>
0

>  <SCORE.INTER.ROT>
6

>  <SCORE.INTER.SOLV>
17.1961

>  <SCORE.INTER.VDW>
-20.1969

>  <SCORE.INTER.norm>
-0.332169

>  <SCORE.INTRA>
-2.36465

>  <SCORE.INTRA.DIHEDRAL>
-7.12042

>  <SCORE.INTRA.DIHEDRAL.0>
15.9129

>  <SCORE.INTRA.POLAR>
0

>  <SCORE.INTRA.POLAR.0>
0

>  <SCORE.INTRA.REPUL>
0

>  <SCORE.INTRA.REPUL.0>
0

>  <SCORE.INTRA.SOLV>
-2.24741

>  <SCORE.INTRA.SOLV.lig_0>
-75.7056

>  <SCORE.INTRA.VDW>
2.31926

>  <SCORE.INTRA.VDW.0>
-4.61812

>  <SCORE.INTRA.norm>
-0.0762791

>  <SCORE.RESTR>
0

>  <SCORE.RESTR.CAVITY>
0

>  <SCORE.RESTR.norm>
0

>  <SCORE.SYSTEM>
0

>  <SCORE.SYSTEM.CONST>
0

>  <SCORE.SYSTEM.DIHEDRAL>
0

>  <SCORE.SYSTEM.SOLV>
0

>  <SCORE.SYSTEM.norm>
0

>  <SCORE.heavy>
31

>  <SCORE.norm>
-0.408448

>  <RMSD>
1.692

$$$$
ligand
 OpenBabel11021811493D
libRbt.so/2013.1/901 2013/11/27
 31 33  0  0  0  0  0  0  0  0999 V2000
   19.9225   -9.4053   -5.6695 C   0  0  2  0  0  0  0  0  0  0  0  0
   20.3685   -8.8654   -4.4180 O   0  0  0  0  0  0  0  0  0  0  0  0
   21.0840  -10.7175   -0.6436 C   0  0  2  0  0  0  0  0  0  0  0  0
   20.8558  -11.4759    0.5400 N   0  0  0  0  0  0  0  0  0  0  0  0
   23.0736  -12.6231   -1.2811 C   0  0  2  0  0  0  0  0  0  0  0  0
   20.6315   -8.5894   -6.7945 C   0  0  2  0  0  0  0  0  0  0  0  0
   22.0781   -8.6855   -6.6103 N   0  0  0  0  0  0  0  0  0  0  0  0
   20.0924   -9.4946   -0.6750 C   0  0  0  0  0  0  0  0  0  0  0  0
   24.0058  -12.5660   -2.5214 C   0  0  2  0  0  0  0  0  0  0  0  0
   23.6406  -11.4559   -3.3092 O   0  0  0  0  0  0  0  0  0  0  0  0
   20.1425   -7.0900   -6.7732 C   0  0  0  0  0  0  0  0  0  0  0  0
   20.3492   -8.6539   -1.9913 C   0  0  2  0  0  0  0  0  0  0  0  0
   19.4189   -7.5069   -2.0275 N   0  0  0  0  0  0  0  0  0  0  0  0
   23.8426  -13.9198   -3.3201 C   0  0  1  0  0  0  0  0  0  0  0  0
   24.7046  -13.9026   -4.5357 N   0  0  0  0  0  0  0  0  0  0  0  0
   18.6494   -6.9402   -6.3053 C   0  0  0  0  0  0  0  0  0  0  0  0
   20.1226   -9.5901   -3.2538 C   0  0  2  0  0  0  0  0  0  0  0  0
   24.2741  -15.1685   -2.3686 C   0  0  1  0  0  0  0  0  0  0  0  0
   25.6147  -15.1033   -1.9477 O   0  0  0  0  0  0  0  0  0  0  0  0
   17.9389   -7.9978   -5.8859 C   0  0  1  0  0  0  0  0  0  0  0  0
   18.4840   -9.3018   -5.8454 O   0  0  0  0  0  0  0  0  0  0  0  0
   21.1093  -10.8119   -3.1872 C   0  0  2  0  0  0  0  0  0  0  0  0
   20.8908  -11.6529   -4.3185 O   0  0  0  0  0  0  0  0  0  0  0  0
   23.3702  -15.1705   -1.0971 C   0  0  0  0  0  0  0  0  0  0  0  0
   23.4116  -13.8149   -0.4208 O   0  0  0  0  0  0  0  0  0  0  0  0
   16.4784   -7.8860   -5.4066 C   0  0  0  0  0  0  0  0  0  0  0  0
   16.3404   -6.6870   -4.6092 N   0  0  0  0  0  0  0  0  0  0  0  0
   20.8436  -11.6276   -1.8660 C   0  0  1  0  0  0  0  0  0  0  0  0
   21.7401  -12.6990   -1.8283 O   0  0  0  0  0  0  0  0  0  0  0  0
   24.1706  -16.5615   -3.0061 C   0  0  0  0  0  0  0  0  0  0  0  0
   24.0116  -14.0525   -5.8245 C   0  0  0  0  0  0  0  0  0  0  0  0
  1  2  1  1  0  0  0
  1  6  1  0  0  0  0
  1 21  1  0  0  0  0
  3  4  1  1  0  0  0
  3  8  1  0  0  0  0
  3 28  1  0  0  0  0
  5  9  1  0  0  0  0
  5 25  1  0  0  0  0
  5 29  1  6  0  0  0
  6  7  1  1  0  0  0
  6 11  1  0  0  0  0
  8 12  1  0  0  0  0
  9 10  1  6  0  0  0
  9 14  1  0  0  0  0
 11 16  1  0  0  0  0
 12 13  1  6  0  0  0
 12 17  1  0  0  0  0
 14 15  1  6  0  0  0
 14 18  1  0  0  0  0
 15 31  1  0  0  0  0
 16 20  1  0  0  0  0
 17  2  1  6  0  0  0
 17 22  1  0  0  0  0
 18 19  1  1  0  0  0
 18 24  1  0  0  0  0
 18 30  1  0  0  0  0
 20 21  1  0  0  0  0
 20 26  1  1  0  0  0
 22 23  1  6  0  0  0
 22 28  1  0  0  0  0
 24 25  1  0  0  0  0
 26 27  1  0  0  0  0
 28 29  1  1  0  0  0
M  END
>  <CHROM.1>
-166.12258638,-103.94232774,-120.47503795,-165.29666405,-40.48366938,-32.01988083
21.36888686,-11.00637633,-3.46173286,-2.63380010,-0.81962693,1.79498159

>  <Name>
ligand

>  <RI>
0

>  <Rbt.Current_Directory>
/home/itssahil/PROJECTS/Mol_Feturizer/New_Systems/rnas/4F8V

>  <Rbt.Executable>
rbdock ($Id: //depot/dev/client3/rdock/2013.1/src/exe/rbdock.cxx#4 $)

>  <Rbt.Library>
libRbt.so (2013.1, Build901 2013/11/27)

>  <Rbt.Parameter_File>
/export/apps/rDock/src/rDock_2013.1_src/data/scripts/dock_solv.prm

>  <Rbt.Receptor>
prm/pocket_docking_2.prm

>  <SCORE>
-5.58199

>  <SCORE.INTER>
-8.47377

>  <SCORE.INTER.CONST>
1

>  <SCORE.INTER.POLAR>
0

>  <SCORE.INTER.ROT>
6

>  <SCORE.INTER.SOLV>
19.205

>  <SCORE.INTER.VDW>
-19.6508

>  <SCORE.INTER.norm>
-0.273347

>  <SCORE.INTRA>
2.23025

>  <SCORE.INTRA.DIHEDRAL>
-0.428569

>  <SCORE.INTRA.DIHEDRAL.0>
15.9129

>  <SCORE.INTRA.POLAR>
0

>  <SCORE.INTRA.POLAR.0>
0

>  <SCORE.INTRA.REPUL>
0

>  <SCORE.INTRA.REPUL.0>
0

>  <SCORE.INTRA.SOLV>
-0.89047

>  <SCORE.INTRA.SOLV.lig_0>
-75.7056

>  <SCORE.INTRA.VDW>
2.88977

>  <SCORE.INTRA.VDW.0>
-4.61812

>  <SCORE.INTRA.norm>
0.0719436

>  <SCORE.RESTR>
0.66153

>  <SCORE.RESTR.CAVITY>
0.66153

>  <SCORE.RESTR.norm>
0.0213397

>  <SCORE.SYSTEM>
0

>  <SCORE.SYSTEM.CONST>
0

>  <SCORE.SYSTEM.DIHEDRAL>
0

>  <SCORE.SYSTEM.SOLV>
0

>  <SCORE.SYSTEM.norm>
0

>  <SCORE.heavy>
31

>  <SCORE.norm>
-0.180064

>  <RMSD>
1.778

$$$$
ligand
 OpenBabel11021811493D
libRbt.so/2013.1/901 2013/11/27
 31 33  0  0  0  0  0  0  0  0999 V2000
   19.7069   -8.3052   -5.2569 C   0  0  2  0  0  0  0  0  0  0  0  0
   20.7706   -8.5025   -4.3155 O   0  0  0  0  0  0  0  0  0  0  0  0
   21.2950  -10.2803   -0.4746 C   0  0  2  0  0  0  0  0  0  0  0  0
   21.0983  -11.1495    0.6362 N   0  0  0  0  0  0  0  0  0  0  0  0
   22.8324  -13.1054   -0.7589 C   0  0  2  0  0  0  0  0  0  0  0  0
   19.7547   -9.5041   -6.2539 C   0  0  2  0  0  0  0  0  0  0  0  0
   19.6326  -10.7514   -5.5021 N   0  0  0  0  0  0  0  0  0  0  0  0
   19.9866   -9.4364   -0.7105 C   0  0  0  0  0  0  0  0  0  0  0  0
   24.3431  -13.4568   -0.6911 C   0  0  2  0  0  0  0  0  0  0  0  0
   25.0276  -12.3878   -0.0786 O   0  0  0  0  0  0  0  0  0  0  0  0
   21.0881   -9.4624   -7.0954 C   0  0  0  0  0  0  0  0  0  0  0  0
   20.2090   -8.4713   -1.9454 C   0  0  2  0  0  0  0  0  0  0  0  0
   18.9830   -7.6794   -2.1733 N   0  0  0  0  0  0  0  0  0  0  0  0
   24.8561  -13.7020   -2.1655 C   0  0  1  0  0  0  0  0  0  0  0  0
   26.3117  -14.0218   -2.1532 N   0  0  0  0  0  0  0  0  0  0  0  0
   21.5968   -7.9993   -7.3631 C   0  0  0  0  0  0  0  0  0  0  0  0
   20.5504   -9.3441   -3.2273 C   0  0  2  0  0  0  0  0  0  0  0  0
   24.0354  -14.9421   -2.8283 C   0  0  1  0  0  0  0  0  0  0  0  0
   24.2069  -16.1518   -2.1312 O   0  0  0  0  0  0  0  0  0  0  0  0
   20.9792   -6.9357   -6.8280 C   0  0  1  0  0  0  0  0  0  0  0  0
   19.8388   -7.0649   -6.0021 O   0  0  0  0  0  0  0  0  0  0  0  0
   21.8470  -10.1908   -2.9579 C   0  0  2  0  0  0  0  0  0  0  0  0
   22.1391  -10.9798   -4.1099 O   0  0  0  0  0  0  0  0  0  0  0  0
   22.5137  -14.5982   -2.8280 C   0  0  0  0  0  0  0  0  0  0  0  0
   22.0623  -14.2129   -1.4335 O   0  0  0  0  0  0  0  0  0  0  0  0
   21.4584   -5.4889   -7.0569 C   0  0  0  0  0  0  0  0  0  0  0  0
   21.5480   -4.8200   -5.7775 N   0  0  0  0  0  0  0  0  0  0  0  0
   21.6072  -11.1355   -1.7202 C   0  0  1  0  0  0  0  0  0  0  0  0
   22.7772  -11.8667   -1.4978 O   0  0  0  0  0  0  0  0  0  0  0  0
   24.4223  -15.3058   -4.2689 C   0  0  0  0  0  0  0  0  0  0  0  0
   27.2135  -12.9585   -2.6222 C   0  0  0  0  0  0  0  0  0  0  0  0
  1  2  1  1  0  0  0
  1  6  1  0  0  0  0
  1 21  1  0  0  0  0
  3  4  1  1  0  0  0
  3  8  1  0  0  0  0
  3 28  1  0  0  0  0
  5  9  1  0  0  0  0
  5 25  1  0  0  0  0
  5 29  1  6  0  0  0
  6  7  1  1  0  0  0
  6 11  1  0  0  0  0
  8 12  1  0  0  0  0
  9 10  1  6  0  0  0
  9 14  1  0  0  0  0
 11 16  1  0  0  0  0
 12 13  1  6  0  0  0
 12 17  1  0  0  0  0
 14 15  1  1  0  0  0
 14 18  1  0  0  0  0
 15 31  1  0  0  0  0
 16 20  1  0  0  0  0
 17  2  1  6  0  0  0
 17 22  1  0  0  0  0
 18 19  1  1  0  0  0
 18 24  1  0  0  0  0
 18 30  1  0  0  0  0
 20 21  1  0  0  0  0
 20 26  1  1  0  0  0
 22 23  1  6  0  0  0
 22 28  1  0  0  0  0
 24 25  1  0  0  0  0
 26 27  1  0  0  0  0
 28 29  1  1  0  0  0
M  END
>  <CHROM.1>
-83.19940171,-175.51153036,-106.05534529,-99.43557946,-130.48506785,81.44582819
22.11663277,-10.81281450,-3.27353529,2.33299402,0.87442204,-1.15832842

>  <Name>
ligand

>  <RI>
0

>  <Rbt.Current_Directory>
/home/itssahil/PROJECTS/Mol_Feturizer/New_Systems/rnas/4F8V

>  <Rbt.Executable>
rbdock ($Id: //depot/dev/client3/rdock/2013.1/src/exe/rbdock.cxx#4 $)

>  <Rbt.Library>
libRbt.so (2013.1, Build901 2013/11/27)

>  <Rbt.Parameter_File>
/export/apps/rDock/src/rDock_2013.1_src/data/scripts/dock_solv.prm

>  <Rbt.Receptor>
prm/pocket_docking_2.prm

>  <SCORE>
-4.24673

>  <SCORE.INTER>
-5.29574

>  <SCORE.INTER.CONST>
1

>  <SCORE.INTER.POLAR>
0

>  <SCORE.INTER.ROT>
6

>  <SCORE.INTER.SOLV>
24.1602

>  <SCORE.INTER.VDW>
-19.1839

>  <SCORE.INTER.norm>
-0.17083

>  <SCORE.INTRA>
-0.407233

>  <SCORE.INTRA.DIHEDRAL>
-3.25241

>  <SCORE.INTRA.DIHEDRAL.0>
15.9129

>  <SCORE.INTRA.POLAR>
0

>  <SCORE.INTRA.POLAR.0>
0

>  <SCORE.INTRA.REPUL>
0

>  <SCORE.INTRA.REPUL.0>
0

>  <SCORE.INTRA.SOLV>
0.925616

>  <SCORE.INTRA.SOLV.lig_0>
-75.7056

>  <SCORE.INTRA.VDW>
0.756162

>  <SCORE.INTRA.VDW.0>
-4.61812

>  <SCORE.INTRA.norm>
-0.0131366

>  <SCORE.RESTR>
1.45625

>  <SCORE.RESTR.CAVITY>
1.45625

>  <SCORE.RESTR.norm>
0.0469757

>  <SCORE.SYSTEM>
0

>  <SCORE.SYSTEM.CONST>
0

>  <SCORE.SYSTEM.DIHEDRAL>
0

>  <SCORE.SYSTEM.SOLV>
0

>  <SCORE.SYSTEM.norm>
0

>  <SCORE.heavy>
31

>  <SCORE.norm>
-0.136991

>  <RMSD>
2.090

$$$$
ligand
 OpenBabel11021811493D
libRbt.so/2013.1/901 2013/11/27
 31 33  0  0  0  0  0  0  0  0999 V2000
   19.7137   -8.3426   -5.2511 C   0  0  2  0  0  0  0  0  0  0  0  0
   20.7830   -8.5371   -4.3156 O   0  0  0  0  0  0  0  0  0  0  0  0
   21.3205  -10.2579   -0.4505 C   0  0  2  0  0  0  0  0  0  0  0  0
   21.1228  -11.1056    0.6765 N   0  0  0  0  0  0  0  0  0  0  0  0
   22.8048  -13.1433   -0.7608 C   0  0  2  0  0  0  0  0  0  0  0  0
   19.7641   -9.5372   -6.2531 C   0  0  2  0  0  0  0  0  0  0  0  0
   19.6531  -10.7883   -5.5057 N   0  0  0  0  0  0  0  0  0  0  0  0
   20.0218   -9.3997   -0.6880 C   0  0  0  0  0  0  0  0  0  0  0  0
   24.3153  -13.4461   -0.5680 C   0  0  2  0  0  0  0  0  0  0  0  0
   24.9028  -12.3772    0.1382 O   0  0  0  0  0  0  0  0  0  0  0  0
   21.0932   -9.4841   -7.1007 C   0  0  0  0  0  0  0  0  0  0  0  0
   20.2453   -8.4586   -1.9410 C   0  0  2  0  0  0  0  0  0  0  0  0
   19.0282   -7.6535   -2.1704 N   0  0  0  0  0  0  0  0  0  0  0  0
   24.9665  -13.6214   -1.9972 C   0  0  1  0  0  0  0  0  0  0  0  0
   26.4258  -13.8924   -1.8636 N   0  0  0  0  0  0  0  0  0  0  0  0
   21.5918   -8.0170   -7.3650 C   0  0  0  0  0  0  0  0  0  0  0  0
   20.5619   -9.3573   -3.2113 C   0  0  2  0  0  0  0  0  0  0  0  0
   24.2541  -14.8640   -2.7712 C   0  0  1  0  0  0  0  0  0  0  0  0
   24.4069  -16.0912   -2.1010 O   0  0  0  0  0  0  0  0  0  0  0  0
   20.9703   -6.9592   -6.8227 C   0  0  1  0  0  0  0  0  0  0  0  0
   19.8346   -7.0986   -5.9920 O   0  0  0  0  0  0  0  0  0  0  0  0
   21.8492  -10.2176   -2.9402 C   0  0  2  0  0  0  0  0  0  0  0  0
   22.1190  -11.0296   -4.0815 O   0  0  0  0  0  0  0  0  0  0  0  0
   22.7269  -14.5716   -2.8974 C   0  0  0  0  0  0  0  0  0  0  0  0
   22.1391  -14.2514   -1.5378 O   0  0  0  0  0  0  0  0  0  0  0  0
   21.4396   -5.5086   -7.0482 C   0  0  0  0  0  0  0  0  0  0  0  0
   21.6862   -4.8937   -5.7623 N   0  0  0  0  0  0  0  0  0  0  0  0
   21.6086  -11.1380   -1.6845 C   0  0  1  0  0  0  0  0  0  0  0  0
   22.7704  -11.8817   -1.4611 O   0  0  0  0  0  0  0  0  0  0  0  0
   24.7812  -15.1631   -4.1819 C   0  0  0  0  0  0  0  0  0  0  0  0
   27.3198  -13.0404   -2.6629 C   0  0  0  0  0  0  0  0  0  0  0  0
  1  2  1  1  0  0  0
  1  6  1  0  0  0  0
  1 21  1  0  0  0  0
  3  4  1  1  0  0  0
  3  8  1  0  0  0  0
  3 28  1  0  0  0  0
  5  9  1  0  0  0  0
  5 25  1  0  0  0  0
  5 29  1  6  0  0  0
  6  7  1  1  0  0  0
  6 11  1  0  0  0  0
  8 12  1  0  0  0  0
  9 10  1  6  0  0  0
  9 14  1  0  0  0  0
 11 16  1  0  0  0  0
 12 13  1  6  0  0  0
 12 17  1  0  0  0  0
 14 15  1  1  0  0  0
 14 18  1  0  0  0  0
 15 31  1  0  0  0  0
 16 20  1  0  0  0  0
 17  2  1  6  0  0  0
 17 22  1  0  0  0  0
 18 19  1  1  0  0  0
 18 24  1  0  0  0  0
 18 30  1  0  0  0  0
 20 21  1  0  0  0  0
 20 26  1  1  0  0  0
 22 23  1  6  0  0  0
 22 28  1  0  0  0  0
 24 25  1  0  0  0  0
 26 27  1  0  0  0  0
 28 29  1  1  0  0  0
M  END
>  <CHROM.1>
-84.81661804,-170.93351393,-128.63683066,-99.54844603,-123.66775067,84.76144946
22.16596812,-10.81072337,-3.24095443,2.34205162,0.85904786,-1.17257965

>  <Name>
ligand

>  <RI>
0

>  <Rbt.Current_Directory>
/home/itssahil/PROJECTS/Mol_Feturizer/New_Systems/rnas/4F8V

>  <Rbt.Executable>
rbdock ($Id: //depot/dev/client3/rdock/2013.1/src/exe/rbdock.cxx#4 $)

>  <Rbt.Library>
libRbt.so (2013.1, Build901 2013/11/27)

>  <Rbt.Parameter_File>
/export/apps/rDock/src/rDock_2013.1_src/data/scripts/dock_solv.prm

>  <Rbt.Receptor>
prm/pocket_docking_2.prm

>  <SCORE>
-4.00198

>  <SCORE.INTER>
-5.53875

>  <SCORE.INTER.CONST>
1

>  <SCORE.INTER.POLAR>
0

>  <SCORE.INTER.ROT>
6

>  <SCORE.INTER.SOLV>
23.9343

>  <SCORE.INTER.VDW>
-19.2706

>  <SCORE.INTER.norm>
-0.178669

>  <SCORE.INTRA>
0.079835

>  <SCORE.INTRA.DIHEDRAL>
-2.09131

>  <SCORE.INTRA.DIHEDRAL.0>
15.9129

>  <SCORE.INTRA.POLAR>
0

>  <SCORE.INTRA.POLAR.0>
0

>  <SCORE.INTRA.REPUL>
0

>  <SCORE.INTRA.REPUL.0>
0

>  <SCORE.INTRA.SOLV>
0.849422

>  <SCORE.INTRA.SOLV.lig_0>
-75.7056

>  <SCORE.INTRA.VDW>
0.700777

>  <SCORE.INTRA.VDW.0>
-4.61812

>  <SCORE.INTRA.norm>
0.00257532

>  <SCORE.RESTR>
1.45694

>  <SCORE.RESTR.CAVITY>
1.45694

>  <SCORE.RESTR.norm>
0.046998

>  <SCORE.SYSTEM>
0

>  <SCORE.SYSTEM.CONST>
0

>  <SCORE.SYSTEM.DIHEDRAL>
0

>  <SCORE.SYSTEM.SOLV>
0

>  <SCORE.SYSTEM.norm>
0

>  <SCORE.heavy>
31

>  <SCORE.norm>
-0.129096

>  <RMSD>
2.096

$$$$
ligand
 OpenBabel11021811493D
libRbt.so/2013.1/901 2013/11/27
 31 33  0  0  0  0  0  0  0  0999 V2000
   20.6105   -8.8163   -6.2092 C   0  0  2  0  0  0  0  0  0  0  0  0
   21.1912   -8.8005   -4.8981 O   0  0  0  0  0  0  0  0  0  0  0  0
   22.0923  -11.8818   -2.0906 C   0  0  2  0  0  0  0  0  0  0  0  0
   21.9258  -13.0271   -1.2608 N   0  0  0  0  0  0  0  0  0  0  0  0
   22.5483  -14.6856   -3.7143 C   0  0  2  0  0  0  0  0  0  0  0  0
   21.1029   -7.5287   -6.9395 C   0  0  2  0  0  0  0  0  0  0  0  0
   22.5643   -7.5236   -6.9585 N   0  0  0  0  0  0  0  0  0  0  0  0
   21.0802  -10.7631   -1.6395 C   0  0  0  0  0  0  0  0  0  0  0  0
   23.8552  -15.3409   -4.2368 C   0  0  2  0  0  0  0  0  0  0  0  0
   24.9479  -14.7824   -3.5436 O   0  0  0  0  0  0  0  0  0  0  0  0
   20.5277   -6.2434   -6.2289 C   0  0  0  0  0  0  0  0  0  0  0  0
   21.2685   -9.4918   -2.5636 C   0  0  2  0  0  0  0  0  0  0  0  0
   20.3186   -8.4400   -2.1467 N   0  0  0  0  0  0  0  0  0  0  0  0
   23.9547  -15.0659   -5.7898 C   0  0  1  0  0  0  0  0  0  0  0  0
   25.2089  -15.6590   -6.3341 N   0  0  0  0  0  0  0  0  0  0  0  0
   19.1077   -6.4779   -5.5967 C   0  0  0  0  0  0  0  0  0  0  0  0
   21.0056   -9.9079   -4.0733 C   0  0  2  0  0  0  0  0  0  0  0  0
   22.6720  -15.7277   -6.5431 C   0  0  1  0  0  0  0  0  0  0  0  0
   22.5970  -17.1229   -6.3808 O   0  0  0  0  0  0  0  0  0  0  0  0
   18.5309   -7.6889   -5.6035 C   0  0  1  0  0  0  0  0  0  0  0  0
   19.1579   -8.8173   -6.1804 O   0  0  0  0  0  0  0  0  0  0  0  0
   22.0143  -11.0386   -4.4912 C   0  0  2  0  0  0  0  0  0  0  0  0
   21.7633  -11.4139   -5.8443 O   0  0  0  0  0  0  0  0  0  0  0  0
   21.3665  -15.1045   -5.9591 C   0  0  0  0  0  0  0  0  0  0  0  0
   21.3515  -15.2353   -4.4493 O   0  0  0  0  0  0  0  0  0  0  0  0
   17.1472   -7.9585   -4.9807 C   0  0  0  0  0  0  0  0  0  0  0  0
   16.1570   -7.9742   -6.0350 N   0  0  0  0  0  0  0  0  0  0  0  0
   21.8169  -12.2888   -3.5532 C   0  0  1  0  0  0  0  0  0  0  0  0
   22.7318  -13.2718   -3.9399 O   0  0  0  0  0  0  0  0  0  0  0  0
   22.6245  -15.5455   -8.0668 C   0  0  0  0  0  0  0  0  0  0  0  0
   26.3988  -14.7945   -6.3107 C   0  0  0  0  0  0  0  0  0  0  0  0
  1  2  1  1  0  0  0
  1  6  1  0  0  0  0
  1 21  1  0  0  0  0
  3  4  1  1  0  0  0
  3  8  1  0  0  0  0
  3 28  1  0  0  0  0
  5  9  1  0  0  0  0
  5 25  1  0  0  0  0
  5 29  1  6  0  0  0
  6  7  1  1  0  0  0
  6 11  1  0  0  0  0
  8 12  1  0  0  0  0
  9 10  1  1  0  0  0
  9 14  1  0  0  0  0
 11 16  1  0  0  0  0
 12 13  1  1  0  0  0
 12 17  1  0  0  0  0
 14 15  1  6  0  0  0
 14 18  1  0  0  0  0
 15 31  1  0  0  0  0
 16 20  1  0  0  0  0
 17  2  1  6  0  0  0
 17 22  1  0  0  0  0
 18 19  1  1  0  0  0
 18 24  1  0  0  0  0
 18 30  1  0  0  0  0
 20 21  1  0  0  0  0
 20 26  1  1  0  0  0
 22 23  1  6  0  0  0
 22 28  1  0  0  0  0
 24 25  1  0  0  0  0
 26 27  1  0  0  0  0
 28 29  1  6  0  0  0
M  END
>  <CHROM.1>
-174.33263924,-176.67068786,-89.07934975,-160.38497098,99.64918130,86.08448790
21.61853269,-11.60588816,-4.93918756,3.13326823,-1.06547189,1.56401814

>  <Name>
ligand

>  <RI>
0

>  <Rbt.Current_Directory>
/home/itssahil/PROJECTS/Mol_Feturizer/New_Systems/rnas/4F8V

>  <Rbt.Executable>
rbdock ($Id: //depot/dev/client3/rdock/2013.1/src/exe/rbdock.cxx#4 $)

>  <Rbt.Library>
libRbt.so (2013.1, Build901 2013/11/27)

>  <Rbt.Parameter_File>
/export/apps/rDock/src/rDock_2013.1_src/data/scripts/dock_solv.prm

>  <Rbt.Receptor>
prm/pocket_docking_4.prm

>  <SCORE>
-7.76915

>  <SCORE.INTER>
-3.56991

>  <SCORE.INTER.CONST>
1

>  <SCORE.INTER.POLAR>
0

>  <SCORE.INTER.ROT>
6

>  <SCORE.INTER.SOLV>
17.8631

>  <SCORE.INTER.VDW>
-15.9343

>  <SCORE.INTER.norm>
-0.115158

>  <SCORE.INTRA>
-4.19924

>  <SCORE.INTRA.DIHEDRAL>
-8.35089

>  <SCORE.INTRA.DIHEDRAL.0>
15.9129

>  <SCORE.INTRA.POLAR>
0

>  <SCORE.INTRA.POLAR.0>
0

>  <SCORE.INTRA.REPUL>
0

>  <SCORE.INTRA.REPUL.0>
0

>  <SCORE.INTRA.SOLV>
-1.91678

>  <SCORE.INTRA.SOLV.lig_0>
-75.7056

>  <SCORE.INTRA.VDW>
0.934595

>  <SCORE.INTRA.VDW.0>
-4.61812

>  <SCORE.INTRA.norm>
-0.135459

>  <SCORE.RESTR>
0

>  <SCORE.RESTR.CAVITY>
0

>  <SCORE.RESTR.norm>
0

>  <SCORE.SYSTEM>
0

>  <SCORE.SYSTEM.CONST>
0

>  <SCORE.SYSTEM.DIHEDRAL>
0

>  <SCORE.SYSTEM.SOLV>
0

>  <SCORE.SYSTEM.norm>
0

>  <SCORE.heavy>
31

>  <SCORE.norm>
-0.250618

>  <RMSD>
2.219

$$$$
ligand
 OpenBabel11021811493D
libRbt.so/2013.1/901 2013/11/27
 31 33  0  0  0  0  0  0  0  0999 V2000
   20.3423   -8.0839   -6.3311 C   0  0  2  0  0  0  0  0  0  0  0  0
   20.6595   -8.0331   -4.9335 O   0  0  0  0  0  0  0  0  0  0  0  0
   21.4617  -11.1161   -2.0981 C   0  0  2  0  0  0  0  0  0  0  0  0
   21.2924  -12.2983   -1.3223 N   0  0  0  0  0  0  0  0  0  0  0  0
   23.8071  -12.2353   -3.3847 C   0  0  2  0  0  0  0  0  0  0  0  0
   20.7434   -6.7040   -6.9383 C   0  0  2  0  0  0  0  0  0  0  0  0
   22.1620   -6.4662   -6.6795 N   0  0  0  0  0  0  0  0  0  0  0  0
   20.3032  -10.1044   -1.7609 C   0  0  0  0  0  0  0  0  0  0  0  0
   24.6876  -12.9908   -4.4165 C   0  0  2  0  0  0  0  0  0  0  0  0
   24.4715  -12.4288   -5.6908 O   0  0  0  0  0  0  0  0  0  0  0  0
   19.8435   -5.5584   -6.3336 C   0  0  0  0  0  0  0  0  0  0  0  0
   20.4948   -8.7918   -2.6245 C   0  0  2  0  0  0  0  0  0  0  0  0
   19.4082   -7.8402   -2.3145 N   0  0  0  0  0  0  0  0  0  0  0  0
   24.2820  -14.5178   -4.3824 C   0  0  1  0  0  0  0  0  0  0  0  0
   25.0878  -15.2825   -5.3758 N   0  0  0  0  0  0  0  0  0  0  0  0
   18.3891   -6.0424   -5.9855 C   0  0  0  0  0  0  0  0  0  0  0  0
   20.4686   -9.1789   -4.1643 C   0  0  2  0  0  0  0  0  0  0  0  0
   24.5479  -15.1185   -2.8927 C   0  0  1  0  0  0  0  0  0  0  0  0
   25.8975  -15.0470   -2.5024 O   0  0  0  0  0  0  0  0  0  0  0  0
   18.0302   -7.3282   -6.1170 C   0  0  1  0  0  0  0  0  0  0  0  0
   18.9296   -8.3167   -6.5786 O   0  0  0  0  0  0  0  0  0  0  0  0
   21.6205  -10.2040   -4.4693 C   0  0  2  0  0  0  0  0  0  0  0  0
   21.5819  -10.5547   -5.8514 O   0  0  0  0  0  0  0  0  0  0  0  0
   23.7054  -14.3048   -1.8622 C   0  0  0  0  0  0  0  0  0  0  0  0
   23.9863  -12.8227   -2.0072 O   0  0  0  0  0  0  0  0  0  0  0  0
   16.6183   -7.8408   -5.7716 C   0  0  0  0  0  0  0  0  0  0  0  0
   15.9552   -6.8570   -4.9441 N   0  0  0  0  0  0  0  0  0  0  0  0
   21.4161  -11.4969   -3.5926 C   0  0  1  0  0  0  0  0  0  0  0  0
   22.4581  -12.3840   -3.8758 O   0  0  0  0  0  0  0  0  0  0  0  0
   24.2014  -16.6015   -2.6983 C   0  0  0  0  0  0  0  0  0  0  0  0
   24.4045  -15.6393   -6.6286 C   0  0  0  0  0  0  0  0  0  0  0  0
  1  2  1  1  0  0  0
  1  6  1  0  0  0  0
  1 21  1  0  0  0  0
  3  4  1  1  0  0  0
  3  8  1  0  0  0  0
  3 28  1  0  0  0  0
  5  9  1  0  0  0  0
  5 25  1  0  0  0  0
  5 29  1  6  0  0  0
  6  7  1  1  0  0  0
  6 11  1  0  0  0  0
  8 12  1  0  0  0  0
  9 10  1  6  0  0  0
  9 14  1  0  0  0  0
 11 16  1  0  0  0  0
 12 13  1  6  0  0  0
 12 17  1  0  0  0  0
 14 15  1  6  0  0  0
 14 18  1  0  0  0  0
 15 31  1  0  0  0  0
 16 20  1  0  0  0  0
 17  2  1  6  0  0  0
 17 22  1  0  0  0  0
 18 19  1  1  0  0  0
 18 24  1  0  0  0  0
 18 30  1  0  0  0  0
 20 21  1  0  0  0  0
 20 26  1  1  0  0  0
 22 23  1  6  0  0  0
 22 28  1  0  0  0  0
 24 25  1  0  0  0  0
 26 27  1  0  0  0  0
 28 29  1  1  0  0  0
M  END
>  <CHROM.1>
-176.31967909,-154.80935080,-102.61040492,-164.56015493,-17.26626279,-43.19547050
21.68337304,-10.75329432,-4.35080214,-2.55359055,-0.79297571,2.05850062

>  <Name>
ligand

>  <RI>
0

>  <Rbt.Current_Directory>
/home/itssahil/PROJECTS/Mol_Feturizer/New_Systems/rnas/4F8V

>  <Rbt.Executable>
rbdock ($Id: //depot/dev/client3/rdock/2013.1/src/exe/rbdock.cxx#4 $)

>  <Rbt.Library>
libRbt.so (2013.1, Build901 2013/11/27)

>  <Rbt.Parameter_File>
/export/apps/rDock/src/rDock_2013.1_src/data/scripts/dock_solv.prm

>  <Rbt.Receptor>
prm/pocket_docking_5.prm

>  <SCORE>
-13.0563

>  <SCORE.INTER>
-11.1588

>  <SCORE.INTER.CONST>
1

>  <SCORE.INTER.POLAR>
0

>  <SCORE.INTER.ROT>
6

>  <SCORE.INTER.SOLV>
16.8564

>  <SCORE.INTER.VDW>
-20.658

>  <SCORE.INTER.norm>
-0.35996

>  <SCORE.INTRA>
-1.8975

>  <SCORE.INTRA.DIHEDRAL>
-7.70887

>  <SCORE.INTRA.DIHEDRAL.0>
15.9129

>  <SCORE.INTRA.POLAR>
0

>  <SCORE.INTRA.POLAR.0>
0

>  <SCORE.INTRA.REPUL>
0

>  <SCORE.INTRA.REPUL.0>
0

>  <SCORE.INTRA.SOLV>
-0.642919

>  <SCORE.INTRA.SOLV.lig_0>
-75.7056

>  <SCORE.INTRA.VDW>
2.27839

>  <SCORE.INTRA.VDW.0>
-4.61812

>  <SCORE.INTRA.norm>
-0.0612097

>  <SCORE.RESTR>
0

>  <SCORE.RESTR.CAVITY>
0

>  <SCORE.RESTR.norm>
0

>  <SCORE.SYSTEM>
0

>  <SCORE.SYSTEM.CONST>
0

>  <SCORE.SYSTEM.DIHEDRAL>
0

>  <SCORE.SYSTEM.SOLV>
0

>  <SCORE.SYSTEM.norm>
0

>  <SCORE.heavy>
31

>  <SCORE.norm>
-0.42117

>  <RMSD>
2.252

$$$$
ligand
 OpenBabel11021811493D
libRbt.so/2013.1/901 2013/11/27
 31 33  0  0  0  0  0  0  0  0999 V2000
   20.3024   -7.9277   -4.4694 C   0  0  2  0  0  0  0  0  0  0  0  0
   21.3295   -8.8267   -4.0298 O   0  0  0  0  0  0  0  0  0  0  0  0
   21.7652  -10.9168   -0.3379 C   0  0  2  0  0  0  0  0  0  0  0  0
   21.5005  -11.8290    0.7232 N   0  0  0  0  0  0  0  0  0  0  0  0
   22.8966  -13.9199   -0.9456 C   0  0  2  0  0  0  0  0  0  0  0  0
   19.2543   -8.7816   -5.2481 C   0  0  2  0  0  0  0  0  0  0  0  0
   18.7559   -9.8378   -4.3694 N   0  0  0  0  0  0  0  0  0  0  0  0
   20.5679   -9.9013   -0.4593 C   0  0  0  0  0  0  0  0  0  0  0  0
   24.3665  -14.3373   -0.6707 C   0  0  2  0  0  0  0  0  0  0  0  0
   24.9580  -13.3755    0.1728 O   0  0  0  0  0  0  0  0  0  0  0  0
   19.8985   -9.3745   -6.5600 C   0  0  0  0  0  0  0  0  0  0  0  0
   20.8658   -8.8889   -1.6392 C   0  0  2  0  0  0  0  0  0  0  0  0
   19.7436   -7.9357   -1.7597 N   0  0  0  0  0  0  0  0  0  0  0  0
   25.1177  -14.4291   -2.0579 C   0  0  1  0  0  0  0  0  0  0  0  0
   26.5433  -14.8064   -1.8426 N   0  0  0  0  0  0  0  0  0  0  0  0
   20.9908   -8.4325   -7.1847 C   0  0  0  0  0  0  0  0  0  0  0  0
   21.0441   -9.7071   -2.9883 C   0  0  2  0  0  0  0  0  0  0  0  0
   24.3971  -15.5493   -2.9941 C   0  0  1  0  0  0  0  0  0  0  0  0
   24.4235  -16.8381   -2.4309 O   0  0  0  0  0  0  0  0  0  0  0  0
   21.3682   -7.2991   -6.5745 C   0  0  1  0  0  0  0  0  0  0  0  0
   20.8063   -6.8838   -5.3453 O   0  0  0  0  0  0  0  0  0  0  0  0
   22.2307  -10.7263   -2.8332 C   0  0  2  0  0  0  0  0  0  0  0  0
   22.3759  -11.4643   -4.0452 O   0  0  0  0  0  0  0  0  0  0  0  0
   22.9047  -15.1470   -3.2051 C   0  0  0  0  0  0  0  0  0  0  0  0
   22.2305  -14.9092   -1.8688 O   0  0  0  0  0  0  0  0  0  0  0  0
   22.4456   -6.3593   -7.1501 C   0  0  0  0  0  0  0  0  0  0  0  0
   21.9462   -5.0022   -7.1161 N   0  0  0  0  0  0  0  0  0  0  0  0
   21.9184  -11.7165   -1.6484 C   0  0  1  0  0  0  0  0  0  0  0  0
   22.9925  -12.6022   -1.5269 O   0  0  0  0  0  0  0  0  0  0  0  0
   25.0161  -15.7577   -4.3836 C   0  0  0  0  0  0  0  0  0  0  0  0
   27.4761  -13.6983   -1.5860 C   0  0  0  0  0  0  0  0  0  0  0  0
  1  2  1  6  0  0  0
  1  6  1  0  0  0  0
  1 21  1  0  0  0  0
  3  4  1  1  0  0  0
  3  8  1  0  0  0  0
  3 28  1  0  0  0  0
  5  9  1  0  0  0  0
  5 25  1  0  0  0  0
  5 29  1  6  0  0  0
  6  7  1  1  0  0  0
  6 11  1  0  0  0  0
  8 12  1  0  0  0  0
  9 10  1  1  0  0  0
  9 14  1  0  0  0  0
 11 16  1  0  0  0  0
 12 13  1  6  0  0  0
 12 17  1  0  0  0  0
 14 15  1  1  0  0  0
 14 18  1  0  0  0  0
 15 31  1  0  0  0  0
 16 20  1  0  0  0  0
 17  2  1  6  0  0  0
 17 22  1  0  0  0  0
 18 19  1  1  0  0  0
 18 24  1  0  0  0  0
 18 30  1  0  0  0  0
 20 21  1  0  0  0  0
 20 26  1  1  0  0  0
 22 23  1  6  0  0  0
 22 28  1  0  0  0  0
 24 25  1  0  0  0  0
 26 27  1  0  0  0  0
 28 29  1  1  0  0  0
M  END
>  <CHROM.1>
-72.71104249,-164.51962032,-86.83261074,-68.60129692,131.94221282,85.46403959
22.36818696,-11.23570667,-3.10778139,2.29857362,0.86847750,-1.07679054

>  <Name>
ligand

>  <RI>
0

>  <Rbt.Current_Directory>
/home/itssahil/PROJECTS/Mol_Feturizer/New_Systems/rnas/4F8V

>  <Rbt.Executable>
rbdock ($Id: //depot/dev/client3/rdock/2013.1/src/exe/rbdock.cxx#4 $)

>  <Rbt.Library>
libRbt.so (2013.1, Build901 2013/11/27)

>  <Rbt.Parameter_File>
/export/apps/rDock/src/rDock_2013.1_src/data/scripts/dock_solv.prm

>  <Rbt.Receptor>
prm/pocket_docking_5.prm

>  <SCORE>
-10.8293

>  <SCORE.INTER>
-10.0767

>  <SCORE.INTER.CONST>
1

>  <SCORE.INTER.POLAR>
0

>  <SCORE.INTER.ROT>
6

>  <SCORE.INTER.SOLV>
25.5492

>  <SCORE.INTER.VDW>
-22.8342

>  <SCORE.INTER.norm>
-0.325055

>  <SCORE.INTRA>
-0.752628

>  <SCORE.INTRA.DIHEDRAL>
-8.54851

>  <SCORE.INTRA.DIHEDRAL.0>
15.9129

>  <SCORE.INTRA.POLAR>
0

>  <SCORE.INTRA.POLAR.0>
0

>  <SCORE.INTRA.REPUL>
0

>  <SCORE.INTRA.REPUL.0>
0

>  <SCORE.INTRA.SOLV>
2.11653

>  <SCORE.INTRA.SOLV.lig_0>
-75.7056

>  <SCORE.INTRA.VDW>
2.46336

>  <SCORE.INTRA.VDW.0>
-4.61812

>  <SCORE.INTRA.norm>
-0.0242783

>  <SCORE.RESTR>
0

>  <SCORE.RESTR.CAVITY>
0

>  <SCORE.RESTR.norm>
0

>  <SCORE.SYSTEM>
0

>  <SCORE.SYSTEM.CONST>
0

>  <SCORE.SYSTEM.DIHEDRAL>
0

>  <SCORE.SYSTEM.SOLV>
0

>  <SCORE.SYSTEM.norm>
0

>  <SCORE.heavy>
31

>  <SCORE.norm>
-0.349333

>  <RMSD>
2.263

$$$$
ligand
 OpenBabel11021811493D
libRbt.so/2013.1/901 2013/11/27
 31 33  0  0  0  0  0  0  0  0999 V2000
   20.1980   -7.8904   -4.4514 C   0  0  2  0  0  0  0  0  0  0  0  0
   21.2373   -8.7819   -4.0253 O   0  0  0  0  0  0  0  0  0  0  0  0
   21.7396  -10.9052   -0.3609 C   0  0  2  0  0  0  0  0  0  0  0  0
   21.4927  -11.8251    0.6978 N   0  0  0  0  0  0  0  0  0  0  0  0
   22.8511  -13.8959   -0.9883 C   0  0  2  0  0  0  0  0  0  0  0  0
   19.1898   -8.7359   -5.2895 C   0  0  2  0  0  0  0  0  0  0  0  0
   18.6984   -9.8400   -4.4675 N   0  0  0  0  0  0  0  0  0  0  0  0
   20.5451   -9.8830   -0.4488 C   0  0  0  0  0  0  0  0  0  0  0  0
   24.3244  -14.2884   -0.6951 C   0  0  2  0  0  0  0  0  0  0  0  0
   24.8956  -13.3054    0.1378 O   0  0  0  0  0  0  0  0  0  0  0  0
   19.8783   -9.2574   -6.6093 C   0  0  0  0  0  0  0  0  0  0  0  0
   20.8232   -8.8621   -1.6261 C   0  0  2  0  0  0  0  0  0  0  0  0
   19.7035   -7.9026   -1.7152 N   0  0  0  0  0  0  0  0  0  0  0  0
   25.0882  -14.3913   -2.0748 C   0  0  1  0  0  0  0  0  0  0  0  0
   26.5171  -14.7453   -1.8422 N   0  0  0  0  0  0  0  0  0  0  0  0
   20.9604   -8.2637   -7.1683 C   0  0  0  0  0  0  0  0  0  0  0  0
   20.9694   -9.6697   -2.9855 C   0  0  2  0  0  0  0  0  0  0  0  0
   24.3908  -15.5360   -2.9989 C   0  0  1  0  0  0  0  0  0  0  0  0
   24.4304  -16.8153   -2.4153 O   0  0  0  0  0  0  0  0  0  0  0  0
   21.2951   -7.1482   -6.5028 C   0  0  1  0  0  0  0  0  0  0  0  0
   20.6952   -6.7986   -5.2711 O   0  0  0  0  0  0  0  0  0  0  0  0
   22.1539  -10.6958   -2.8638 C   0  0  2  0  0  0  0  0  0  0  0  0
   22.2702  -11.4242   -4.0847 O   0  0  0  0  0  0  0  0  0  0  0  0
   22.8948  -15.1579   -3.2281 C   0  0  0  0  0  0  0  0  0  0  0  0
   22.2064  -14.9088   -1.9011 O   0  0  0  0  0  0  0  0  0  0  0  0
   22.3612   -6.1591   -7.0133 C   0  0  0  0  0  0  0  0  0  0  0  0
   23.4455   -6.1088   -6.0572 N   0  0  0  0  0  0  0  0  0  0  0  0
   21.8615  -11.6945   -1.6810 C   0  0  1  0  0  0  0  0  0  0  0  0
   22.9336  -12.5863   -1.5894 O   0  0  0  0  0  0  0  0  0  0  0  0
   25.0239  -15.7574   -4.3800 C   0  0  0  0  0  0  0  0  0  0  0  0
   27.4423  -13.6175   -1.6527 C   0  0  0  0  0  0  0  0  0  0  0  0
  1  2  1  6  0  0  0
  1  6  1  0  0  0  0
  1 21  1  0  0  0  0
  3  4  1  1  0  0  0
  3  8  1  0  0  0  0
  3 28  1  0  0  0  0
  5  9  1  0  0  0  0
  5 25  1  0  0  0  0
  5 29  1  6  0  0  0
  6  7  1  1  0  0  0
  6 11  1  0  0  0  0
  8 12  1  0  0  0  0
  9 10  1  1  0  0  0
  9 14  1  0  0  0  0
 11 16  1  0  0  0  0
 12 13  1  6  0  0  0
 12 17  1  0  0  0  0
 14 15  1  1  0  0  0
 14 18  1  0  0  0  0
 15 31  1  0  0  0  0
 16 20  1  0  0  0  0
 17  2  1  6  0  0  0
 17 22  1  0  0  0  0
 18 19  1  1  0  0  0
 18 24  1  0  0  0  0
 18 30  1  0  0  0  0
 20 21  1  0  0  0  0
 20 26  1  1  0  0  0
 22 23  1  6  0  0  0
 22 28  1  0  0  0  0
 24 25  1  0  0  0  0
 26 27  1  0  0  0  0
 28 29  1  1  0  0  0
M  END
>  <CHROM.1>
-75.66096988,-161.60633208,-89.35138128,-69.67914779,-117.66259714,83.90250565
22.37024319,-11.22480788,-3.08166188,2.27949831,0.83478647,-1.02504588

>  <Name>
ligand

>  <RI>
0

>  <Rbt.Current_Directory>
/home/itssahil/PROJECTS/Mol_Feturizer/New_Systems/rnas/4F8V

>  <Rbt.Executable>
rbdock ($Id: //depot/dev/client3/rdock/2013.1/src/exe/rbdock.cxx#4 $)

>  <Rbt.Library>
libRbt.so (2013.1, Build901 2013/11/27)

>  <Rbt.Parameter_File>
/export/apps/rDock/src/rDock_2013.1_src/data/scripts/dock_solv.prm

>  <Rbt.Receptor>
prm/pocket_docking_8.prm

>  <SCORE>
-11.4397

>  <SCORE.INTER>
-10.6453

>  <SCORE.INTER.CONST>
1

>  <SCORE.INTER.POLAR>
0

>  <SCORE.INTER.ROT>
6

>  <SCORE.INTER.SOLV>
21.4669

>  <SCORE.INTER.VDW>
-21.8525

>  <SCORE.INTER.norm>
-0.343398

>  <SCORE.INTRA>
-0.794355

>  <SCORE.INTRA.DIHEDRAL>
-8.0335

>  <SCORE.INTRA.DIHEDRAL.0>
15.9129

>  <SCORE.INTRA.POLAR>
0

>  <SCORE.INTRA.POLAR.0>
0

>  <SCORE.INTRA.REPUL>
0

>  <SCORE.INTRA.REPUL.0>
0

>  <SCORE.INTRA.SOLV>
2.23851

>  <SCORE.INTRA.SOLV.lig_0>
-75.7056

>  <SCORE.INTRA.VDW>
2.10314

>  <SCORE.INTRA.VDW.0>
-4.61812

>  <SCORE.INTRA.norm>
-0.0256243

>  <SCORE.RESTR>
0

>  <SCORE.RESTR.CAVITY>
0

>  <SCORE.RESTR.norm>
0

>  <SCORE.SYSTEM>
0

>  <SCORE.SYSTEM.CONST>
0

>  <SCORE.SYSTEM.DIHEDRAL>
0

>  <SCORE.SYSTEM.SOLV>
0

>  <SCORE.SYSTEM.norm>
0

>  <SCORE.heavy>
31

>  <SCORE.norm>
-0.369022

>  <RMSD>
2.320

$$$$
ligand
 OpenBabel11021811493D
libRbt.so/2013.1/901 2013/11/27
 31 33  0  0  0  0  0  0  0  0999 V2000
   20.2525   -7.8225   -4.5834 C   0  0  2  0  0  0  0  0  0  0  0  0
   21.2896   -8.6803   -4.0881 O   0  0  0  0  0  0  0  0  0  0  0  0
   21.6424  -10.7919   -0.3996 C   0  0  2  0  0  0  0  0  0  0  0  0
   21.3576  -11.7147    0.6470 N   0  0  0  0  0  0  0  0  0  0  0  0
   22.8327  -13.7623   -0.9597 C   0  0  2  0  0  0  0  0  0  0  0  0
   19.3636   -8.6854   -5.5315 C   0  0  2  0  0  0  0  0  0  0  0  0
   18.8522   -9.8344   -4.7869 N   0  0  0  0  0  0  0  0  0  0  0  0
   20.4375   -9.7891   -0.5488 C   0  0  0  0  0  0  0  0  0  0  0  0
   24.3036  -14.1619   -0.6641 C   0  0  2  0  0  0  0  0  0  0  0  0
   24.8793  -13.1798    0.1668 O   0  0  0  0  0  0  0  0  0  0  0  0
   20.1910   -9.1360   -6.7966 C   0  0  0  0  0  0  0  0  0  0  0  0
   20.7577   -8.7649   -1.7125 C   0  0  2  0  0  0  0  0  0  0  0  0
   19.6287   -7.8236   -1.8589 N   0  0  0  0  0  0  0  0  0  0  0  0
   25.0681  -14.2727   -2.0427 C   0  0  1  0  0  0  0  0  0  0  0  0
   26.4948  -14.6337   -1.8078 N   0  0  0  0  0  0  0  0  0  0  0  0
   21.2717   -8.0794   -7.2286 C   0  0  0  0  0  0  0  0  0  0  0  0
   20.9844   -9.5713   -3.0615 C   0  0  2  0  0  0  0  0  0  0  0  0
   24.3655  -15.4160   -2.9645 C   0  0  1  0  0  0  0  0  0  0  0  0
   24.3976  -16.6939   -2.3774 O   0  0  0  0  0  0  0  0  0  0  0  0
   21.4934   -6.9711   -6.5063 C   0  0  1  0  0  0  0  0  0  0  0  0
   20.7701   -6.6856   -5.3254 O   0  0  0  0  0  0  0  0  0  0  0  0
   22.1776  -10.5781   -2.8791 C   0  0  2  0  0  0  0  0  0  0  0  0
   22.3662  -11.3058   -4.0914 O   0  0  0  0  0  0  0  0  0  0  0  0
   22.8717  -15.0305   -3.1961 C   0  0  0  0  0  0  0  0  0  0  0  0
   22.1835  -14.7741   -1.8704 O   0  0  0  0  0  0  0  0  0  0  0  0
   22.5541   -5.9213   -6.8916 C   0  0  0  0  0  0  0  0  0  0  0  0
   23.6352   -5.9778   -5.9322 N   0  0  0  0  0  0  0  0  0  0  0  0
   21.8426  -11.5803   -1.7107 C   0  0  1  0  0  0  0  0  0  0  0  0
   22.9228  -12.4548   -1.5642 O   0  0  0  0  0  0  0  0  0  0  0  0
   24.9987  -15.6444   -4.3444 C   0  0  0  0  0  0  0  0  0  0  0  0
   27.4267  -13.5103   -1.6250 C   0  0  0  0  0  0  0  0  0  0  0  0
  1  2  1  6  0  0  0
  1  6  1  0  0  0  0
  1 21  1  0  0  0  0
  3  4  1  1  0  0  0
  3  8  1  0  0  0  0
  3 28  1  0  0  0  0
  5  9  1  0  0  0  0
  5 25  1  0  0  0  0
  5 29  1  6  0  0  0
  6  7  1  1  0  0  0
  6 11  1  0  0  0  0
  8 12  1  0  0  0  0
  9 10  1  1  0  0  0
  9 14  1  0  0  0  0
 11 16  1  0  0  0  0
 12 13  1  6  0  0  0
 12 17  1  0  0  0  0
 14 15  1  1  0  0  0
 14 18  1  0  0  0  0
 15 31  1  0  0  0  0
 16 20  1  0  0  0  0
 17  2  1  6  0  0  0
 17 22  1  0  0  0  0
 18 19  1  1  0  0  0
 18 24  1  0  0  0  0
 18 30  1  0  0  0  0
 20 21  1  0  0  0  0
 20 26  1  1  0  0  0
 22 23  1  6  0  0  0
 22 28  1  0  0  0  0
 24 25  1  0  0  0  0
 26 27  1  0  0  0  0
 28 29  1  1  0  0  0
M  END
>  <CHROM.1>
-78.32126027,-164.47456194,-89.55395394,-70.77186712,-110.13591718,83.58072494
22.40552626,-11.10830374,-3.11196755,2.21944415,0.80859223,-0.97221908

>  <Name>
ligand

>  <RI>
0

>  <Rbt.Current_Directory>
/home/itssahil/PROJECTS/Mol_Feturizer/New_Systems/rnas/4F8V

>  <Rbt.Executable>
rbdock ($Id: //depot/dev/client3/rdock/2013.1/src/exe/rbdock.cxx#4 $)

>  <Rbt.Library>
libRbt.so (2013.1, Build901 2013/11/27)

>  <Rbt.Parameter_File>
/export/apps/rDock/src/rDock_2013.1_src/data/scripts/dock_solv.prm

>  <Rbt.Receptor>
prm/pocket_docking_4.prm

>  <SCORE>
-11.4785

>  <SCORE.INTER>
-10.3621

>  <SCORE.INTER.CONST>
1

>  <SCORE.INTER.POLAR>
0

>  <SCORE.INTER.ROT>
6

>  <SCORE.INTER.SOLV>
20.4673

>  <SCORE.INTER.VDW>
-21.3305

>  <SCORE.INTER.norm>
-0.334261

>  <SCORE.INTRA>
-1.11636

>  <SCORE.INTRA.DIHEDRAL>
-7.89048

>  <SCORE.INTRA.DIHEDRAL.0>
15.9129

>  <SCORE.INTRA.POLAR>
0

>  <SCORE.INTRA.POLAR.0>
0

>  <SCORE.INTRA.REPUL>
0

>  <SCORE.INTRA.REPUL.0>
0

>  <SCORE.INTRA.SOLV>
1.867

>  <SCORE.INTRA.SOLV.lig_0>
-75.7056

>  <SCORE.INTRA.VDW>
1.89538

>  <SCORE.INTRA.VDW.0>
-4.61812

>  <SCORE.INTRA.norm>
-0.0360117

>  <SCORE.RESTR>
0

>  <SCORE.RESTR.CAVITY>
0

>  <SCORE.RESTR.norm>
0

>  <SCORE.SYSTEM>
0

>  <SCORE.SYSTEM.CONST>
0

>  <SCORE.SYSTEM.DIHEDRAL>
0

>  <SCORE.SYSTEM.SOLV>
0

>  <SCORE.SYSTEM.norm>
0

>  <SCORE.heavy>
31

>  <SCORE.norm>
-0.370273

>  <RMSD>
2.338

$$$$
ligand
 OpenBabel11021811493D
libRbt.so/2013.1/901 2013/11/27
 31 33  0  0  0  0  0  0  0  0999 V2000
   21.8462   -9.1127   -5.8370 C   0  0  2  0  0  0  0  0  0  0  0  0
   22.5586   -8.4480   -4.7848 O   0  0  0  0  0  0  0  0  0  0  0  0
   24.5080  -10.1629   -1.4015 C   0  0  2  0  0  0  0  0  0  0  0  0
   24.6910  -10.8562   -0.1711 N   0  0  0  0  0  0  0  0  0  0  0  0
   24.8726  -13.2674   -1.6519 C   0  0  2  0  0  0  0  0  0  0  0  0
   21.9234   -8.1889   -7.0918 C   0  0  2  0  0  0  0  0  0  0  0  0
   23.3276   -7.9436   -7.4145 N   0  0  0  0  0  0  0  0  0  0  0  0
   23.6058   -8.8963   -1.1537 C   0  0  0  0  0  0  0  0  0  0  0  0
   25.7692  -14.3004   -2.3865 C   0  0  2  0  0  0  0  0  0  0  0  0
   26.9412  -13.6505   -2.8228 O   0  0  0  0  0  0  0  0  0  0  0  0
   21.1452   -6.8426   -6.8282 C   0  0  0  0  0  0  0  0  0  0  0  0
   23.4050   -8.1282   -2.5231 C   0  0  2  0  0  0  0  0  0  0  0  0
   22.5562   -6.9405   -2.2970 N   0  0  0  0  0  0  0  0  0  0  0  0
   24.9469  -14.8863   -3.6022 C   0  0  1  0  0  0  0  0  0  0  0  0
   25.7772  -15.8697   -4.3537 N   0  0  0  0  0  0  0  0  0  0  0  0
   19.9094   -7.0272   -5.8744 C   0  0  0  0  0  0  0  0  0  0  0  0
   22.7192   -9.1075   -3.5682 C   0  0  2  0  0  0  0  0  0  0  0  0
   23.6054  -15.6233   -3.0474 C   0  0  1  0  0  0  0  0  0  0  0  0
   23.8842  -16.7010   -2.1874 O   0  0  0  0  0  0  0  0  0  0  0  0
   19.6443   -8.2072   -5.2944 C   0  0  1  0  0  0  0  0  0  0  0  0
   20.4507   -9.3488   -5.5089 O   0  0  0  0  0  0  0  0  0  0  0  0
   23.6293  -10.3713   -3.7814 C   0  0  2  0  0  0  0  0  0  0  0  0
   23.0001  -11.2501   -4.7123 O   0  0  0  0  0  0  0  0  0  0  0  0
   22.7496  -14.5859   -2.2567 C   0  0  0  0  0  0  0  0  0  0  0  0
   23.5911  -13.9146   -1.1898 O   0  0  0  0  0  0  0  0  0  0  0  0
   18.4508   -8.4209   -4.3430 C   0  0  0  0  0  0  0  0  0  0  0  0
   17.3744   -7.5405   -4.7411 N   0  0  0  0  0  0  0  0  0  0  0  0
   23.8242  -11.1138   -2.4058 C   0  0  1  0  0  0  0  0  0  0  0  0
   24.6442  -12.2244   -2.6231 O   0  0  0  0  0  0  0  0  0  0  0  0
   22.6961  -16.2484   -4.1149 C   0  0  0  0  0  0  0  0  0  0  0  0
   25.8638  -15.6683   -5.8082 C   0  0  0  0  0  0  0  0  0  0  0  0
  1  2  1  1  0  0  0
  1  6  1  0  0  0  0
  1 21  1  0  0  0  0
  3  4  1  1  0  0  0
  3  8  1  0  0  0  0
  3 28  1  0  0  0  0
  5  9  1  0  0  0  0
  5 25  1  0  0  0  0
  5 29  1  6  0  0  0
  6  7  1  1  0  0  0
  6 11  1  0  0  0  0
  8 12  1  0  0  0  0
  9 10  1  6  0  0  0
  9 14  1  0  0  0  0
 11 16  1  0  0  0  0
 12 13  1  1  0  0  0
 12 17  1  0  0  0  0
 14 15  1  1  0  0  0
 14 18  1  0  0  0  0
 15 31  1  0  0  0  0
 16 20  1  0  0  0  0
 17  2  1  6  0  0  0
 17 22  1  0  0  0  0
 18 19  1  1  0  0  0
 18 24  1  0  0  0  0
 18 30  1  0  0  0  0
 20 21  1  0  0  0  0
 20 26  1  1  0  0  0
 22 23  1  6  0  0  0
 22 28  1  0  0  0  0
 24 25  1  0  0  0  0
 26 27  1  0  0  0  0
 28 29  1  6  0  0  0
M  END
>  <CHROM.1>
-175.72938046,176.66613316,-128.79111512,-174.42415476,31.01131735,71.39067506
23.04131692,-11.17325832,-3.73665136,2.49581228,-0.92650157,0.50122236

>  <Name>
ligand

>  <RI>
0

>  <Rbt.Current_Directory>
/home/itssahil/PROJECTS/Mol_Feturizer/New_Systems/rnas/4F8V

>  <Rbt.Executable>
rbdock ($Id: //depot/dev/client3/rdock/2013.1/src/exe/rbdock.cxx#4 $)

>  <Rbt.Library>
libRbt.so (2013.1, Build901 2013/11/27)

>  <Rbt.Parameter_File>
/export/apps/rDock/src/rDock_2013.1_src/data/scripts/dock_solv.prm

>  <Rbt.Receptor>
prm/pocket_docking_4.prm

>  <SCORE>
-9.92064

>  <SCORE.INTER>
-5.6279

>  <SCORE.INTER.CONST>
1

>  <SCORE.INTER.POLAR>
0

>  <SCORE.INTER.ROT>
6

>  <SCORE.INTER.SOLV>
10.5004

>  <SCORE.INTER.VDW>
-14.8521

>  <SCORE.INTER.norm>
-0.181545

>  <SCORE.INTRA>
-4.29273

>  <SCORE.INTRA.DIHEDRAL>
-11.1618

>  <SCORE.INTRA.DIHEDRAL.0>
15.9129

>  <SCORE.INTRA.POLAR>
0

>  <SCORE.INTRA.POLAR.0>
0

>  <SCORE.INTRA.REPUL>
0

>  <SCORE.INTRA.REPUL.0>
0

>  <SCORE.INTRA.SOLV>
-2.478

>  <SCORE.INTRA.SOLV.lig_0>
-75.7056

>  <SCORE.INTRA.VDW>
2.52718

>  <SCORE.INTRA.VDW.0>
-4.61812

>  <SCORE.INTRA.norm>
-0.138475

>  <SCORE.RESTR>
0

>  <SCORE.RESTR.CAVITY>
0

>  <SCORE.RESTR.norm>
0

>  <SCORE.SYSTEM>
0

>  <SCORE.SYSTEM.CONST>
0

>  <SCORE.SYSTEM.DIHEDRAL>
0

>  <SCORE.SYSTEM.SOLV>
0

>  <SCORE.SYSTEM.norm>
0

>  <SCORE.heavy>
31

>  <SCORE.norm>
-0.320021

>  <RMSD>
2.345

$$$$
ligand
 OpenBabel11021811493D
libRbt.so/2013.1/901 2013/11/27
 31 33  0  0  0  0  0  0  0  0999 V2000
   20.5546   -7.8863   -4.4813 C   0  0  2  0  0  0  0  0  0  0  0  0
   19.6383   -8.9248   -4.1091 O   0  0  0  0  0  0  0  0  0  0  0  0
   21.7775  -10.5015   -0.7735 C   0  0  2  0  0  0  0  0  0  0  0  0
   22.0595  -11.2588    0.3990 N   0  0  0  0  0  0  0  0  0  0  0  0
   22.6850  -13.5586   -1.4236 C   0  0  2  0  0  0  0  0  0  0  0  0
   19.7809   -6.9147   -5.4252 C   0  0  2  0  0  0  0  0  0  0  0  0
   18.5991   -6.4146   -4.7257 N   0  0  0  0  0  0  0  0  0  0  0  0
   20.6018   -9.4982   -0.4724 C   0  0  0  0  0  0  0  0  0  0  0  0
   24.2281  -13.6027   -1.2582 C   0  0  2  0  0  0  0  0  0  0  0  0
   24.6449  -12.4271   -0.6020 O   0  0  0  0  0  0  0  0  0  0  0  0
   19.3935   -7.6487   -6.7665 C   0  0  0  0  0  0  0  0  0  0  0  0
   20.2915   -8.6580   -1.7776 C   0  0  2  0  0  0  0  0  0  0  0  0
   19.1866   -7.7172   -1.5015 N   0  0  0  0  0  0  0  0  0  0  0  0
   24.8721  -13.7207   -2.6965 C   0  0  1  0  0  0  0  0  0  0  0  0
   26.3585  -13.7440   -2.5901 N   0  0  0  0  0  0  0  0  0  0  0  0
   20.4471   -8.7330   -7.1967 C   0  0  0  0  0  0  0  0  0  0  0  0
   19.8915   -9.6530   -2.9487 C   0  0  2  0  0  0  0  0  0  0  0  0
   24.3595  -15.0904   -3.4118 C   0  0  1  0  0  0  0  0  0  0  0  0
   24.7247  -16.2510   -2.7058 O   0  0  0  0  0  0  0  0  0  0  0  0
   21.4985   -9.0328   -6.4196 C   0  0  1  0  0  0  0  0  0  0  0  0
   21.7241   -8.3924   -5.1794 O   0  0  0  0  0  0  0  0  0  0  0  0
   21.0728  -10.6553   -3.2147 C   0  0  2  0  0  0  0  0  0  0  0  0
   20.7002  -11.5520   -4.2597 O   0  0  0  0  0  0  0  0  0  0  0  0
   22.8029  -15.0569   -3.5099 C   0  0  0  0  0  0  0  0  0  0  0  0
   22.1961  -14.7882   -2.1474 O   0  0  0  0  0  0  0  0  0  0  0  0
   22.5427  -10.0998   -6.8024 C   0  0  0  0  0  0  0  0  0  0  0  0
   22.5786  -10.2205   -8.2434 N   0  0  0  0  0  0  0  0  0  0  0  0
   21.3713  -11.4727   -1.9015 C   0  0  1  0  0  0  0  0  0  0  0  0
   22.4303  -12.3459   -2.1637 O   0  0  0  0  0  0  0  0  0  0  0  0
   24.9018  -15.3501   -4.8245 C   0  0  0  0  0  0  0  0  0  0  0  0
   26.9174  -14.5391   -1.4859 C   0  0  0  0  0  0  0  0  0  0  0  0
  1  2  1  6  0  0  0
  1  6  1  0  0  0  0
  1 21  1  0  0  0  0
  3  4  1  1  0  0  0
  3  8  1  0  0  0  0
  3 28  1  0  0  0  0
  5  9  1  0  0  0  0
  5 25  1  0  0  0  0
  5 29  1  6  0  0  0
  6  7  1  1  0  0  0
  6 11  1  0  0  0  0
  8 12  1  0  0  0  0
  9 10  1  6  0  0  0
  9 14  1  0  0  0  0
 11 16  1  0  0  0  0
 12 13  1  1  0  0  0
 12 17  1  0  0  0  0
 14 15  1  1  0  0  0
 14 18  1  0  0  0  0
 15 31  1  0  0  0  0
 16 20  1  0  0  0  0
 17  2  1  6  0  0  0
 17 22  1  0  0  0  0
 18 19  1  1  0  0  0
 18 24  1  0  0  0  0
 18 30  1  0  0  0  0
 20 21  1  0  0  0  0
 20 26  1  1  0  0  0
 22 23  1  6  0  0  0
 22 28  1  0  0  0  0
 24 25  1  0  0  0  0
 26 27  1  0  0  0  0
 28 29  1  6  0  0  0
M  END
>  <CHROM.1>
-158.27200610,-139.50840831,40.71637385,45.30135561,26.26679729,84.21159697
22.11643301,-11.19752925,-3.37362471,2.67716096,0.90839298,-1.40138778

>  <Name>
ligand

>  <RI>
0

>  <Rbt.Current_Directory>
/home/itssahil/PROJECTS/Mol_Feturizer/New_Systems/rnas/4F8V

>  <Rbt.Executable>
rbdock ($Id: //depot/dev/client3/rdock/2013.1/src/exe/rbdock.cxx#4 $)

>  <Rbt.Library>
libRbt.so (2013.1, Build901 2013/11/27)

>  <Rbt.Parameter_File>
/export/apps/rDock/src/rDock_2013.1_src/data/scripts/dock_solv.prm

>  <Rbt.Receptor>
prm/pocket_docking_2.prm

>  <SCORE>
1.7611

>  <SCORE.INTER>
-2.72368

>  <SCORE.INTER.CONST>
1

>  <SCORE.INTER.POLAR>
0

>  <SCORE.INTER.ROT>
6

>  <SCORE.INTER.SOLV>
18.5704

>  <SCORE.INTER.VDW>
-15.6059

>  <SCORE.INTER.norm>
-0.0878608

>  <SCORE.INTRA>
3.54687

>  <SCORE.INTRA.DIHEDRAL>
-2.06675

>  <SCORE.INTRA.DIHEDRAL.0>
15.9129

>  <SCORE.INTRA.POLAR>
0

>  <SCORE.INTRA.POLAR.0>
0

>  <SCORE.INTRA.REPUL>
0

>  <SCORE.INTRA.REPUL.0>
0

>  <SCORE.INTRA.SOLV>
0.722477

>  <SCORE.INTRA.SOLV.lig_0>
-75.7056

>  <SCORE.INTRA.VDW>
4.21901

>  <SCORE.INTRA.VDW.0>
-4.61812

>  <SCORE.INTRA.norm>
0.114415

>  <SCORE.RESTR>
0.937916

>  <SCORE.RESTR.CAVITY>
0.937916

>  <SCORE.RESTR.norm>
0.0302553

>  <SCORE.SYSTEM>
0

>  <SCORE.SYSTEM.CONST>
0

>  <SCORE.SYSTEM.DIHEDRAL>
0

>  <SCORE.SYSTEM.SOLV>
0

>  <SCORE.SYSTEM.norm>
0

>  <SCORE.heavy>
31

>  <SCORE.norm>
0.0568098

>  <RMSD>
2.373

$$$$
ligand
 OpenBabel11021811493D
libRbt.so/2013.1/901 2013/11/27
 31 33  0  0  0  0  0  0  0  0999 V2000
   20.1737   -8.1762   -4.1696 C   0  0  2  0  0  0  0  0  0  0  0  0
   19.9418   -9.5757   -3.9595 O   0  0  0  0  0  0  0  0  0  0  0  0
   21.9196  -10.5554   -0.3102 C   0  0  2  0  0  0  0  0  0  0  0  0
   22.1465  -11.1063    0.9832 N   0  0  0  0  0  0  0  0  0  0  0  0
   22.5566  -14.0031   -1.0463 C   0  0  2  0  0  0  0  0  0  0  0  0
   18.8982   -7.6034   -4.8616 C   0  0  2  0  0  0  0  0  0  0  0  0
   17.7378   -7.8727   -4.0150 N   0  0  0  0  0  0  0  0  0  0  0  0
   20.7252   -9.5319   -0.2356 C   0  0  0  0  0  0  0  0  0  0  0  0
   24.0114  -14.4339   -0.7169 C   0  0  2  0  0  0  0  0  0  0  0  0
   24.4833  -13.6471    0.3529 O   0  0  0  0  0  0  0  0  0  0  0  0
   18.7265   -8.2323   -6.2979 C   0  0  0  0  0  0  0  0  0  0  0  0
   20.4762   -8.9214   -1.6747 C   0  0  2  0  0  0  0  0  0  0  0  0
   19.3540   -7.9628   -1.6110 N   0  0  0  0  0  0  0  0  0  0  0  0
   24.8890  -14.2299   -2.0151 C   0  0  1  0  0  0  0  0  0  0  0  0
   26.3034  -14.6106   -1.7404 N   0  0  0  0  0  0  0  0  0  0  0  0
   20.0992   -8.5638   -6.9885 C   0  0  0  0  0  0  0  0  0  0  0  0
   20.1403  -10.1003   -2.6842 C   0  0  2  0  0  0  0  0  0  0  0  0
   24.3036  -15.1563   -3.2191 C   0  0  1  0  0  0  0  0  0  0  0  0
   24.3318  -16.5307   -2.9207 O   0  0  0  0  0  0  0  0  0  0  0  0
   21.2637   -8.4004   -6.3432 C   0  0  1  0  0  0  0  0  0  0  0  0
   21.3266   -7.9184   -5.0154 O   0  0  0  0  0  0  0  0  0  0  0  0
   21.3386  -11.1169   -2.7241 C   0  0  2  0  0  0  0  0  0  0  0  0
   21.0232  -12.1777   -3.6241 O   0  0  0  0  0  0  0  0  0  0  0  0
   22.8212  -14.7535   -3.4913 C   0  0  0  0  0  0  0  0  0  0  0  0
   22.0189  -14.8027   -2.2065 O   0  0  0  0  0  0  0  0  0  0  0  0
   22.6266   -8.7287   -6.9834 C   0  0  0  0  0  0  0  0  0  0  0  0
   23.0009  -10.0769   -6.6166 N   0  0  0  0  0  0  0  0  0  0  0  0
   21.5752  -11.7037   -1.2814 C   0  0  1  0  0  0  0  0  0  0  0  0
   22.6505  -12.5941   -1.3447 O   0  0  0  0  0  0  0  0  0  0  0  0
   25.0546  -15.0689   -4.5554 C   0  0  0  0  0  0  0  0  0  0  0  0
   27.2309  -13.5033   -1.4618 C   0  0  0  0  0  0  0  0  0  0  0  0
  1  2  1  6  0  0  0
  1  6  1  0  0  0  0
  1 21  1  0  0  0  0
  3  4  1  1  0  0  0
  3  8  1  0  0  0  0
  3 28  1  0  0  0  0
  5  9  1  0  0  0  0
  5 25  1  0  0  0  0
  5 29  1  6  0  0  0
  6  7  1  1  0  0  0
  6 11  1  0  0  0  0
  8 12  1  0  0  0  0
  9 10  1  1  0  0  0
  9 14  1  0  0  0  0
 11 16  1  0  0  0  0
 12 13  1  1  0  0  0
 12 17  1  0  0  0  0
 14 15  1  1  0  0  0
 14 18  1  0  0  0  0
 15 31  1  0  0  0  0
 16 20  1  0  0  0  0
 17  2  1  6  0  0  0
 17 22  1  0  0  0  0
 18 19  1  1  0  0  0
 18 24  1  0  0  0  0
 18 30  1  0  0  0  0
 20 21  1  0  0  0  0
 20 26  1  1  0  0  0
 22 23  1  6  0  0  0
 22 28  1  0  0  0  0
 24 25  1  0  0  0  0
 26 27  1  0  0  0  0
 28 29  1  6  0  0  0
M  END
>  <CHROM.1>
-128.37587382,-158.76060459,-99.60126793,5.21124625,-94.22615261,122.98593737
22.06434804,-11.38817798,-2.99363950,2.61426984,0.86699478,-1.36327107

>  <Name>
ligand

>  <RI>
0

>  <Rbt.Current_Directory>
/home/itssahil/PROJECTS/Mol_Feturizer/New_Systems/rnas/4F8V

>  <Rbt.Executable>
rbdock ($Id: //depot/dev/client3/rdock/2013.1/src/exe/rbdock.cxx#4 $)

>  <Rbt.Library>
libRbt.so (2013.1, Build901 2013/11/27)

>  <Rbt.Parameter_File>
/export/apps/rDock/src/rDock_2013.1_src/data/scripts/dock_solv.prm

>  <Rbt.Receptor>
prm/pocket_docking_2.prm

>  <SCORE>
2.41765

>  <SCORE.INTER>
-8.16439

>  <SCORE.INTER.CONST>
1

>  <SCORE.INTER.POLAR>
0

>  <SCORE.INTER.ROT>
6

>  <SCORE.INTER.SOLV>
18.5897

>  <SCORE.INTER.VDW>
-19.2395

>  <SCORE.INTER.norm>
-0.263367

>  <SCORE.INTRA>
10.2476

>  <SCORE.INTRA.DIHEDRAL>
10.4928

>  <SCORE.INTRA.DIHEDRAL.0>
15.9129

>  <SCORE.INTRA.POLAR>
0

>  <SCORE.INTRA.POLAR.0>
0

>  <SCORE.INTRA.REPUL>
0

>  <SCORE.INTRA.REPUL.0>
0

>  <SCORE.INTRA.SOLV>
1.84688

>  <SCORE.INTRA.SOLV.lig_0>
-75.7056

>  <SCORE.INTRA.VDW>
4.07775

>  <SCORE.INTRA.VDW.0>
-4.61812

>  <SCORE.INTRA.norm>
0.330567

>  <SCORE.RESTR>
0.33445

>  <SCORE.RESTR.CAVITY>
0.33445

>  <SCORE.RESTR.norm>
0.0107887

>  <SCORE.SYSTEM>
0

>  <SCORE.SYSTEM.CONST>
0

>  <SCORE.SYSTEM.DIHEDRAL>
0

>  <SCORE.SYSTEM.SOLV>
0

>  <SCORE.SYSTEM.norm>
0

>  <SCORE.heavy>
31

>  <SCORE.norm>
0.0779888

>  <RMSD>
2.389

$$$$
ligand
 OpenBabel11021811493D
libRbt.so/2013.1/901 2013/11/27
 31 33  0  0  0  0  0  0  0  0999 V2000
   20.5259   -8.2754   -4.4331 C   0  0  2  0  0  0  0  0  0  0  0  0
   19.6051   -9.2780   -3.9823 O   0  0  0  0  0  0  0  0  0  0  0  0
   21.7861  -10.7090   -0.6082 C   0  0  2  0  0  0  0  0  0  0  0  0
   22.0734  -11.3889    0.6096 N   0  0  0  0  0  0  0  0  0  0  0  0
   22.1895  -14.0799   -1.5085 C   0  0  2  0  0  0  0  0  0  0  0  0
   19.7021   -7.2422   -5.2623 C   0  0  2  0  0  0  0  0  0  0  0  0
   18.6331   -6.7047   -4.4230 N   0  0  0  0  0  0  0  0  0  0  0  0
   20.6756   -9.6237   -0.3467 C   0  0  0  0  0  0  0  0  0  0  0  0
   23.5986  -14.4505   -0.9724 C   0  0  2  0  0  0  0  0  0  0  0  0
   23.9113  -13.5947    0.1029 O   0  0  0  0  0  0  0  0  0  0  0  0
   19.1302   -7.9198   -6.5668 C   0  0  0  0  0  0  0  0  0  0  0  0
   20.3593   -8.8700   -1.7022 C   0  0  2  0  0  0  0  0  0  0  0  0
   19.3152   -7.8526   -1.4631 N   0  0  0  0  0  0  0  0  0  0  0  0
   24.6318  -14.2904   -2.1573 C   0  0  1  0  0  0  0  0  0  0  0  0
   26.0069  -14.6150   -1.6832 N   0  0  0  0  0  0  0  0  0  0  0  0
   20.0723   -9.0417   -7.1366 C   0  0  0  0  0  0  0  0  0  0  0  0
   19.8646   -9.9283   -2.7777 C   0  0  2  0  0  0  0  0  0  0  0  0
   24.2270  -15.2959   -3.3721 C   0  0  1  0  0  0  0  0  0  0  0  0
   24.2464  -16.6511   -2.9956 O   0  0  0  0  0  0  0  0  0  0  0  0
   21.1873   -9.4129   -6.4901 C   0  0  1  0  0  0  0  0  0  0  0  0
   21.5826   -8.8182   -5.2697 O   0  0  0  0  0  0  0  0  0  0  0  0
   20.9822  -11.0102   -3.0046 C   0  0  2  0  0  0  0  0  0  0  0  0
   20.5247  -11.9625   -3.9630 O   0  0  0  0  0  0  0  0  0  0  0  0
   22.7838  -14.9510   -3.8536 C   0  0  0  0  0  0  0  0  0  0  0  0
   21.8236  -14.9551   -2.6811 O   0  0  0  0  0  0  0  0  0  0  0  0
   22.1263  -10.5184   -7.0113 C   0  0  0  0  0  0  0  0  0  0  0  0
   23.2920   -9.8987   -7.6026 N   0  0  0  0  0  0  0  0  0  0  0  0
   21.2882  -11.7400   -1.6425 C   0  0  1  0  0  0  0  0  0  0  0  0
   22.2904  -12.6866   -1.8714 O   0  0  0  0  0  0  0  0  0  0  0  0
   25.1422  -15.2579   -4.6044 C   0  0  0  0  0  0  0  0  0  0  0  0
   26.8554  -13.4695   -1.3204 C   0  0  0  0  0  0  0  0  0  0  0  0
  1  2  1  6  0  0  0
  1  6  1  0  0  0  0
  1 21  1  0  0  0  0
  3  4  1  1  0  0  0
  3  8  1  0  0  0  0
  3 28  1  0  0  0  0
  5  9  1  0  0  0  0
  5 25  1  0  0  0  0
  5 29  1  6  0  0  0
  6  7  1  1  0  0  0
  6 11  1  0  0  0  0
  8 12  1  0  0  0  0
  9 10  1  1  0  0  0
  9 14  1  0  0  0  0
 11 16  1  0  0  0  0
 12 13  1  1  0  0  0
 12 17  1  0  0  0  0
 14 15  1  1  0  0  0
 14 18  1  0  0  0  0
 15 31  1  0  0  0  0
 16 20  1  0  0  0  0
 17  2  1  6  0  0  0
 17 22  1  0  0  0  0
 18 19  1  1  0  0  0
 18 24  1  0  0  0  0
 18 30  1  0  0  0  0
 20 21  1  0  0  0  0
 20 26  1  1  0  0  0
 22 23  1  6  0  0  0
 22 28  1  0  0  0  0
 24 25  1  0  0  0  0
 26 27  1  0  0  0  0
 28 29  1  6  0  0  0
M  END
>  <CHROM.1>
-150.03079978,-140.07284580,-98.17968758,42.32844848,103.06035208,113.64559484
21.97143835,-11.48020238,-3.22646711,2.66064836,0.93259847,-1.41774193

>  <Name>
ligand

>  <RI>
0

>  <Rbt.Current_Directory>
/home/itssahil/PROJECTS/Mol_Feturizer/New_Systems/rnas/4F8V

>  <Rbt.Executable>
rbdock ($Id: //depot/dev/client3/rdock/2013.1/src/exe/rbdock.cxx#4 $)

>  <Rbt.Library>
libRbt.so (2013.1, Build901 2013/11/27)

>  <Rbt.Parameter_File>
/export/apps/rDock/src/rDock_2013.1_src/data/scripts/dock_solv.prm

>  <Rbt.Receptor>
prm/pocket_docking_2.prm

>  <SCORE>
-0.84752

>  <SCORE.INTER>
-4.97652

>  <SCORE.INTER.CONST>
1

>  <SCORE.INTER.POLAR>
0

>  <SCORE.INTER.ROT>
6

>  <SCORE.INTER.SOLV>
19.877

>  <SCORE.INTER.VDW>
-17.5433

>  <SCORE.INTER.norm>
-0.160533

>  <SCORE.INTRA>
3.7483

>  <SCORE.INTRA.DIHEDRAL>
4.38471

>  <SCORE.INTRA.DIHEDRAL.0>
15.9129

>  <SCORE.INTRA.POLAR>
0

>  <SCORE.INTRA.POLAR.0>
0

>  <SCORE.INTRA.REPUL>
0

>  <SCORE.INTRA.REPUL.0>
0

>  <SCORE.INTRA.SOLV>
0.690085

>  <SCORE.INTRA.SOLV.lig_0>
-75.7056

>  <SCORE.INTRA.VDW>
1.2109

>  <SCORE.INTRA.VDW.0>
-4.61812

>  <SCORE.INTRA.norm>
0.120913

>  <SCORE.RESTR>
0.380701

>  <SCORE.RESTR.CAVITY>
0.380701

>  <SCORE.RESTR.norm>
0.0122807

>  <SCORE.SYSTEM>
0

>  <SCORE.SYSTEM.CONST>
0

>  <SCORE.SYSTEM.DIHEDRAL>
0

>  <SCORE.SYSTEM.SOLV>
0

>  <SCORE.SYSTEM.norm>
0

>  <SCORE.heavy>
31

>  <SCORE.norm>
-0.0273394

>  <RMSD>
2.391

$$$$
ligand
 OpenBabel11021811493D
libRbt.so/2013.1/901 2013/11/27
 31 33  0  0  0  0  0  0  0  0999 V2000
   20.5001   -8.6146   -5.7171 C   0  0  2  0  0  0  0  0  0  0  0  0
   21.5145   -9.1592   -4.8623 O   0  0  0  0  0  0  0  0  0  0  0  0
   21.5329  -10.8016   -0.9265 C   0  0  2  0  0  0  0  0  0  0  0  0
   21.1599  -11.5989    0.1930 N   0  0  0  0  0  0  0  0  0  0  0  0
   22.8064  -13.8400   -1.1015 C   0  0  2  0  0  0  0  0  0  0  0  0
   20.4062   -9.5489   -6.9629 C   0  0  2  0  0  0  0  0  0  0  0  0
   20.1110  -10.9085   -6.5149 N   0  0  0  0  0  0  0  0  0  0  0  0
   20.3343   -9.8560   -1.3120 C   0  0  0  0  0  0  0  0  0  0  0  0
   24.2555  -14.2493   -0.7229 C   0  0  2  0  0  0  0  0  0  0  0  0
   24.8085  -13.2441    0.0957 O   0  0  0  0  0  0  0  0  0  0  0  0
   21.7463   -9.4899   -7.7926 C   0  0  0  0  0  0  0  0  0  0  0  0
   20.7527   -8.9713   -2.5561 C   0  0  2  0  0  0  0  0  0  0  0  0
   19.6302   -8.0844   -2.9243 N   0  0  0  0  0  0  0  0  0  0  0  0
   25.0804  -14.4247   -2.0593 C   0  0  1  0  0  0  0  0  0  0  0  0
   26.4888  -14.7971   -1.7449 N   0  0  0  0  0  0  0  0  0  0  0  0
   22.4456   -8.0837   -7.7259 C   0  0  0  0  0  0  0  0  0  0  0  0
   21.1226   -9.9279   -3.7684 C   0  0  2  0  0  0  0  0  0  0  0  0
   24.4021  -15.5926   -2.9685 C   0  0  1  0  0  0  0  0  0  0  0  0
   24.3864  -16.8471   -2.3322 O   0  0  0  0  0  0  0  0  0  0  0  0
   21.9639   -7.0996   -6.9520 C   0  0  1  0  0  0  0  0  0  0  0  0
   20.8040   -7.2647   -6.1604 O   0  0  0  0  0  0  0  0  0  0  0  0
   22.3064  -10.8738   -3.3506 C   0  0  2  0  0  0  0  0  0  0  0  0
   22.6239  -11.7368   -4.4411 O   0  0  0  0  0  0  0  0  0  0  0  0
   22.9270  -15.1946   -3.2837 C   0  0  0  0  0  0  0  0  0  0  0  0
   22.1831  -14.8769   -2.0022 O   0  0  0  0  0  0  0  0  0  0  0  0
   22.6311   -5.7140   -6.8508 C   0  0  0  0  0  0  0  0  0  0  0  0
   23.8146   -5.7052   -7.6824 N   0  0  0  0  0  0  0  0  0  0  0  0
   21.8725  -11.7366   -2.1059 C   0  0  1  0  0  0  0  0  0  0  0  0
   22.9455  -12.5584   -1.7507 O   0  0  0  0  0  0  0  0  0  0  0  0
   25.0941  -15.8837   -4.3078 C   0  0  0  0  0  0  0  0  0  0  0  0
   27.4277  -13.6810   -1.5533 C   0  0  0  0  0  0  0  0  0  0  0  0
  1  2  1  1  0  0  0
  1  6  1  0  0  0  0
  1 21  1  0  0  0  0
  3  4  1  1  0  0  0
  3  8  1  0  0  0  0
  3 28  1  0  0  0  0
  5  9  1  0  0  0  0
  5 25  1  0  0  0  0
  5 29  1  6  0  0  0
  6  7  1  1  0  0  0
  6 11  1  0  0  0  0
  8 12  1  0  0  0  0
  9 10  1  1  0  0  0
  9 14  1  0  0  0  0
 11 16  1  0  0  0  0
 12 13  1  6  0  0  0
 12 17  1  0  0  0  0
 14 15  1  1  0  0  0
 14 18  1  0  0  0  0
 15 31  1  0  0  0  0
 16 20  1  0  0  0  0
 17  2  1  6  0  0  0
 17 22  1  0  0  0  0
 18 19  1  1  0  0  0
 18 24  1  0  0  0  0
 18 30  1  0  0  0  0
 20 21  1  0  0  0  0
 20 26  1  1  0  0  0
 22 23  1  6  0  0  0
 22 28  1  0  0  0  0
 24 25  1  0  0  0  0
 26 27  1  0  0  0  0
 28 29  1  1  0  0  0
M  END
>  <CHROM.1>
-99.61110375,-171.46178473,-89.16630091,-83.23095107,-1.08658284,89.03640011
22.61054393,-11.33801234,-3.60814215,2.08381873,0.81914317,-0.97101837

>  <Name>
ligand

>  <RI>
0

>  <Rbt.Current_Directory>
/home/itssahil/PROJECTS/Mol_Feturizer/New_Systems/rnas/4F8V

>  <Rbt.Executable>
rbdock ($Id: //depot/dev/client3/rdock/2013.1/src/exe/rbdock.cxx#4 $)

>  <Rbt.Library>
libRbt.so (2013.1, Build901 2013/11/27)

>  <Rbt.Parameter_File>
/export/apps/rDock/src/rDock_2013.1_src/data/scripts/dock_solv.prm

>  <Rbt.Receptor>
prm/pocket_docking_5.prm

>  <SCORE>
-10.5515

>  <SCORE.INTER>
-11.2144

>  <SCORE.INTER.CONST>
1

>  <SCORE.INTER.POLAR>
0

>  <SCORE.INTER.ROT>
6

>  <SCORE.INTER.SOLV>
17.2292

>  <SCORE.INTER.VDW>
-20.8193

>  <SCORE.INTER.norm>
-0.361756

>  <SCORE.INTRA>
0.66293

>  <SCORE.INTRA.DIHEDRAL>
-2.19832

>  <SCORE.INTRA.DIHEDRAL.0>
15.9129

>  <SCORE.INTRA.POLAR>
0

>  <SCORE.INTRA.POLAR.0>
0

>  <SCORE.INTRA.REPUL>
0

>  <SCORE.INTRA.REPUL.0>
0

>  <SCORE.INTRA.SOLV>
-0.0259544

>  <SCORE.INTRA.SOLV.lig_0>
-75.7056

>  <SCORE.INTRA.VDW>
1.77507

>  <SCORE.INTRA.VDW.0>
-4.61812

>  <SCORE.INTRA.norm>
0.0213848

>  <SCORE.RESTR>
0

>  <SCORE.RESTR.CAVITY>
0

>  <SCORE.RESTR.norm>
0

>  <SCORE.SYSTEM>
0

>  <SCORE.SYSTEM.CONST>
0

>  <SCORE.SYSTEM.DIHEDRAL>
0

>  <SCORE.SYSTEM.SOLV>
0

>  <SCORE.SYSTEM.norm>
0

>  <SCORE.heavy>
31

>  <SCORE.norm>
-0.340371

>  <RMSD>
2.394

$$$$
ligand
 OpenBabel11021811493D
libRbt.so/2013.1/901 2013/11/27
 31 33  0  0  0  0  0  0  0  0999 V2000
   20.1242   -8.1723   -6.1198 C   0  0  2  0  0  0  0  0  0  0  0  0
   20.4188   -7.9724   -4.7306 O   0  0  0  0  0  0  0  0  0  0  0  0
   21.4272  -10.7741   -1.6774 C   0  0  2  0  0  0  0  0  0  0  0  0
   21.3265  -11.8900   -0.7985 N   0  0  0  0  0  0  0  0  0  0  0  0
   23.7640  -11.7384   -3.6114 C   0  0  2  0  0  0  0  0  0  0  0  0
   20.5117   -6.8550   -6.8603 C   0  0  2  0  0  0  0  0  0  0  0  0
   21.9220   -6.5662   -6.6079 N   0  0  0  0  0  0  0  0  0  0  0  0
   20.2473   -9.7739   -1.3828 C   0  0  0  0  0  0  0  0  0  0  0  0
   24.5464  -13.0569   -3.8562 C   0  0  2  0  0  0  0  0  0  0  0  0
   23.9575  -13.7357   -4.9419 O   0  0  0  0  0  0  0  0  0  0  0  0
   19.5837   -5.6698   -6.3892 C   0  0  0  0  0  0  0  0  0  0  0  0
   20.3627   -8.5349   -2.3611 C   0  0  2  0  0  0  0  0  0  0  0  0
   19.2558   -7.5947   -2.0912 N   0  0  0  0  0  0  0  0  0  0  0  0
   24.4819  -13.9182   -2.5328 C   0  0  1  0  0  0  0  0  0  0  0  0
   25.2030  -15.2078   -2.7273 N   0  0  0  0  0  0  0  0  0  0  0  0
   18.1322   -6.1419   -6.0132 C   0  0  0  0  0  0  0  0  0  0  0  0
   20.2950   -9.0534   -3.8605 C   0  0  2  0  0  0  0  0  0  0  0  0
   25.1715  -13.0917   -1.3113 C   0  0  1  0  0  0  0  0  0  0  0  0
   26.5281  -12.7988   -1.5406 O   0  0  0  0  0  0  0  0  0  0  0  0
   17.7969   -7.4407   -6.0164 C   0  0  1  0  0  0  0  0  0  0  0  0
   18.7197   -8.4549   -6.3614 O   0  0  0  0  0  0  0  0  0  0  0  0
   21.4700  -10.0644   -4.1217 C   0  0  2  0  0  0  0  0  0  0  0  0
   21.3943  -10.5334   -5.4667 O   0  0  0  0  0  0  0  0  0  0  0  0
   24.4129  -11.7415   -1.1234 C   0  0  0  0  0  0  0  0  0  0  0  0
   24.3444  -10.9900   -2.4376 O   0  0  0  0  0  0  0  0  0  0  0  0
   16.3885   -7.9406   -5.6395 C   0  0  0  0  0  0  0  0  0  0  0  0
   15.6971   -6.8900   -4.9250 N   0  0  0  0  0  0  0  0  0  0  0  0
   21.3416  -11.2829   -3.1315 C   0  0  1  0  0  0  0  0  0  0  0  0
   22.4027  -12.1581   -3.3785 O   0  0  0  0  0  0  0  0  0  0  0  0
   25.1878  -13.8011    0.0503 C   0  0  0  0  0  0  0  0  0  0  0  0
   24.3616  -16.3997   -2.9153 C   0  0  0  0  0  0  0  0  0  0  0  0
  1  2  1  1  0  0  0
  1  6  1  0  0  0  0
  1 21  1  0  0  0  0
  3  4  1  1  0  0  0
  3  8  1  0  0  0  0
  3 28  1  0  0  0  0
  5  9  1  0  0  0  0
  5 25  1  0  0  0  0
  5 29  1  1  0  0  0
  6  7  1  1  0  0  0
  6 11  1  0  0  0  0
  8 12  1  0  0  0  0
  9 10  1  6  0  0  0
  9 14  1  0  0  0  0
 11 16  1  0  0  0  0
 12 13  1  1  0  0  0
 12 17  1  0  0  0  0
 14 15  1  6  0  0  0
 14 18  1  0  0  0  0
 15 31  1  0  0  0  0
 16 20  1  0  0  0  0
 17  2  1  6  0  0  0
 17 22  1  0  0  0  0
 18 19  1  6  0  0  0
 18 24  1  0  0  0  0
 18 30  1  0  0  0  0
 20 21  1  0  0  0  0
 20 26  1  1  0  0  0
 22 23  1  6  0  0  0
 22 28  1  0  0  0  0
 24 25  1  0  0  0  0
 26 27  1  0  0  0  0
 28 29  1  6  0  0  0
M  END
>  <CHROM.1>
-173.36233687,-179.02856012,-104.19852739,-167.93968221,-17.35875346,-76.48128225
21.66914192,-10.36569737,-3.71180816,-2.56924044,-0.70105260,1.86747937

>  <Name>
ligand

>  <RI>
0

>  <Rbt.Current_Directory>
/home/itssahil/PROJECTS/Mol_Feturizer/New_Systems/rnas/4F8V

>  <Rbt.Executable>
rbdock ($Id: //depot/dev/client3/rdock/2013.1/src/exe/rbdock.cxx#4 $)

>  <Rbt.Library>
libRbt.so (2013.1, Build901 2013/11/27)

>  <Rbt.Parameter_File>
/export/apps/rDock/src/rDock_2013.1_src/data/scripts/dock_solv.prm

>  <Rbt.Receptor>
prm/pocket_docking_5.prm

>  <SCORE>
-14.6935

>  <SCORE.INTER>
-11.4142

>  <SCORE.INTER.CONST>
1

>  <SCORE.INTER.POLAR>
0

>  <SCORE.INTER.ROT>
6

>  <SCORE.INTER.SOLV>
18.8918

>  <SCORE.INTER.VDW>
-21.5067

>  <SCORE.INTER.norm>
-0.368199

>  <SCORE.INTRA>
-3.27934

>  <SCORE.INTRA.DIHEDRAL>
-10.683

>  <SCORE.INTRA.DIHEDRAL.0>
15.9129

>  <SCORE.INTRA.POLAR>
0

>  <SCORE.INTRA.POLAR.0>
0

>  <SCORE.INTRA.REPUL>
0

>  <SCORE.INTRA.REPUL.0>
0

>  <SCORE.INTRA.SOLV>
-0.850192

>  <SCORE.INTRA.SOLV.lig_0>
-75.7056

>  <SCORE.INTRA.VDW>
2.48723

>  <SCORE.INTRA.VDW.0>
-4.61812

>  <SCORE.INTRA.norm>
-0.105785

>  <SCORE.RESTR>
0

>  <SCORE.RESTR.CAVITY>
0

>  <SCORE.RESTR.norm>
0

>  <SCORE.SYSTEM>
0

>  <SCORE.SYSTEM.CONST>
0

>  <SCORE.SYSTEM.DIHEDRAL>
0

>  <SCORE.SYSTEM.SOLV>
0

>  <SCORE.SYSTEM.norm>
0

>  <SCORE.heavy>
31

>  <SCORE.norm>
-0.473984

>  <RMSD>
2.403

$$$$
ligand
 OpenBabel11021811493D
libRbt.so/2013.1/901 2013/11/27
 31 33  0  0  0  0  0  0  0  0999 V2000
   20.2137   -8.1045   -6.1569 C   0  0  2  0  0  0  0  0  0  0  0  0
   20.4750   -7.9337   -4.7572 O   0  0  0  0  0  0  0  0  0  0  0  0
   21.3501  -10.7849   -1.7086 C   0  0  2  0  0  0  0  0  0  0  0  0
   21.2111  -11.9144   -0.8526 N   0  0  0  0  0  0  0  0  0  0  0  0
   23.7619  -11.7200   -3.5859 C   0  0  2  0  0  0  0  0  0  0  0  0
   20.6334   -6.7779   -6.8623 C   0  0  2  0  0  0  0  0  0  0  0  0
   22.0397   -6.5091   -6.5690 N   0  0  0  0  0  0  0  0  0  0  0  0
   20.1594   -9.7877   -1.4487 C   0  0  0  0  0  0  0  0  0  0  0  0
   24.5532  -13.0362   -3.8139 C   0  0  2  0  0  0  0  0  0  0  0  0
   23.9932  -13.7138   -4.9156 O   0  0  0  0  0  0  0  0  0  0  0  0
   19.7060   -5.5917   -6.3924 C   0  0  0  0  0  0  0  0  0  0  0  0
   20.3174   -8.5336   -2.4015 C   0  0  2  0  0  0  0  0  0  0  0  0
   19.2007   -7.5961   -2.1641 N   0  0  0  0  0  0  0  0  0  0  0  0
   24.4573  -13.9007   -2.4946 C   0  0  1  0  0  0  0  0  0  0  0  0
   25.1859  -15.1884   -2.6738 N   0  0  0  0  0  0  0  0  0  0  0  0
   18.2407   -6.0550   -6.0620 C   0  0  0  0  0  0  0  0  0  0  0  0
   20.3133   -9.0282   -3.9104 C   0  0  2  0  0  0  0  0  0  0  0  0
   25.1142  -13.0757   -1.2542 C   0  0  1  0  0  0  0  0  0  0  0  0
   26.4755  -12.7793   -1.4487 O   0  0  0  0  0  0  0  0  0  0  0  0
   17.8921   -7.3498   -6.0983 C   0  0  1  0  0  0  0  0  0  0  0  0
   18.8129   -8.3673   -6.4391 O   0  0  0  0  0  0  0  0  0  0  0  0
   21.4976  -10.0366   -4.1373 C   0  0  2  0  0  0  0  0  0  0  0  0
   21.4790  -10.4842   -5.4915 O   0  0  0  0  0  0  0  0  0  0  0  0
   24.3482  -11.7275   -1.0824 C   0  0  0  0  0  0  0  0  0  0  0  0
   24.3110  -10.9731   -2.3963 O   0  0  0  0  0  0  0  0  0  0  0  0
   16.4696   -7.8414   -5.7665 C   0  0  0  0  0  0  0  0  0  0  0  0
   16.3707   -8.0518   -4.3388 N   0  0  0  0  0  0  0  0  0  0  0  0
   21.3261  -11.2705   -3.1729 C   0  0  1  0  0  0  0  0  0  0  0  0
   22.3962  -12.1432   -3.3883 O   0  0  0  0  0  0  0  0  0  0  0  0
   25.0979  -13.7881    0.1057 C   0  0  0  0  0  0  0  0  0  0  0  0
   24.3519  -16.3831   -2.8760 C   0  0  0  0  0  0  0  0  0  0  0  0
  1  2  1  1  0  0  0
  1  6  1  0  0  0  0
  1 21  1  0  0  0  0
  3  4  1  1  0  0  0
  3  8  1  0  0  0  0
  3 28  1  0  0  0  0
  5  9  1  0  0  0  0
  5 25  1  0  0  0  0
  5 29  1  1  0  0  0
  6  7  1  1  0  0  0
  6 11  1  0  0  0  0
  8 12  1  0  0  0  0
  9 10  1  6  0  0  0
  9 14  1  0  0  0  0
 11 16  1  0  0  0  0
 12 13  1  6  0  0  0
 12 17  1  0  0  0  0
 14 15  1  6  0  0  0
 14 18  1  0  0  0  0
 15 31  1  0  0  0  0
 16 20  1  0  0  0  0
 17  2  1  6  0  0  0
 17 22  1  0  0  0  0
 18 19  1  6  0  0  0
 18 24  1  0  0  0  0
 18 30  1  0  0  0  0
 20 21  1  0  0  0  0
 20 26  1  1  0  0  0
 22 23  1  6  0  0  0
 22 28  1  0  0  0  0
 24 25  1  0  0  0  0
 26 27  1  0  0  0  0
 28 29  1  1  0  0  0
M  END
>  <CHROM.1>
-173.58948701,-178.68326082,-104.61541471,-166.70100557,-86.89747260,-77.92747207
21.70085510,-10.37188039,-3.70087053,-2.48270498,-0.65330318,1.97814515

>  <Name>
ligand

>  <RI>
0

>  <Rbt.Current_Directory>
/home/itssahil/PROJECTS/Mol_Feturizer/New_Systems/rnas/4F8V

>  <Rbt.Executable>
rbdock ($Id: //depot/dev/client3/rdock/2013.1/src/exe/rbdock.cxx#4 $)

>  <Rbt.Library>
libRbt.so (2013.1, Build901 2013/11/27)

>  <Rbt.Parameter_File>
/export/apps/rDock/src/rDock_2013.1_src/data/scripts/dock_solv.prm

>  <Rbt.Receptor>
prm/pocket_docking_3.prm

>  <SCORE>
-14.2669

>  <SCORE.INTER>
-11.2752

>  <SCORE.INTER.CONST>
1

>  <SCORE.INTER.POLAR>
0

>  <SCORE.INTER.ROT>
6

>  <SCORE.INTER.SOLV>
20.4483

>  <SCORE.INTER.VDW>
-21.9329

>  <SCORE.INTER.norm>
-0.363716

>  <SCORE.INTRA>
-2.99172

>  <SCORE.INTRA.DIHEDRAL>
-9.57774

>  <SCORE.INTRA.DIHEDRAL.0>
15.9129

>  <SCORE.INTRA.POLAR>
0

>  <SCORE.INTRA.POLAR.0>
0

>  <SCORE.INTRA.REPUL>
0

>  <SCORE.INTRA.REPUL.0>
0

>  <SCORE.INTRA.SOLV>
0.715614

>  <SCORE.INTRA.SOLV.lig_0>
-75.7056

>  <SCORE.INTRA.VDW>
1.43934

>  <SCORE.INTRA.VDW.0>
-4.61812

>  <SCORE.INTRA.norm>
-0.0965071

>  <SCORE.RESTR>
0

>  <SCORE.RESTR.CAVITY>
0

>  <SCORE.RESTR.norm>
0

>  <SCORE.SYSTEM>
0

>  <SCORE.SYSTEM.CONST>
0

>  <SCORE.SYSTEM.DIHEDRAL>
0

>  <SCORE.SYSTEM.SOLV>
0

>  <SCORE.SYSTEM.norm>
0

>  <SCORE.heavy>
31

>  <SCORE.norm>
-0.460223

>  <RMSD>
2.411

$$$$
ligand
 OpenBabel11021811493D
libRbt.so/2013.1/901 2013/11/27
 31 33  0  0  0  0  0  0  0  0999 V2000
   20.8089   -9.3977   -6.7020 C   0  0  2  0  0  0  0  0  0  0  0  0
   21.7629   -9.8496   -5.7315 O   0  0  0  0  0  0  0  0  0  0  0  0
   21.5191  -10.8225   -1.5863 C   0  0  2  0  0  0  0  0  0  0  0  0
   21.0664  -11.4220   -0.3765 N   0  0  0  0  0  0  0  0  0  0  0  0
   22.7590  -13.9693   -1.3595 C   0  0  2  0  0  0  0  0  0  0  0  0
   21.1667  -10.0965   -8.0502 C   0  0  2  0  0  0  0  0  0  0  0  0
   21.1448  -11.5446   -7.8542 N   0  0  0  0  0  0  0  0  0  0  0  0
   20.3623   -9.9441   -2.1942 C   0  0  0  0  0  0  0  0  0  0  0  0
   24.1750  -14.3677   -0.8629 C   0  0  2  0  0  0  0  0  0  0  0  0
   24.6639  -13.3443   -0.0263 O   0  0  0  0  0  0  0  0  0  0  0  0
   22.5730   -9.6022   -8.5657 C   0  0  0  0  0  0  0  0  0  0  0  0
   20.8692   -9.2792   -3.5383 C   0  0  2  0  0  0  0  0  0  0  0  0
   19.7862   -8.4563   -4.1149 N   0  0  0  0  0  0  0  0  0  0  0  0
   25.0994  -14.5703   -2.1285 C   0  0  1  0  0  0  0  0  0  0  0  0
   26.4798  -14.9333   -1.6998 N   0  0  0  0  0  0  0  0  0  0  0  0
   22.8793   -8.1115   -8.1721 C   0  0  0  0  0  0  0  0  0  0  0  0
   21.2934  -10.4250   -4.5527 C   0  0  2  0  0  0  0  0  0  0  0  0
   24.4925  -15.7586   -3.0613 C   0  0  1  0  0  0  0  0  0  0  0  0
   24.4286  -16.9992   -2.4013 O   0  0  0  0  0  0  0  0  0  0  0  0
   22.0423   -7.4076   -7.3955 C   0  0  1  0  0  0  0  0  0  0  0  0
   20.8406   -7.9577   -6.8930 O   0  0  0  0  0  0  0  0  0  0  0  0
   22.4335  -11.2983   -3.9138 C   0  0  2  0  0  0  0  0  0  0  0  0
   22.7998  -12.3313   -4.8268 O   0  0  0  0  0  0  0  0  0  0  0  0
   23.0457  -15.3701   -3.4965 C   0  0  0  0  0  0  0  0  0  0  0  0
   22.2062  -15.0263   -2.2825 O   0  0  0  0  0  0  0  0  0  0  0  0
   22.3173   -5.9497   -6.9779 C   0  0  0  0  0  0  0  0  0  0  0  0
   22.8343   -5.9418   -5.6270 N   0  0  0  0  0  0  0  0  0  0  0  0
   21.9114  -11.9413   -2.5737 C   0  0  1  0  0  0  0  0  0  0  0  0
   22.9469  -12.7016   -2.0236 O   0  0  0  0  0  0  0  0  0  0  0  0
   25.2845  -16.0772   -4.3375 C   0  0  0  0  0  0  0  0  0  0  0  0
   27.4236  -13.8168   -1.5377 C   0  0  0  0  0  0  0  0  0  0  0  0
  1  2  1  1  0  0  0
  1  6  1  0  0  0  0
  1 21  1  0  0  0  0
  3  4  1  1  0  0  0
  3  8  1  0  0  0  0
  3 28  1  0  0  0  0
  5  9  1  0  0  0  0
  5 25  1  0  0  0  0
  5 29  1  6  0  0  0
  6  7  1  1  0  0  0
  6 11  1  0  0  0  0
  8 12  1  0  0  0  0
  9 10  1  1  0  0  0
  9 14  1  0  0  0  0
 11 16  1  0  0  0  0
 12 13  1  6  0  0  0
 12 17  1  0  0  0  0
 14 15  1  1  0  0  0
 14 18  1  0  0  0  0
 15 31  1  0  0  0  0
 16 20  1  0  0  0  0
 17  2  1  6  0  0  0
 17 22  1  0  0  0  0
 18 19  1  1  0  0  0
 18 24  1  0  0  0  0
 18 30  1  0  0  0  0
 20 21  1  0  0  0  0
 20 26  1  1  0  0  0
 22 23  1  6  0  0  0
 22 28  1  0  0  0  0
 24 25  1  0  0  0  0
 26 27  1  0  0  0  0
 28 29  1  1  0  0  0
M  END
>  <CHROM.1>
-125.19484507,-176.91059153,-92.62852660,-80.83246902,-100.57602345,99.07766475
22.71591054,-11.60898414,-4.01300712,-2.24182361,-1.00025081,1.92746255

>  <Name>
ligand

>  <RI>
0

>  <Rbt.Current_Directory>
/home/itssahil/PROJECTS/Mol_Feturizer/New_Systems/rnas/4F8V

>  <Rbt.Executable>
rbdock ($Id: //depot/dev/client3/rdock/2013.1/src/exe/rbdock.cxx#4 $)

>  <Rbt.Library>
libRbt.so (2013.1, Build901 2013/11/27)

>  <Rbt.Parameter_File>
/export/apps/rDock/src/rDock_2013.1_src/data/scripts/dock_solv.prm

>  <Rbt.Receptor>
prm/pocket_docking_6.prm

>  <SCORE>
-10.9226

>  <SCORE.INTER>
-12.0485

>  <SCORE.INTER.CONST>
1

>  <SCORE.INTER.POLAR>
0

>  <SCORE.INTER.ROT>
6

>  <SCORE.INTER.SOLV>
14.2797

>  <SCORE.INTER.VDW>
-20.3923

>  <SCORE.INTER.norm>
-0.388663

>  <SCORE.INTRA>
1.12591

>  <SCORE.INTRA.DIHEDRAL>
1.20463

>  <SCORE.INTRA.DIHEDRAL.0>
15.9129

>  <SCORE.INTRA.POLAR>
0

>  <SCORE.INTRA.POLAR.0>
0

>  <SCORE.INTRA.REPUL>
0

>  <SCORE.INTRA.REPUL.0>
0

>  <SCORE.INTRA.SOLV>
0.254885

>  <SCORE.INTRA.SOLV.lig_0>
-75.7056

>  <SCORE.INTRA.VDW>
0.396158

>  <SCORE.INTRA.VDW.0>
-4.61812

>  <SCORE.INTRA.norm>
0.0363198

>  <SCORE.RESTR>
0

>  <SCORE.RESTR.CAVITY>
0

>  <SCORE.RESTR.norm>
0

>  <SCORE.SYSTEM>
0

>  <SCORE.SYSTEM.CONST>
0

>  <SCORE.SYSTEM.DIHEDRAL>
0

>  <SCORE.SYSTEM.SOLV>
0

>  <SCORE.SYSTEM.norm>
0

>  <SCORE.heavy>
31

>  <SCORE.norm>
-0.352343

>  <RMSD>
2.422

$$$$
ligand
 OpenBabel11021811493D
libRbt.so/2013.1/901 2013/11/27
 31 33  0  0  0  0  0  0  0  0999 V2000
   20.5907   -8.5410   -5.6022 C   0  0  2  0  0  0  0  0  0  0  0  0
   21.6086   -9.1497   -4.7960 O   0  0  0  0  0  0  0  0  0  0  0  0
   21.6348  -10.8570   -0.8879 C   0  0  2  0  0  0  0  0  0  0  0  0
   21.2655  -11.6744    0.2182 N   0  0  0  0  0  0  0  0  0  0  0  0
   22.9224  -13.8844   -1.1096 C   0  0  2  0  0  0  0  0  0  0  0  0
   20.3931   -9.4553   -6.8507 C   0  0  2  0  0  0  0  0  0  0  0  0
   20.0424  -10.8014   -6.4022 N   0  0  0  0  0  0  0  0  0  0  0  0
   20.4318   -9.9106   -1.2578 C   0  0  0  0  0  0  0  0  0  0  0  0
   24.3769  -14.3090   -0.7709 C   0  0  2  0  0  0  0  0  0  0  0  0
   24.9553  -13.3208    0.0509 O   0  0  0  0  0  0  0  0  0  0  0  0
   21.6984   -9.4608   -7.7362 C   0  0  0  0  0  0  0  0  0  0  0  0
   20.8460   -9.0035   -2.4870 C   0  0  2  0  0  0  0  0  0  0  0  0
   19.7194   -8.1158   -2.8404 N   0  0  0  0  0  0  0  0  0  0  0  0
   25.1699  -14.4680   -2.1285 C   0  0  1  0  0  0  0  0  0  0  0  0
   26.5825  -14.8546   -1.8524 N   0  0  0  0  0  0  0  0  0  0  0  0
   22.4763   -8.0958   -7.6874 C   0  0  0  0  0  0  0  0  0  0  0  0
   21.2202   -9.9382   -3.7150 C   0  0  2  0  0  0  0  0  0  0  0  0
   24.4632  -15.6167   -3.0404 C   0  0  1  0  0  0  0  0  0  0  0  0
   24.4534  -16.8812   -2.4242 O   0  0  0  0  0  0  0  0  0  0  0  0
   22.0827   -7.0953   -6.8853 C   0  0  1  0  0  0  0  0  0  0  0  0
   20.9497   -7.2051   -6.0465 O   0  0  0  0  0  0  0  0  0  0  0  0
   22.4084  -10.8855   -3.3129 C   0  0  2  0  0  0  0  0  0  0  0  0
   22.7298  -11.7288   -4.4175 O   0  0  0  0  0  0  0  0  0  0  0  0
   22.9840  -15.2041   -3.3154 C   0  0  0  0  0  0  0  0  0  0  0  0
   22.2717  -14.9025   -2.0122 O   0  0  0  0  0  0  0  0  0  0  0  0
   22.8291   -5.7495   -6.8008 C   0  0  0  0  0  0  0  0  0  0  0  0
   24.0137   -5.8213   -7.6277 N   0  0  0  0  0  0  0  0  0  0  0  0
   21.9786  -11.7707   -2.0827 C   0  0  1  0  0  0  0  0  0  0  0  0
   23.0554  -12.5933   -1.7411 O   0  0  0  0  0  0  0  0  0  0  0  0
   25.1224  -15.8905   -4.3998 C   0  0  0  0  0  0  0  0  0  0  0  0
   27.5090  -13.7531   -1.5484 C   0  0  0  0  0  0  0  0  0  0  0  0
  1  2  1  1  0  0  0
  1  6  1  0  0  0  0
  1 21  1  0  0  0  0
  3  4  1  1  0  0  0
  3  8  1  0  0  0  0
  3 28  1  0  0  0  0
  5  9  1  0  0  0  0
  5 25  1  0  0  0  0
  5 29  1  6  0  0  0
  6  7  1  1  0  0  0
  6 11  1  0  0  0  0
  8 12  1  0  0  0  0
  9 10  1  1  0  0  0
  9 14  1  0  0  0  0
 11 16  1  0  0  0  0
 12 13  1  6  0  0  0
 12 17  1  0  0  0  0
 14 15  1  1  0  0  0
 14 18  1  0  0  0  0
 15 31  1  0  0  0  0
 16 20  1  0  0  0  0
 17  2  1  6  0  0  0
 17 22  1  0  0  0  0
 18 19  1  1  0  0  0
 18 24  1  0  0  0  0
 18 30  1  0  0  0  0
 20 21  1  0  0  0  0
 20 26  1  1  0  0  0
 22 23  1  6  0  0  0
 22 28  1  0  0  0  0
 24 25  1  0  0  0  0
 26 27  1  0  0  0  0
 28 29  1  1  0  0  0
M  END
>  <CHROM.1>
-97.84506690,-172.80020603,-84.01306641,-80.16297582,-4.05657641,88.84024860
22.69836446,-11.35658992,-3.58826527,2.08127004,0.80841137,-0.95079882

>  <Name>
ligand

>  <RI>
0

>  <Rbt.Current_Directory>
/home/itssahil/PROJECTS/Mol_Feturizer/New_Systems/rnas/4F8V

>  <Rbt.Executable>
rbdock ($Id: //depot/dev/client3/rdock/2013.1/src/exe/rbdock.cxx#4 $)

>  <Rbt.Library>
libRbt.so (2013.1, Build901 2013/11/27)

>  <Rbt.Parameter_File>
/export/apps/rDock/src/rDock_2013.1_src/data/scripts/dock_solv.prm

>  <Rbt.Receptor>
prm/pocket_docking_8.prm

>  <SCORE>
-10.4565

>  <SCORE.INTER>
-10.8469

>  <SCORE.INTER.CONST>
1

>  <SCORE.INTER.POLAR>
0

>  <SCORE.INTER.ROT>
6

>  <SCORE.INTER.SOLV>
16.9203

>  <SCORE.INTER.VDW>
-20.4713

>  <SCORE.INTER.norm>
-0.349899

>  <SCORE.INTRA>
0.390317

>  <SCORE.INTRA.DIHEDRAL>
-3.29789

>  <SCORE.INTRA.DIHEDRAL.0>
15.9129

>  <SCORE.INTRA.POLAR>
0

>  <SCORE.INTRA.POLAR.0>
0

>  <SCORE.INTRA.REPUL>
0

>  <SCORE.INTRA.REPUL.0>
0

>  <SCORE.INTRA.SOLV>
-0.00283261

>  <SCORE.INTRA.SOLV.lig_0>
-75.7056

>  <SCORE.INTRA.VDW>
2.04068

>  <SCORE.INTRA.VDW.0>
-4.61812

>  <SCORE.INTRA.norm>
0.0125909

>  <SCORE.RESTR>
0

>  <SCORE.RESTR.CAVITY>
0

>  <SCORE.RESTR.norm>
0

>  <SCORE.SYSTEM>
0

>  <SCORE.SYSTEM.CONST>
0

>  <SCORE.SYSTEM.DIHEDRAL>
0

>  <SCORE.SYSTEM.SOLV>
0

>  <SCORE.SYSTEM.norm>
0

>  <SCORE.heavy>
31

>  <SCORE.norm>
-0.337308

>  <RMSD>
2.433

$$$$
ligand
 OpenBabel11021811493D
libRbt.so/2013.1/901 2013/11/27
 31 33  0  0  0  0  0  0  0  0999 V2000
   21.8968   -8.7096   -5.8965 C   0  0  2  0  0  0  0  0  0  0  0  0
   22.7403   -8.1474   -4.8821 O   0  0  0  0  0  0  0  0  0  0  0  0
   24.6047  -10.0202   -1.5348 C   0  0  2  0  0  0  0  0  0  0  0  0
   24.7532  -10.7323   -0.3105 N   0  0  0  0  0  0  0  0  0  0  0  0
   24.8363  -13.0870   -1.7694 C   0  0  2  0  0  0  0  0  0  0  0  0
   22.1243   -7.8714   -7.1924 C   0  0  2  0  0  0  0  0  0  0  0  0
   23.5436   -7.9098   -7.5391 N   0  0  0  0  0  0  0  0  0  0  0  0
   23.8010   -8.6926   -1.2682 C   0  0  0  0  0  0  0  0  0  0  0  0
   25.7192  -14.1387   -2.4939 C   0  0  2  0  0  0  0  0  0  0  0  0
   26.8739  -13.4967   -2.9848 O   0  0  0  0  0  0  0  0  0  0  0  0
   21.6186   -6.3922   -6.9824 C   0  0  0  0  0  0  0  0  0  0  0  0
   23.6384   -7.9038   -2.6309 C   0  0  2  0  0  0  0  0  0  0  0  0
   22.8818   -6.6586   -2.3870 N   0  0  0  0  0  0  0  0  0  0  0  0
   24.8674  -14.7705   -3.6655 C   0  0  1  0  0  0  0  0  0  0  0  0
   25.6834  -15.7736   -4.4065 N   0  0  0  0  0  0  0  0  0  0  0  0
   20.3873   -6.2991   -6.0096 C   0  0  0  0  0  0  0  0  0  0  0  0
   22.8687   -8.8241   -3.6711 C   0  0  2  0  0  0  0  0  0  0  0  0
   23.5473  -15.4965   -3.0484 C   0  0  1  0  0  0  0  0  0  0  0  0
   23.8578  -16.5428   -2.1609 O   0  0  0  0  0  0  0  0  0  0  0  0
   19.9150   -7.3820   -5.3744 C   0  0  1  0  0  0  0  0  0  0  0  0
   20.4878   -8.6635   -5.5448 O   0  0  0  0  0  0  0  0  0  0  0  0
   23.6810  -10.1497   -3.9033 C   0  0  2  0  0  0  0  0  0  0  0  0
   22.9767  -10.9747   -4.8296 O   0  0  0  0  0  0  0  0  0  0  0  0
   22.7067  -14.4382   -2.2692 C   0  0  0  0  0  0  0  0  0  0  0  0
   23.5728  -13.7260   -1.2498 O   0  0  0  0  0  0  0  0  0  0  0  0
   18.7197   -7.3256   -4.4031 C   0  0  0  0  0  0  0  0  0  0  0  0
   17.5297   -7.7566   -5.1035 N   0  0  0  0  0  0  0  0  0  0  0  0
   23.8397  -10.9127   -2.5342 C   0  0  1  0  0  0  0  0  0  0  0  0
   24.5732  -12.0789   -2.7684 O   0  0  0  0  0  0  0  0  0  0  0  0
   22.6129  -16.1631   -4.0681 C   0  0  0  0  0  0  0  0  0  0  0  0
   26.0321  -15.4292   -5.7935 C   0  0  0  0  0  0  0  0  0  0  0  0
  1  2  1  1  0  0  0
  1  6  1  0  0  0  0
  1 21  1  0  0  0  0
  3  4  1  1  0  0  0
  3  8  1  0  0  0  0
  3 28  1  0  0  0  0
  5  9  1  0  0  0  0
  5 25  1  0  0  0  0
  5 29  1  6  0  0  0
  6  7  1  1  0  0  0
  6 11  1  0  0  0  0
  8 12  1  0  0  0  0
  9 10  1  6  0  0  0
  9 14  1  0  0  0  0
 11 16  1  0  0  0  0
 12 13  1  1  0  0  0
 12 17  1  0  0  0  0
 14 15  1  1  0  0  0
 14 18  1  0  0  0  0
 15 31  1  0  0  0  0
 16 20  1  0  0  0  0
 17  2  1  6  0  0  0
 17 22  1  0  0  0  0
 18 19  1  1  0  0  0
 18 24  1  0  0  0  0
 18 30  1  0  0  0  0
 20 21  1  0  0  0  0
 20 26  1  1  0  0  0
 22 23  1  6  0  0  0
 22 28  1  0  0  0  0
 24 25  1  0  0  0  0
 26 27  1  0  0  0  0
 28 29  1  6  0  0  0
M  END
>  <CHROM.1>
-171.27287015,-177.98530549,-112.78096159,-170.43006574,99.14687024,65.71570100
23.13529584,-10.90286329,-3.82951273,2.42857009,-0.95805601,0.44585488

>  <Name>
ligand

>  <RI>
0

>  <Rbt.Current_Directory>
/home/itssahil/PROJECTS/Mol_Feturizer/New_Systems/rnas/4F8V

>  <Rbt.Executable>
rbdock ($Id: //depot/dev/client3/rdock/2013.1/src/exe/rbdock.cxx#4 $)

>  <Rbt.Library>
libRbt.so (2013.1, Build901 2013/11/27)

>  <Rbt.Parameter_File>
/export/apps/rDock/src/rDock_2013.1_src/data/scripts/dock_solv.prm

>  <Rbt.Receptor>
prm/pocket_docking_5.prm

>  <SCORE>
-10.7181

>  <SCORE.INTER>
-5.63264

>  <SCORE.INTER.CONST>
1

>  <SCORE.INTER.POLAR>
0

>  <SCORE.INTER.ROT>
6

>  <SCORE.INTER.SOLV>
10.5195

>  <SCORE.INTER.VDW>
-14.8616

>  <SCORE.INTER.norm>
-0.181698

>  <SCORE.INTRA>
-5.08547

>  <SCORE.INTRA.DIHEDRAL>
-11.5647

>  <SCORE.INTRA.DIHEDRAL.0>
15.9129

>  <SCORE.INTRA.POLAR>
0

>  <SCORE.INTRA.POLAR.0>
0

>  <SCORE.INTRA.REPUL>
0

>  <SCORE.INTRA.REPUL.0>
0

>  <SCORE.INTRA.SOLV>
-2.31426

>  <SCORE.INTRA.SOLV.lig_0>
-75.7056

>  <SCORE.INTRA.VDW>
1.854

>  <SCORE.INTRA.VDW.0>
-4.61812

>  <SCORE.INTRA.norm>
-0.164047

>  <SCORE.RESTR>
0

>  <SCORE.RESTR.CAVITY>
0

>  <SCORE.RESTR.norm>
0

>  <SCORE.SYSTEM>
0

>  <SCORE.SYSTEM.CONST>
0

>  <SCORE.SYSTEM.DIHEDRAL>
0

>  <SCORE.SYSTEM.SOLV>
0

>  <SCORE.SYSTEM.norm>
0

>  <SCORE.heavy>
31

>  <SCORE.norm>
-0.345746

>  <RMSD>
2.444

$$$$
ligand
 OpenBabel11021811493D
libRbt.so/2013.1/901 2013/11/27
 31 33  0  0  0  0  0  0  0  0999 V2000
   20.8402   -9.3586   -6.7552 C   0  0  2  0  0  0  0  0  0  0  0  0
   21.7710   -9.8603   -5.7865 O   0  0  0  0  0  0  0  0  0  0  0  0
   21.4116  -10.8282   -1.6486 C   0  0  2  0  0  0  0  0  0  0  0  0
   20.9302  -11.4319   -0.4520 N   0  0  0  0  0  0  0  0  0  0  0  0
   22.6911  -13.9560   -1.3759 C   0  0  2  0  0  0  0  0  0  0  0  0
   21.1915  -10.0360   -8.1159 C   0  0  2  0  0  0  0  0  0  0  0  0
   21.1262  -11.4871   -7.9542 N   0  0  0  0  0  0  0  0  0  0  0  0
   20.2614   -9.9686   -2.2948 C   0  0  0  0  0  0  0  0  0  0  0  0
   24.1028  -14.3472   -0.8616 C   0  0  2  0  0  0  0  0  0  0  0  0
   24.5752  -13.3221   -0.0176 O   0  0  0  0  0  0  0  0  0  0  0  0
   22.6166   -9.5707   -8.6063 C   0  0  0  0  0  0  0  0  0  0  0  0
   20.8003   -9.2989   -3.6240 C   0  0  2  0  0  0  0  0  0  0  0  0
   19.7237   -8.4937   -4.2363 N   0  0  0  0  0  0  0  0  0  0  0  0
   25.0445  -14.5430   -2.1154 C   0  0  1  0  0  0  0  0  0  0  0  0
   26.4213  -14.8990   -1.6694 N   0  0  0  0  0  0  0  0  0  0  0  0
   22.9614   -8.0990   -8.1750 C   0  0  0  0  0  0  0  0  0  0  0  0
   21.2733  -10.4402   -4.6216 C   0  0  2  0  0  0  0  0  0  0  0  0
   24.4564  -15.7335   -3.0574 C   0  0  1  0  0  0  0  0  0  0  0  0
   24.3907  -16.9753   -2.3998 O   0  0  0  0  0  0  0  0  0  0  0  0
   22.1371   -7.3894   -7.3900 C   0  0  1  0  0  0  0  0  0  0  0  0
   20.9151   -7.9161   -6.9120 O   0  0  0  0  0  0  0  0  0  0  0  0
   22.4058  -11.2949   -3.9450 C   0  0  2  0  0  0  0  0  0  0  0  0
   22.8161  -12.3242   -4.8434 O   0  0  0  0  0  0  0  0  0  0  0  0
   23.0131  -15.3524   -3.5108 C   0  0  0  0  0  0  0  0  0  0  0  0
   22.1561  -15.0149   -2.3073 O   0  0  0  0  0  0  0  0  0  0  0  0
   22.4494   -5.9501   -6.9357 C   0  0  0  0  0  0  0  0  0  0  0  0
   23.2265   -6.0048   -5.7169 N   0  0  0  0  0  0  0  0  0  0  0  0
   21.8516  -11.9429   -2.6204 C   0  0  1  0  0  0  0  0  0  0  0  0
   22.8805  -12.6864   -2.0360 O   0  0  0  0  0  0  0  0  0  0  0  0
   25.2665  -16.0460   -4.3236 C   0  0  0  0  0  0  0  0  0  0  0  0
   27.3619  -13.7792   -1.5111 C   0  0  0  0  0  0  0  0  0  0  0  0
  1  2  1  1  0  0  0
  1  6  1  0  0  0  0
  1 21  1  0  0  0  0
  3  4  1  1  0  0  0
  3  8  1  0  0  0  0
  3 28  1  0  0  0  0
  5  9  1  0  0  0  0
  5 25  1  0  0  0  0
  5 29  1  6  0  0  0
  6  7  1  1  0  0  0
  6 11  1  0  0  0  0
  8 12  1  0  0  0  0
  9 10  1  1  0  0  0
  9 14  1  0  0  0  0
 11 16  1  0  0  0  0
 12 13  1  6  0  0  0
 12 17  1  0  0  0  0
 14 15  1  1  0  0  0
 14 18  1  0  0  0  0
 15 31  1  0  0  0  0
 16 20  1  0  0  0  0
 17  2  1  6  0  0  0
 17 22  1  0  0  0  0
 18 19  1  1  0  0  0
 18 24  1  0  0  0  0
 18 30  1  0  0  0  0
 20 21  1  0  0  0  0
 20 26  1  1  0  0  0
 22 23  1  6  0  0  0
 22 28  1  0  0  0  0
 24 25  1  0  0  0  0
 26 27  1  0  0  0  0
 28 29  1  1  0  0  0
M  END
>  <CHROM.1>
-125.65659268,-178.15149313,-93.41991581,-77.47656015,-87.72513657,99.13309361
22.70486812,-11.59713424,-4.04315616,-2.17223978,-0.96701406,1.99419169

>  <Name>
ligand

>  <RI>
0

>  <Rbt.Current_Directory>
/home/itssahil/PROJECTS/Mol_Feturizer/New_Systems/rnas/4F8V

>  <Rbt.Executable>
rbdock ($Id: //depot/dev/client3/rdock/2013.1/src/exe/rbdock.cxx#4 $)

>  <Rbt.Library>
libRbt.so (2013.1, Build901 2013/11/27)

>  <Rbt.Parameter_File>
/export/apps/rDock/src/rDock_2013.1_src/data/scripts/dock_solv.prm

>  <Rbt.Receptor>
prm/pocket_docking_5.prm

>  <SCORE>
-11.0102

>  <SCORE.INTER>
-12.0704

>  <SCORE.INTER.CONST>
1

>  <SCORE.INTER.POLAR>
0

>  <SCORE.INTER.ROT>
6

>  <SCORE.INTER.SOLV>
13.5507

>  <SCORE.INTER.VDW>
-20.1638

>  <SCORE.INTER.norm>
-0.389368

>  <SCORE.INTRA>
1.06019

>  <SCORE.INTRA.DIHEDRAL>
1.27036

>  <SCORE.INTRA.DIHEDRAL.0>
15.9129

>  <SCORE.INTRA.POLAR>
0

>  <SCORE.INTRA.POLAR.0>
0

>  <SCORE.INTRA.REPUL>
0

>  <SCORE.INTRA.REPUL.0>
0

>  <SCORE.INTRA.SOLV>
-0.229052

>  <SCORE.INTRA.SOLV.lig_0>
-75.7056

>  <SCORE.INTRA.VDW>
0.539532

>  <SCORE.INTRA.VDW.0>
-4.61812

>  <SCORE.INTRA.norm>
0.0341995

>  <SCORE.RESTR>
0

>  <SCORE.RESTR.CAVITY>
0

>  <SCORE.RESTR.norm>
0

>  <SCORE.SYSTEM>
0

>  <SCORE.SYSTEM.CONST>
0

>  <SCORE.SYSTEM.DIHEDRAL>
0

>  <SCORE.SYSTEM.SOLV>
0

>  <SCORE.SYSTEM.norm>
0

>  <SCORE.heavy>
31

>  <SCORE.norm>
-0.355168

>  <RMSD>
2.483

$$$$
ligand
 OpenBabel11021811493D
libRbt.so/2013.1/901 2013/11/27
 31 33  0  0  0  0  0  0  0  0999 V2000
   20.8461   -9.3599   -6.7608 C   0  0  2  0  0  0  0  0  0  0  0  0
   21.7796   -9.8510   -5.7894 O   0  0  0  0  0  0  0  0  0  0  0  0
   21.4295  -10.8353   -1.6545 C   0  0  2  0  0  0  0  0  0  0  0  0
   20.9513  -11.4443   -0.4594 N   0  0  0  0  0  0  0  0  0  0  0  0
   22.7109  -13.9505   -1.3753 C   0  0  2  0  0  0  0  0  0  0  0  0
   21.1559  -10.0958   -8.1010 C   0  0  2  0  0  0  0  0  0  0  0  0
   21.0548  -11.5377   -7.8847 N   0  0  0  0  0  0  0  0  0  0  0  0
   20.2768   -9.9750   -2.2952 C   0  0  0  0  0  0  0  0  0  0  0  0
   24.1222  -14.3343   -0.8541 C   0  0  2  0  0  0  0  0  0  0  0  0
   24.5931  -13.2979   -0.0231 O   0  0  0  0  0  0  0  0  0  0  0  0
   22.5843   -9.6878   -8.6312 C   0  0  0  0  0  0  0  0  0  0  0  0
   20.8121   -9.2994   -3.6229 C   0  0  2  0  0  0  0  0  0  0  0  0
   19.7331   -8.4935   -4.2301 N   0  0  0  0  0  0  0  0  0  0  0  0
   25.0655  -14.5462   -2.1041 C   0  0  1  0  0  0  0  0  0  0  0  0
   26.4418  -14.8957   -1.6517 N   0  0  0  0  0  0  0  0  0  0  0  0
   22.9755   -8.2112   -8.2602 C   0  0  0  0  0  0  0  0  0  0  0  0
   21.2850  -10.4361   -4.6257 C   0  0  2  0  0  0  0  0  0  0  0  0
   24.4790  -15.7493   -3.0310 C   0  0  1  0  0  0  0  0  0  0  0  0
   24.4131  -16.9823   -2.3571 O   0  0  0  0  0  0  0  0  0  0  0  0
   22.1839   -7.4512   -7.4889 C   0  0  1  0  0  0  0  0  0  0  0  0
   20.9566   -7.9266   -6.9721 O   0  0  0  0  0  0  0  0  0  0  0  0
   22.4201  -11.2917   -3.9546 C   0  0  2  0  0  0  0  0  0  0  0  0
   22.8303  -12.3168   -4.8577 O   0  0  0  0  0  0  0  0  0  0  0  0
   23.0361  -15.3749   -3.4911 C   0  0  0  0  0  0  0  0  0  0  0  0
   22.1775  -15.0218   -2.2931 O   0  0  0  0  0  0  0  0  0  0  0  0
   22.5421   -6.0054   -7.0932 C   0  0  0  0  0  0  0  0  0  0  0  0
   23.1155   -6.0144   -5.7653 N   0  0  0  0  0  0  0  0  0  0  0  0
   21.8694  -11.9456   -2.6314 C   0  0  1  0  0  0  0  0  0  0  0  0
   22.9006  -12.6897   -2.0518 O   0  0  0  0  0  0  0  0  0  0  0  0
   25.2908  -16.0782   -4.2920 C   0  0  0  0  0  0  0  0  0  0  0  0
   27.3743  -13.7707   -1.4824 C   0  0  0  0  0  0  0  0  0  0  0  0
  1  2  1  1  0  0  0
  1  6  1  0  0  0  0
  1 21  1  0  0  0  0
  3  4  1  1  0  0  0
  3  8  1  0  0  0  0
  3 28  1  0  0  0  0
  5  9  1  0  0  0  0
  5 25  1  0  0  0  0
  5 29  1  6  0  0  0
  6  7  1  1  0  0  0
  6 11  1  0  0  0  0
  8 12  1  0  0  0  0
  9 10  1  1  0  0  0
  9 14  1  0  0  0  0
 11 16  1  0  0  0  0
 12 13  1  6  0  0  0
 12 17  1  0  0  0  0
 14 15  1  1  0  0  0
 14 18  1  0  0  0  0
 15 31  1  0  0  0  0
 16 20  1  0  0  0  0
 17  2  1  6  0  0  0
 17 22  1  0  0  0  0
 18 19  1  1  0  0  0
 18 24  1  0  0  0  0
 18 30  1  0  0  0  0
 20 21  1  0  0  0  0
 20 26  1  1  0  0  0
 22 23  1  6  0  0  0
 22 28  1  0  0  0  0
 24 25  1  0  0  0  0
 26 27  1  0  0  0  0
 28 29  1  1  0  0  0
M  END
>  <CHROM.1>
-122.43550071,-177.24422835,-92.29094423,-78.12959656,-98.37527014,97.97051212
22.71598762,-11.61345379,-4.05161110,-2.17336956,-0.96516327,1.98519651

>  <Name>
ligand

>  <RI>
0

>  <Rbt.Current_Directory>
/home/itssahil/PROJECTS/Mol_Feturizer/New_Systems/rnas/4F8V

>  <Rbt.Executable>
rbdock ($Id: //depot/dev/client3/rdock/2013.1/src/exe/rbdock.cxx#4 $)

>  <Rbt.Library>
libRbt.so (2013.1, Build901 2013/11/27)

>  <Rbt.Parameter_File>
/export/apps/rDock/src/rDock_2013.1_src/data/scripts/dock_solv.prm

>  <Rbt.Receptor>
prm/pocket_docking_5.prm

>  <SCORE>
-11.0815

>  <SCORE.INTER>
-11.9426

>  <SCORE.INTER.CONST>
1

>  <SCORE.INTER.POLAR>
0

>  <SCORE.INTER.ROT>
6

>  <SCORE.INTER.SOLV>
13.7131

>  <SCORE.INTER.VDW>
-20.1328

>  <SCORE.INTER.norm>
-0.385245

>  <SCORE.INTRA>
0.861124

>  <SCORE.INTRA.DIHEDRAL>
0.763109

>  <SCORE.INTRA.DIHEDRAL.0>
15.9129

>  <SCORE.INTRA.POLAR>
0

>  <SCORE.INTRA.POLAR.0>
0

>  <SCORE.INTRA.REPUL>
0

>  <SCORE.INTRA.REPUL.0>
0

>  <SCORE.INTRA.SOLV>
-0.176535

>  <SCORE.INTRA.SOLV.lig_0>
-75.7056

>  <SCORE.INTRA.VDW>
0.567837

>  <SCORE.INTRA.VDW.0>
-4.61812

>  <SCORE.INTRA.norm>
0.0277782

>  <SCORE.RESTR>
0

>  <SCORE.RESTR.CAVITY>
0

>  <SCORE.RESTR.norm>
0

>  <SCORE.SYSTEM>
0

>  <SCORE.SYSTEM.CONST>
0

>  <SCORE.SYSTEM.DIHEDRAL>
0

>  <SCORE.SYSTEM.SOLV>
0

>  <SCORE.SYSTEM.norm>
0

>  <SCORE.heavy>
31

>  <SCORE.norm>
-0.357467

>  <RMSD>
2.506

$$$$
ligand
 OpenBabel11021811493D
libRbt.so/2013.1/901 2013/11/27
 31 33  0  0  0  0  0  0  0  0999 V2000
   20.9949   -8.8968   -6.5832 C   0  0  2  0  0  0  0  0  0  0  0  0
   21.9009   -9.4700   -5.6308 O   0  0  0  0  0  0  0  0  0  0  0  0
   21.4180  -10.8015   -1.6080 C   0  0  2  0  0  0  0  0  0  0  0  0
   20.9067  -11.5144   -0.4863 N   0  0  0  0  0  0  0  0  0  0  0  0
   22.7179  -13.8497   -1.4181 C   0  0  2  0  0  0  0  0  0  0  0  0
   21.0502   -9.7929   -7.8590 C   0  0  2  0  0  0  0  0  0  0  0  0
   20.7046  -11.1644   -7.4906 N   0  0  0  0  0  0  0  0  0  0  0  0
   20.2757   -9.9051   -2.2172 C   0  0  0  0  0  0  0  0  0  0  0  0
   24.1219  -14.2566   -0.8950 C   0  0  2  0  0  0  0  0  0  0  0  0
   24.6130  -13.2236   -0.0715 O   0  0  0  0  0  0  0  0  0  0  0  0
   22.4794   -9.7131   -8.5215 C   0  0  0  0  0  0  0  0  0  0  0  0
   20.8477   -9.1140   -3.4633 C   0  0  2  0  0  0  0  0  0  0  0  0
   19.7788   -8.2737   -4.0409 N   0  0  0  0  0  0  0  0  0  0  0  0
   25.0603  -14.4952   -2.1439 C   0  0  1  0  0  0  0  0  0  0  0  0
   26.4300  -14.8675   -1.6898 N   0  0  0  0  0  0  0  0  0  0  0  0
   23.1650   -8.3116   -8.3297 C   0  0  0  0  0  0  0  0  0  0  0  0
   21.3740  -10.1567   -4.5390 C   0  0  2  0  0  0  0  0  0  0  0  0
   24.4504  -15.6933   -3.0621 C   0  0  1  0  0  0  0  0  0  0  0  0
   24.3616  -16.9201   -2.3796 O   0  0  0  0  0  0  0  0  0  0  0  0
   22.5943   -7.3499   -7.5891 C   0  0  1  0  0  0  0  0  0  0  0  0
   21.3486   -7.5351   -6.9463 O   0  0  0  0  0  0  0  0  0  0  0  0
   22.4975  -11.0511   -3.8998 C   0  0  2  0  0  0  0  0  0  0  0  0
   22.9558  -11.9918   -4.8693 O   0  0  0  0  0  0  0  0  0  0  0  0
   23.0146  -15.2948   -3.5241 C   0  0  0  0  0  0  0  0  0  0  0  0
   22.1637  -14.9171   -2.3282 O   0  0  0  0  0  0  0  0  0  0  0  0
   23.2440   -5.9700   -7.3675 C   0  0  0  0  0  0  0  0  0  0  0  0
   22.2147   -4.9555   -7.4276 N   0  0  0  0  0  0  0  0  0  0  0  0
   21.9099  -11.8205   -2.6570 C   0  0  1  0  0  0  0  0  0  0  0  0
   22.9311  -12.5975   -2.1035 O   0  0  0  0  0  0  0  0  0  0  0  0
   25.2551  -16.0463   -4.3212 C   0  0  0  0  0  0  0  0  0  0  0  0
   27.3862  -13.7602   -1.5366 C   0  0  0  0  0  0  0  0  0  0  0  0
  1  2  1  1  0  0  0
  1  6  1  0  0  0  0
  1 21  1  0  0  0  0
  3  4  1  1  0  0  0
  3  8  1  0  0  0  0
  3 28  1  0  0  0  0
  5  9  1  0  0  0  0
  5 25  1  0  0  0  0
  5 29  1  6  0  0  0
  6  7  1  1  0  0  0
  6 11  1  0  0  0  0
  8 12  1  0  0  0  0
  9 10  1  1  0  0  0
  9 14  1  0  0  0  0
 11 16  1  0  0  0  0
 12 13  1  6  0  0  0
 12 17  1  0  0  0  0
 14 15  1  1  0  0  0
 14 18  1  0  0  0  0
 15 31  1  0  0  0  0
 16 20  1  0  0  0  0
 17  2  1  6  0  0  0
 17 22  1  0  0  0  0
 18 19  1  1  0  0  0
 18 24  1  0  0  0  0
 18 30  1  0  0  0  0
 20 21  1  0  0  0  0
 20 26  1  1  0  0  0
 22 23  1  6  0  0  0
 22 28  1  0  0  0  0
 24 25  1  0  0  0  0
 26 27  1  0  0  0  0
 28 29  1  1  0  0  0
M  END
>  <CHROM.1>
-106.01598004,-175.47521219,-92.64558206,-77.37091829,139.85707269,91.23727682
22.74171914,-11.44629241,-4.08205654,-2.04744607,-0.86904001,2.13705135

>  <Name>
ligand

>  <RI>
0

>  <Rbt.Current_Directory>
/home/itssahil/PROJECTS/Mol_Feturizer/New_Systems/rnas/4F8V

>  <Rbt.Executable>
rbdock ($Id: //depot/dev/client3/rdock/2013.1/src/exe/rbdock.cxx#4 $)

>  <Rbt.Library>
libRbt.so (2013.1, Build901 2013/11/27)

>  <Rbt.Parameter_File>
/export/apps/rDock/src/rDock_2013.1_src/data/scripts/dock_solv.prm

>  <Rbt.Receptor>
prm/pocket_docking_7.prm

>  <SCORE>
-10.029

>  <SCORE.INTER>
-10.0766

>  <SCORE.INTER.CONST>
1

>  <SCORE.INTER.POLAR>
0

>  <SCORE.INTER.ROT>
6

>  <SCORE.INTER.SOLV>
18.3471

>  <SCORE.INTER.VDW>
-20.4334

>  <SCORE.INTER.norm>
-0.325051

>  <SCORE.INTRA>
0.04757

>  <SCORE.INTRA.DIHEDRAL>
-1.47447

>  <SCORE.INTRA.DIHEDRAL.0>
15.9129

>  <SCORE.INTRA.POLAR>
0

>  <SCORE.INTRA.POLAR.0>
0

>  <SCORE.INTRA.REPUL>
0

>  <SCORE.INTRA.REPUL.0>
0

>  <SCORE.INTRA.SOLV>
-0.299628

>  <SCORE.INTRA.SOLV.lig_0>
-75.7056

>  <SCORE.INTRA.VDW>
0.934621

>  <SCORE.INTRA.VDW.0>
-4.61812

>  <SCORE.INTRA.norm>
0.00153451

>  <SCORE.RESTR>
0

>  <SCORE.RESTR.CAVITY>
0

>  <SCORE.RESTR.norm>
0

>  <SCORE.SYSTEM>
0

>  <SCORE.SYSTEM.CONST>
0

>  <SCORE.SYSTEM.DIHEDRAL>
0

>  <SCORE.SYSTEM.SOLV>
0

>  <SCORE.SYSTEM.norm>
0

>  <SCORE.heavy>
31

>  <SCORE.norm>
-0.323516

>  <RMSD>
2.556

$$$$
ligand
 OpenBabel11021811493D
libRbt.so/2013.1/901 2013/11/27
 31 33  0  0  0  0  0  0  0  0999 V2000
   20.5706   -8.5927   -4.4327 C   0  0  2  0  0  0  0  0  0  0  0  0
   19.8470   -9.4312   -3.5218 O   0  0  0  0  0  0  0  0  0  0  0  0
   23.0557  -10.6026   -0.9682 C   0  0  2  0  0  0  0  0  0  0  0  0
   23.7426  -11.1142    0.1696 N   0  0  0  0  0  0  0  0  0  0  0  0
   22.7108  -14.1419   -1.3855 C   0  0  2  0  0  0  0  0  0  0  0  0
   19.5122   -7.8614   -5.3152 C   0  0  2  0  0  0  0  0  0  0  0  0
   18.6036   -7.1160   -4.4463 N   0  0  0  0  0  0  0  0  0  0  0  0
   22.2120   -9.3433   -0.5415 C   0  0  0  0  0  0  0  0  0  0  0  0
   24.1241  -14.5753   -0.9107 C   0  0  2  0  0  0  0  0  0  0  0  0
   24.5851  -13.6439    0.0413 O   0  0  0  0  0  0  0  0  0  0  0  0
   18.7351   -8.9012   -6.2112 C   0  0  0  0  0  0  0  0  0  0  0  0
   21.4505   -8.7772   -1.8085 C   0  0  2  0  0  0  0  0  0  0  0  0
   20.6545   -7.5973   -1.4130 N   0  0  0  0  0  0  0  0  0  0  0  0
   25.0715  -14.6266   -2.1745 C   0  0  1  0  0  0  0  0  0  0  0  0
   26.4497  -15.0179   -1.7639 N   0  0  0  0  0  0  0  0  0  0  0  0
   19.6227  -10.1276   -6.6344 C   0  0  0  0  0  0  0  0  0  0  0  0
   20.5053   -9.9121   -2.3920 C   0  0  2  0  0  0  0  0  0  0  0  0
   24.4964  -15.7128   -3.2422 C   0  0  1  0  0  0  0  0  0  0  0  0
   24.4390  -17.0189   -2.7231 O   0  0  0  0  0  0  0  0  0  0  0  0
   20.8743  -10.2760   -6.1754 C   0  0  1  0  0  0  0  0  0  0  0  0
   21.4681   -9.3426   -5.2948 O   0  0  0  0  0  0  0  0  0  0  0  0
   21.3690  -11.1635   -2.7903 C   0  0  2  0  0  0  0  0  0  0  0  0
   20.5108  -12.1814   -3.3022 O   0  0  0  0  0  0  0  0  0  0  0  0
   23.0514  -15.2964   -3.6576 C   0  0  0  0  0  0  0  0  0  0  0  0
   22.1878  -15.0979   -2.4282 O   0  0  0  0  0  0  0  0  0  0  0  0
   21.7678  -11.4723   -6.5574 C   0  0  0  0  0  0  0  0  0  0  0  0
   23.1114  -11.2196   -6.0852 N   0  0  0  0  0  0  0  0  0  0  0  0
   22.1253  -11.7036   -1.5183 C   0  0  1  0  0  0  0  0  0  0  0  0
   22.8918  -12.8069   -1.9035 O   0  0  0  0  0  0  0  0  0  0  0  0
   25.3132  -15.8799   -4.5314 C   0  0  0  0  0  0  0  0  0  0  0  0
   27.3776  -13.9144   -1.4722 C   0  0  0  0  0  0  0  0  0  0  0  0
  1  2  1  1  0  0  0
  1  6  1  0  0  0  0
  1 21  1  0  0  0  0
  3  4  1  1  0  0  0
  3  8  1  0  0  0  0
  3 28  1  0  0  0  0
  5  9  1  0  0  0  0
  5 25  1  0  0  0  0
  5 29  1  6  0  0  0
  6  7  1  1  0  0  0
  6 11  1  0  0  0  0
  8 12  1  0  0  0  0
  9 10  1  1  0  0  0
  9 14  1  0  0  0  0
 11 16  1  0  0  0  0
 12 13  1  1  0  0  0
 12 17  1  0  0  0  0
 14 15  1  1  0  0  0
 14 18  1  0  0  0  0
 15 31  1  0  0  0  0
 16 20  1  0  0  0  0
 17  2  1  6  0  0  0
 17 22  1  0  0  0  0
 18 19  1  1  0  0  0
 18 24  1  0  0  0  0
 18 30  1  0  0  0  0
 20 21  1  0  0  0  0
 20 26  1  1  0  0  0
 22 23  1  1  0  0  0
 22 28  1  0  0  0  0
 24 25  1  0  0  0  0
 26 27  1  0  0  0  0
 28 29  1  6  0  0  0
M  END
>  <CHROM.1>
-162.63861888,-128.01567284,-93.00019833,38.95585961,170.46480955,122.70292409
22.35322055,-11.80252024,-3.07439317,-2.99148711,0.93588027,-2.14001369

>  <Name>
ligand

>  <RI>
0

>  <Rbt.Current_Directory>
/home/itssahil/PROJECTS/Mol_Feturizer/New_Systems/rnas/4F8V

>  <Rbt.Executable>
rbdock ($Id: //depot/dev/client3/rdock/2013.1/src/exe/rbdock.cxx#4 $)

>  <Rbt.Library>
libRbt.so (2013.1, Build901 2013/11/27)

>  <Rbt.Parameter_File>
/export/apps/rDock/src/rDock_2013.1_src/data/scripts/dock_solv.prm

>  <Rbt.Receptor>
prm/pocket_docking_3.prm

>  <SCORE>
-3.38956

>  <SCORE.INTER>
-8.35003

>  <SCORE.INTER.CONST>
1

>  <SCORE.INTER.POLAR>
0

>  <SCORE.INTER.ROT>
6

>  <SCORE.INTER.SOLV>
17.5295

>  <SCORE.INTER.VDW>
-19.0099

>  <SCORE.INTER.norm>
-0.269356

>  <SCORE.INTRA>
4.96047

>  <SCORE.INTRA.DIHEDRAL>
5.67429

>  <SCORE.INTRA.DIHEDRAL.0>
15.9129

>  <SCORE.INTRA.POLAR>
0

>  <SCORE.INTRA.POLAR.0>
0

>  <SCORE.INTRA.REPUL>
0

>  <SCORE.INTRA.REPUL.0>
0

>  <SCORE.INTRA.SOLV>
1.51652

>  <SCORE.INTRA.SOLV.lig_0>
-75.7056

>  <SCORE.INTRA.VDW>
1.36507

>  <SCORE.INTRA.VDW.0>
-4.61812

>  <SCORE.INTRA.norm>
0.160015

>  <SCORE.RESTR>
0

>  <SCORE.RESTR.CAVITY>
0

>  <SCORE.RESTR.norm>
0

>  <SCORE.SYSTEM>
0

>  <SCORE.SYSTEM.CONST>
0

>  <SCORE.SYSTEM.DIHEDRAL>
0

>  <SCORE.SYSTEM.SOLV>
0

>  <SCORE.SYSTEM.norm>
0

>  <SCORE.heavy>
31

>  <SCORE.norm>
-0.109341

>  <RMSD>
2.584

$$$$
ligand
 OpenBabel11021811493D
libRbt.so/2013.1/901 2013/11/27
 31 33  0  0  0  0  0  0  0  0999 V2000
   20.8032   -9.2551   -6.6196 C   0  0  2  0  0  0  0  0  0  0  0  0
   21.7492   -9.7942   -5.6864 O   0  0  0  0  0  0  0  0  0  0  0  0
   21.4731  -10.8311   -1.5588 C   0  0  2  0  0  0  0  0  0  0  0  0
   21.0117  -11.4500   -0.3621 N   0  0  0  0  0  0  0  0  0  0  0  0
   22.7162  -13.9690   -1.3526 C   0  0  2  0  0  0  0  0  0  0  0  0
   20.8294  -10.1779   -7.8772 C   0  0  2  0  0  0  0  0  0  0  0  0
   20.5173  -11.5459   -7.4683 N   0  0  0  0  0  0  0  0  0  0  0  0
   20.3193   -9.9460   -2.1629 C   0  0  0  0  0  0  0  0  0  0  0  0
   24.1266  -14.3631   -0.8369 C   0  0  2  0  0  0  0  0  0  0  0  0
   24.6002  -13.3389    0.0075 O   0  0  0  0  0  0  0  0  0  0  0  0
   22.2341  -10.0916   -8.5893 C   0  0  0  0  0  0  0  0  0  0  0  0
   20.8358   -9.2595   -3.4924 C   0  0  2  0  0  0  0  0  0  0  0  0
   19.7558   -8.4304   -4.0654 N   0  0  0  0  0  0  0  0  0  0  0  0
   25.0692  -14.5611   -2.0897 C   0  0  1  0  0  0  0  0  0  0  0  0
   26.4447  -14.9199   -1.6422 N   0  0  0  0  0  0  0  0  0  0  0  0
   22.9042   -8.6765   -8.4506 C   0  0  0  0  0  0  0  0  0  0  0  0
   21.2712  -10.3886   -4.5206 C   0  0  2  0  0  0  0  0  0  0  0  0
   24.4795  -15.7506   -3.0321 C   0  0  1  0  0  0  0  0  0  0  0  0
   24.4106  -16.9921   -2.3743 O   0  0  0  0  0  0  0  0  0  0  0  0
   22.3440   -7.7073   -7.7116 C   0  0  1  0  0  0  0  0  0  0  0  0
   21.1236   -7.8967   -7.0232 O   0  0  0  0  0  0  0  0  0  0  0  0
   22.4080  -11.2691   -3.8856 C   0  0  2  0  0  0  0  0  0  0  0  0
   22.7844  -12.2871   -4.8111 O   0  0  0  0  0  0  0  0  0  0  0  0
   23.0374  -15.3665   -3.4869 C   0  0  0  0  0  0  0  0  0  0  0  0
   22.1800  -15.0270   -2.2843 O   0  0  0  0  0  0  0  0  0  0  0  0
   22.9796   -6.3136   -7.5415 C   0  0  0  0  0  0  0  0  0  0  0  0
   23.3395   -6.1323   -6.1523 N   0  0  0  0  0  0  0  0  0  0  0  0
   21.8763  -11.9337   -2.5599 C   0  0  1  0  0  0  0  0  0  0  0  0
   22.9089  -12.7000   -2.0128 O   0  0  0  0  0  0  0  0  0  0  0  0
   25.2902  -16.0650   -4.2974 C   0  0  0  0  0  0  0  0  0  0  0  0
   27.3800  -13.7995   -1.4582 C   0  0  0  0  0  0  0  0  0  0  0  0
  1  2  1  1  0  0  0
  1  6  1  0  0  0  0
  1 21  1  0  0  0  0
  3  4  1  1  0  0  0
  3  8  1  0  0  0  0
  3 28  1  0  0  0  0
  5  9  1  0  0  0  0
  5 25  1  0  0  0  0
  5 29  1  6  0  0  0
  6  7  1  1  0  0  0
  6 11  1  0  0  0  0
  8 12  1  0  0  0  0
  9 10  1  1  0  0  0
  9 14  1  0  0  0  0
 11 16  1  0  0  0  0
 12 13  1  6  0  0  0
 12 17  1  0  0  0  0
 14 15  1  1  0  0  0
 14 18  1  0  0  0  0
 15 31  1  0  0  0  0
 16 20  1  0  0  0  0
 17  2  1  6  0  0  0
 17 22  1  0  0  0  0
 18 19  1  1  0  0  0
 18 24  1  0  0  0  0
 18 30  1  0  0  0  0
 20 21  1  0  0  0  0
 20 26  1  1  0  0  0
 22 23  1  6  0  0  0
 22 28  1  0  0  0  0
 24 25  1  0  0  0  0
 26 27  1  0  0  0  0
 28 29  1  1  0  0  0
M  END
>  <CHROM.1>
-110.10126062,-175.96840425,-92.28026735,-77.01851491,-115.39392045,98.14205840
22.71031109,-11.65675615,-4.03038815,-2.14370986,-0.93252882,2.00274056

>  <Name>
ligand

>  <RI>
0

>  <Rbt.Current_Directory>
/home/itssahil/PROJECTS/Mol_Feturizer/New_Systems/rnas/4F8V

>  <Rbt.Executable>
rbdock ($Id: //depot/dev/client3/rdock/2013.1/src/exe/rbdock.cxx#4 $)

>  <Rbt.Library>
libRbt.so (2013.1, Build901 2013/11/27)

>  <Rbt.Parameter_File>
/export/apps/rDock/src/rDock_2013.1_src/data/scripts/dock_solv.prm

>  <Rbt.Receptor>
prm/pocket_docking_7.prm

>  <SCORE>
-11.1064

>  <SCORE.INTER>
-11.5777

>  <SCORE.INTER.CONST>
1

>  <SCORE.INTER.POLAR>
0

>  <SCORE.INTER.ROT>
6

>  <SCORE.INTER.SOLV>
13.9635

>  <SCORE.INTER.VDW>
-19.9729

>  <SCORE.INTER.norm>
-0.373474

>  <SCORE.INTRA>
0.471303

>  <SCORE.INTRA.DIHEDRAL>
-0.301268

>  <SCORE.INTRA.DIHEDRAL.0>
15.9129

>  <SCORE.INTRA.POLAR>
0

>  <SCORE.INTRA.POLAR.0>
0

>  <SCORE.INTRA.REPUL>
0

>  <SCORE.INTRA.REPUL.0>
0

>  <SCORE.INTRA.SOLV>
-0.133249

>  <SCORE.INTRA.SOLV.lig_0>
-75.7056

>  <SCORE.INTRA.VDW>
0.688562

>  <SCORE.INTRA.VDW.0>
-4.61812

>  <SCORE.INTRA.norm>
0.0152033

>  <SCORE.RESTR>
0

>  <SCORE.RESTR.CAVITY>
0

>  <SCORE.RESTR.norm>
0

>  <SCORE.SYSTEM>
0

>  <SCORE.SYSTEM.CONST>
0

>  <SCORE.SYSTEM.DIHEDRAL>
0

>  <SCORE.SYSTEM.SOLV>
0

>  <SCORE.SYSTEM.norm>
0

>  <SCORE.heavy>
31

>  <SCORE.norm>
-0.358271

>  <RMSD>
2.592

$$$$
ligand
 OpenBabel11021811493D
libRbt.so/2013.1/901 2013/11/27
 31 33  0  0  0  0  0  0  0  0999 V2000
   21.9189   -8.0923   -5.4767 C   0  0  2  0  0  0  0  0  0  0  0  0
   21.7834   -7.7699   -4.0860 O   0  0  0  0  0  0  0  0  0  0  0  0
   21.6225   -9.8891   -0.3885 C   0  0  2  0  0  0  0  0  0  0  0  0
   21.3915  -10.9424    0.5416 N   0  0  0  0  0  0  0  0  0  0  0  0
   24.0044  -11.9555   -0.1027 C   0  0  2  0  0  0  0  0  0  0  0  0
   22.3630   -6.7859   -6.2046 C   0  0  2  0  0  0  0  0  0  0  0  0
   23.6054   -6.3063   -5.6024 N   0  0  0  0  0  0  0  0  0  0  0  0
   20.2538   -9.4640   -1.0408 C   0  0  0  0  0  0  0  0  0  0  0  0
   25.3879  -11.7621    0.5749 C   0  0  2  0  0  0  0  0  0  0  0  0
   25.3541  -10.5782    1.3388 O   0  0  0  0  0  0  0  0  0  0  0  0
   21.2221   -5.6999   -6.1232 C   0  0  0  0  0  0  0  0  0  0  0  0
   20.5144   -8.2930   -2.0735 C   0  0  2  0  0  0  0  0  0  0  0  0
   19.2336   -7.8925   -2.6911 N   0  0  0  0  0  0  0  0  0  0  0  0
   26.4838  -11.6856   -0.5610 C   0  0  1  0  0  0  0  0  0  0  0  0
   27.8306  -11.4772    0.0421 N   0  0  0  0  0  0  0  0  0  0  0  0
   19.7805   -6.3265   -6.1179 C   0  0  0  0  0  0  0  0  0  0  0  0
   21.5293   -8.8010   -3.1841 C   0  0  2  0  0  0  0  0  0  0  0  0
   26.4817  -13.0724   -1.4138 C   0  0  1  0  0  0  0  0  0  0  0  0
   26.7848  -14.2012   -0.6311 O   0  0  0  0  0  0  0  0  0  0  0  0
   19.5959   -7.6548   -6.0889 C   0  0  1  0  0  0  0  0  0  0  0  0
   20.6783   -8.5643   -6.0675 O   0  0  0  0  0  0  0  0  0  0  0  0
   22.8779   -9.2378   -2.5050 C   0  0  2  0  0  0  0  0  0  0  0  0
   23.7787   -9.7032   -3.5083 O   0  0  0  0  0  0  0  0  0  0  0  0
   25.0652  -13.2825   -2.0328 C   0  0  0  0  0  0  0  0  0  0  0  0
   24.0031  -13.2000   -0.9548 O   0  0  0  0  0  0  0  0  0  0  0  0
   18.1980   -8.3036   -6.0684 C   0  0  0  0  0  0  0  0  0  0  0  0
   17.3188   -7.4899   -5.2576 N   0  0  0  0  0  0  0  0  0  0  0  0
   22.5941  -10.3954   -1.4749 C   0  0  1  0  0  0  0  0  0  0  0  0
   23.8062  -10.7555   -0.8799 O   0  0  0  0  0  0  0  0  0  0  0  0
   27.4992  -13.1534   -2.5607 C   0  0  0  0  0  0  0  0  0  0  0  0
   28.2327  -10.0798    0.2646 C   0  0  0  0  0  0  0  0  0  0  0  0
  1  2  1  1  0  0  0
  1  6  1  0  0  0  0
  1 21  1  0  0  0  0
  3  4  1  1  0  0  0
  3  8  1  0  0  0  0
  3 28  1  0  0  0  0
  5  9  1  0  0  0  0
  5 25  1  0  0  0  0
  5 29  1  6  0  0  0
  6  7  1  1  0  0  0
  6 11  1  0  0  0  0
  8 12  1  0  0  0  0
  9 10  1  6  0  0  0
  9 14  1  0  0  0  0
 11 16  1  0  0  0  0
 12 13  1  6  0  0  0
 12 17  1  0  0  0  0
 14 15  1  1  0  0  0
 14 18  1  0  0  0  0
 15 31  1  0  0  0  0
 16 20  1  0  0  0  0
 17  2  1  6  0  0  0
 17 22  1  0  0  0  0
 18 19  1  1  0  0  0
 18 24  1  0  0  0  0
 18 30  1  0  0  0  0
 20 21  1  0  0  0  0
 20 26  1  1  0  0  0
 22 23  1  6  0  0  0
 22 28  1  0  0  0  0
 24 25  1  0  0  0  0
 26 27  1  0  0  0  0
 28 29  1  1  0  0  0
M  END
>  <CHROM.1>
-173.36158960,-168.57337107,-88.35529486,-141.87830734,-36.95942992,74.68809469
22.98159850,-9.79725787,-2.57743641,-2.31922089,-0.22956660,2.14013795

>  <Name>
ligand

>  <RI>
0

>  <Rbt.Current_Directory>
/home/itssahil/PROJECTS/Mol_Feturizer/New_Systems/rnas/4F8V

>  <Rbt.Executable>
rbdock ($Id: //depot/dev/client3/rdock/2013.1/src/exe/rbdock.cxx#4 $)

>  <Rbt.Library>
libRbt.so (2013.1, Build901 2013/11/27)

>  <Rbt.Parameter_File>
/export/apps/rDock/src/rDock_2013.1_src/data/scripts/dock_solv.prm

>  <Rbt.Receptor>
prm/pocket_docking_7.prm

>  <SCORE>
-10.6683

>  <SCORE.INTER>
-9.77665

>  <SCORE.INTER.CONST>
1

>  <SCORE.INTER.POLAR>
0

>  <SCORE.INTER.ROT>
6

>  <SCORE.INTER.SOLV>
15.169

>  <SCORE.INTER.VDW>
-19.1741

>  <SCORE.INTER.norm>
-0.315376

>  <SCORE.INTRA>
-0.891621

>  <SCORE.INTRA.DIHEDRAL>
-5.44329

>  <SCORE.INTRA.DIHEDRAL.0>
15.9129

>  <SCORE.INTRA.POLAR>
0

>  <SCORE.INTRA.POLAR.0>
0

>  <SCORE.INTRA.REPUL>
0

>  <SCORE.INTRA.REPUL.0>
0

>  <SCORE.INTRA.SOLV>
1.39907

>  <SCORE.INTRA.SOLV.lig_0>
-75.7056

>  <SCORE.INTRA.VDW>
1.13049

>  <SCORE.INTRA.VDW.0>
-4.61812

>  <SCORE.INTRA.norm>
-0.028762

>  <SCORE.RESTR>
0

>  <SCORE.RESTR.CAVITY>
0

>  <SCORE.RESTR.norm>
0

>  <SCORE.SYSTEM>
0

>  <SCORE.SYSTEM.CONST>
0

>  <SCORE.SYSTEM.DIHEDRAL>
0

>  <SCORE.SYSTEM.SOLV>
0

>  <SCORE.SYSTEM.norm>
0

>  <SCORE.heavy>
31

>  <SCORE.norm>
-0.344138

>  <RMSD>
2.599

$$$$
ligand
 OpenBabel11021811493D
libRbt.so/2013.1/901 2013/11/27
 31 33  0  0  0  0  0  0  0  0999 V2000
   21.1097   -8.2446   -4.4868 C   0  0  2  0  0  0  0  0  0  0  0  0
   20.1283   -9.2638   -4.2537 O   0  0  0  0  0  0  0  0  0  0  0  0
   21.8251  -11.0714   -0.7835 C   0  0  2  0  0  0  0  0  0  0  0  0
   21.9324  -11.8537    0.4015 N   0  0  0  0  0  0  0  0  0  0  0  0
   22.2889  -14.3041   -1.5581 C   0  0  2  0  0  0  0  0  0  0  0  0
   20.5045   -7.2631   -5.5376 C   0  0  2  0  0  0  0  0  0  0  0  0
   19.2414   -6.7376   -5.0233 N   0  0  0  0  0  0  0  0  0  0  0  0
   20.7557   -9.9372   -0.5611 C   0  0  0  0  0  0  0  0  0  0  0  0
   23.7110  -14.5591   -0.9896 C   0  0  2  0  0  0  0  0  0  0  0  0
   24.0162  -13.5402   -0.0648 O   0  0  0  0  0  0  0  0  0  0  0  0
   20.3076   -7.9961   -6.9203 C   0  0  0  0  0  0  0  0  0  0  0  0
   20.6396   -9.0696   -1.8799 C   0  0  2  0  0  0  0  0  0  0  0  0
   19.6348   -8.0057   -1.6777 N   0  0  0  0  0  0  0  0  0  0  0  0
   24.7285  -14.5654   -2.1987 C   0  0  1  0  0  0  0  0  0  0  0  0
   26.1150  -14.7853   -1.6982 N   0  0  0  0  0  0  0  0  0  0  0  0
   21.3924   -9.1021   -7.1862 C   0  0  0  0  0  0  0  0  0  0  0  0
   20.2112  -10.0139   -3.0826 C   0  0  2  0  0  0  0  0  0  0  0  0
   24.3330  -15.7557   -3.2367 C   0  0  1  0  0  0  0  0  0  0  0  0
   24.3851  -17.0350   -2.6541 O   0  0  0  0  0  0  0  0  0  0  0  0
   22.3101   -9.4178   -6.2603 C   0  0  1  0  0  0  0  0  0  0  0  0
   22.3603   -8.7759   -5.0015 O   0  0  0  0  0  0  0  0  0  0  0  0
   21.2837  -11.1477   -3.2697 C   0  0  2  0  0  0  0  0  0  0  0  0
   20.8849  -11.9973   -4.3439 O   0  0  0  0  0  0  0  0  0  0  0  0
   22.8779  -15.5183   -3.7467 C   0  0  0  0  0  0  0  0  0  0  0  0
   21.9299  -15.3584   -2.5751 O   0  0  0  0  0  0  0  0  0  0  0  0
   23.3790  -10.5061   -6.4807 C   0  0  0  0  0  0  0  0  0  0  0  0
   24.5787   -9.8830   -6.9954 N   0  0  0  0  0  0  0  0  0  0  0  0
   21.3903  -11.9912   -1.9435 C   0  0  1  0  0  0  0  0  0  0  0  0
   22.3564  -12.9826   -2.1347 O   0  0  0  0  0  0  0  0  0  0  0  0
   25.2346  -15.8924   -4.4719 C   0  0  0  0  0  0  0  0  0  0  0  0
   26.8543  -13.5823   -1.2860 C   0  0  0  0  0  0  0  0  0  0  0  0
  1  2  1  6  0  0  0
  1  6  1  0  0  0  0
  1 21  1  0  0  0  0
  3  4  1  1  0  0  0
  3  8  1  0  0  0  0
  3 28  1  0  0  0  0
  5  9  1  0  0  0  0
  5 25  1  0  0  0  0
  5 29  1  6  0  0  0
  6  7  1  1  0  0  0
  6 11  1  0  0  0  0
  8 12  1  0  0  0  0
  9 10  1  1  0  0  0
  9 14  1  0  0  0  0
 11 16  1  0  0  0  0
 12 13  1  1  0  0  0
 12 17  1  0  0  0  0
 14 15  1  1  0  0  0
 14 18  1  0  0  0  0
 15 31  1  0  0  0  0
 16 20  1  0  0  0  0
 17  2  1  6  0  0  0
 17 22  1  0  0  0  0
 18 19  1  1  0  0  0
 18 24  1  0  0  0  0
 18 30  1  0  0  0  0
 20 21  1  0  0  0  0
 20 26  1  1  0  0  0
 22 23  1  6  0  0  0
 22 28  1  0  0  0  0
 24 25  1  0  0  0  0
 26 27  1  0  0  0  0
 28 29  1  6  0  0  0
M  END
>  <CHROM.1>
-159.86357180,-134.13464717,-86.92679272,39.02454927,93.31184972,95.32986243
22.36483253,-11.66214897,-3.28620604,2.38067135,0.91292140,-1.10167252

>  <Name>
ligand

>  <RI>
0

>  <Rbt.Current_Directory>
/home/itssahil/PROJECTS/Mol_Feturizer/New_Systems/rnas/4F8V

>  <Rbt.Executable>
rbdock ($Id: //depot/dev/client3/rdock/2013.1/src/exe/rbdock.cxx#4 $)

>  <Rbt.Library>
libRbt.so (2013.1, Build901 2013/11/27)

>  <Rbt.Parameter_File>
/export/apps/rDock/src/rDock_2013.1_src/data/scripts/dock_solv.prm

>  <Rbt.Receptor>
prm/pocket_docking_3.prm

>  <SCORE>
-6.38119

>  <SCORE.INTER>
-9.07219

>  <SCORE.INTER.CONST>
1

>  <SCORE.INTER.POLAR>
0

>  <SCORE.INTER.ROT>
6

>  <SCORE.INTER.SOLV>
19.0293

>  <SCORE.INTER.VDW>
-19.9912

>  <SCORE.INTER.norm>
-0.292651

>  <SCORE.INTRA>
2.691

>  <SCORE.INTRA.DIHEDRAL>
1.6964

>  <SCORE.INTRA.DIHEDRAL.0>
15.9129

>  <SCORE.INTRA.POLAR>
0

>  <SCORE.INTRA.POLAR.0>
0

>  <SCORE.INTRA.REPUL>
0

>  <SCORE.INTRA.REPUL.0>
0

>  <SCORE.INTRA.SOLV>
0.378204

>  <SCORE.INTRA.SOLV.lig_0>
-75.7056

>  <SCORE.INTRA.VDW>
1.6537

>  <SCORE.INTRA.VDW.0>
-4.61812

>  <SCORE.INTRA.norm>
0.0868066

>  <SCORE.RESTR>
0

>  <SCORE.RESTR.CAVITY>
0

>  <SCORE.RESTR.norm>
0

>  <SCORE.SYSTEM>
0

>  <SCORE.SYSTEM.CONST>
0

>  <SCORE.SYSTEM.DIHEDRAL>
0

>  <SCORE.SYSTEM.SOLV>
0

>  <SCORE.SYSTEM.norm>
0

>  <SCORE.heavy>
31

>  <SCORE.norm>
-0.205845

>  <RMSD>
2.621

$$$$
ligand
 OpenBabel11021811493D
libRbt.so/2013.1/901 2013/11/27
 31 33  0  0  0  0  0  0  0  0999 V2000
   22.4431   -8.7226   -6.3584 C   0  0  2  0  0  0  0  0  0  0  0  0
   23.1376   -8.1417   -5.2464 O   0  0  0  0  0  0  0  0  0  0  0  0
   24.5101   -9.9744   -1.6483 C   0  0  2  0  0  0  0  0  0  0  0  0
   24.4829  -10.6637   -0.4025 N   0  0  0  0  0  0  0  0  0  0  0  0
   24.7743  -13.0146   -1.7712 C   0  0  2  0  0  0  0  0  0  0  0  0
   22.7887   -7.8593   -7.6110 C   0  0  2  0  0  0  0  0  0  0  0  0
   24.2394   -7.8385   -7.7871 N   0  0  0  0  0  0  0  0  0  0  0  0
   23.7018   -8.6297   -1.5146 C   0  0  0  0  0  0  0  0  0  0  0  0
   25.6674  -14.1291   -2.3800 C   0  0  2  0  0  0  0  0  0  0  0  0
   26.8699  -13.5477   -2.8299 O   0  0  0  0  0  0  0  0  0  0  0  0
   22.2032   -6.4035   -7.4499 C   0  0  0  0  0  0  0  0  0  0  0  0
   23.7345   -7.8662   -2.9008 C   0  0  2  0  0  0  0  0  0  0  0  0
   22.9745   -6.6050   -2.7818 N   0  0  0  0  0  0  0  0  0  0  0  0
   24.8711  -14.8014   -3.5679 C   0  0  1  0  0  0  0  0  0  0  0  0
   25.6999  -15.8664   -4.2001 N   0  0  0  0  0  0  0  0  0  0  0  0
   20.8628   -6.3708   -6.6294 C   0  0  0  0  0  0  0  0  0  0  0  0
   23.0929   -8.7957   -4.0170 C   0  0  2  0  0  0  0  0  0  0  0  0
   23.4930  -15.4551   -2.9983 C   0  0  1  0  0  0  0  0  0  0  0  0
   23.7148  -16.4584   -2.0377 O   0  0  0  0  0  0  0  0  0  0  0  0
   20.3621   -7.4793   -6.0640 C   0  0  1  0  0  0  0  0  0  0  0  0
   21.0017   -8.7354   -6.1761 O   0  0  0  0  0  0  0  0  0  0  0  0
   23.9052  -10.1378   -4.1156 C   0  0  2  0  0  0  0  0  0  0  0  0
   23.3151  -10.9706   -5.1119 O   0  0  0  0  0  0  0  0  0  0  0  0
   22.6388  -14.3321   -2.3327 C   0  0  0  0  0  0  0  0  0  0  0  0
   23.4615  -13.5884   -1.2998 O   0  0  0  0  0  0  0  0  0  0  0  0
   19.0591   -7.4817   -5.2410 C   0  0  0  0  0  0  0  0  0  0  0  0
   18.4153   -6.1943   -5.3843 N   0  0  0  0  0  0  0  0  0  0  0  0
   23.8682  -10.8752   -2.7239 C   0  0  1  0  0  0  0  0  0  0  0  0
   24.6055  -12.0568   -2.8378 O   0  0  0  0  0  0  0  0  0  0  0  0
   22.6037  -16.1513   -4.0383 C   0  0  0  0  0  0  0  0  0  0  0  0
   25.8555  -15.7862   -5.6607 C   0  0  0  0  0  0  0  0  0  0  0  0
  1  2  1  1  0  0  0
  1  6  1  0  0  0  0
  1 21  1  0  0  0  0
  3  4  1  1  0  0  0
  3  8  1  0  0  0  0
  3 28  1  0  0  0  0
  5  9  1  0  0  0  0
  5 25  1  0  0  0  0
  5 29  1  6  0  0  0
  6  7  1  1  0  0  0
  6 11  1  0  0  0  0
  8 12  1  0  0  0  0
  9 10  1  6  0  0  0
  9 14  1  0  0  0  0
 11 16  1  0  0  0  0
 12 13  1  1  0  0  0
 12 17  1  0  0  0  0
 14 15  1  1  0  0  0
 14 18  1  0  0  0  0
 15 31  1  0  0  0  0
 16 20  1  0  0  0  0
 17  2  1  6  0  0  0
 17 22  1  0  0  0  0
 18 19  1  1  0  0  0
 18 24  1  0  0  0  0
 18 30  1  0  0  0  0
 20 21  1  0  0  0  0
 20 26  1  1  0  0  0
 22 23  1  6  0  0  0
 22 28  1  0  0  0  0
 24 25  1  0  0  0  0
 26 27  1  0  0  0  0
 28 29  1  6  0  0  0
M  END
>  <CHROM.1>
-174.42294582,-179.62059527,-127.96874667,-171.39538282,9.07509586,62.30849649
23.31013652,-10.85442362,-4.03521571,2.68844962,-1.15329024,0.71142440

>  <Name>
ligand

>  <RI>
0

>  <Rbt.Current_Directory>
/home/itssahil/PROJECTS/Mol_Feturizer/New_Systems/rnas/4F8V

>  <Rbt.Executable>
rbdock ($Id: //depot/dev/client3/rdock/2013.1/src/exe/rbdock.cxx#4 $)

>  <Rbt.Library>
libRbt.so (2013.1, Build901 2013/11/27)

>  <Rbt.Parameter_File>
/export/apps/rDock/src/rDock_2013.1_src/data/scripts/dock_solv.prm

>  <Rbt.Receptor>
prm/pocket_docking_7.prm

>  <SCORE>
-9.7241

>  <SCORE.INTER>
-5.50782

>  <SCORE.INTER.CONST>
1

>  <SCORE.INTER.POLAR>
0

>  <SCORE.INTER.ROT>
6

>  <SCORE.INTER.SOLV>
11.2617

>  <SCORE.INTER.VDW>
-15.0258

>  <SCORE.INTER.norm>
-0.177672

>  <SCORE.INTRA>
-4.21628

>  <SCORE.INTRA.DIHEDRAL>
-12.4353

>  <SCORE.INTRA.DIHEDRAL.0>
15.9129

>  <SCORE.INTRA.POLAR>
0

>  <SCORE.INTRA.POLAR.0>
0

>  <SCORE.INTRA.REPUL>
0

>  <SCORE.INTRA.REPUL.0>
0

>  <SCORE.INTRA.SOLV>
-2.02522

>  <SCORE.INTRA.SOLV.lig_0>
-75.7056

>  <SCORE.INTRA.VDW>
3.014

>  <SCORE.INTRA.VDW.0>
-4.61812

>  <SCORE.INTRA.norm>
-0.136009

>  <SCORE.RESTR>
0

>  <SCORE.RESTR.CAVITY>
0

>  <SCORE.RESTR.norm>
0

>  <SCORE.SYSTEM>
0

>  <SCORE.SYSTEM.CONST>
0

>  <SCORE.SYSTEM.DIHEDRAL>
0

>  <SCORE.SYSTEM.SOLV>
0

>  <SCORE.SYSTEM.norm>
0

>  <SCORE.heavy>
31

>  <SCORE.norm>
-0.313681

>  <RMSD>
2.622

$$$$
ligand
 OpenBabel11021811493D
libRbt.so/2013.1/901 2013/11/27
 31 33  0  0  0  0  0  0  0  0999 V2000
   21.2626   -8.9388   -6.7314 C   0  0  2  0  0  0  0  0  0  0  0  0
   21.6269   -8.9647   -5.3447 O   0  0  0  0  0  0  0  0  0  0  0  0
   21.9832  -12.2241   -2.6175 C   0  0  2  0  0  0  0  0  0  0  0  0
   21.6329  -13.3702   -1.8483 N   0  0  0  0  0  0  0  0  0  0  0  0
   22.3109  -14.9959   -4.1620 C   0  0  2  0  0  0  0  0  0  0  0  0
   22.0358   -7.7502   -7.3820 C   0  0  2  0  0  0  0  0  0  0  0  0
   23.4687   -7.9427   -7.1680 N   0  0  0  0  0  0  0  0  0  0  0  0
   21.0764  -11.0119   -2.1842 C   0  0  0  0  0  0  0  0  0  0  0  0
   23.5962  -15.7581   -4.5831 C   0  0  2  0  0  0  0  0  0  0  0  0
   24.6931  -15.2111   -3.8874 O   0  0  0  0  0  0  0  0  0  0  0  0
   21.5385   -6.3797   -6.7800 C   0  0  0  0  0  0  0  0  0  0  0  0
   21.4689   -9.7400   -3.0408 C   0  0  2  0  0  0  0  0  0  0  0  0
   20.6185   -8.6003   -2.6406 N   0  0  0  0  0  0  0  0  0  0  0  0
   23.7682  -15.6030   -6.1463 C   0  0  1  0  0  0  0  0  0  0  0  0
   25.0054  -16.3020   -6.5958 N   0  0  0  0  0  0  0  0  0  0  0  0
   20.0183   -6.4029   -6.3807 C   0  0  0  0  0  0  0  0  0  0  0  0
   21.2623  -10.0708   -4.5801 C   0  0  2  0  0  0  0  0  0  0  0  0
   22.4781  -16.2469   -6.9025 C   0  0  1  0  0  0  0  0  0  0  0  0
   22.3171  -17.6204   -6.6450 O   0  0  0  0  0  0  0  0  0  0  0  0
   19.2888   -7.5248   -6.4718 C   0  0  1  0  0  0  0  0  0  0  0  0
   19.8372   -8.7432   -6.9344 O   0  0  0  0  0  0  0  0  0  0  0  0
   22.1621  -11.2957   -4.9809 C   0  0  2  0  0  0  0  0  0  0  0  0
   21.9613  -11.5927   -6.3615 O   0  0  0  0  0  0  0  0  0  0  0  0
   21.1901  -15.5123   -6.4177 C   0  0  0  0  0  0  0  0  0  0  0  0
   21.1122  -15.5314   -4.9044 O   0  0  0  0  0  0  0  0  0  0  0  0
   17.8007   -7.5879   -6.0756 C   0  0  0  0  0  0  0  0  0  0  0  0
   17.6748   -8.3615   -4.8599 N   0  0  0  0  0  0  0  0  0  0  0  0
   21.7620  -12.5460   -4.1101 C   0  0  1  0  0  0  0  0  0  0  0  0
   22.5835  -13.6145   -4.4795 O   0  0  0  0  0  0  0  0  0  0  0  0
   22.4971  -16.1741   -8.4360 C   0  0  0  0  0  0  0  0  0  0  0  0
   26.2545  -15.5299   -6.5097 C   0  0  0  0  0  0  0  0  0  0  0  0
  1  2  1  1  0  0  0
  1  6  1  0  0  0  0
  1 21  1  0  0  0  0
  3  4  1  1  0  0  0
  3  8  1  0  0  0  0
  3 28  1  0  0  0  0
  5  9  1  0  0  0  0
  5 25  1  0  0  0  0
  5 29  1  6  0  0  0
  6  7  1  1  0  0  0
  6 11  1  0  0  0  0
  8 12  1  0  0  0  0
  9 10  1  1  0  0  0
  9 14  1  0  0  0  0
 11 16  1  0  0  0  0
 12 13  1  1  0  0  0
 12 17  1  0  0  0  0
 14 15  1  6  0  0  0
 14 18  1  0  0  0  0
 15 31  1  0  0  0  0
 16 20  1  0  0  0  0
 17  2  1  6  0  0  0
 17 22  1  0  0  0  0
 18 19  1  1  0  0  0
 18 24  1  0  0  0  0
 18 30  1  0  0  0  0
 20 21  1  0  0  0  0
 20 26  1  1  0  0  0
 22 23  1  6  0  0  0
 22 28  1  0  0  0  0
 24 25  1  0  0  0  0
 26 27  1  0  0  0  0
 28 29  1  6  0  0  0
M  END
>  <CHROM.1>
-168.83819956,-171.52032973,-85.57517463,-167.21288573,-109.30800290,77.24758969
21.82873447,-11.88845785,-5.37709909,-2.56171809,-1.13075338,2.19567670

>  <Name>
ligand

>  <RI>
0

>  <Rbt.Current_Directory>
/home/itssahil/PROJECTS/Mol_Feturizer/New_Systems/rnas/4F8V

>  <Rbt.Executable>
rbdock ($Id: //depot/dev/client3/rdock/2013.1/src/exe/rbdock.cxx#4 $)

>  <Rbt.Library>
libRbt.so (2013.1, Build901 2013/11/27)

>  <Rbt.Parameter_File>
/export/apps/rDock/src/rDock_2013.1_src/data/scripts/dock_solv.prm

>  <Rbt.Receptor>
prm/pocket_docking_7.prm

>  <SCORE>
-10.686

>  <SCORE.INTER>
-6.72734

>  <SCORE.INTER.CONST>
1

>  <SCORE.INTER.POLAR>
0

>  <SCORE.INTER.ROT>
6

>  <SCORE.INTER.SOLV>
13.1206

>  <SCORE.INTER.VDW>
-16.4584

>  <SCORE.INTER.norm>
-0.217011

>  <SCORE.INTRA>
-3.95866

>  <SCORE.INTRA.DIHEDRAL>
-10.5262

>  <SCORE.INTRA.DIHEDRAL.0>
15.9129

>  <SCORE.INTRA.POLAR>
0

>  <SCORE.INTRA.POLAR.0>
0

>  <SCORE.INTRA.REPUL>
0

>  <SCORE.INTRA.REPUL.0>
0

>  <SCORE.INTRA.SOLV>
-0.192714

>  <SCORE.INTRA.SOLV.lig_0>
-75.7056

>  <SCORE.INTRA.VDW>
1.40081

>  <SCORE.INTRA.VDW.0>
-4.61812

>  <SCORE.INTRA.norm>
-0.127699

>  <SCORE.RESTR>
0

>  <SCORE.RESTR.CAVITY>
0

>  <SCORE.RESTR.norm>
0

>  <SCORE.SYSTEM>
0

>  <SCORE.SYSTEM.CONST>
0

>  <SCORE.SYSTEM.DIHEDRAL>
0

>  <SCORE.SYSTEM.SOLV>
0

>  <SCORE.SYSTEM.norm>
0

>  <SCORE.heavy>
31

>  <SCORE.norm>
-0.34471

>  <RMSD>
2.686

$$$$
ligand
 OpenBabel11021811493D
libRbt.so/2013.1/901 2013/11/27
 31 33  0  0  0  0  0  0  0  0999 V2000
   19.2596   -8.0413   -6.0423 C   0  0  2  0  0  0  0  0  0  0  0  0
   19.7900   -7.9101   -4.7164 O   0  0  0  0  0  0  0  0  0  0  0  0
   21.1280  -10.9927   -2.0904 C   0  0  2  0  0  0  0  0  0  0  0  0
   21.0943  -12.1325   -1.2373 N   0  0  0  0  0  0  0  0  0  0  0  0
   22.8141  -12.2164   -4.3311 C   0  0  2  0  0  0  0  0  0  0  0  0
   19.5956   -6.7189   -6.7987 C   0  0  2  0  0  0  0  0  0  0  0  0
   21.0426   -6.5143   -6.7764 N   0  0  0  0  0  0  0  0  0  0  0  0
   20.2242   -9.8587   -1.4765 C   0  0  0  0  0  0  0  0  0  0  0  0
   23.1463  -13.3654   -5.3211 C   0  0  2  0  0  0  0  0  0  0  0  0
   22.2844  -13.2667   -6.4318 O   0  0  0  0  0  0  0  0  0  0  0  0
   18.8282   -5.5054   -6.1456 C   0  0  0  0  0  0  0  0  0  0  0  0
   20.2644   -8.5936   -2.4269 C   0  0  2  0  0  0  0  0  0  0  0  0
   19.4151   -7.5276   -1.8572 N   0  0  0  0  0  0  0  0  0  0  0  0
   22.9548  -14.7378   -4.5614 C   0  0  1  0  0  0  0  0  0  0  0  0
   23.2418  -15.8749   -5.4811 N   0  0  0  0  0  0  0  0  0  0  0  0
   17.4336   -5.9147   -5.5469 C   0  0  0  0  0  0  0  0  0  0  0  0
   19.7371   -9.0118   -3.8652 C   0  0  2  0  0  0  0  0  0  0  0  0
   23.9686  -14.8019   -3.2892 C   0  0  1  0  0  0  0  0  0  0  0  0
   25.3236  -14.7274   -3.6598 O   0  0  0  0  0  0  0  0  0  0  0  0
   17.0275   -7.1930   -5.5317 C   0  0  1  0  0  0  0  0  0  0  0  0
   17.8204   -8.2403   -6.0547 O   0  0  0  0  0  0  0  0  0  0  0  0
   20.6432  -10.1575   -4.4457 C   0  0  2  0  0  0  0  0  0  0  0  0
   20.1553  -10.5345   -5.7320 O   0  0  0  0  0  0  0  0  0  0  0  0
   23.6632  -13.6028   -2.3391 C   0  0  0  0  0  0  0  0  0  0  0  0
   23.6967  -12.2990   -3.1109 O   0  0  0  0  0  0  0  0  0  0  0  0
   15.6738   -7.6323   -4.9402 C   0  0  0  0  0  0  0  0  0  0  0  0
   14.9699   -6.4605   -4.4672 N   0  0  0  0  0  0  0  0  0  0  0  0
   20.5967  -11.4014   -3.4800 C   0  0  1  0  0  0  0  0  0  0  0  0
   21.4177  -12.3981   -4.0143 O   0  0  0  0  0  0  0  0  0  0  0  0
   23.9024  -16.0830   -2.4456 C   0  0  0  0  0  0  0  0  0  0  0  0
   22.0715  -16.5520   -6.0606 C   0  0  0  0  0  0  0  0  0  0  0  0
  1  2  1  1  0  0  0
  1  6  1  0  0  0  0
  1 21  1  0  0  0  0
  3  4  1  1  0  0  0
  3  8  1  0  0  0  0
  3 28  1  0  0  0  0
  5  9  1  0  0  0  0
  5 25  1  0  0  0  0
  5 29  1  1  0  0  0
  6  7  1  1  0  0  0
  6 11  1  0  0  0  0
  8 12  1  0  0  0  0
  9 10  1  6  0  0  0
  9 14  1  0  0  0  0
 11 16  1  0  0  0  0
 12 13  1  1  0  0  0
 12 17  1  0  0  0  0
 14 15  1  6  0  0  0
 14 18  1  0  0  0  0
 15 31  1  0  0  0  0
 16 20  1  0  0  0  0
 17  2  1  6  0  0  0
 17 22  1  0  0  0  0
 18 19  1  6  0  0  0
 18 24  1  0  0  0  0
 18 30  1  0  0  0  0
 20 21  1  0  0  0  0
 20 26  1  1  0  0  0
 22 23  1  6  0  0  0
 22 28  1  0  0  0  0
 24 25  1  0  0  0  0
 26 27  1  0  0  0  0
 28 29  1  6  0  0  0
M  END
>  <CHROM.1>
-173.96280781,-160.64624271,-100.63953392,-175.20976101,1.23051940,-62.93357537
20.76968433,-10.69357777,-4.36132701,-3.12967330,-0.95551913,1.42608262

>  <Name>
ligand

>  <RI>
0

>  <Rbt.Current_Directory>
/home/itssahil/PROJECTS/Mol_Feturizer/New_Systems/rnas/4F8V

>  <Rbt.Executable>
rbdock ($Id: //depot/dev/client3/rdock/2013.1/src/exe/rbdock.cxx#4 $)

>  <Rbt.Library>
libRbt.so (2013.1, Build901 2013/11/27)

>  <Rbt.Parameter_File>
/export/apps/rDock/src/rDock_2013.1_src/data/scripts/dock_solv.prm

>  <Rbt.Receptor>
prm/pocket_docking_3.prm

>  <SCORE>
-13.2506

>  <SCORE.INTER>
-9.75501

>  <SCORE.INTER.CONST>
1

>  <SCORE.INTER.POLAR>
0

>  <SCORE.INTER.ROT>
6

>  <SCORE.INTER.SOLV>
20.9478

>  <SCORE.INTER.VDW>
-21.086

>  <SCORE.INTER.norm>
-0.314678

>  <SCORE.INTRA>
-3.50443

>  <SCORE.INTRA.DIHEDRAL>
-11.2814

>  <SCORE.INTRA.DIHEDRAL.0>
15.9129

>  <SCORE.INTRA.POLAR>
0

>  <SCORE.INTRA.POLAR.0>
0

>  <SCORE.INTRA.REPUL>
0

>  <SCORE.INTRA.REPUL.0>
0

>  <SCORE.INTRA.SOLV>
-1.51359

>  <SCORE.INTRA.SOLV.lig_0>
-75.7056

>  <SCORE.INTRA.VDW>
2.89307

>  <SCORE.INTRA.VDW.0>
-4.61812

>  <SCORE.INTRA.norm>
-0.113046

>  <SCORE.RESTR>
0.00882431

>  <SCORE.RESTR.CAVITY>
0.00882431

>  <SCORE.RESTR.norm>
0.000284655

>  <SCORE.SYSTEM>
0

>  <SCORE.SYSTEM.CONST>
0

>  <SCORE.SYSTEM.DIHEDRAL>
0

>  <SCORE.SYSTEM.SOLV>
0

>  <SCORE.SYSTEM.norm>
0

>  <SCORE.heavy>
31

>  <SCORE.norm>
-0.427439

>  <RMSD>
2.724

$$$$
ligand
 OpenBabel11021811493D
libRbt.so/2013.1/901 2013/11/27
 31 33  0  0  0  0  0  0  0  0999 V2000
   20.4189   -8.1795   -4.3317 C   0  0  2  0  0  0  0  0  0  0  0  0
   21.6852   -8.8019   -4.0755 O   0  0  0  0  0  0  0  0  0  0  0  0
   23.2736  -10.8149   -0.6676 C   0  0  2  0  0  0  0  0  0  0  0  0
   23.3970  -11.7558    0.3941 N   0  0  0  0  0  0  0  0  0  0  0  0
   24.7584  -13.4615   -1.3773 C   0  0  2  0  0  0  0  0  0  0  0  0
   19.5761   -9.1920   -5.1674 C   0  0  2  0  0  0  0  0  0  0  0  0
   19.4608  -10.4431   -4.4208 N   0  0  0  0  0  0  0  0  0  0  0  0
   21.9574   -9.9745   -0.4653 C   0  0  0  0  0  0  0  0  0  0  0  0
   25.7006  -14.2898   -2.2920 C   0  0  2  0  0  0  0  0  0  0  0  0
   26.7892  -13.4786   -2.6704 O   0  0  0  0  0  0  0  0  0  0  0  0
   20.2385   -9.4190   -6.5807 C   0  0  0  0  0  0  0  0  0  0  0  0
   21.8238   -8.9296   -1.6468 C   0  0  2  0  0  0  0  0  0  0  0  0
   20.5884   -8.1406   -1.4636 N   0  0  0  0  0  0  0  0  0  0  0  0
   24.8698  -14.7651   -3.5495 C   0  0  1  0  0  0  0  0  0  0  0  0
   25.7410  -15.5481   -4.4708 N   0  0  0  0  0  0  0  0  0  0  0  0
   20.9765   -8.1413   -7.1226 C   0  0  0  0  0  0  0  0  0  0  0  0
   21.7798   -9.7142   -3.0267 C   0  0  2  0  0  0  0  0  0  0  0  0
   23.6260  -15.6948   -3.0605 C   0  0  1  0  0  0  0  0  0  0  0  0
   24.0391  -16.8563   -2.3829 O   0  0  0  0  0  0  0  0  0  0  0  0
   21.0859   -7.0297   -6.3800 C   0  0  1  0  0  0  0  0  0  0  0  0
   20.5431   -6.9388   -5.0775 O   0  0  0  0  0  0  0  0  0  0  0  0
   23.0943  -10.5597   -3.1940 C   0  0  2  0  0  0  0  0  0  0  0  0
   23.0407  -11.2695   -4.4301 O   0  0  0  0  0  0  0  0  0  0  0  0
   22.7269  -14.8666   -2.0913 C   0  0  0  0  0  0  0  0  0  0  0  0
   23.5618  -14.2838   -0.9688 O   0  0  0  0  0  0  0  0  0  0  0  0
   21.8145   -5.7641   -6.8729 C   0  0  0  0  0  0  0  0  0  0  0  0
   23.1234   -6.1403   -7.3601 N   0  0  0  0  0  0  0  0  0  0  0  0
   23.2122  -11.5846   -2.0034 C   0  0  1  0  0  0  0  0  0  0  0  0
   24.3926  -12.3134   -2.1719 O   0  0  0  0  0  0  0  0  0  0  0  0
   22.7195  -16.2383   -4.1741 C   0  0  0  0  0  0  0  0  0  0  0  0
   26.0407  -14.9230   -5.7682 C   0  0  0  0  0  0  0  0  0  0  0  0
  1  2  1  6  0  0  0
  1  6  1  0  0  0  0
  1 21  1  0  0  0  0
  3  4  1  1  0  0  0
  3  8  1  0  0  0  0
  3 28  1  0  0  0  0
  5  9  1  0  0  0  0
  5 25  1  0  0  0  0
  5 29  1  6  0  0  0
  6  7  1  1  0  0  0
  6 11  1  0  0  0  0
  8 12  1  0  0  0  0
  9 10  1  6  0  0  0
  9 14  1  0  0  0  0
 11 16  1  0  0  0  0
 12 13  1  1  0  0  0
 12 17  1  0  0  0  0
 14 15  1  6  0  0  0
 14 18  1  0  0  0  0
 15 31  1  0  0  0  0
 16 20  1  0  0  0  0
 17  2  1  6  0  0  0
 17 22  1  0  0  0  0
 18 19  1  1  0  0  0
 18 24  1  0  0  0  0
 18 30  1  0  0  0  0
 20 21  1  0  0  0  0
 20 26  1  1  0  0  0
 22 23  1  6  0  0  0
 22 28  1  0  0  0  0
 24 25  1  0  0  0  0
 26 27  1  0  0  0  0
 28 29  1  6  0  0  0
M  END
>  <CHROM.1>
-81.48712534,154.05184590,-111.99607345,-76.46451437,-50.81368612,69.27534650
22.80254424,-11.30958343,-3.51960832,2.65942721,1.07907507,-1.39243616

>  <Name>
ligand

>  <RI>
0

>  <Rbt.Current_Directory>
/home/itssahil/PROJECTS/Mol_Feturizer/New_Systems/rnas/4F8V

>  <Rbt.Executable>
rbdock ($Id: //depot/dev/client3/rdock/2013.1/src/exe/rbdock.cxx#4 $)

>  <Rbt.Library>
libRbt.so (2013.1, Build901 2013/11/27)

>  <Rbt.Parameter_File>
/export/apps/rDock/src/rDock_2013.1_src/data/scripts/dock_solv.prm

>  <Rbt.Receptor>
prm/pocket_docking_4.prm

>  <SCORE>
-6.126

>  <SCORE.INTER>
-6.53263

>  <SCORE.INTER.CONST>
1

>  <SCORE.INTER.POLAR>
0

>  <SCORE.INTER.ROT>
6

>  <SCORE.INTER.SOLV>
13.9948

>  <SCORE.INTER.VDW>
-16.62

>  <SCORE.INTER.norm>
-0.21073

>  <SCORE.INTRA>
0.406629

>  <SCORE.INTRA.DIHEDRAL>
-4.70938

>  <SCORE.INTRA.DIHEDRAL.0>
15.9129

>  <SCORE.INTRA.POLAR>
0

>  <SCORE.INTRA.POLAR.0>
0

>  <SCORE.INTRA.REPUL>
0

>  <SCORE.INTRA.REPUL.0>
0

>  <SCORE.INTRA.SOLV>
1.69178

>  <SCORE.INTRA.SOLV.lig_0>
-75.7056

>  <SCORE.INTRA.VDW>
1.91543

>  <SCORE.INTRA.VDW.0>
-4.61812

>  <SCORE.INTRA.norm>
0.0131171

>  <SCORE.RESTR>
0

>  <SCORE.RESTR.CAVITY>
0

>  <SCORE.RESTR.norm>
0

>  <SCORE.SYSTEM>
0

>  <SCORE.SYSTEM.CONST>
0

>  <SCORE.SYSTEM.DIHEDRAL>
0

>  <SCORE.SYSTEM.SOLV>
0

>  <SCORE.SYSTEM.norm>
0

>  <SCORE.heavy>
31

>  <SCORE.norm>
-0.197613

>  <RMSD>
2.762

$$$$
ligand
 OpenBabel11021811493D
libRbt.so/2013.1/901 2013/11/27
 31 33  0  0  0  0  0  0  0  0999 V2000
   22.6060   -8.3672   -6.6835 C   0  0  2  0  0  0  0  0  0  0  0  0
   23.2910   -7.8699   -5.5259 O   0  0  0  0  0  0  0  0  0  0  0  0
   24.4833   -9.8925   -1.9656 C   0  0  2  0  0  0  0  0  0  0  0  0
   24.3934  -10.6390   -0.7562 N   0  0  0  0  0  0  0  0  0  0  0  0
   24.8265  -12.8598   -2.1783 C   0  0  2  0  0  0  0  0  0  0  0  0
   22.9439   -7.4014   -7.8611 C   0  0  2  0  0  0  0  0  0  0  0  0
   24.3946   -7.3491   -8.0303 N   0  0  0  0  0  0  0  0  0  0  0  0
   23.6904   -8.5420   -1.8015 C   0  0  0  0  0  0  0  0  0  0  0  0
   25.6704  -13.9918   -2.8239 C   0  0  2  0  0  0  0  0  0  0  0  0
   26.8461  -13.4283   -3.3592 O   0  0  0  0  0  0  0  0  0  0  0  0
   22.3403   -5.9705   -7.5848 C   0  0  0  0  0  0  0  0  0  0  0  0
   23.7928   -7.7149   -3.1473 C   0  0  2  0  0  0  0  0  0  0  0  0
   23.0475   -6.4480   -2.9999 N   0  0  0  0  0  0  0  0  0  0  0  0
   24.7947  -14.6765   -3.9472 C   0  0  1  0  0  0  0  0  0  0  0  0
   25.5734  -15.7589   -4.6129 N   0  0  0  0  0  0  0  0  0  0  0  0
   20.9979   -6.0202   -6.7686 C   0  0  0  0  0  0  0  0  0  0  0  0
   23.1848   -8.5800   -4.3320 C   0  0  2  0  0  0  0  0  0  0  0  0
   23.4509  -15.3087   -3.2801 C   0  0  1  0  0  0  0  0  0  0  0  0
   23.7258  -16.2981   -2.3187 O   0  0  0  0  0  0  0  0  0  0  0  0
   20.5095   -7.1768   -6.2962 C   0  0  1  0  0  0  0  0  0  0  0  0
   21.1645   -8.4119   -6.5074 O   0  0  0  0  0  0  0  0  0  0  0  0
   23.9803   -9.9296   -4.4607 C   0  0  2  0  0  0  0  0  0  0  0  0
   23.4201  -10.7046   -5.5191 O   0  0  0  0  0  0  0  0  0  0  0  0
   22.6495  -14.1676   -2.5804 C   0  0  0  0  0  0  0  0  0  0  0  0
   23.5422  -13.4144   -1.6147 O   0  0  0  0  0  0  0  0  0  0  0  0
   19.2047   -7.2613   -5.4802 C   0  0  0  0  0  0  0  0  0  0  0  0
   18.4752   -6.0223   -5.6387 N   0  0  0  0  0  0  0  0  0  0  0  0
   23.8737  -10.7308   -3.1085 C   0  0  1  0  0  0  0  0  0  0  0  0
   24.5974  -11.9181   -3.2480 O   0  0  0  0  0  0  0  0  0  0  0  0
   22.4917  -16.0140   -4.2494 C   0  0  0  0  0  0  0  0  0  0  0  0
   26.1527  -15.4290   -5.9241 C   0  0  0  0  0  0  0  0  0  0  0  0
  1  2  1  1  0  0  0
  1  6  1  0  0  0  0
  1 21  1  0  0  0  0
  3  4  1  1  0  0  0
  3  8  1  0  0  0  0
  3 28  1  0  0  0  0
  5  9  1  0  0  0  0
  5 25  1  0  0  0  0
  5 29  1  6  0  0  0
  6  7  1  1  0  0  0
  6 11  1  0  0  0  0
  8 12  1  0  0  0  0
  9 10  1  6  0  0  0
  9 14  1  0  0  0  0
 11 16  1  0  0  0  0
 12 13  1  1  0  0  0
 12 17  1  0  0  0  0
 14 15  1  1  0  0  0
 14 18  1  0  0  0  0
 15 31  1  0  0  0  0
 16 20  1  0  0  0  0
 17  2  1  6  0  0  0
 17 22  1  0  0  0  0
 18 19  1  1  0  0  0
 18 24  1  0  0  0  0
 18 30  1  0  0  0  0
 20 21  1  0  0  0  0
 20 26  1  1  0  0  0
 22 23  1  6  0  0  0
 22 28  1  0  0  0  0
 24 25  1  0  0  0  0
 26 27  1  0  0  0  0
 28 29  1  6  0  0  0
M  END
>  <CHROM.1>
-178.24246908,-179.86569861,-101.43121709,-169.76911241,15.15589765,55.36846074
23.36791766,-10.64005123,-4.34220963,2.91279695,-1.21088649,0.97305119

>  <Name>
ligand

>  <RI>
0

>  <Rbt.Current_Directory>
/home/itssahil/PROJECTS/Mol_Feturizer/New_Systems/rnas/4F8V

>  <Rbt.Executable>
rbdock ($Id: //depot/dev/client3/rdock/2013.1/src/exe/rbdock.cxx#4 $)

>  <Rbt.Library>
libRbt.so (2013.1, Build901 2013/11/27)

>  <Rbt.Parameter_File>
/export/apps/rDock/src/rDock_2013.1_src/data/scripts/dock_solv.prm

>  <Rbt.Receptor>
prm/pocket_docking_5.prm

>  <SCORE>
-9.24612

>  <SCORE.INTER>
-5.45038

>  <SCORE.INTER.CONST>
1

>  <SCORE.INTER.POLAR>
0

>  <SCORE.INTER.ROT>
6

>  <SCORE.INTER.SOLV>
11.3114

>  <SCORE.INTER.VDW>
-15.0041

>  <SCORE.INTER.norm>
-0.175819

>  <SCORE.INTRA>
-3.79573

>  <SCORE.INTRA.DIHEDRAL>
-12.3786

>  <SCORE.INTRA.DIHEDRAL.0>
15.9129

>  <SCORE.INTRA.POLAR>
0

>  <SCORE.INTRA.POLAR.0>
0

>  <SCORE.INTRA.REPUL>
0

>  <SCORE.INTRA.REPUL.0>
0

>  <SCORE.INTRA.SOLV>
-1.6929

>  <SCORE.INTRA.SOLV.lig_0>
-75.7056

>  <SCORE.INTRA.VDW>
3.24002

>  <SCORE.INTRA.VDW.0>
-4.61812

>  <SCORE.INTRA.norm>
-0.122443

>  <SCORE.RESTR>
0

>  <SCORE.RESTR.CAVITY>
0

>  <SCORE.RESTR.norm>
0

>  <SCORE.SYSTEM>
0

>  <SCORE.SYSTEM.CONST>
0

>  <SCORE.SYSTEM.DIHEDRAL>
0

>  <SCORE.SYSTEM.SOLV>
0

>  <SCORE.SYSTEM.norm>
0

>  <SCORE.heavy>
31

>  <SCORE.norm>
-0.298262

>  <RMSD>
2.785

$$$$
ligand
 OpenBabel11021811493D
libRbt.so/2013.1/901 2013/11/27
 31 33  0  0  0  0  0  0  0  0999 V2000
   21.0162   -8.9082   -6.5926 C   0  0  2  0  0  0  0  0  0  0  0  0
   21.9152   -9.4636   -5.6233 O   0  0  0  0  0  0  0  0  0  0  0  0
   21.4115  -10.8213   -1.6119 C   0  0  2  0  0  0  0  0  0  0  0  0
   20.8929  -11.5399   -0.4971 N   0  0  0  0  0  0  0  0  0  0  0  0
   22.6982  -13.8784   -1.4422 C   0  0  2  0  0  0  0  0  0  0  0  0
   20.6880  -10.0437   -7.6108 C   0  0  2  0  0  0  0  0  0  0  0  0
   20.1219  -11.1805   -6.8873 N   0  0  0  0  0  0  0  0  0  0  0  0
   20.2753   -9.9158   -2.2190 C   0  0  0  0  0  0  0  0  0  0  0  0
   24.0950  -14.2863   -0.9010 C   0  0  2  0  0  0  0  0  0  0  0  0
   24.5709  -13.2588   -0.0618 O   0  0  0  0  0  0  0  0  0  0  0  0
   21.9847  -10.4527   -8.4102 C   0  0  0  0  0  0  0  0  0  0  0  0
   20.8553   -9.1184   -3.4573 C   0  0  2  0  0  0  0  0  0  0  0  0
   19.7922   -8.2695   -4.0330 N   0  0  0  0  0  0  0  0  0  0  0  0
   25.0529  -14.5126   -2.1373 C   0  0  1  0  0  0  0  0  0  0  0  0
   26.4164  -14.8856   -1.6652 N   0  0  0  0  0  0  0  0  0  0  0  0
   22.9704   -9.2488   -8.6340 C   0  0  0  0  0  0  0  0  0  0  0  0
   21.3813  -10.1558   -4.5384 C   0  0  2  0  0  0  0  0  0  0  0  0
   24.4600  -15.7048   -3.0742 C   0  0  1  0  0  0  0  0  0  0  0  0
   24.3636  -16.9372   -2.4029 O   0  0  0  0  0  0  0  0  0  0  0  0
   22.7334   -8.0425   -8.0974 C   0  0  1  0  0  0  0  0  0  0  0  0
   21.5888   -7.7815   -7.3094 O   0  0  0  0  0  0  0  0  0  0  0  0
   22.4986  -11.0594   -3.9013 C   0  0  2  0  0  0  0  0  0  0  0  0
   22.9566  -11.9952   -4.8756 O   0  0  0  0  0  0  0  0  0  0  0  0
   23.0305  -15.3058   -3.5549 C   0  0  0  0  0  0  0  0  0  0  0  0
   22.1605  -14.9397   -2.3692 O   0  0  0  0  0  0  0  0  0  0  0  0
   23.6844   -6.8440   -8.2837 C   0  0  0  0  0  0  0  0  0  0  0  0
   24.2112   -6.4624   -6.9917 N   0  0  0  0  0  0  0  0  0  0  0  0
   21.9030  -11.8350   -2.6661 C   0  0  1  0  0  0  0  0  0  0  0  0
   22.9188  -12.6202   -2.1143 O   0  0  0  0  0  0  0  0  0  0  0  0
   25.2846  -16.0459   -4.3236 C   0  0  0  0  0  0  0  0  0  0  0  0
   27.3671  -13.7772   -1.4873 C   0  0  0  0  0  0  0  0  0  0  0  0
  1  2  1  1  0  0  0
  1  6  1  0  0  0  0
  1 21  1  0  0  0  0
  3  4  1  1  0  0  0
  3  8  1  0  0  0  0
  3 28  1  0  0  0  0
  5  9  1  0  0  0  0
  5 25  1  0  0  0  0
  5 29  1  6  0  0  0
  6  7  1  1  0  0  0
  6 11  1  0  0  0  0
  8 12  1  0  0  0  0
  9 10  1  1  0  0  0
  9 14  1  0  0  0  0
 11 16  1  0  0  0  0
 12 13  1  6  0  0  0
 12 17  1  0  0  0  0
 14 15  1  1  0  0  0
 14 18  1  0  0  0  0
 15 31  1  0  0  0  0
 16 20  1  0  0  0  0
 17  2  1  6  0  0  0
 17 22  1  0  0  0  0
 18 19  1  1  0  0  0
 18 24  1  0  0  0  0
 18 30  1  0  0  0  0
 20 21  1  0  0  0  0
 20 26  1  1  0  0  0
 22 23  1  6  0  0  0
 22 28  1  0  0  0  0
 24 25  1  0  0  0  0
 26 27  1  0  0  0  0
 28 29  1  1  0  0  0
M  END
>  <CHROM.1>
-84.99158672,-174.84882915,-92.58666974,-78.88700940,-116.55535314,91.44260618
22.77944503,-11.62420089,-4.10800563,1.99361758,0.77147760,-0.99048543

>  <Name>
ligand

>  <RI>
0

>  <Rbt.Current_Directory>
/home/itssahil/PROJECTS/Mol_Feturizer/New_Systems/rnas/4F8V

>  <Rbt.Executable>
rbdock ($Id: //depot/dev/client3/rdock/2013.1/src/exe/rbdock.cxx#4 $)

>  <Rbt.Library>
libRbt.so (2013.1, Build901 2013/11/27)

>  <Rbt.Parameter_File>
/export/apps/rDock/src/rDock_2013.1_src/data/scripts/dock_solv.prm

>  <Rbt.Receptor>
prm/pocket_docking_8.prm

>  <SCORE>
-11.6811

>  <SCORE.INTER>
-10.5

>  <SCORE.INTER.CONST>
1

>  <SCORE.INTER.POLAR>
0

>  <SCORE.INTER.ROT>
6

>  <SCORE.INTER.SOLV>
14.6051

>  <SCORE.INTER.VDW>
-19.4683

>  <SCORE.INTER.norm>
-0.338708

>  <SCORE.INTRA>
-1.18115

>  <SCORE.INTRA.DIHEDRAL>
-5.24583

>  <SCORE.INTRA.DIHEDRAL.0>
15.9129

>  <SCORE.INTRA.POLAR>
0

>  <SCORE.INTRA.POLAR.0>
0

>  <SCORE.INTRA.REPUL>
0

>  <SCORE.INTRA.REPUL.0>
0

>  <SCORE.INTRA.SOLV>
0.85825

>  <SCORE.INTRA.SOLV.lig_0>
-75.7056

>  <SCORE.INTRA.VDW>
1.01264

>  <SCORE.INTRA.VDW.0>
-4.61812

>  <SCORE.INTRA.norm>
-0.0381016

>  <SCORE.RESTR>
0

>  <SCORE.RESTR.CAVITY>
0

>  <SCORE.RESTR.norm>
0

>  <SCORE.SYSTEM>
0

>  <SCORE.SYSTEM.CONST>
0

>  <SCORE.SYSTEM.DIHEDRAL>
0

>  <SCORE.SYSTEM.SOLV>
0

>  <SCORE.SYSTEM.norm>
0

>  <SCORE.heavy>
31

>  <SCORE.norm>
-0.37681

>  <RMSD>
2.817

$$$$
ligand
 OpenBabel11021811493D
libRbt.so/2013.1/901 2013/11/27
 31 33  0  0  0  0  0  0  0  0999 V2000
   20.9934   -9.0931   -6.6674 C   0  0  2  0  0  0  0  0  0  0  0  0
   21.3965   -9.1244   -5.2915 O   0  0  0  0  0  0  0  0  0  0  0  0
   22.0105  -12.4174   -2.6519 C   0  0  2  0  0  0  0  0  0  0  0  0
   21.7449  -13.5953   -1.8970 N   0  0  0  0  0  0  0  0  0  0  0  0
   22.4937  -15.1183   -4.1627 C   0  0  2  0  0  0  0  0  0  0  0  0
   21.5653   -7.7766   -7.2784 C   0  0  2  0  0  0  0  0  0  0  0  0
   23.0164   -7.7641   -7.1045 N   0  0  0  0  0  0  0  0  0  0  0  0
   21.0607  -11.2616   -2.1606 C   0  0  0  0  0  0  0  0  0  0  0  0
   23.7098  -15.8256   -4.8195 C   0  0  2  0  0  0  0  0  0  0  0  0
   24.8904  -15.1952   -4.3778 O   0  0  0  0  0  0  0  0  0  0  0  0
   20.8895   -6.5217   -6.6027 C   0  0  0  0  0  0  0  0  0  0  0  0
   21.3590   -9.9541   -3.0015 C   0  0  2  0  0  0  0  0  0  0  0  0
   20.4679   -8.8671   -2.5468 N   0  0  0  0  0  0  0  0  0  0  0  0
   23.5503  -15.7195   -6.3881 C   0  0  1  0  0  0  0  0  0  0  0  0
   24.7097  -16.3673   -7.0642 N   0  0  0  0  0  0  0  0  0  0  0  0
   19.4010   -6.7864   -6.1723 C   0  0  0  0  0  0  0  0  0  0  0  0
   21.1145  -10.2630   -4.5398 C   0  0  2  0  0  0  0  0  0  0  0  0
   22.1743  -16.4591   -6.8467 C   0  0  1  0  0  0  0  0  0  0  0  0
   22.1518  -17.8288   -6.5270 O   0  0  0  0  0  0  0  0  0  0  0  0
   18.8416   -7.9989   -6.2997 C   0  0  1  0  0  0  0  0  0  0  0  0
   19.5496   -9.1018   -6.8303 O   0  0  0  0  0  0  0  0  0  0  0  0
   22.0592  -11.4325   -4.9987 C   0  0  2  0  0  0  0  0  0  0  0  0
   21.8245  -11.7107   -6.3779 O   0  0  0  0  0  0  0  0  0  0  0  0
   20.9702  -15.7772   -6.1264 C   0  0  0  0  0  0  0  0  0  0  0  0
   21.2033  -15.7445   -4.6293 O   0  0  0  0  0  0  0  0  0  0  0  0
   17.3906   -8.2982   -5.8750 C   0  0  0  0  0  0  0  0  0  0  0  0
   16.9432   -7.2549   -4.9784 N   0  0  0  0  0  0  0  0  0  0  0  0
   21.7527  -12.7191   -4.1429 C   0  0  1  0  0  0  0  0  0  0  0  0
   22.6125  -13.7370   -4.5642 O   0  0  0  0  0  0  0  0  0  0  0  0
   21.8763  -16.4423   -8.3527 C   0  0  0  0  0  0  0  0  0  0  0  0
   25.8969  -15.5229   -7.2677 C   0  0  0  0  0  0  0  0  0  0  0  0
  1  2  1  1  0  0  0
  1  6  1  0  0  0  0
  1 21  1  0  0  0  0
  3  4  1  1  0  0  0
  3  8  1  0  0  0  0
  3 28  1  0  0  0  0
  5  9  1  0  0  0  0
  5 25  1  0  0  0  0
  5 29  1  6  0  0  0
  6  7  1  1  0  0  0
  6 11  1  0  0  0  0
  8 12  1  0  0  0  0
  9 10  1  1  0  0  0
  9 14  1  0  0  0  0
 11 16  1  0  0  0  0
 12 13  1  1  0  0  0
 12 17  1  0  0  0  0
 14 15  1  6  0  0  0
 14 18  1  0  0  0  0
 15 31  1  0  0  0  0
 16 20  1  0  0  0  0
 17  2  1  6  0  0  0
 17 22  1  0  0  0  0
 18 19  1  1  0  0  0
 18 24  1  0  0  0  0
 18 30  1  0  0  0  0
 20 21  1  0  0  0  0
 20 26  1  1  0  0  0
 22 23  1  6  0  0  0
 22 28  1  0  0  0  0
 24 25  1  0  0  0  0
 26 27  1  0  0  0  0
 28 29  1  6  0  0  0
M  END
>  <CHROM.1>
-174.33358587,-176.87551192,-86.14326131,-167.78657306,-18.09444456,70.99399938
21.61528095,-12.03433299,-5.39099801,-2.76148935,-1.14100574,2.01427867

>  <Name>
ligand

>  <RI>
0

>  <Rbt.Current_Directory>
/home/itssahil/PROJECTS/Mol_Feturizer/New_Systems/rnas/4F8V

>  <Rbt.Executable>
rbdock ($Id: //depot/dev/client3/rdock/2013.1/src/exe/rbdock.cxx#4 $)

>  <Rbt.Library>
libRbt.so (2013.1, Build901 2013/11/27)

>  <Rbt.Parameter_File>
/export/apps/rDock/src/rDock_2013.1_src/data/scripts/dock_solv.prm

>  <Rbt.Receptor>
prm/pocket_docking_6.prm

>  <SCORE>
-11.5166

>  <SCORE.INTER>
-7.16301

>  <SCORE.INTER.CONST>
1

>  <SCORE.INTER.POLAR>
0

>  <SCORE.INTER.ROT>
6

>  <SCORE.INTER.SOLV>
12.9639

>  <SCORE.INTER.VDW>
-16.6966

>  <SCORE.INTER.norm>
-0.231065

>  <SCORE.INTRA>
-4.35364

>  <SCORE.INTRA.DIHEDRAL>
-11.8558

>  <SCORE.INTRA.DIHEDRAL.0>
15.9129

>  <SCORE.INTRA.POLAR>
0

>  <SCORE.INTRA.POLAR.0>
0

>  <SCORE.INTRA.REPUL>
0

>  <SCORE.INTRA.REPUL.0>
0

>  <SCORE.INTRA.SOLV>
-2.00085

>  <SCORE.INTRA.SOLV.lig_0>
-75.7056

>  <SCORE.INTRA.VDW>
2.57468

>  <SCORE.INTRA.VDW.0>
-4.61812

>  <SCORE.INTRA.norm>
-0.14044

>  <SCORE.RESTR>
0

>  <SCORE.RESTR.CAVITY>
0

>  <SCORE.RESTR.norm>
0

>  <SCORE.SYSTEM>
0

>  <SCORE.SYSTEM.CONST>
0

>  <SCORE.SYSTEM.DIHEDRAL>
0

>  <SCORE.SYSTEM.SOLV>
0

>  <SCORE.SYSTEM.norm>
0

>  <SCORE.heavy>
31

>  <SCORE.norm>
-0.371505

>  <RMSD>
2.827

$$$$
ligand
 OpenBabel11021811493D
libRbt.so/2013.1/901 2013/11/27
 31 33  0  0  0  0  0  0  0  0999 V2000
   19.9217   -8.0745   -6.2767 C   0  0  2  0  0  0  0  0  0  0  0  0
   20.3218   -8.0459   -4.8999 O   0  0  0  0  0  0  0  0  0  0  0  0
   21.1854  -11.4377   -2.4629 C   0  0  2  0  0  0  0  0  0  0  0  0
   20.9830  -12.6117   -1.6827 N   0  0  0  0  0  0  0  0  0  0  0  0
   22.6530  -12.6660   -4.9831 C   0  0  2  0  0  0  0  0  0  0  0  0
   20.4167   -6.7427   -6.9211 C   0  0  2  0  0  0  0  0  0  0  0  0
   21.8640   -6.6400   -6.7454 N   0  0  0  0  0  0  0  0  0  0  0  0
   20.4371  -10.2293   -1.7850 C   0  0  0  0  0  0  0  0  0  0  0  0
   22.8293  -13.9504   -5.8374 C   0  0  2  0  0  0  0  0  0  0  0  0
   21.8310  -13.9706   -6.8322 O   0  0  0  0  0  0  0  0  0  0  0  0
   19.6659   -5.5129   -6.2796 C   0  0  0  0  0  0  0  0  0  0  0  0
   20.6646   -8.9263   -2.6546 C   0  0  2  0  0  0  0  0  0  0  0  0
   19.9617   -7.7899   -2.0247 N   0  0  0  0  0  0  0  0  0  0  0  0
   22.7119  -15.1988   -4.8757 C   0  0  1  0  0  0  0  0  0  0  0  0
   22.8528  -16.4602   -5.6569 N   0  0  0  0  0  0  0  0  0  0  0  0
   18.1944   -5.8538   -5.8446 C   0  0  0  0  0  0  0  0  0  0  0  0
   20.1057   -9.1795   -4.1192 C   0  0  2  0  0  0  0  0  0  0  0  0
   23.8826  -15.1282   -3.7466 C   0  0  1  0  0  0  0  0  0  0  0  0
   25.1783  -15.1561   -4.2935 O   0  0  0  0  0  0  0  0  0  0  0  0
   17.7080   -7.1001   -5.9411 C   0  0  1  0  0  0  0  0  0  0  0  0
   18.4815   -8.1727   -6.4415 O   0  0  0  0  0  0  0  0  0  0  0  0
   20.8540  -10.4019   -4.7645 C   0  0  2  0  0  0  0  0  0  0  0  0
   20.3377  -10.6290   -6.0747 O   0  0  0  0  0  0  0  0  0  0  0  0
   23.7286  -13.8006   -2.9418 C   0  0  0  0  0  0  0  0  0  0  0  0
   23.6864  -12.6157   -3.8857 O   0  0  0  0  0  0  0  0  0  0  0  0
   16.2759   -7.4735   -5.5109 C   0  0  0  0  0  0  0  0  0  0  0  0
   16.3205   -8.0289   -4.1760 N   0  0  0  0  0  0  0  0  0  0  0  0
   20.6231  -11.6839   -3.8784 C   0  0  1  0  0  0  0  0  0  0  0  0
   21.3070  -12.7500   -4.4688 O   0  0  0  0  0  0  0  0  0  0  0  0
   23.9022  -16.2796   -2.7311 C   0  0  0  0  0  0  0  0  0  0  0  0
   21.6008  -17.0905   -6.1028 C   0  0  0  0  0  0  0  0  0  0  0  0
  1  2  1  1  0  0  0
  1  6  1  0  0  0  0
  1 21  1  0  0  0  0
  3  4  1  1  0  0  0
  3  8  1  0  0  0  0
  3 28  1  0  0  0  0
  5  9  1  0  0  0  0
  5 25  1  0  0  0  0
  5 29  1  1  0  0  0
  6  7  1  1  0  0  0
  6 11  1  0  0  0  0
  8 12  1  0  0  0  0
  9 10  1  6  0  0  0
  9 14  1  0  0  0  0
 11 16  1  0  0  0  0
 12 13  1  1  0  0  0
 12 17  1  0  0  0  0
 14 15  1  6  0  0  0
 14 18  1  0  0  0  0
 15 31  1  0  0  0  0
 16 20  1  0  0  0  0
 17  2  1  6  0  0  0
 17 22  1  0  0  0  0
 18 19  1  6  0  0  0
 18 24  1  0  0  0  0
 18 30  1  0  0  0  0
 20 21  1  0  0  0  0
 20 26  1  1  0  0  0
 22 23  1  6  0  0  0
 22 28  1  0  0  0  0
 24 25  1  0  0  0  0
 26 27  1  0  0  0  0
 28 29  1  6  0  0  0
M  END
>  <CHROM.1>
-174.30821295,-166.12145582,-94.50245172,178.35828447,-97.55730371,-74.50457628
21.00020342,-10.99503560,-4.69132092,3.10863892,-1.07136888,1.40505321

>  <Name>
ligand

>  <RI>
0

>  <Rbt.Current_Directory>
/home/itssahil/PROJECTS/Mol_Feturizer/New_Systems/rnas/4F8V

>  <Rbt.Executable>
rbdock ($Id: //depot/dev/client3/rdock/2013.1/src/exe/rbdock.cxx#4 $)

>  <Rbt.Library>
libRbt.so (2013.1, Build901 2013/11/27)

>  <Rbt.Parameter_File>
/export/apps/rDock/src/rDock_2013.1_src/data/scripts/dock_solv.prm

>  <Rbt.Receptor>
prm/pocket_docking_5.prm

>  <SCORE>
-13.9728

>  <SCORE.INTER>
-10.6062

>  <SCORE.INTER.CONST>
1

>  <SCORE.INTER.POLAR>
0

>  <SCORE.INTER.ROT>
6

>  <SCORE.INTER.SOLV>
21.9368

>  <SCORE.INTER.VDW>
-21.983

>  <SCORE.INTER.norm>
-0.342134

>  <SCORE.INTRA>
-3.36665

>  <SCORE.INTRA.DIHEDRAL>
-10.8279

>  <SCORE.INTRA.DIHEDRAL.0>
15.9129

>  <SCORE.INTRA.POLAR>
0

>  <SCORE.INTRA.POLAR.0>
0

>  <SCORE.INTRA.REPUL>
0

>  <SCORE.INTRA.REPUL.0>
0

>  <SCORE.INTRA.SOLV>
-1.14887

>  <SCORE.INTRA.SOLV.lig_0>
-75.7056

>  <SCORE.INTRA.VDW>
2.62174

>  <SCORE.INTRA.VDW.0>
-4.61812

>  <SCORE.INTRA.norm>
-0.108602

>  <SCORE.RESTR>
0

>  <SCORE.RESTR.CAVITY>
0

>  <SCORE.RESTR.norm>
0

>  <SCORE.SYSTEM>
0

>  <SCORE.SYSTEM.CONST>
0

>  <SCORE.SYSTEM.DIHEDRAL>
0

>  <SCORE.SYSTEM.SOLV>
0

>  <SCORE.SYSTEM.norm>
0

>  <SCORE.heavy>
31

>  <SCORE.norm>
-0.450736

>  <RMSD>
2.833

$$$$
ligand
 OpenBabel11021811493D
libRbt.so/2013.1/901 2013/11/27
 31 33  0  0  0  0  0  0  0  0999 V2000
   19.6169   -8.1802   -6.1643 C   0  0  2  0  0  0  0  0  0  0  0  0
   20.1276   -8.1193   -4.8257 O   0  0  0  0  0  0  0  0  0  0  0  0
   21.2482  -11.4415   -2.3975 C   0  0  2  0  0  0  0  0  0  0  0  0
   21.1316  -12.6037   -1.5829 N   0  0  0  0  0  0  0  0  0  0  0  0
   22.5677  -12.6959   -4.9680 C   0  0  2  0  0  0  0  0  0  0  0  0
   20.0275   -6.8498   -6.8680 C   0  0  2  0  0  0  0  0  0  0  0  0
   21.4817   -6.7136   -6.8136 N   0  0  0  0  0  0  0  0  0  0  0  0
   20.5241  -10.2364   -1.6883 C   0  0  0  0  0  0  0  0  0  0  0  0
   22.7055  -13.9750   -5.8371 C   0  0  2  0  0  0  0  0  0  0  0  0
   21.6553  -13.9969   -6.7768 O   0  0  0  0  0  0  0  0  0  0  0  0
   19.3044   -5.6250   -6.1862 C   0  0  0  0  0  0  0  0  0  0  0  0
   20.6561   -8.9466   -2.5963 C   0  0  2  0  0  0  0  0  0  0  0  0
   19.9752   -7.8134   -1.9369 N   0  0  0  0  0  0  0  0  0  0  0  0
   22.6477  -15.2288   -4.8769 C   0  0  1  0  0  0  0  0  0  0  0  0
   22.7540  -16.4855   -5.6710 N   0  0  0  0  0  0  0  0  0  0  0  0
   17.8815   -5.9892   -5.6264 C   0  0  0  0  0  0  0  0  0  0  0  0
   19.9965   -9.2414   -4.0103 C   0  0  2  0  0  0  0  0  0  0  0  0
   23.8771  -15.1562   -3.8121 C   0  0  1  0  0  0  0  0  0  0  0  0
   25.1416  -15.1732   -4.4281 O   0  0  0  0  0  0  0  0  0  0  0  0
   17.4168   -7.2470   -5.6630 C   0  0  1  0  0  0  0  0  0  0  0  0
   18.1706   -8.3116   -6.2085 O   0  0  0  0  0  0  0  0  0  0  0  0
   20.7235  -10.4598   -4.6868 C   0  0  2  0  0  0  0  0  0  0  0  0
   20.1171  -10.7245   -5.9505 O   0  0  0  0  0  0  0  0  0  0  0  0
   23.7586  -13.8335   -2.9934 C   0  0  0  0  0  0  0  0  0  0  0  0
   23.6585  -12.6444   -3.9276 O   0  0  0  0  0  0  0  0  0  0  0  0
   16.0335   -7.6429   -5.1107 C   0  0  0  0  0  0  0  0  0  0  0  0
   15.4070   -6.4706   -4.5401 N   0  0  0  0  0  0  0  0  0  0  0  0
   20.5887  -11.7284   -3.7626 C   0  0  1  0  0  0  0  0  0  0  0  0
   21.2519  -12.7909   -4.3824 O   0  0  0  0  0  0  0  0  0  0  0  0
   23.9584  -16.3123   -2.8051 C   0  0  0  0  0  0  0  0  0  0  0  0
   21.4835  -17.1158   -6.0612 C   0  0  0  0  0  0  0  0  0  0  0  0
  1  2  1  1  0  0  0
  1  6  1  0  0  0  0
  1 21  1  0  0  0  0
  3  4  1  1  0  0  0
  3  8  1  0  0  0  0
  3 28  1  0  0  0  0
  5  9  1  0  0  0  0
  5 25  1  0  0  0  0
  5 29  1  1  0  0  0
  6  7  1  1  0  0  0
  6 11  1  0  0  0  0
  8 12  1  0  0  0  0
  9 10  1  6  0  0  0
  9 14  1  0  0  0  0
 11 16  1  0  0  0  0
 12 13  1  1  0  0  0
 12 17  1  0  0  0  0
 14 15  1  6  0  0  0
 14 18  1  0  0  0  0
 15 31  1  0  0  0  0
 16 20  1  0  0  0  0
 17  2  1  6  0  0  0
 17 22  1  0  0  0  0
 18 19  1  6  0  0  0
 18 24  1  0  0  0  0
 18 30  1  0  0  0  0
 20 21  1  0  0  0  0
 20 26  1  1  0  0  0
 22 23  1  6  0  0  0
 22 28  1  0  0  0  0
 24 25  1  0  0  0  0
 26 27  1  0  0  0  0
 28 29  1  6  0  0  0
M  END
>  <CHROM.1>
-174.58386665,-165.44224596,-94.03310167,178.91189350,-2.00254856,-72.91985620
20.85151683,-11.00043670,-4.63744315,2.88646860,-1.01564478,1.16459310

>  <Name>
ligand

>  <RI>
0

>  <Rbt.Current_Directory>
/home/itssahil/PROJECTS/Mol_Feturizer/New_Systems/rnas/4F8V

>  <Rbt.Executable>
rbdock ($Id: //depot/dev/client3/rdock/2013.1/src/exe/rbdock.cxx#4 $)

>  <Rbt.Library>
libRbt.so (2013.1, Build901 2013/11/27)

>  <Rbt.Parameter_File>
/export/apps/rDock/src/rDock_2013.1_src/data/scripts/dock_solv.prm

>  <Rbt.Receptor>
prm/pocket_docking_5.prm

>  <SCORE>
-14.2838

>  <SCORE.INTER>
-11.1589

>  <SCORE.INTER.CONST>
1

>  <SCORE.INTER.POLAR>
0

>  <SCORE.INTER.ROT>
6

>  <SCORE.INTER.SOLV>
19.5894

>  <SCORE.INTER.VDW>
-21.569

>  <SCORE.INTER.norm>
-0.359963

>  <SCORE.INTRA>
-3.12497

>  <SCORE.INTRA.DIHEDRAL>
-11.5609

>  <SCORE.INTRA.DIHEDRAL.0>
15.9129

>  <SCORE.INTRA.POLAR>
0

>  <SCORE.INTRA.POLAR.0>
0

>  <SCORE.INTRA.REPUL>
0

>  <SCORE.INTRA.REPUL.0>
0

>  <SCORE.INTRA.SOLV>
-1.91296

>  <SCORE.INTRA.SOLV.lig_0>
-75.7056

>  <SCORE.INTRA.VDW>
3.61195

>  <SCORE.INTRA.VDW.0>
-4.61812

>  <SCORE.INTRA.norm>
-0.100805

>  <SCORE.RESTR>
0

>  <SCORE.RESTR.CAVITY>
0

>  <SCORE.RESTR.norm>
0

>  <SCORE.SYSTEM>
0

>  <SCORE.SYSTEM.CONST>
0

>  <SCORE.SYSTEM.DIHEDRAL>
0

>  <SCORE.SYSTEM.SOLV>
0

>  <SCORE.SYSTEM.norm>
0

>  <SCORE.heavy>
31

>  <SCORE.norm>
-0.460769

>  <RMSD>
2.866

$$$$
ligand
 OpenBabel11021811493D
libRbt.so/2013.1/901 2013/11/27
 31 33  0  0  0  0  0  0  0  0999 V2000
   21.7785   -8.6486   -4.9042 C   0  0  2  0  0  0  0  0  0  0  0  0
   20.6946   -9.5729   -4.7389 O   0  0  0  0  0  0  0  0  0  0  0  0
   21.6137  -10.8780   -0.7841 C   0  0  2  0  0  0  0  0  0  0  0  0
   21.4977  -11.5572    0.4622 N   0  0  0  0  0  0  0  0  0  0  0  0
   22.6515  -14.1035   -1.2010 C   0  0  2  0  0  0  0  0  0  0  0  0
   21.5140   -7.8710   -6.2305 C   0  0  2  0  0  0  0  0  0  0  0  0
   20.2096   -7.2173   -6.1450 N   0  0  0  0  0  0  0  0  0  0  0  0
   20.3885   -9.9046   -0.9601 C   0  0  0  0  0  0  0  0  0  0  0  0
   24.1101  -14.4441   -0.7924 C   0  0  2  0  0  0  0  0  0  0  0  0
   24.5631  -13.4677    0.1175 O   0  0  0  0  0  0  0  0  0  0  0  0
   21.5916   -8.8513   -7.4637 C   0  0  0  0  0  0  0  0  0  0  0  0
   20.5210   -9.1513   -2.3459 C   0  0  2  0  0  0  0  0  0  0  0  0
   19.3719   -8.2390   -2.5178 N   0  0  0  0  0  0  0  0  0  0  0  0
   24.9936  -14.4671   -2.1024 C   0  0  1  0  0  0  0  0  0  0  0  0
   26.4115  -14.7691   -1.7568 N   0  0  0  0  0  0  0  0  0  0  0  0
   22.6206  -10.0206   -7.2517 C   0  0  0  0  0  0  0  0  0  0  0  0
   20.5550  -10.2248   -3.5155 C   0  0  2  0  0  0  0  0  0  0  0  0
   24.4301  -15.6071   -3.1191 C   0  0  1  0  0  0  0  0  0  0  0  0
   24.4762  -16.9031   -2.5742 O   0  0  0  0  0  0  0  0  0  0  0  0
   23.2682  -10.1792   -6.0878 C   0  0  1  0  0  0  0  0  0  0  0  0
   23.0704   -9.3076   -4.9921 O   0  0  0  0  0  0  0  0  0  0  0  0
   21.7736  -11.1950   -3.3047 C   0  0  2  0  0  0  0  0  0  0  0  0
   21.7893  -12.1623   -4.3529 O   0  0  0  0  0  0  0  0  0  0  0  0
   22.9439  -15.2839   -3.4664 C   0  0  0  0  0  0  0  0  0  0  0  0
   22.1335  -15.1100   -2.1977 O   0  0  0  0  0  0  0  0  0  0  0  0
   24.2723  -11.3218   -5.8395 C   0  0  0  0  0  0  0  0  0  0  0  0
   25.5812  -10.7501   -5.6107 N   0  0  0  0  0  0  0  0  0  0  0  0
   21.6269  -11.9255   -1.9167 C   0  0  1  0  0  0  0  0  0  0  0  0
   22.7269  -12.7714   -1.7517 O   0  0  0  0  0  0  0  0  0  0  0  0
   25.1890  -15.7537   -4.4457 C   0  0  0  0  0  0  0  0  0  0  0  0
   27.2900  -13.6077   -1.5487 C   0  0  0  0  0  0  0  0  0  0  0  0
  1  2  1  6  0  0  0
  1  6  1  0  0  0  0
  1 21  1  0  0  0  0
  3  4  1  1  0  0  0
  3  8  1  0  0  0  0
  3 28  1  0  0  0  0
  5  9  1  0  0  0  0
  5 25  1  0  0  0  0
  5 29  1  6  0  0  0
  6  7  1  1  0  0  0
  6 11  1  0  0  0  0
  8 12  1  0  0  0  0
  9 10  1  1  0  0  0
  9 14  1  0  0  0  0
 11 16  1  0  0  0  0
 12 13  1  6  0  0  0
 12 17  1  0  0  0  0
 14 15  1  1  0  0  0
 14 18  1  0  0  0  0
 15 31  1  0  0  0  0
 16 20  1  0  0  0  0
 17  2  1  6  0  0  0
 17 22  1  0  0  0  0
 18 19  1  1  0  0  0
 18 24  1  0  0  0  0
 18 30  1  0  0  0  0
 20 21  1  0  0  0  0
 20 26  1  1  0  0  0
 22 23  1  6  0  0  0
 22 28  1  0  0  0  0
 24 25  1  0  0  0  0
 26 27  1  0  0  0  0
 28 29  1  1  0  0  0
M  END
>  <CHROM.1>
-168.59635881,-162.02261274,-93.67084867,53.39386392,116.33142837,101.82363499
22.78584133,-11.82458342,-3.32817329,-2.25305883,-0.79843942,2.13030312

>  <Name>
ligand

>  <RI>
0

>  <Rbt.Current_Directory>
/home/itssahil/PROJECTS/Mol_Feturizer/New_Systems/rnas/4F8V

>  <Rbt.Executable>
rbdock ($Id: //depot/dev/client3/rdock/2013.1/src/exe/rbdock.cxx#4 $)

>  <Rbt.Library>
libRbt.so (2013.1, Build901 2013/11/27)

>  <Rbt.Parameter_File>
/export/apps/rDock/src/rDock_2013.1_src/data/scripts/dock_solv.prm

>  <Rbt.Receptor>
prm/pocket_docking_4.prm

>  <SCORE>
-9.90057

>  <SCORE.INTER>
-7.68525

>  <SCORE.INTER.CONST>
1

>  <SCORE.INTER.POLAR>
0

>  <SCORE.INTER.ROT>
6

>  <SCORE.INTER.SOLV>
16.6964

>  <SCORE.INTER.VDW>
-18.289

>  <SCORE.INTER.norm>
-0.247911

>  <SCORE.INTRA>
-2.21531

>  <SCORE.INTRA.DIHEDRAL>
-5.49656

>  <SCORE.INTRA.DIHEDRAL.0>
15.9129

>  <SCORE.INTRA.POLAR>
0

>  <SCORE.INTRA.POLAR.0>
0

>  <SCORE.INTRA.REPUL>
0

>  <SCORE.INTRA.REPUL.0>
0

>  <SCORE.INTRA.SOLV>
-0.747802

>  <SCORE.INTRA.SOLV.lig_0>
-75.7056

>  <SCORE.INTRA.VDW>
0.906867

>  <SCORE.INTRA.VDW.0>
-4.61812

>  <SCORE.INTRA.norm>
-0.0714617

>  <SCORE.RESTR>
0

>  <SCORE.RESTR.CAVITY>
0

>  <SCORE.RESTR.norm>
0

>  <SCORE.SYSTEM>
0

>  <SCORE.SYSTEM.CONST>
0

>  <SCORE.SYSTEM.DIHEDRAL>
0

>  <SCORE.SYSTEM.SOLV>
0

>  <SCORE.SYSTEM.norm>
0

>  <SCORE.heavy>
31

>  <SCORE.norm>
-0.319373

>  <RMSD>
2.931

$$$$
ligand
 OpenBabel11021811493D
libRbt.so/2013.1/901 2013/11/27
 31 33  0  0  0  0  0  0  0  0999 V2000
   21.8243   -8.6806   -4.9244 C   0  0  2  0  0  0  0  0  0  0  0  0
   20.7362   -9.6026   -4.7742 O   0  0  0  0  0  0  0  0  0  0  0  0
   21.6131  -10.9276   -0.8164 C   0  0  2  0  0  0  0  0  0  0  0  0
   21.4848  -11.6144    0.4245 N   0  0  0  0  0  0  0  0  0  0  0  0
   22.6699  -14.1392   -1.2203 C   0  0  2  0  0  0  0  0  0  0  0  0
   21.5593   -7.8747   -6.2336 C   0  0  2  0  0  0  0  0  0  0  0  0
   20.2585   -7.2163   -6.1302 N   0  0  0  0  0  0  0  0  0  0  0  0
   20.3867   -9.9574   -1.0013 C   0  0  0  0  0  0  0  0  0  0  0  0
   24.1285  -14.4747   -0.8074 C   0  0  2  0  0  0  0  0  0  0  0  0
   24.5794  -13.4903    0.0949 O   0  0  0  0  0  0  0  0  0  0  0  0
   21.6277   -8.8300   -7.4868 C   0  0  0  0  0  0  0  0  0  0  0  0
   20.5330   -9.1955   -2.3810 C   0  0  2  0  0  0  0  0  0  0  0  0
   19.3829   -8.2862   -2.5612 N   0  0  0  0  0  0  0  0  0  0  0  0
   25.0134  -14.5072   -2.1163 C   0  0  1  0  0  0  0  0  0  0  0  0
   26.4313  -14.8046   -1.7668 N   0  0  0  0  0  0  0  0  0  0  0  0
   22.6513  -10.0086   -7.3023 C   0  0  0  0  0  0  0  0  0  0  0  0
   20.5845  -10.2621   -3.5564 C   0  0  2  0  0  0  0  0  0  0  0  0
   24.4524  -15.6561   -3.1243 C   0  0  1  0  0  0  0  0  0  0  0  0
   24.4996  -16.9476   -2.5689 O   0  0  0  0  0  0  0  0  0  0  0  0
   23.3021  -10.1942   -6.1442 C   0  0  1  0  0  0  0  0  0  0  0  0
   23.1125   -9.3442   -5.0303 O   0  0  0  0  0  0  0  0  0  0  0  0
   21.8039  -11.2293   -3.3368 C   0  0  2  0  0  0  0  0  0  0  0  0
   21.8353  -12.1905   -4.3903 O   0  0  0  0  0  0  0  0  0  0  0  0
   22.9662  -15.3376   -3.4758 C   0  0  0  0  0  0  0  0  0  0  0  0
   22.1542  -15.1544   -2.2093 O   0  0  0  0  0  0  0  0  0  0  0  0
   24.3011  -11.3467   -5.9229 C   0  0  0  0  0  0  0  0  0  0  0  0
   25.5986  -10.7858   -5.6158 N   0  0  0  0  0  0  0  0  0  0  0  0
   21.6433  -11.9684   -1.9549 C   0  0  1  0  0  0  0  0  0  0  0  0
   22.7443  -12.8115   -1.7817 O   0  0  0  0  0  0  0  0  0  0  0  0
   25.2128  -15.8125   -4.4489 C   0  0  0  0  0  0  0  0  0  0  0  0
   27.2968  -13.6407   -1.5215 C   0  0  0  0  0  0  0  0  0  0  0  0
  1  2  1  6  0  0  0
  1  6  1  0  0  0  0
  1 21  1  0  0  0  0
  3  4  1  1  0  0  0
  3  8  1  0  0  0  0
  3 28  1  0  0  0  0
  5  9  1  0  0  0  0
  5 25  1  0  0  0  0
  5 29  1  6  0  0  0
  6  7  1  1  0  0  0
  6 11  1  0  0  0  0
  8 12  1  0  0  0  0
  9 10  1  1  0  0  0
  9 14  1  0  0  0  0
 11 16  1  0  0  0  0
 12 13  1  6  0  0  0
 12 17  1  0  0  0  0
 14 15  1  1  0  0  0
 14 18  1  0  0  0  0
 15 31  1  0  0  0  0
 16 20  1  0  0  0  0
 17  2  1  6  0  0  0
 17 22  1  0  0  0  0
 18 19  1  1  0  0  0
 18 24  1  0  0  0  0
 18 30  1  0  0  0  0
 20 21  1  0  0  0  0
 20 26  1  1  0  0  0
 22 23  1  6  0  0  0
 22 28  1  0  0  0  0
 24 25  1  0  0  0  0
 26 27  1  0  0  0  0
 28 29  1  1  0  0  0
M  END
>  <CHROM.1>
-167.54872060,-162.02766942,-91.62433383,53.81925520,119.37731594,100.81056216
22.80952026,-11.85768192,-3.35208941,-2.24065221,-0.79434833,2.14035801

>  <Name>
ligand

>  <RI>
0

>  <Rbt.Current_Directory>
/home/itssahil/PROJECTS/Mol_Feturizer/New_Systems/rnas/4F8V

>  <Rbt.Executable>
rbdock ($Id: //depot/dev/client3/rdock/2013.1/src/exe/rbdock.cxx#4 $)

>  <Rbt.Library>
libRbt.so (2013.1, Build901 2013/11/27)

>  <Rbt.Parameter_File>
/export/apps/rDock/src/rDock_2013.1_src/data/scripts/dock_solv.prm

>  <Rbt.Receptor>
prm/pocket_docking_4.prm

>  <SCORE>
-9.83025

>  <SCORE.INTER>
-7.6245

>  <SCORE.INTER.CONST>
1

>  <SCORE.INTER.POLAR>
0

>  <SCORE.INTER.ROT>
6

>  <SCORE.INTER.SOLV>
16.6328

>  <SCORE.INTER.VDW>
-18.2273

>  <SCORE.INTER.norm>
-0.245952

>  <SCORE.INTRA>
-2.20575

>  <SCORE.INTRA.DIHEDRAL>
-5.64693

>  <SCORE.INTRA.DIHEDRAL.0>
15.9129

>  <SCORE.INTRA.POLAR>
0

>  <SCORE.INTRA.POLAR.0>
0

>  <SCORE.INTRA.REPUL>
0

>  <SCORE.INTRA.REPUL.0>
0

>  <SCORE.INTRA.SOLV>
-0.622931

>  <SCORE.INTRA.SOLV.lig_0>
-75.7056

>  <SCORE.INTRA.VDW>
0.929182

>  <SCORE.INTRA.VDW.0>
-4.61812

>  <SCORE.INTRA.norm>
-0.0711532

>  <SCORE.RESTR>
0

>  <SCORE.RESTR.CAVITY>
0

>  <SCORE.RESTR.norm>
0

>  <SCORE.SYSTEM>
0

>  <SCORE.SYSTEM.CONST>
0

>  <SCORE.SYSTEM.DIHEDRAL>
0

>  <SCORE.SYSTEM.SOLV>
0

>  <SCORE.SYSTEM.norm>
0

>  <SCORE.heavy>
31

>  <SCORE.norm>
-0.317105

>  <RMSD>
2.947

$$$$
ligand
 OpenBabel11021811493D
libRbt.so/2013.1/901 2013/11/27
 31 33  0  0  0  0  0  0  0  0999 V2000
   20.7337   -9.1160   -6.6427 C   0  0  2  0  0  0  0  0  0  0  0  0
   21.2141   -9.1465   -5.2918 O   0  0  0  0  0  0  0  0  0  0  0  0
   22.1083  -12.4598   -2.7598 C   0  0  2  0  0  0  0  0  0  0  0  0
   21.9304  -13.6556   -2.0073 N   0  0  0  0  0  0  0  0  0  0  0  0
   22.5964  -15.1096   -4.2961 C   0  0  2  0  0  0  0  0  0  0  0  0
   21.2754   -7.8030   -7.2878 C   0  0  2  0  0  0  0  0  0  0  0  0
   22.7341   -7.7964   -7.1965 N   0  0  0  0  0  0  0  0  0  0  0  0
   21.1669  -11.3381   -2.1810 C   0  0  0  0  0  0  0  0  0  0  0  0
   23.7500  -15.7802   -5.0898 C   0  0  2  0  0  0  0  0  0  0  0  0
   24.9479  -15.0913   -4.8126 O   0  0  0  0  0  0  0  0  0  0  0  0
   20.6442   -6.5441   -6.5774 C   0  0  0  0  0  0  0  0  0  0  0  0
   21.3676  -10.0106   -3.0194 C   0  0  2  0  0  0  0  0  0  0  0  0
   20.4839   -8.9555   -2.4825 N   0  0  0  0  0  0  0  0  0  0  0  0
   23.3894  -15.7161   -6.6271 C   0  0  1  0  0  0  0  0  0  0  0  0
   24.4817  -16.3301   -7.4339 N   0  0  0  0  0  0  0  0  0  0  0  0
   19.1815   -6.8017   -6.0627 C   0  0  0  0  0  0  0  0  0  0  0  0
   21.0186  -10.3035   -4.5406 C   0  0  2  0  0  0  0  0  0  0  0  0
   22.0006  -16.5226   -6.8945 C   0  0  1  0  0  0  0  0  0  0  0  0
   22.0792  -17.8845   -6.5513 O   0  0  0  0  0  0  0  0  0  0  0  0
   18.6108   -8.0121   -6.1558 C   0  0  1  0  0  0  0  0  0  0  0  0
   19.2830   -9.1189   -6.7234 O   0  0  0  0  0  0  0  0  0  0  0  0
   21.9576  -11.4394   -5.0871 C   0  0  2  0  0  0  0  0  0  0  0  0
   21.6293  -11.7037   -6.4498 O   0  0  0  0  0  0  0  0  0  0  0  0
   20.8680  -15.8755   -6.0389 C   0  0  0  0  0  0  0  0  0  0  0  0
   21.2864  -15.7994   -4.5843 O   0  0  0  0  0  0  0  0  0  0  0  0
   17.1850   -8.3045   -5.6489 C   0  0  0  0  0  0  0  0  0  0  0  0
   16.7901   -7.2532   -4.7371 N   0  0  0  0  0  0  0  0  0  0  0  0
   21.7493  -12.7466   -4.2327 C   0  0  1  0  0  0  0  0  0  0  0  0
   22.6024  -13.7339   -4.7329 O   0  0  0  0  0  0  0  0  0  0  0  0
   21.5145  -16.5521   -8.3506 C   0  0  0  0  0  0  0  0  0  0  0  0
   25.5325  -15.4152   -7.9058 C   0  0  0  0  0  0  0  0  0  0  0  0
  1  2  1  1  0  0  0
  1  6  1  0  0  0  0
  1 21  1  0  0  0  0
  3  4  1  1  0  0  0
  3  8  1  0  0  0  0
  3 28  1  0  0  0  0
  5  9  1  0  0  0  0
  5 25  1  0  0  0  0
  5 29  1  6  0  0  0
  6  7  1  1  0  0  0
  6 11  1  0  0  0  0
  8 12  1  0  0  0  0
  9 10  1  6  0  0  0
  9 14  1  0  0  0  0
 11 16  1  0  0  0  0
 12 13  1  1  0  0  0
 12 17  1  0  0  0  0
 14 15  1  6  0  0  0
 14 18  1  0  0  0  0
 15 31  1  0  0  0  0
 16 20  1  0  0  0  0
 17  2  1  6  0  0  0
 17 22  1  0  0  0  0
 18 19  1  1  0  0  0
 18 24  1  0  0  0  0
 18 30  1  0  0  0  0
 20 21  1  0  0  0  0
 20 26  1  1  0  0  0
 22 23  1  6  0  0  0
 22 28  1  0  0  0  0
 24 25  1  0  0  0  0
 26 27  1  0  0  0  0
 28 29  1  6  0  0  0
M  END
>  <CHROM.1>
-171.74396629,-177.54641323,-91.57362608,-169.02718325,-17.73012256,67.62592079
21.50138179,-12.05435588,-5.45247354,-2.89134801,-1.15089815,1.90808844

>  <Name>
ligand

>  <RI>
0

>  <Rbt.Current_Directory>
/home/itssahil/PROJECTS/Mol_Feturizer/New_Systems/rnas/4F8V

>  <Rbt.Executable>
rbdock ($Id: //depot/dev/client3/rdock/2013.1/src/exe/rbdock.cxx#4 $)

>  <Rbt.Library>
libRbt.so (2013.1, Build901 2013/11/27)

>  <Rbt.Parameter_File>
/export/apps/rDock/src/rDock_2013.1_src/data/scripts/dock_solv.prm

>  <Rbt.Receptor>
prm/pocket_docking_6.prm

>  <SCORE>
-11.5827

>  <SCORE.INTER>
-7.27152

>  <SCORE.INTER.CONST>
1

>  <SCORE.INTER.POLAR>
0

>  <SCORE.INTER.ROT>
6

>  <SCORE.INTER.SOLV>
12.8485

>  <SCORE.INTER.VDW>
-16.7305

>  <SCORE.INTER.norm>
-0.234565

>  <SCORE.INTRA>
-4.31117

>  <SCORE.INTRA.DIHEDRAL>
-11.9755

>  <SCORE.INTRA.DIHEDRAL.0>
15.9129

>  <SCORE.INTRA.POLAR>
0

>  <SCORE.INTRA.POLAR.0>
0

>  <SCORE.INTRA.REPUL>
0

>  <SCORE.INTRA.REPUL.0>
0

>  <SCORE.INTRA.SOLV>
-1.97003

>  <SCORE.INTRA.SOLV.lig_0>
-75.7056

>  <SCORE.INTRA.VDW>
2.66158

>  <SCORE.INTRA.VDW.0>
-4.61812

>  <SCORE.INTRA.norm>
-0.13907

>  <SCORE.RESTR>
0

>  <SCORE.RESTR.CAVITY>
0

>  <SCORE.RESTR.norm>
0

>  <SCORE.SYSTEM>
0

>  <SCORE.SYSTEM.CONST>
0

>  <SCORE.SYSTEM.DIHEDRAL>
0

>  <SCORE.SYSTEM.SOLV>
0

>  <SCORE.SYSTEM.norm>
0

>  <SCORE.heavy>
31

>  <SCORE.norm>
-0.373635

>  <RMSD>
2.977

$$$$
ligand
 OpenBabel11021811493D
libRbt.so/2013.1/901 2013/11/27
 31 33  0  0  0  0  0  0  0  0999 V2000
   20.8930   -8.8292   -4.6519 C   0  0  2  0  0  0  0  0  0  0  0  0
   20.1652   -9.7890   -3.8737 O   0  0  0  0  0  0  0  0  0  0  0  0
   22.9430  -10.2024   -0.6641 C   0  0  2  0  0  0  0  0  0  0  0  0
   23.4995  -10.6170    0.5795 N   0  0  0  0  0  0  0  0  0  0  0  0
   24.1568  -13.3580   -0.9826 C   0  0  2  0  0  0  0  0  0  0  0  0
   19.9755   -8.4239   -5.8468 C   0  0  2  0  0  0  0  0  0  0  0  0
   18.7158   -7.9012   -5.3215 N   0  0  0  0  0  0  0  0  0  0  0  0
   21.6435   -9.3552   -0.3938 C   0  0  0  0  0  0  0  0  0  0  0  0
   25.3162  -13.9813   -1.8058 C   0  0  2  0  0  0  0  0  0  0  0  0
   26.3342  -13.0176   -1.9519 O   0  0  0  0  0  0  0  0  0  0  0  0
   19.7390   -9.6597   -6.7980 C   0  0  0  0  0  0  0  0  0  0  0  0
   21.0281   -8.8959   -1.7780 C   0  0  2  0  0  0  0  0  0  0  0  0
   19.8063   -8.1033   -1.5303 N   0  0  0  0  0  0  0  0  0  0  0  0
   24.7379  -14.4276   -3.2071 C   0  0  1  0  0  0  0  0  0  0  0  0
   25.8228  -15.0137   -4.0440 N   0  0  0  0  0  0  0  0  0  0  0  0
   20.9699  -10.6358   -6.8501 C   0  0  0  0  0  0  0  0  0  0  0  0
   20.6867  -10.1829   -2.6432 C   0  0  2  0  0  0  0  0  0  0  0  0
   23.5672  -15.5369   -2.9846 C   0  0  1  0  0  0  0  0  0  0  0  0
   24.0265  -16.7021   -2.3440 O   0  0  0  0  0  0  0  0  0  0  0  0
   22.0469  -10.4447   -6.0737 C   0  0  1  0  0  0  0  0  0  0  0  0
   22.1416   -9.3589   -5.1730 O   0  0  0  0  0  0  0  0  0  0  0  0
   21.9956  -11.0203   -2.8807 C   0  0  2  0  0  0  0  0  0  0  0  0
   21.6774  -12.1796   -3.6484 O   0  0  0  0  0  0  0  0  0  0  0  0
   22.4424  -14.9139   -2.1012 C   0  0  0  0  0  0  0  0  0  0  0  0
   23.0300  -14.3479   -0.8241 O   0  0  0  0  0  0  0  0  0  0  0  0
   23.2650  -11.3889   -6.0878 C   0  0  0  0  0  0  0  0  0  0  0  0
   22.9930  -12.4865   -6.9898 N   0  0  0  0  0  0  0  0  0  0  0  0
   22.5962  -11.4576   -1.4915 C   0  0  1  0  0  0  0  0  0  0  0  0
   23.7621  -12.1895   -1.7324 O   0  0  0  0  0  0  0  0  0  0  0  0
   22.9031  -16.0731   -4.2608 C   0  0  0  0  0  0  0  0  0  0  0  0
   26.1398  -14.2982   -5.2896 C   0  0  0  0  0  0  0  0  0  0  0  0
  1  2  1  6  0  0  0
  1  6  1  0  0  0  0
  1 21  1  0  0  0  0
  3  4  1  1  0  0  0
  3  8  1  0  0  0  0
  3 28  1  0  0  0  0
  5  9  1  0  0  0  0
  5 25  1  0  0  0  0
  5 29  1  6  0  0  0
  6  7  1  1  0  0  0
  6 11  1  0  0  0  0
  8 12  1  0  0  0  0
  9 10  1  6  0  0  0
  9 14  1  0  0  0  0
 11 16  1  0  0  0  0
 12 13  1  1  0  0  0
 12 17  1  0  0  0  0
 14 15  1  6  0  0  0
 14 18  1  0  0  0  0
 15 31  1  0  0  0  0
 16 20  1  0  0  0  0
 17  2  1  6  0  0  0
 17 22  1  0  0  0  0
 18 19  1  1  0  0  0
 18 24  1  0  0  0  0
 18 30  1  0  0  0  0
 20 21  1  0  0  0  0
 20 26  1  1  0  0  0
 22 23  1  6  0  0  0
 22 28  1  0  0  0  0
 24 25  1  0  0  0  0
 26 27  1  0  0  0  0
 28 29  1  6  0  0  0
M  END
>  <CHROM.1>
-171.45465781,167.89376832,-117.05055147,51.54444881,-3.03942589,99.76818997
22.57220266,-11.80852151,-3.34516587,-3.06755668,-0.96155643,1.34000914

>  <Name>
ligand

>  <RI>
0

>  <Rbt.Current_Directory>
/home/itssahil/PROJECTS/Mol_Feturizer/New_Systems/rnas/4F8V

>  <Rbt.Executable>
rbdock ($Id: //depot/dev/client3/rdock/2013.1/src/exe/rbdock.cxx#4 $)

>  <Rbt.Library>
libRbt.so (2013.1, Build901 2013/11/27)

>  <Rbt.Parameter_File>
/export/apps/rDock/src/rDock_2013.1_src/data/scripts/dock_solv.prm

>  <Rbt.Receptor>
prm/pocket_docking_3.prm

>  <SCORE>
-4.22608

>  <SCORE.INTER>
-2.45264

>  <SCORE.INTER.CONST>
1

>  <SCORE.INTER.POLAR>
0

>  <SCORE.INTER.ROT>
6

>  <SCORE.INTER.SOLV>
11.9967

>  <SCORE.INTER.VDW>
-13.234

>  <SCORE.INTER.norm>
-0.0791173

>  <SCORE.INTRA>
-1.77344

>  <SCORE.INTRA.DIHEDRAL>
-6.26639

>  <SCORE.INTRA.DIHEDRAL.0>
15.9129

>  <SCORE.INTRA.POLAR>
0

>  <SCORE.INTRA.POLAR.0>
0

>  <SCORE.INTRA.REPUL>
0

>  <SCORE.INTRA.REPUL.0>
0

>  <SCORE.INTRA.SOLV>
0.0991456

>  <SCORE.INTRA.SOLV.lig_0>
-75.7056

>  <SCORE.INTRA.VDW>
1.31018

>  <SCORE.INTRA.VDW.0>
-4.61812

>  <SCORE.INTRA.norm>
-0.0572078

>  <SCORE.RESTR>
0

>  <SCORE.RESTR.CAVITY>
0

>  <SCORE.RESTR.norm>
0

>  <SCORE.SYSTEM>
0

>  <SCORE.SYSTEM.CONST>
0

>  <SCORE.SYSTEM.DIHEDRAL>
0

>  <SCORE.SYSTEM.SOLV>
0

>  <SCORE.SYSTEM.norm>
0

>  <SCORE.heavy>
31

>  <SCORE.norm>
-0.136325

>  <RMSD>
2.982

$$$$
ligand
 OpenBabel11021811493D
libRbt.so/2013.1/901 2013/11/27
 31 33  0  0  0  0  0  0  0  0999 V2000
   20.4316   -7.8133   -6.6559 C   0  0  2  0  0  0  0  0  0  0  0  0
   20.9348   -7.9143   -5.3169 O   0  0  0  0  0  0  0  0  0  0  0  0
   22.6905  -11.3134   -3.4322 C   0  0  2  0  0  0  0  0  0  0  0  0
   22.8137  -12.6104   -2.8572 N   0  0  0  0  0  0  0  0  0  0  0  0
   22.7781  -13.1409   -6.6599 C   0  0  2  0  0  0  0  0  0  0  0  0
   20.5987   -6.3250   -7.0928 C   0  0  2  0  0  0  0  0  0  0  0  0
   22.0073   -5.9526   -6.9789 N   0  0  0  0  0  0  0  0  0  0  0  0
   21.6609  -10.4692   -2.5914 C   0  0  0  0  0  0  0  0  0  0  0  0
   22.3619  -14.4323   -5.9053 C   0  0  2  0  0  0  0  0  0  0  0  0
   21.3007  -14.1216   -5.0314 O   0  0  0  0  0  0  0  0  0  0  0  0
   19.6791   -5.3912   -6.2153 C   0  0  0  0  0  0  0  0  0  0  0  0
   21.5270   -9.0284   -3.2331 C   0  0  2  0  0  0  0  0  0  0  0  0
   20.5594   -8.2330   -2.4499 N   0  0  0  0  0  0  0  0  0  0  0  0
   23.6224  -14.9670   -5.1163 C   0  0  1  0  0  0  0  0  0  0  0  0
   23.2645  -16.1977   -4.3559 N   0  0  0  0  0  0  0  0  0  0  0  0
   18.3458   -6.0926   -5.7667 C   0  0  0  0  0  0  0  0  0  0  0  0
   21.0341   -9.1764   -4.7353 C   0  0  2  0  0  0  0  0  0  0  0  0
   24.8177  -15.3089   -6.1674 C   0  0  1  0  0  0  0  0  0  0  0  0
   24.4665  -16.3050   -7.0965 O   0  0  0  0  0  0  0  0  0  0  0  0
   18.1068   -7.3827   -6.0453 C   0  0  1  0  0  0  0  0  0  0  0  0
   19.0298   -8.1817   -6.7587 O   0  0  0  0  0  0  0  0  0  0  0  0
   22.0679  -10.0393   -5.5461 C   0  0  2  0  0  0  0  0  0  0  0  0
   21.6113  -10.1766   -6.8906 O   0  0  0  0  0  0  0  0  0  0  0  0
   25.1771  -14.0153   -6.9618 C   0  0  0  0  0  0  0  0  0  0  0  0
   23.9322  -13.4211   -7.5895 O   0  0  0  0  0  0  0  0  0  0  0  0
   16.8180   -8.1066   -5.6090 C   0  0  0  0  0  0  0  0  0  0  0  0
   16.0599   -7.2280   -4.7455 N   0  0  0  0  0  0  0  0  0  0  0  0
   22.1932  -11.4637   -4.8850 C   0  0  1  0  0  0  0  0  0  0  0  0
   23.1246  -12.2036   -5.6184 O   0  0  0  0  0  0  0  0  0  0  0  0
   26.1180  -15.8433   -5.5502 C   0  0  0  0  0  0  0  0  0  0  0  0
   23.8863  -16.3455   -3.0310 C   0  0  0  0  0  0  0  0  0  0  0  0
  1  2  1  1  0  0  0
  1  6  1  0  0  0  0
  1 21  1  0  0  0  0
  3  4  1  1  0  0  0
  3  8  1  0  0  0  0
  3 28  1  0  0  0  0
  5  9  1  0  0  0  0
  5 25  1  0  0  0  0
  5 29  1  1  0  0  0
  6  7  1  1  0  0  0
  6 11  1  0  0  0  0
  8 12  1  0  0  0  0
  9 10  1  1  0  0  0
  9 14  1  0  0  0  0
 11 16  1  0  0  0  0
 12 13  1  1  0  0  0
 12 17  1  0  0  0  0
 14 15  1  6  0  0  0
 14 18  1  0  0  0  0
 15 31  1  0  0  0  0
 16 20  1  0  0  0  0
 17  2  1  6  0  0  0
 17 22  1  0  0  0  0
 18 19  1  6  0  0  0
 18 24  1  0  0  0  0
 18 30  1  0  0  0  0
 20 21  1  0  0  0  0
 20 26  1  1  0  0  0
 22 23  1  6  0  0  0
 22 28  1  0  0  0  0
 24 25  1  0  0  0  0
 26 27  1  0  0  0  0
 28 29  1  6  0  0  0
M  END
>  <CHROM.1>
-173.24037499,-80.19788171,-142.59171606,-176.53888672,-7.23740034,144.34153324
21.72552018,-10.98378532,-5.40477772,-2.54347593,-0.88702344,2.26513218

>  <Name>
ligand

>  <RI>
0

>  <Rbt.Current_Directory>
/home/itssahil/PROJECTS/Mol_Feturizer/New_Systems/rnas/4F8V

>  <Rbt.Executable>
rbdock ($Id: //depot/dev/client3/rdock/2013.1/src/exe/rbdock.cxx#4 $)

>  <Rbt.Library>
libRbt.so (2013.1, Build901 2013/11/27)

>  <Rbt.Parameter_File>
/export/apps/rDock/src/rDock_2013.1_src/data/scripts/dock_solv.prm

>  <Rbt.Receptor>
prm/pocket_docking_4.prm

>  <SCORE>
-8.7981

>  <SCORE.INTER>
-8.10635

>  <SCORE.INTER.CONST>
1

>  <SCORE.INTER.POLAR>
0

>  <SCORE.INTER.ROT>
6

>  <SCORE.INTER.SOLV>
13.8556

>  <SCORE.INTER.VDW>
-17.6228

>  <SCORE.INTER.norm>
-0.261495

>  <SCORE.INTRA>
-0.69175

>  <SCORE.INTRA.DIHEDRAL>
-6.57349

>  <SCORE.INTRA.DIHEDRAL.0>
15.9129

>  <SCORE.INTRA.POLAR>
0

>  <SCORE.INTRA.POLAR.0>
0

>  <SCORE.INTRA.REPUL>
0

>  <SCORE.INTRA.REPUL.0>
0

>  <SCORE.INTRA.SOLV>
-0.492486

>  <SCORE.INTRA.SOLV.lig_0>
-75.7056

>  <SCORE.INTRA.VDW>
2.84124

>  <SCORE.INTRA.VDW.0>
-4.61812

>  <SCORE.INTRA.norm>
-0.0223145

>  <SCORE.RESTR>
0

>  <SCORE.RESTR.CAVITY>
0

>  <SCORE.RESTR.norm>
0

>  <SCORE.SYSTEM>
0

>  <SCORE.SYSTEM.CONST>
0

>  <SCORE.SYSTEM.DIHEDRAL>
0

>  <SCORE.SYSTEM.SOLV>
0

>  <SCORE.SYSTEM.norm>
0

>  <SCORE.heavy>
31

>  <SCORE.norm>
-0.28381

>  <RMSD>
3.017

$$$$
ligand
 OpenBabel11021811493D
libRbt.so/2013.1/901 2013/11/27
 31 33  0  0  0  0  0  0  0  0999 V2000
   21.6086   -9.1531   -5.3388 C   0  0  2  0  0  0  0  0  0  0  0  0
   20.5682  -10.0891   -5.0259 O   0  0  0  0  0  0  0  0  0  0  0  0
   21.6191  -10.8270   -0.9590 C   0  0  2  0  0  0  0  0  0  0  0  0
   21.5511  -11.3329    0.3704 N   0  0  0  0  0  0  0  0  0  0  0  0
   22.6986  -14.1444   -1.1411 C   0  0  2  0  0  0  0  0  0  0  0  0
   21.3096   -8.6026   -6.7676 C   0  0  2  0  0  0  0  0  0  0  0  0
   19.9764   -8.0038   -6.7758 N   0  0  0  0  0  0  0  0  0  0  0  0
   20.3673   -9.9109   -1.2297 C   0  0  0  0  0  0  0  0  0  0  0  0
   24.1691  -14.4749   -0.7686 C   0  0  2  0  0  0  0  0  0  0  0  0
   24.6377  -13.4953    0.1298 O   0  0  0  0  0  0  0  0  0  0  0  0
   21.4332   -9.7572   -7.8351 C   0  0  0  0  0  0  0  0  0  0  0  0
   20.4465   -9.3502   -2.7079 C   0  0  2  0  0  0  0  0  0  0  0  0
   19.2723   -8.4925   -2.9684 N   0  0  0  0  0  0  0  0  0  0  0  0
   25.0202  -14.4919   -2.1001 C   0  0  1  0  0  0  0  0  0  0  0  0
   26.4482  -14.7839   -1.7896 N   0  0  0  0  0  0  0  0  0  0  0  0
   22.5147  -10.8315   -7.4515 C   0  0  0  0  0  0  0  0  0  0  0  0
   20.4754  -10.5716   -3.7222 C   0  0  2  0  0  0  0  0  0  0  0  0
   24.4397  -15.6358   -3.1026 C   0  0  1  0  0  0  0  0  0  0  0  0
   24.5083  -16.9314   -2.5592 O   0  0  0  0  0  0  0  0  0  0  0  0
   23.1680  -10.7787   -6.2813 C   0  0  1  0  0  0  0  0  0  0  0  0
   22.9295   -9.7581   -5.3321 O   0  0  0  0  0  0  0  0  0  0  0  0
   21.7215  -11.4799   -3.4172 C   0  0  2  0  0  0  0  0  0  0  0  0
   21.7328  -12.5801   -4.3251 O   0  0  0  0  0  0  0  0  0  0  0  0
   22.9432  -15.3230   -3.4132 C   0  0  0  0  0  0  0  0  0  0  0  0
   22.1632  -15.1546   -2.1248 O   0  0  0  0  0  0  0  0  0  0  0  0
   24.2234  -11.8222   -5.8659 C   0  0  0  0  0  0  0  0  0  0  0  0
   25.5107  -11.1696   -5.7689 N   0  0  0  0  0  0  0  0  0  0  0  0
   21.6276  -12.0181   -1.9396 C   0  0  1  0  0  0  0  0  0  0  0  0
   22.7511  -12.8119   -1.6934 O   0  0  0  0  0  0  0  0  0  0  0  0
   25.1666  -15.7772   -4.4476 C   0  0  0  0  0  0  0  0  0  0  0  0
   27.3176  -13.6167   -1.5760 C   0  0  0  0  0  0  0  0  0  0  0  0
  1  2  1  6  0  0  0
  1  6  1  0  0  0  0
  1 21  1  0  0  0  0
  3  4  1  1  0  0  0
  3  8  1  0  0  0  0
  3 28  1  0  0  0  0
  5  9  1  0  0  0  0
  5 25  1  0  0  0  0
  5 29  1  6  0  0  0
  6  7  1  1  0  0  0
  6 11  1  0  0  0  0
  8 12  1  0  0  0  0
  9 10  1  1  0  0  0
  9 14  1  0  0  0  0
 11 16  1  0  0  0  0
 12 13  1  6  0  0  0
 12 17  1  0  0  0  0
 14 15  1  1  0  0  0
 14 18  1  0  0  0  0
 15 31  1  0  0  0  0
 16 20  1  0  0  0  0
 17  2  1  6  0  0  0
 17 22  1  0  0  0  0
 18 19  1  1  0  0  0
 18 24  1  0  0  0  0
 18 30  1  0  0  0  0
 20 21  1  0  0  0  0
 20 26  1  1  0  0  0
 22 23  1  6  0  0  0
 22 28  1  0  0  0  0
 24 25  1  0  0  0  0
 26 27  1  0  0  0  0
 28 29  1  1  0  0  0
M  END
>  <CHROM.1>
-169.94416350,-167.87705144,-92.46598218,52.10703230,114.92041652,111.27788419
22.74340904,-12.07831214,-3.47289628,-2.33183253,-0.79729738,1.96604122

>  <Name>
ligand

>  <RI>
0

>  <Rbt.Current_Directory>
/home/itssahil/PROJECTS/Mol_Feturizer/New_Systems/rnas/4F8V

>  <Rbt.Executable>
rbdock ($Id: //depot/dev/client3/rdock/2013.1/src/exe/rbdock.cxx#4 $)

>  <Rbt.Library>
libRbt.so (2013.1, Build901 2013/11/27)

>  <Rbt.Parameter_File>
/export/apps/rDock/src/rDock_2013.1_src/data/scripts/dock_solv.prm

>  <Rbt.Receptor>
prm/pocket_docking_5.prm

>  <SCORE>
-9.98815

>  <SCORE.INTER>
-7.59868

>  <SCORE.INTER.CONST>
1

>  <SCORE.INTER.POLAR>
0

>  <SCORE.INTER.ROT>
6

>  <SCORE.INTER.SOLV>
17.651

>  <SCORE.INTER.VDW>
-18.5495

>  <SCORE.INTER.norm>
-0.245119

>  <SCORE.INTRA>
-2.38947

>  <SCORE.INTRA.DIHEDRAL>
-5.20158

>  <SCORE.INTRA.DIHEDRAL.0>
15.9129

>  <SCORE.INTRA.POLAR>
0

>  <SCORE.INTRA.POLAR.0>
0

>  <SCORE.INTRA.REPUL>
0

>  <SCORE.INTRA.REPUL.0>
0

>  <SCORE.INTRA.SOLV>
-1.01707

>  <SCORE.INTRA.SOLV.lig_0>
-75.7056

>  <SCORE.INTRA.VDW>
0.719855

>  <SCORE.INTRA.VDW.0>
-4.61812

>  <SCORE.INTRA.norm>
-0.0770797

>  <SCORE.RESTR>
0

>  <SCORE.RESTR.CAVITY>
0

>  <SCORE.RESTR.norm>
0

>  <SCORE.SYSTEM>
0

>  <SCORE.SYSTEM.CONST>
0

>  <SCORE.SYSTEM.DIHEDRAL>
0

>  <SCORE.SYSTEM.SOLV>
0

>  <SCORE.SYSTEM.norm>
0

>  <SCORE.heavy>
31

>  <SCORE.norm>
-0.322198

>  <RMSD>
3.027

$$$$
ligand
 OpenBabel11021811493D
libRbt.so/2013.1/901 2013/11/27
 31 33  0  0  0  0  0  0  0  0999 V2000
   22.6837   -8.0779   -7.3901 C   0  0  2  0  0  0  0  0  0  0  0  0
   23.3555   -7.9349   -6.1312 O   0  0  0  0  0  0  0  0  0  0  0  0
   23.1594  -10.2950   -2.5844 C   0  0  2  0  0  0  0  0  0  0  0  0
   22.6176  -10.9636   -1.4498 N   0  0  0  0  0  0  0  0  0  0  0  0
   21.8628  -13.1058   -4.7227 C   0  0  2  0  0  0  0  0  0  0  0  0
   23.4406   -7.1763   -8.4138 C   0  0  2  0  0  0  0  0  0  0  0  0
   24.8427   -7.5864   -8.4610 N   0  0  0  0  0  0  0  0  0  0  0  0
   22.9147   -8.7462   -2.4393 C   0  0  0  0  0  0  0  0  0  0  0  0
   22.1688  -14.5071   -4.1284 C   0  0  2  0  0  0  0  0  0  0  0  0
   21.8934  -14.4806   -2.7464 O   0  0  0  0  0  0  0  0  0  0  0  0
   23.2939   -5.6568   -8.0171 C   0  0  0  0  0  0  0  0  0  0  0  0
   23.5185   -8.0065   -3.7018 C   0  0  2  0  0  0  0  0  0  0  0  0
   23.2885   -6.5530   -3.5724 N   0  0  0  0  0  0  0  0  0  0  0  0
   23.6887  -14.8372   -4.4083 C   0  0  1  0  0  0  0  0  0  0  0  0
   24.0363  -16.1680   -3.8346 N   0  0  0  0  0  0  0  0  0  0  0  0
   21.9215   -5.3363   -7.3208 C   0  0  0  0  0  0  0  0  0  0  0  0
   22.8146   -8.5636   -5.0117 C   0  0  2  0  0  0  0  0  0  0  0  0
   23.9552  -14.8542   -6.0143 C   0  0  1  0  0  0  0  0  0  0  0  0
   23.1964  -15.8279   -6.6887 O   0  0  0  0  0  0  0  0  0  0  0  0
   21.0421   -6.3064   -7.0296 C   0  0  1  0  0  0  0  0  0  0  0  0
   21.2919   -7.6643   -7.3345 O   0  0  0  0  0  0  0  0  0  0  0  0
   23.0568  -10.1128   -5.1214 C   0  0  2  0  0  0  0  0  0  0  0  0
   22.4116  -10.6061   -6.2940 O   0  0  0  0  0  0  0  0  0  0  0  0
   23.5803  -13.4591   -6.6033 C   0  0  0  0  0  0  0  0  0  0  0  0
   22.1698  -13.0799   -6.1991 O   0  0  0  0  0  0  0  0  0  0  0  0
   19.6943   -6.0310   -6.3347 C   0  0  0  0  0  0  0  0  0  0  0  0
   19.3999   -7.1274   -5.4383 N   0  0  0  0  0  0  0  0  0  0  0  0
   22.4579  -10.8272   -3.8514 C   0  0  1  0  0  0  0  0  0  0  0  0
   22.6966  -12.1989   -3.9706 O   0  0  0  0  0  0  0  0  0  0  0  0
   25.3947  -15.1633   -6.4497 C   0  0  0  0  0  0  0  0  0  0  0  0
   25.3590  -16.2755   -3.2000 C   0  0  0  0  0  0  0  0  0  0  0  0
  1  2  1  1  0  0  0
  1  6  1  0  0  0  0
  1 21  1  0  0  0  0
  3  4  1  1  0  0  0
  3  8  1  0  0  0  0
  3 28  1  0  0  0  0
  5  9  1  0  0  0  0
  5 25  1  0  0  0  0
  5 29  1  1  0  0  0
  6  7  1  1  0  0  0
  6 11  1  0  0  0  0
  8 12  1  0  0  0  0
  9 10  1  1  0  0  0
  9 14  1  0  0  0  0
 11 16  1  0  0  0  0
 12 13  1  1  0  0  0
 12 17  1  0  0  0  0
 14 15  1  6  0  0  0
 14 18  1  0  0  0  0
 15 31  1  0  0  0  0
 16 20  1  0  0  0  0
 17  2  1  6  0  0  0
 17 22  1  0  0  0  0
 18 19  1  6  0  0  0
 18 24  1  0  0  0  0
 18 30  1  0  0  0  0
 20 21  1  0  0  0  0
 20 26  1  1  0  0  0
 22 23  1  6  0  0  0
 22 28  1  0  0  0  0
 24 25  1  0  0  0  0
 26 27  1  0  0  0  0
 28 29  1  6  0  0  0
M  END
>  <CHROM.1>
175.21428036,-158.52894920,-140.71286031,-167.23445041,-143.75117286,157.55094593
22.81004338,-10.61513337,-5.32743758,-2.19640222,-1.27342449,2.29417271

>  <Name>
ligand

>  <RI>
0

>  <Rbt.Current_Directory>
/home/itssahil/PROJECTS/Mol_Feturizer/New_Systems/rnas/4F8V

>  <Rbt.Executable>
rbdock ($Id: //depot/dev/client3/rdock/2013.1/src/exe/rbdock.cxx#4 $)

>  <Rbt.Library>
libRbt.so (2013.1, Build901 2013/11/27)

>  <Rbt.Parameter_File>
/export/apps/rDock/src/rDock_2013.1_src/data/scripts/dock_solv.prm

>  <Rbt.Receptor>
prm/pocket_docking_7.prm

>  <SCORE>
-9.18359

>  <SCORE.INTER>
-6.28425

>  <SCORE.INTER.CONST>
1

>  <SCORE.INTER.POLAR>
0

>  <SCORE.INTER.ROT>
6

>  <SCORE.INTER.SOLV>
9.81708

>  <SCORE.INTER.VDW>
-15.0619

>  <SCORE.INTER.norm>
-0.202718

>  <SCORE.INTRA>
-2.89933

>  <SCORE.INTRA.DIHEDRAL>
-7.5559

>  <SCORE.INTRA.DIHEDRAL.0>
15.9129

>  <SCORE.INTRA.POLAR>
0

>  <SCORE.INTRA.POLAR.0>
0

>  <SCORE.INTRA.REPUL>
0

>  <SCORE.INTRA.REPUL.0>
0

>  <SCORE.INTRA.SOLV>
-1.54665

>  <SCORE.INTRA.SOLV.lig_0>
-75.7056

>  <SCORE.INTRA.VDW>
1.65194

>  <SCORE.INTRA.VDW.0>
-4.61812

>  <SCORE.INTRA.norm>
-0.0935269

>  <SCORE.RESTR>
0

>  <SCORE.RESTR.CAVITY>
0

>  <SCORE.RESTR.norm>
0

>  <SCORE.SYSTEM>
0

>  <SCORE.SYSTEM.CONST>
0

>  <SCORE.SYSTEM.DIHEDRAL>
0

>  <SCORE.SYSTEM.SOLV>
0

>  <SCORE.SYSTEM.norm>
0

>  <SCORE.heavy>
31

>  <SCORE.norm>
-0.296245

>  <RMSD>
3.056

$$$$
ligand
 OpenBabel11021811493D
libRbt.so/2013.1/901 2013/11/27
 31 33  0  0  0  0  0  0  0  0999 V2000
   23.0300   -8.4606   -6.9106 C   0  0  2  0  0  0  0  0  0  0  0  0
   23.9142   -7.9502   -5.9035 O   0  0  0  0  0  0  0  0  0  0  0  0
   25.0977   -9.5950   -2.1508 C   0  0  2  0  0  0  0  0  0  0  0  0
   25.0035  -10.1309   -0.8349 N   0  0  0  0  0  0  0  0  0  0  0  0
   24.8487  -12.6251   -1.9320 C   0  0  2  0  0  0  0  0  0  0  0  0
   23.4339   -7.7818   -8.2559 C   0  0  2  0  0  0  0  0  0  0  0  0
   24.8410   -8.0684   -8.5281 N   0  0  0  0  0  0  0  0  0  0  0  0
   24.5358   -8.1240   -2.1530 C   0  0  0  0  0  0  0  0  0  0  0  0
   25.6513  -13.8727   -2.3902 C   0  0  2  0  0  0  0  0  0  0  0  0
   26.9107  -13.4505   -2.8612 O   0  0  0  0  0  0  0  0  0  0  0  0
   23.1607   -6.2298   -8.1888 C   0  0  0  0  0  0  0  0  0  0  0  0
   24.6425   -7.5315   -3.6170 C   0  0  2  0  0  0  0  0  0  0  0  0
   24.1133   -6.1523   -3.6254 N   0  0  0  0  0  0  0  0  0  0  0  0
   24.8240  -14.5986   -3.5242 C   0  0  1  0  0  0  0  0  0  0  0  0
   25.5676  -15.7941   -4.0129 N   0  0  0  0  0  0  0  0  0  0  0  0
   21.9250   -5.8648   -7.2884 C   0  0  0  0  0  0  0  0  0  0  0  0
   23.8081   -8.4504   -4.6075 C   0  0  2  0  0  0  0  0  0  0  0  0
   23.3807  -15.0641   -2.9319 C   0  0  1  0  0  0  0  0  0  0  0  0
   23.4903  -15.9723   -1.8634 O   0  0  0  0  0  0  0  0  0  0  0  0
   21.2649   -6.8033   -6.5936 C   0  0  1  0  0  0  0  0  0  0  0  0
   21.6341   -8.1676   -6.6337 O   0  0  0  0  0  0  0  0  0  0  0  0
   24.3758   -9.9156   -4.5707 C   0  0  2  0  0  0  0  0  0  0  0  0
   23.6134  -10.7359   -5.4542 O   0  0  0  0  0  0  0  0  0  0  0  0
   22.6164  -13.8053   -2.4170 C   0  0  0  0  0  0  0  0  0  0  0  0
   23.4797  -13.0279   -1.4438 O   0  0  0  0  0  0  0  0  0  0  0  0
   20.0590   -6.4800   -5.6900 C   0  0  0  0  0  0  0  0  0  0  0  0
   18.9674   -7.3637   -6.0362 N   0  0  0  0  0  0  0  0  0  0  0  0
   24.2696  -10.4813   -3.1043 C   0  0  1  0  0  0  0  0  0  0  0  0
   24.7901  -11.7782   -3.0993 O   0  0  0  0  0  0  0  0  0  0  0  0
   22.4555  -15.7894   -3.9194 C   0  0  0  0  0  0  0  0  0  0  0  0
   25.7143  -15.9153   -5.4716 C   0  0  0  0  0  0  0  0  0  0  0  0
  1  2  1  1  0  0  0
  1  6  1  0  0  0  0
  1 21  1  0  0  0  0
  3  4  1  1  0  0  0
  3  8  1  0  0  0  0
  3 28  1  0  0  0  0
  5  9  1  0  0  0  0
  5 25  1  0  0  0  0
  5 29  1  6  0  0  0
  6  7  1  1  0  0  0
  6 11  1  0  0  0  0
  8 12  1  0  0  0  0
  9 10  1  6  0  0  0
  9 14  1  0  0  0  0
 11 16  1  0  0  0  0
 12 13  1  1  0  0  0
 12 17  1  0  0  0  0
 14 15  1  1  0  0  0
 14 18  1  0  0  0  0
 15 31  1  0  0  0  0
 16 20  1  0  0  0  0
 17  2  1  6  0  0  0
 17 22  1  0  0  0  0
 18 19  1  1  0  0  0
 18 24  1  0  0  0  0
 18 30  1  0  0  0  0
 20 21  1  0  0  0  0
 20 26  1  1  0  0  0
 22 23  1  6  0  0  0
 22 28  1  0  0  0  0
 24 25  1  0  0  0  0
 26 27  1  0  0  0  0
 28 29  1  6  0  0  0
M  END
>  <CHROM.1>
-176.88503800,-173.42824867,-130.36875847,-167.61631476,128.96596674,61.63703820
23.72454456,-10.56588197,-4.38142704,2.18240723,-1.11763003,0.11419261

>  <Name>
ligand

>  <RI>
0

>  <Rbt.Current_Directory>
/home/itssahil/PROJECTS/Mol_Feturizer/New_Systems/rnas/4F8V

>  <Rbt.Executable>
rbdock ($Id: //depot/dev/client3/rdock/2013.1/src/exe/rbdock.cxx#4 $)

>  <Rbt.Library>
libRbt.so (2013.1, Build901 2013/11/27)

>  <Rbt.Parameter_File>
/export/apps/rDock/src/rDock_2013.1_src/data/scripts/dock_solv.prm

>  <Rbt.Receptor>
prm/pocket_docking_7.prm

>  <SCORE>
-10.605

>  <SCORE.INTER>
-5.56999

>  <SCORE.INTER.CONST>
1

>  <SCORE.INTER.POLAR>
0

>  <SCORE.INTER.ROT>
6

>  <SCORE.INTER.SOLV>
9.462

>  <SCORE.INTER.VDW>
-14.4673

>  <SCORE.INTER.norm>
-0.179677

>  <SCORE.INTRA>
-5.035

>  <SCORE.INTRA.DIHEDRAL>
-12.0086

>  <SCORE.INTRA.DIHEDRAL.0>
15.9129

>  <SCORE.INTRA.POLAR>
0

>  <SCORE.INTRA.POLAR.0>
0

>  <SCORE.INTRA.REPUL>
0

>  <SCORE.INTRA.REPUL.0>
0

>  <SCORE.INTRA.SOLV>
-1.99138

>  <SCORE.INTRA.SOLV.lig_0>
-75.7056

>  <SCORE.INTRA.VDW>
1.96497

>  <SCORE.INTRA.VDW.0>
-4.61812

>  <SCORE.INTRA.norm>
-0.162419

>  <SCORE.RESTR>
0

>  <SCORE.RESTR.CAVITY>
0

>  <SCORE.RESTR.norm>
0

>  <SCORE.SYSTEM>
0

>  <SCORE.SYSTEM.CONST>
0

>  <SCORE.SYSTEM.DIHEDRAL>
0

>  <SCORE.SYSTEM.SOLV>
0

>  <SCORE.SYSTEM.norm>
0

>  <SCORE.heavy>
31

>  <SCORE.norm>
-0.342096

>  <RMSD>
3.218

$$$$
ligand
 OpenBabel11021811493D
libRbt.so/2013.1/901 2013/11/27
 31 33  0  0  0  0  0  0  0  0999 V2000
   22.2357   -8.7012   -7.1935 C   0  0  2  0  0  0  0  0  0  0  0  0
   22.7902   -8.6411   -5.8724 O   0  0  0  0  0  0  0  0  0  0  0  0
   23.2777  -11.7216   -2.9635 C   0  0  2  0  0  0  0  0  0  0  0  0
   22.9500  -12.7609   -2.0468 N   0  0  0  0  0  0  0  0  0  0  0  0
   23.1841  -14.5831   -4.1380 C   0  0  2  0  0  0  0  0  0  0  0  0
   22.8268   -7.4966   -7.9893 C   0  0  2  0  0  0  0  0  0  0  0  0
   24.2855   -7.5878   -7.9738 N   0  0  0  0  0  0  0  0  0  0  0  0
   22.5960  -10.3821   -2.4939 C   0  0  0  0  0  0  0  0  0  0  0  0
   24.1010  -15.5579   -4.9250 C   0  0  2  0  0  0  0  0  0  0  0  0
   25.4266  -15.0840   -4.8570 O   0  0  0  0  0  0  0  0  0  0  0  0
   22.3244   -6.1346   -7.3726 C   0  0  0  0  0  0  0  0  0  0  0  0
   22.9627   -9.2293   -3.5148 C   0  0  2  0  0  0  0  0  0  0  0  0
   22.3227   -7.9707   -3.0807 N   0  0  0  0  0  0  0  0  0  0  0  0
   23.5852  -15.6190   -6.4175 C   0  0  1  0  0  0  0  0  0  0  0  0
   24.4509  -16.5286   -7.2201 N   0  0  0  0  0  0  0  0  0  0  0  0
   20.8797   -6.2362   -6.7613 C   0  0  0  0  0  0  0  0  0  0  0  0
   22.4520   -9.6394   -4.9614 C   0  0  2  0  0  0  0  0  0  0  0  0
   22.0532  -16.1694   -6.4418 C   0  0  1  0  0  0  0  0  0  0  0  0
   21.9251  -17.4668   -5.9135 O   0  0  0  0  0  0  0  0  0  0  0  0
   20.2241   -7.4051   -6.7077 C   0  0  1  0  0  0  0  0  0  0  0  0
   20.7859   -8.6059   -7.1994 O   0  0  0  0  0  0  0  0  0  0  0  0
   23.1313  -10.9884   -5.3968 C   0  0  2  0  0  0  0  0  0  0  0  0
   22.6581  -11.3547   -6.6916 O   0  0  0  0  0  0  0  0  0  0  0  0
   21.1596  -15.2136   -5.5923 C   0  0  0  0  0  0  0  0  0  0  0  0
   21.7477  -15.0377   -4.2067 O   0  0  0  0  0  0  0  0  0  0  0  0
   18.8134   -7.5446   -6.1027 C   0  0  0  0  0  0  0  0  0  0  0  0
   18.8795   -8.4402   -4.9687 N   0  0  0  0  0  0  0  0  0  0  0  0
   22.7620  -12.1179   -4.3626 C   0  0  1  0  0  0  0  0  0  0  0  0
   23.3868  -13.3004   -4.7680 O   0  0  0  0  0  0  0  0  0  0  0  0
   21.4072  -16.2871   -7.8297 C   0  0  0  0  0  0  0  0  0  0  0  0
   25.5854  -15.8997   -7.9138 C   0  0  0  0  0  0  0  0  0  0  0  0
  1  2  1  1  0  0  0
  1  6  1  0  0  0  0
  1 21  1  0  0  0  0
  3  4  1  1  0  0  0
  3  8  1  0  0  0  0
  3 28  1  0  0  0  0
  5  9  1  0  0  0  0
  5 25  1  0  0  0  0
  5 29  1  6  0  0  0
  6  7  1  1  0  0  0
  6 11  1  0  0  0  0
  8 12  1  0  0  0  0
  9 10  1  6  0  0  0
  9 14  1  0  0  0  0
 11 16  1  0  0  0  0
 12 13  1  1  0  0  0
 12 17  1  0  0  0  0
 14 15  1  6  0  0  0
 14 18  1  0  0  0  0
 15 31  1  0  0  0  0
 16 20  1  0  0  0  0
 17  2  1  6  0  0  0
 17 22  1  0  0  0  0
 18 19  1  1  0  0  0
 18 24  1  0  0  0  0
 18 30  1  0  0  0  0
 20 21  1  0  0  0  0
 20 26  1  1  0  0  0
 22 23  1  6  0  0  0
 22 28  1  0  0  0  0
 24 25  1  0  0  0  0
 26 27  1  0  0  0  0
 28 29  1  6  0  0  0
M  END
>  <CHROM.1>
-178.04028939,-179.15535924,-91.76769683,-169.91022657,-118.04208653,66.84308522
22.49410152,-11.65110630,-5.62397379,-2.99855913,-1.35559919,1.67078980

>  <Name>
ligand

>  <RI>
0

>  <Rbt.Current_Directory>
/home/itssahil/PROJECTS/Mol_Feturizer/New_Systems/rnas/4F8V

>  <Rbt.Executable>
rbdock ($Id: //depot/dev/client3/rdock/2013.1/src/exe/rbdock.cxx#4 $)

>  <Rbt.Library>
libRbt.so (2013.1, Build901 2013/11/27)

>  <Rbt.Parameter_File>
/export/apps/rDock/src/rDock_2013.1_src/data/scripts/dock_solv.prm

>  <Rbt.Receptor>
prm/pocket_docking_5.prm

>  <SCORE>
-9.7897

>  <SCORE.INTER>
-4.81039

>  <SCORE.INTER.CONST>
1

>  <SCORE.INTER.POLAR>
0

>  <SCORE.INTER.ROT>
6

>  <SCORE.INTER.SOLV>
6.6586

>  <SCORE.INTER.VDW>
-13.0265

>  <SCORE.INTER.norm>
-0.155174

>  <SCORE.INTRA>
-4.97931

>  <SCORE.INTRA.DIHEDRAL>
-12.8272

>  <SCORE.INTRA.DIHEDRAL.0>
15.9129

>  <SCORE.INTRA.POLAR>
0

>  <SCORE.INTRA.POLAR.0>
0

>  <SCORE.INTRA.REPUL>
0

>  <SCORE.INTRA.REPUL.0>
0

>  <SCORE.INTRA.SOLV>
-0.522085

>  <SCORE.INTRA.SOLV.lig_0>
-75.7056

>  <SCORE.INTRA.VDW>
1.69535

>  <SCORE.INTRA.VDW.0>
-4.61812

>  <SCORE.INTRA.norm>
-0.160623

>  <SCORE.RESTR>
0

>  <SCORE.RESTR.CAVITY>
0

>  <SCORE.RESTR.norm>
0

>  <SCORE.SYSTEM>
0

>  <SCORE.SYSTEM.CONST>
0

>  <SCORE.SYSTEM.DIHEDRAL>
0

>  <SCORE.SYSTEM.SOLV>
0

>  <SCORE.SYSTEM.norm>
0

>  <SCORE.heavy>
31

>  <SCORE.norm>
-0.315797

>  <RMSD>
3.242

$$$$
ligand
 OpenBabel11021811493D
libRbt.so/2013.1/901 2013/11/27
 31 33  0  0  0  0  0  0  0  0999 V2000
   23.0484   -8.5057   -6.9213 C   0  0  2  0  0  0  0  0  0  0  0  0
   23.9336   -7.9713   -5.9277 O   0  0  0  0  0  0  0  0  0  0  0  0
   25.2502   -9.6371   -2.2290 C   0  0  2  0  0  0  0  0  0  0  0  0
   25.2024  -10.1876   -0.9165 N   0  0  0  0  0  0  0  0  0  0  0  0
   25.0751  -12.6618   -2.0294 C   0  0  2  0  0  0  0  0  0  0  0  0
   23.4200   -7.8241   -8.2744 C   0  0  2  0  0  0  0  0  0  0  0  0
   24.8296   -8.0804   -8.5633 N   0  0  0  0  0  0  0  0  0  0  0  0
   24.6683   -8.1742   -2.1992 C   0  0  0  0  0  0  0  0  0  0  0  0
   25.8379  -13.9144   -2.5390 C   0  0  2  0  0  0  0  0  0  0  0  0
   27.0659  -13.5000   -3.0927 O   0  0  0  0  0  0  0  0  0  0  0  0
   23.1130   -6.2783   -8.2103 C   0  0  0  0  0  0  0  0  0  0  0  0
   24.7235   -7.5655   -3.6593 C   0  0  2  0  0  0  0  0  0  0  0  0
   24.1755   -6.1938   -3.6377 N   0  0  0  0  0  0  0  0  0  0  0  0
   24.9329  -14.6353   -3.6154 C   0  0  1  0  0  0  0  0  0  0  0  0
   25.6351  -15.8355   -4.1516 N   0  0  0  0  0  0  0  0  0  0  0  0
   21.8809   -5.9369   -7.2957 C   0  0  0  0  0  0  0  0  0  0  0  0
   23.8728   -8.4859   -4.6344 C   0  0  2  0  0  0  0  0  0  0  0  0
   23.5291  -15.0918   -2.9286 C   0  0  1  0  0  0  0  0  0  0  0  0
   23.7037  -16.0005   -1.8691 O   0  0  0  0  0  0  0  0  0  0  0  0
   21.2508   -6.8868   -6.5887 C   0  0  1  0  0  0  0  0  0  0  0  0
   21.6499   -8.2427   -6.6278 O   0  0  0  0  0  0  0  0  0  0  0  0
   24.4614   -9.9434   -4.6298 C   0  0  2  0  0  0  0  0  0  0  0  0
   23.6844  -10.7653   -5.4989 O   0  0  0  0  0  0  0  0  0  0  0  0
   22.8083  -13.8283   -2.3649 C   0  0  0  0  0  0  0  0  0  0  0  0
   23.7390  -13.0561   -1.4514 O   0  0  0  0  0  0  0  0  0  0  0  0
   20.0495   -6.5865   -5.6711 C   0  0  0  0  0  0  0  0  0  0  0  0
   18.9851   -7.5166   -5.9780 N   0  0  0  0  0  0  0  0  0  0  0  0
   24.4064  -10.5253   -3.1668 C   0  0  1  0  0  0  0  0  0  0  0  0
   24.9446  -11.8147   -3.1908 O   0  0  0  0  0  0  0  0  0  0  0  0
   22.5361  -15.8116   -3.8523 C   0  0  0  0  0  0  0  0  0  0  0  0
   25.7924  -15.8963   -5.6129 C   0  0  0  0  0  0  0  0  0  0  0  0
  1  2  1  1  0  0  0
  1  6  1  0  0  0  0
  1 21  1  0  0  0  0
  3  4  1  1  0  0  0
  3  8  1  0  0  0  0
  3 28  1  0  0  0  0
  5  9  1  0  0  0  0
  5 25  1  0  0  0  0
  5 29  1  6  0  0  0
  6  7  1  1  0  0  0
  6 11  1  0  0  0  0
  8 12  1  0  0  0  0
  9 10  1  6  0  0  0
  9 14  1  0  0  0  0
 11 16  1  0  0  0  0
 12 13  1  1  0  0  0
 12 17  1  0  0  0  0
 14 15  1  1  0  0  0
 14 18  1  0  0  0  0
 15 31  1  0  0  0  0
 16 20  1  0  0  0  0
 17  2  1  6  0  0  0
 17 22  1  0  0  0  0
 18 19  1  1  0  0  0
 18 24  1  0  0  0  0
 18 30  1  0  0  0  0
 20 21  1  0  0  0  0
 20 26  1  1  0  0  0
 22 23  1  6  0  0  0
 22 28  1  0  0  0  0
 24 25  1  0  0  0  0
 26 27  1  0  0  0  0
 28 29  1  6  0  0  0
M  END
>  <CHROM.1>
-175.66937411,-174.86003146,-124.95971165,-169.05196745,130.31354007,60.27289943
23.81519227,-10.60990201,-4.42410285,2.18184634,-1.08180038,0.10896067

>  <Name>
ligand

>  <RI>
0

>  <Rbt.Current_Directory>
/home/itssahil/PROJECTS/Mol_Feturizer/New_Systems/rnas/4F8V

>  <Rbt.Executable>
rbdock ($Id: //depot/dev/client3/rdock/2013.1/src/exe/rbdock.cxx#4 $)

>  <Rbt.Library>
libRbt.so (2013.1, Build901 2013/11/27)

>  <Rbt.Parameter_File>
/export/apps/rDock/src/rDock_2013.1_src/data/scripts/dock_solv.prm

>  <Rbt.Receptor>
prm/pocket_docking_8.prm

>  <SCORE>
-10.4721

>  <SCORE.INTER>
-5.50329

>  <SCORE.INTER.CONST>
1

>  <SCORE.INTER.POLAR>
0

>  <SCORE.INTER.ROT>
6

>  <SCORE.INTER.SOLV>
9.05551

>  <SCORE.INTER.VDW>
-14.2874

>  <SCORE.INTER.norm>
-0.177526

>  <SCORE.INTRA>
-4.96883

>  <SCORE.INTRA.DIHEDRAL>
-12.1146

>  <SCORE.INTRA.DIHEDRAL.0>
15.9129

>  <SCORE.INTRA.POLAR>
0

>  <SCORE.INTRA.POLAR.0>
0

>  <SCORE.INTRA.REPUL>
0

>  <SCORE.INTRA.REPUL.0>
0

>  <SCORE.INTRA.SOLV>
-1.98887

>  <SCORE.INTRA.SOLV.lig_0>
-75.7056

>  <SCORE.INTRA.VDW>
2.08292

>  <SCORE.INTRA.VDW.0>
-4.61812

>  <SCORE.INTRA.norm>
-0.160285

>  <SCORE.RESTR>
0

>  <SCORE.RESTR.CAVITY>
0

>  <SCORE.RESTR.norm>
0

>  <SCORE.SYSTEM>
0

>  <SCORE.SYSTEM.CONST>
0

>  <SCORE.SYSTEM.DIHEDRAL>
0

>  <SCORE.SYSTEM.SOLV>
0

>  <SCORE.SYSTEM.norm>
0

>  <SCORE.heavy>
31

>  <SCORE.norm>
-0.33781

>  <RMSD>
3.279

$$$$
ligand
 OpenBabel11021811493D
libRbt.so/2013.1/901 2013/11/27
 31 33  0  0  0  0  0  0  0  0999 V2000
   22.9293   -8.2350   -7.3568 C   0  0  2  0  0  0  0  0  0  0  0  0
   23.8194   -7.9128   -6.2797 O   0  0  0  0  0  0  0  0  0  0  0  0
   24.8223  -10.0128   -2.7058 C   0  0  2  0  0  0  0  0  0  0  0  0
   24.6657  -10.7016   -1.4693 N   0  0  0  0  0  0  0  0  0  0  0  0
   24.5250  -13.0479   -2.8689 C   0  0  2  0  0  0  0  0  0  0  0  0
   23.4540   -7.4841   -8.6196 C   0  0  2  0  0  0  0  0  0  0  0  0
   24.8345   -7.8909   -8.8739 N   0  0  0  0  0  0  0  0  0  0  0  0
   24.2741   -8.5445   -2.5545 C   0  0  0  0  0  0  0  0  0  0  0  0
   25.3252  -14.2482   -3.4429 C   0  0  2  0  0  0  0  0  0  0  0  0
   26.6131  -13.8015   -3.8009 O   0  0  0  0  0  0  0  0  0  0  0  0
   23.3372   -5.9244   -8.4160 C   0  0  0  0  0  0  0  0  0  0  0  0
   24.4502   -7.7820   -3.9304 C   0  0  2  0  0  0  0  0  0  0  0  0
   23.9341   -6.4045   -3.7949 N   0  0  0  0  0  0  0  0  0  0  0  0
   24.5393  -14.8078   -4.6944 C   0  0  1  0  0  0  0  0  0  0  0  0
   25.2829  -15.9513   -5.2948 N   0  0  0  0  0  0  0  0  0  0  0  0
   22.1096   -5.5143   -7.5238 C   0  0  0  0  0  0  0  0  0  0  0  0
   23.6521   -8.5634   -5.0591 C   0  0  2  0  0  0  0  0  0  0  0  0
   23.0612  -15.3080   -4.2299 C   0  0  1  0  0  0  0  0  0  0  0  0
   23.1033  -16.3439   -3.2792 O   0  0  0  0  0  0  0  0  0  0  0  0
   21.3302   -6.4372   -6.9407 C   0  0  1  0  0  0  0  0  0  0  0  0
   21.5603   -7.8235   -7.0968 O   0  0  0  0  0  0  0  0  0  0  0  0
   24.2047  -10.0303   -5.1752 C   0  0  2  0  0  0  0  0  0  0  0  0
   23.4745  -10.7277   -6.1828 O   0  0  0  0  0  0  0  0  0  0  0  0
   22.2967  -14.1046   -3.5966 C   0  0  0  0  0  0  0  0  0  0  0  0
   23.1272  -13.4748   -2.4964 O   0  0  0  0  0  0  0  0  0  0  0  0
   20.1279   -6.0719   -6.0483 C   0  0  0  0  0  0  0  0  0  0  0  0
   18.9776   -6.8344   -6.4816 N   0  0  0  0  0  0  0  0  0  0  0  0
   24.0290  -10.7665   -3.7935 C   0  0  1  0  0  0  0  0  0  0  0  0
   24.5374  -12.0618   -3.9229 O   0  0  0  0  0  0  0  0  0  0  0  0
   22.1705  -15.8829   -5.3405 C   0  0  0  0  0  0  0  0  0  0  0  0
   26.2187  -15.6186   -6.3799 C   0  0  0  0  0  0  0  0  0  0  0  0
  1  2  1  1  0  0  0
  1  6  1  0  0  0  0
  1 21  1  0  0  0  0
  3  4  1  1  0  0  0
  3  8  1  0  0  0  0
  3 28  1  0  0  0  0
  5  9  1  0  0  0  0
  5 25  1  0  0  0  0
  5 29  1  6  0  0  0
  6  7  1  1  0  0  0
  6 11  1  0  0  0  0
  8 12  1  0  0  0  0
  9 10  1  6  0  0  0
  9 14  1  0  0  0  0
 11 16  1  0  0  0  0
 12 13  1  1  0  0  0
 12 17  1  0  0  0  0
 14 15  1  1  0  0  0
 14 18  1  0  0  0  0
 15 31  1  0  0  0  0
 16 20  1  0  0  0  0
 17  2  1  6  0  0  0
 17 22  1  0  0  0  0
 18 19  1  1  0  0  0
 18 24  1  0  0  0  0
 18 30  1  0  0  0  0
 20 21  1  0  0  0  0
 20 26  1  1  0  0  0
 22 23  1  6  0  0  0
 22 28  1  0  0  0  0
 24 25  1  0  0  0  0
 26 27  1  0  0  0  0
 28 29  1  6  0  0  0
M  END
>  <CHROM.1>
-173.72776869,-174.12671817,-92.48651493,-164.33735328,130.81369591,62.28636640
23.57541088,-10.64086208,-5.08463600,2.31586217,-1.22915982,0.37992471

>  <Name>
ligand

>  <RI>
0

>  <Rbt.Current_Directory>
/home/itssahil/PROJECTS/Mol_Feturizer/New_Systems/rnas/4F8V

>  <Rbt.Executable>
rbdock ($Id: //depot/dev/client3/rdock/2013.1/src/exe/rbdock.cxx#4 $)

>  <Rbt.Library>
libRbt.so (2013.1, Build901 2013/11/27)

>  <Rbt.Parameter_File>
/export/apps/rDock/src/rDock_2013.1_src/data/scripts/dock_solv.prm

>  <Rbt.Receptor>
prm/pocket_docking_5.prm

>  <SCORE>
-9.99888

>  <SCORE.INTER>
-5.13789

>  <SCORE.INTER.CONST>
1

>  <SCORE.INTER.POLAR>
0

>  <SCORE.INTER.ROT>
6

>  <SCORE.INTER.SOLV>
11.0037

>  <SCORE.INTER.VDW>
-14.6932

>  <SCORE.INTER.norm>
-0.165738

>  <SCORE.INTRA>
-4.86099

>  <SCORE.INTRA.DIHEDRAL>
-11.8696

>  <SCORE.INTRA.DIHEDRAL.0>
15.9129

>  <SCORE.INTRA.POLAR>
0

>  <SCORE.INTRA.POLAR.0>
0

>  <SCORE.INTRA.REPUL>
0

>  <SCORE.INTRA.REPUL.0>
0

>  <SCORE.INTRA.SOLV>
-1.63918

>  <SCORE.INTRA.SOLV.lig_0>
-75.7056

>  <SCORE.INTRA.VDW>
1.89339

>  <SCORE.INTRA.VDW.0>
-4.61812

>  <SCORE.INTRA.norm>
-0.156806

>  <SCORE.RESTR>
0

>  <SCORE.RESTR.CAVITY>
0

>  <SCORE.RESTR.norm>
0

>  <SCORE.SYSTEM>
0

>  <SCORE.SYSTEM.CONST>
0

>  <SCORE.SYSTEM.DIHEDRAL>
0

>  <SCORE.SYSTEM.SOLV>
0

>  <SCORE.SYSTEM.norm>
0

>  <SCORE.heavy>
31

>  <SCORE.norm>
-0.322545

>  <RMSD>
3.331

$$$$
ligand
 OpenBabel11021811493D
libRbt.so/2013.1/901 2013/11/27
 31 33  0  0  0  0  0  0  0  0999 V2000
   20.6476   -7.7841   -5.7196 C   0  0  2  0  0  0  0  0  0  0  0  0
   21.6557   -8.0683   -4.7401 O   0  0  0  0  0  0  0  0  0  0  0  0
   21.3099   -9.6679   -0.8018 C   0  0  2  0  0  0  0  0  0  0  0  0
   21.0351  -10.5878    0.2499 N   0  0  0  0  0  0  0  0  0  0  0  0
   23.6407  -11.5494   -0.0066 C   0  0  2  0  0  0  0  0  0  0  0  0
   20.6607   -8.9638   -6.7403 C   0  0  2  0  0  0  0  0  0  0  0  0
   20.4272  -10.2150   -6.0220 N   0  0  0  0  0  0  0  0  0  0  0  0
   19.9756   -9.3513   -1.5756 C   0  0  0  0  0  0  0  0  0  0  0  0
   25.0594  -11.3245    0.5827 C   0  0  2  0  0  0  0  0  0  0  0  0
   25.1572   -9.9900    1.0255 O   0  0  0  0  0  0  0  0  0  0  0  0
   22.0285   -8.9923   -7.5253 C   0  0  0  0  0  0  0  0  0  0  0  0
   20.2848   -8.3284   -2.7433 C   0  0  2  0  0  0  0  0  0  0  0  0
   19.0365   -8.0305   -3.4750 N   0  0  0  0  0  0  0  0  0  0  0  0
   26.1160  -11.6360   -0.5503 C   0  0  1  0  0  0  0  0  0  0  0  0
   27.4969  -11.4117   -0.0364 N   0  0  0  0  0  0  0  0  0  0  0  0
   22.6407   -7.5605   -7.7394 C   0  0  0  0  0  0  0  0  0  0  0  0
   21.3592   -8.9704   -3.7206 C   0  0  2  0  0  0  0  0  0  0  0  0
   25.9615  -13.1848   -1.0278 C   0  0  1  0  0  0  0  0  0  0  0  0
   26.1926  -14.1069    0.0090 O   0  0  0  0  0  0  0  0  0  0  0  0
   22.0704   -6.4696   -7.2064 C   0  0  1  0  0  0  0  0  0  0  0  0
   20.8901   -6.5407   -6.4311 O   0  0  0  0  0  0  0  0  0  0  0  0
   22.6721   -9.2951   -2.9196 C   0  0  2  0  0  0  0  0  0  0  0  0
   23.6267   -9.8817   -3.8025 O   0  0  0  0  0  0  0  0  0  0  0  0
   24.5106  -13.4082   -1.5557 C   0  0  0  0  0  0  0  0  0  0  0  0
   23.4995  -12.9609   -0.5192 O   0  0  0  0  0  0  0  0  0  0  0  0
   22.6505   -5.0528   -7.3834 C   0  0  0  0  0  0  0  0  0  0  0  0
   23.9893   -5.0260   -6.8363 N   0  0  0  0  0  0  0  0  0  0  0  0
   22.3398  -10.3055   -1.7575 C   0  0  1  0  0  0  0  0  0  0  0  0
   23.5205  -10.5671   -1.0573 O   0  0  0  0  0  0  0  0  0  0  0  0
   26.9259  -13.6435   -2.1309 C   0  0  0  0  0  0  0  0  0  0  0  0
   28.0441  -10.0581   -0.2162 C   0  0  0  0  0  0  0  0  0  0  0  0
  1  2  1  1  0  0  0
  1  6  1  0  0  0  0
  1 21  1  0  0  0  0
  3  4  1  1  0  0  0
  3  8  1  0  0  0  0
  3 28  1  0  0  0  0
  5  9  1  0  0  0  0
  5 25  1  0  0  0  0
  5 29  1  6  0  0  0
  6  7  1  1  0  0  0
  6 11  1  0  0  0  0
  8 12  1  0  0  0  0
  9 10  1  6  0  0  0
  9 14  1  0  0  0  0
 11 16  1  0  0  0  0
 12 13  1  6  0  0  0
 12 17  1  0  0  0  0
 14 15  1  1  0  0  0
 14 18  1  0  0  0  0
 15 31  1  0  0  0  0
 16 20  1  0  0  0  0
 17  2  1  6  0  0  0
 17 22  1  0  0  0  0
 18 19  1  1  0  0  0
 18 24  1  0  0  0  0
 18 30  1  0  0  0  0
 20 21  1  0  0  0  0
 20 26  1  1  0  0  0
 22 23  1  6  0  0  0
 22 28  1  0  0  0  0
 24 25  1  0  0  0  0
 26 27  1  0  0  0  0
 28 29  1  1  0  0  0
M  END
>  <CHROM.1>
-79.82397864,-172.20914155,-90.26236577,-69.16371603,-59.59138666,67.36250003
23.11667094,-9.79014638,-2.95904479,2.06393627,0.17688399,-0.98880094

>  <Name>
ligand

>  <RI>
0

>  <Rbt.Current_Directory>
/home/itssahil/PROJECTS/Mol_Feturizer/New_Systems/rnas/4F8V

>  <Rbt.Executable>
rbdock ($Id: //depot/dev/client3/rdock/2013.1/src/exe/rbdock.cxx#4 $)

>  <Rbt.Library>
libRbt.so (2013.1, Build901 2013/11/27)

>  <Rbt.Parameter_File>
/export/apps/rDock/src/rDock_2013.1_src/data/scripts/dock_solv.prm

>  <Rbt.Receptor>
prm/pocket_docking_7.prm

>  <SCORE>
-8.29242

>  <SCORE.INTER>
-7.17458

>  <SCORE.INTER.CONST>
1

>  <SCORE.INTER.POLAR>
0

>  <SCORE.INTER.ROT>
6

>  <SCORE.INTER.SOLV>
12.2587

>  <SCORE.INTER.VDW>
-16.4693

>  <SCORE.INTER.norm>
-0.231438

>  <SCORE.INTRA>
-1.11784

>  <SCORE.INTRA.DIHEDRAL>
-8.96507

>  <SCORE.INTRA.DIHEDRAL.0>
15.9129

>  <SCORE.INTRA.POLAR>
0

>  <SCORE.INTRA.POLAR.0>
0

>  <SCORE.INTRA.REPUL>
0

>  <SCORE.INTRA.REPUL.0>
0

>  <SCORE.INTRA.SOLV>
1.55851

>  <SCORE.INTRA.SOLV.lig_0>
-75.7056

>  <SCORE.INTRA.VDW>
2.58544

>  <SCORE.INTRA.VDW.0>
-4.61812

>  <SCORE.INTRA.norm>
-0.0360594

>  <SCORE.RESTR>
0

>  <SCORE.RESTR.CAVITY>
0

>  <SCORE.RESTR.norm>
0

>  <SCORE.SYSTEM>
0

>  <SCORE.SYSTEM.CONST>
0

>  <SCORE.SYSTEM.DIHEDRAL>
0

>  <SCORE.SYSTEM.SOLV>
0

>  <SCORE.SYSTEM.norm>
0

>  <SCORE.heavy>
31

>  <SCORE.norm>
-0.267497

>  <RMSD>
3.379

$$$$
ligand
 OpenBabel11021811493D
libRbt.so/2013.1/901 2013/11/27
 31 33  0  0  0  0  0  0  0  0999 V2000
   21.6154   -9.0618   -7.2534 C   0  0  2  0  0  0  0  0  0  0  0  0
   21.9295   -9.7176   -6.0174 O   0  0  0  0  0  0  0  0  0  0  0  0
   21.7481  -13.8634   -5.0336 C   0  0  2  0  0  0  0  0  0  0  0  0
   22.0598  -15.2529   -5.0292 N   0  0  0  0  0  0  0  0  0  0  0  0
   24.0475  -14.7009   -3.0193 C   0  0  2  0  0  0  0  0  0  0  0  0
   22.5406   -7.8095   -7.3510 C   0  0  2  0  0  0  0  0  0  0  0  0
   23.9343   -8.2418   -7.2680 N   0  0  0  0  0  0  0  0  0  0  0  0
   21.2870  -13.4401   -6.4786 C   0  0  0  0  0  0  0  0  0  0  0  0
   24.0901  -14.7387   -1.4678 C   0  0  2  0  0  0  0  0  0  0  0  0
   22.7728  -14.6333   -0.9780 O   0  0  0  0  0  0  0  0  0  0  0  0
   22.1850   -6.7770   -6.2128 C   0  0  0  0  0  0  0  0  0  0  0  0
   20.9411  -11.8955   -6.4796 C   0  0  2  0  0  0  0  0  0  0  0  0
   20.5111  -11.4922   -7.8342 N   0  0  0  0  0  0  0  0  0  0  0  0
   24.9885  -13.5366   -0.9726 C   0  0  1  0  0  0  0  0  0  0  0  0
   25.0413  -13.5182    0.5166 N   0  0  0  0  0  0  0  0  0  0  0  0
   20.6601   -6.7888   -5.8312 C   0  0  0  0  0  0  0  0  0  0  0  0
   22.2300  -11.0778   -6.0419 C   0  0  2  0  0  0  0  0  0  0  0  0
   26.4956  -13.7032   -1.5653 C   0  0  1  0  0  0  0  0  0  0  0  0
   27.1276  -14.8857   -1.1400 O   0  0  0  0  0  0  0  0  0  0  0  0
   19.8098   -7.6711   -6.3769 C   0  0  1  0  0  0  0  0  0  0  0  0
   20.2293   -8.6322   -7.3253 O   0  0  0  0  0  0  0  0  0  0  0  0
   22.6806  -11.5336   -4.6066 C   0  0  2  0  0  0  0  0  0  0  0  0
   23.8450  -10.8025   -4.2268 O   0  0  0  0  0  0  0  0  0  0  0  0
   26.4256  -13.7288   -3.1236 C   0  0  0  0  0  0  0  0  0  0  0  0
   25.4419  -14.7840   -3.5881 O   0  0  0  0  0  0  0  0  0  0  0  0
   18.3123   -7.7211   -6.0158 C   0  0  0  0  0  0  0  0  0  0  0  0
   18.0892   -8.8235   -5.1063 N   0  0  0  0  0  0  0  0  0  0  0  0
   23.0096  -13.0741   -4.6261 C   0  0  1  0  0  0  0  0  0  0  0  0
   23.3961  -13.4529   -3.3377 O   0  0  0  0  0  0  0  0  0  0  0  0
   27.4944  -12.6062   -1.1698 C   0  0  0  0  0  0  0  0  0  0  0  0
   24.0746  -12.6367    1.1893 C   0  0  0  0  0  0  0  0  0  0  0  0
  1  2  1  1  0  0  0
  1  6  1  0  0  0  0
  1 21  1  0  0  0  0
  3  4  1  6  0  0  0
  3  8  1  0  0  0  0
  3 28  1  0  0  0  0
  5  9  1  0  0  0  0
  5 25  1  0  0  0  0
  5 29  1  1  0  0  0
  6  7  1  1  0  0  0
  6 11  1  0  0  0  0
  8 12  1  0  0  0  0
  9 10  1  1  0  0  0
  9 14  1  0  0  0  0
 11 16  1  0  0  0  0
 12 13  1  6  0  0  0
 12 17  1  0  0  0  0
 14 15  1  1  0  0  0
 14 18  1  0  0  0  0
 15 31  1  0  0  0  0
 16 20  1  0  0  0  0
 17  2  1  1  0  0  0
 17 22  1  0  0  0  0
 18 19  1  1  0  0  0
 18 24  1  0  0  0  0
 18 30  1  0  0  0  0
 20 21  1  0  0  0  0
 20 26  1  1  0  0  0
 22 23  1  6  0  0  0
 22 28  1  0  0  0  0
 24 25  1  0  0  0  0
 26 27  1  0  0  0  0
 28 29  1  1  0  0  0
M  END
>  <CHROM.1>
-127.84646625,-172.44896326,-95.06614367,-65.83316586,-102.25044816,75.05176713
22.89824193,-11.64975749,-4.27831158,-2.36442395,0.74958178,2.99236845

>  <Name>
ligand

>  <RI>
0

>  <Rbt.Current_Directory>
/home/itssahil/PROJECTS/Mol_Feturizer/New_Systems/rnas/4F8V

>  <Rbt.Executable>
rbdock ($Id: //depot/dev/client3/rdock/2013.1/src/exe/rbdock.cxx#4 $)

>  <Rbt.Library>
libRbt.so (2013.1, Build901 2013/11/27)

>  <Rbt.Parameter_File>
/export/apps/rDock/src/rDock_2013.1_src/data/scripts/dock_solv.prm

>  <Rbt.Receptor>
prm/pocket_docking_6.prm

>  <SCORE>
-8.42778

>  <SCORE.INTER>
-7.72482

>  <SCORE.INTER.CONST>
1

>  <SCORE.INTER.POLAR>
0

>  <SCORE.INTER.ROT>
6

>  <SCORE.INTER.SOLV>
15.7073

>  <SCORE.INTER.VDW>
-17.9856

>  <SCORE.INTER.norm>
-0.249188

>  <SCORE.INTRA>
-0.702964

>  <SCORE.INTRA.DIHEDRAL>
-4.68029

>  <SCORE.INTRA.DIHEDRAL.0>
15.9129

>  <SCORE.INTRA.POLAR>
0

>  <SCORE.INTRA.POLAR.0>
0

>  <SCORE.INTRA.REPUL>
0

>  <SCORE.INTRA.REPUL.0>
0

>  <SCORE.INTRA.SOLV>
0.0974638

>  <SCORE.INTRA.SOLV.lig_0>
-75.7056

>  <SCORE.INTRA.VDW>
1.58845

>  <SCORE.INTRA.VDW.0>
-4.61812

>  <SCORE.INTRA.norm>
-0.0226763

>  <SCORE.RESTR>
0

>  <SCORE.RESTR.CAVITY>
0

>  <SCORE.RESTR.norm>
0

>  <SCORE.SYSTEM>
0

>  <SCORE.SYSTEM.CONST>
0

>  <SCORE.SYSTEM.DIHEDRAL>
0

>  <SCORE.SYSTEM.SOLV>
0

>  <SCORE.SYSTEM.norm>
0

>  <SCORE.heavy>
31

>  <SCORE.norm>
-0.271864

>  <RMSD>
3.474

$$$$
ligand
 OpenBabel11021811493D
libRbt.so/2013.1/901 2013/11/27
 31 33  0  0  0  0  0  0  0  0999 V2000
   21.2626   -9.3372   -7.1343 C   0  0  2  0  0  0  0  0  0  0  0  0
   21.6174  -10.0055   -5.9162 O   0  0  0  0  0  0  0  0  0  0  0  0
   21.8497  -14.1865   -5.1076 C   0  0  2  0  0  0  0  0  0  0  0  0
   22.3083  -15.5341   -5.1476 N   0  0  0  0  0  0  0  0  0  0  0  0
   24.1166  -14.8894   -3.0401 C   0  0  2  0  0  0  0  0  0  0  0  0
   22.0324   -7.9804   -7.1487 C   0  0  2  0  0  0  0  0  0  0  0  0
   23.4650   -8.2466   -7.0358 N   0  0  0  0  0  0  0  0  0  0  0  0
   21.3931  -13.7512   -6.5504 C   0  0  0  0  0  0  0  0  0  0  0  0
   24.1838  -14.9390   -1.4898 C   0  0  2  0  0  0  0  0  0  0  0  0
   22.8698  -14.9162   -0.9807 O   0  0  0  0  0  0  0  0  0  0  0  0
   21.5218   -7.0498   -5.9821 C   0  0  0  0  0  0  0  0  0  0  0  0
   20.8837  -12.2533   -6.5020 C   0  0  2  0  0  0  0  0  0  0  0  0
   20.4572  -11.8386   -7.8541 N   0  0  0  0  0  0  0  0  0  0  0  0
   25.0168  -13.6906   -0.9950 C   0  0  1  0  0  0  0  0  0  0  0  0
   25.0899  -13.6830    0.4936 N   0  0  0  0  0  0  0  0  0  0  0  0
   19.9991   -7.2604   -5.6537 C   0  0  0  0  0  0  0  0  0  0  0  0
   22.0626  -11.3239   -5.9843 C   0  0  2  0  0  0  0  0  0  0  0  0
   26.5225  -13.7623   -1.6101 C   0  0  1  0  0  0  0  0  0  0  0  0
   27.2291  -14.9093   -1.2057 O   0  0  0  0  0  0  0  0  0  0  0  0
   19.2777   -8.2125   -6.2639 C   0  0  1  0  0  0  0  0  0  0  0  0
   19.8374   -9.0733   -7.2360 O   0  0  0  0  0  0  0  0  0  0  0  0
   22.5126  -11.7922   -4.5529 C   0  0  2  0  0  0  0  0  0  0  0  0
   23.5791  -10.9595   -4.1012 O   0  0  0  0  0  0  0  0  0  0  0  0
   26.4315  -13.7775   -3.1675 C   0  0  0  0  0  0  0  0  0  0  0  0
   25.5052  -14.8845   -3.6290 O   0  0  0  0  0  0  0  0  0  0  0  0
   17.7873   -8.4569   -5.9567 C   0  0  0  0  0  0  0  0  0  0  0  0
   17.3550   -7.5034   -4.9585 N   0  0  0  0  0  0  0  0  0  0  0  0
   23.0054  -13.2869   -4.6223 C   0  0  1  0  0  0  0  0  0  0  0  0
   23.3882  -13.6791   -3.3367 O   0  0  0  0  0  0  0  0  0  0  0  0
   27.4605  -12.6119   -1.2174 C   0  0  0  0  0  0  0  0  0  0  0  0
   24.1959  -12.7395    1.1823 C   0  0  0  0  0  0  0  0  0  0  0  0
  1  2  1  1  0  0  0
  1  6  1  0  0  0  0
  1 21  1  0  0  0  0
  3  4  1  6  0  0  0
  3  8  1  0  0  0  0
  3 28  1  0  0  0  0
  5  9  1  0  0  0  0
  5 25  1  0  0  0  0
  5 29  1  1  0  0  0
  6  7  1  1  0  0  0
  6 11  1  0  0  0  0
  8 12  1  0  0  0  0
  9 10  1  1  0  0  0
  9 14  1  0  0  0  0
 11 16  1  0  0  0  0
 12 13  1  6  0  0  0
 12 17  1  0  0  0  0
 14 15  1  1  0  0  0
 14 18  1  0  0  0  0
 15 31  1  0  0  0  0
 16 20  1  0  0  0  0
 17  2  1  1  0  0  0
 17 22  1  0  0  0  0
 18 19  1  1  0  0  0
 18 24  1  0  0  0  0
 18 30  1  0  0  0  0
 20 21  1  0  0  0  0
 20 26  1  1  0  0  0
 22 23  1  6  0  0  0
 22 28  1  0  0  0  0
 24 25  1  0  0  0  0
 26 27  1  0  0  0  0
 28 29  1  1  0  0  0
M  END
>  <CHROM.1>
-128.73043713,-174.96947611,-102.45509259,-65.22943104,0.69821383,72.66722608
22.74479088,-11.84010944,-4.24399535,2.68697629,-0.87075703,0.26721865

>  <Name>
ligand

>  <RI>
0

>  <Rbt.Current_Directory>
/home/itssahil/PROJECTS/Mol_Feturizer/New_Systems/rnas/4F8V

>  <Rbt.Executable>
rbdock ($Id: //depot/dev/client3/rdock/2013.1/src/exe/rbdock.cxx#4 $)

>  <Rbt.Library>
libRbt.so (2013.1, Build901 2013/11/27)

>  <Rbt.Parameter_File>
/export/apps/rDock/src/rDock_2013.1_src/data/scripts/dock_solv.prm

>  <Rbt.Receptor>
prm/pocket_docking_6.prm

>  <SCORE>
-9.53167

>  <SCORE.INTER>
-9.35773

>  <SCORE.INTER.CONST>
1

>  <SCORE.INTER.POLAR>
0

>  <SCORE.INTER.ROT>
6

>  <SCORE.INTER.SOLV>
14.2787

>  <SCORE.INTER.VDW>
-18.598

>  <SCORE.INTER.norm>
-0.301862

>  <SCORE.INTRA>
-0.173942

>  <SCORE.INTRA.DIHEDRAL>
-5.41391

>  <SCORE.INTRA.DIHEDRAL.0>
15.9129

>  <SCORE.INTRA.POLAR>
0

>  <SCORE.INTRA.POLAR.0>
0

>  <SCORE.INTRA.REPUL>
0

>  <SCORE.INTRA.REPUL.0>
0

>  <SCORE.INTRA.SOLV>
-0.249652

>  <SCORE.INTRA.SOLV.lig_0>
-75.7056

>  <SCORE.INTRA.VDW>
2.65784

>  <SCORE.INTRA.VDW.0>
-4.61812

>  <SCORE.INTRA.norm>
-0.00561102

>  <SCORE.RESTR>
0

>  <SCORE.RESTR.CAVITY>
0

>  <SCORE.RESTR.norm>
0

>  <SCORE.SYSTEM>
0

>  <SCORE.SYSTEM.CONST>
0

>  <SCORE.SYSTEM.DIHEDRAL>
0

>  <SCORE.SYSTEM.SOLV>
0

>  <SCORE.SYSTEM.norm>
0

>  <SCORE.heavy>
31

>  <SCORE.norm>
-0.307473

>  <RMSD>
3.488

$$$$
ligand
 OpenBabel11021811493D
libRbt.so/2013.1/901 2013/11/27
 31 33  0  0  0  0  0  0  0  0999 V2000
   24.4143  -10.0992   -7.4732 C   0  0  2  0  0  0  0  0  0  0  0  0
   23.4556   -9.4037   -6.6648 O   0  0  0  0  0  0  0  0  0  0  0  0
   21.5201  -10.7768   -3.1212 C   0  0  2  0  0  0  0  0  0  0  0  0
   20.6773  -11.5450   -2.2683 N   0  0  0  0  0  0  0  0  0  0  0  0
   22.8416  -13.4819   -2.0581 C   0  0  2  0  0  0  0  0  0  0  0  0
   25.1975   -9.0179   -8.2803 C   0  0  2  0  0  0  0  0  0  0  0  0
   25.8100   -8.0780   -7.3435 N   0  0  0  0  0  0  0  0  0  0  0  0
   20.6351  -10.0288   -4.1875 C   0  0  0  0  0  0  0  0  0  0  0  0
   24.0937  -13.9162   -1.2492 C   0  0  2  0  0  0  0  0  0  0  0  0
   24.5562  -12.8113   -0.5066 O   0  0  0  0  0  0  0  0  0  0  0  0
   24.2331   -8.2846   -9.2903 C   0  0  0  0  0  0  0  0  0  0  0  0
   21.5750   -9.1758   -5.1333 C   0  0  2  0  0  0  0  0  0  0  0  0
   20.7499   -8.4745   -6.1381 N   0  0  0  0  0  0  0  0  0  0  0  0
   25.1865  -14.4232   -2.2719 C   0  0  1  0  0  0  0  0  0  0  0  0
   26.4195  -14.8315   -1.5410 N   0  0  0  0  0  0  0  0  0  0  0  0
   23.0936   -9.2196   -9.8363 C   0  0  0  0  0  0  0  0  0  0  0  0
   22.6082  -10.1479   -5.8468 C   0  0  2  0  0  0  0  0  0  0  0  0
   24.6046  -15.6958   -3.1040 C   0  0  1  0  0  0  0  0  0  0  0  0
   24.2782  -16.7895   -2.2817 O   0  0  0  0  0  0  0  0  0  0  0  0
   22.9426  -10.4739   -9.3854 C   0  0  1  0  0  0  0  0  0  0  0  0
   23.7962  -11.0281   -8.4038 O   0  0  0  0  0  0  0  0  0  0  0  0
   23.4636  -10.8961   -4.7609 C   0  0  2  0  0  0  0  0  0  0  0  0
   24.3803  -11.7751   -5.4103 O   0  0  0  0  0  0  0  0  0  0  0  0
   23.3108  -15.2576   -3.8576 C   0  0  0  0  0  0  0  0  0  0  0  0
   22.3271  -14.6291   -2.8911 O   0  0  0  0  0  0  0  0  0  0  0  0
   21.8287  -11.4134   -9.8872 C   0  0  0  0  0  0  0  0  0  0  0  0
   21.1446  -11.9768   -8.7439 N   0  0  0  0  0  0  0  0  0  0  0  0
   22.5085  -11.7295   -3.8254 C   0  0  1  0  0  0  0  0  0  0  0  0
   23.2932  -12.3740   -2.8654 O   0  0  0  0  0  0  0  0  0  0  0  0
   25.5555  -16.3061   -4.1436 C   0  0  0  0  0  0  0  0  0  0  0  0
   27.4915  -13.8270   -1.4654 C   0  0  0  0  0  0  0  0  0  0  0  0
  1  2  1  6  0  0  0
  1  6  1  0  0  0  0
  1 21  1  0  0  0  0
  3  4  1  1  0  0  0
  3  8  1  0  0  0  0
  3 28  1  0  0  0  0
  5  9  1  0  0  0  0
  5 25  1  0  0  0  0
  5 29  1  6  0  0  0
  6  7  1  1  0  0  0
  6 11  1  0  0  0  0
  8 12  1  0  0  0  0
  9 10  1  6  0  0  0
  9 14  1  0  0  0  0
 11 16  1  0  0  0  0
 12 13  1  6  0  0  0
 12 17  1  0  0  0  0
 14 15  1  1  0  0  0
 14 18  1  0  0  0  0
 15 31  1  0  0  0  0
 16 20  1  0  0  0  0
 17  2  1  6  0  0  0
 17 22  1  0  0  0  0
 18 19  1  1  0  0  0
 18 24  1  0  0  0  0
 18 30  1  0  0  0  0
 20 21  1  0  0  0  0
 20 26  1  1  0  0  0
 22 23  1  6  0  0  0
 22 28  1  0  0  0  0
 24 25  1  0  0  0  0
 26 27  1  0  0  0  0
 28 29  1  1  0  0  0
M  END
>  <CHROM.1>
179.39271245,175.30174809,-96.84576085,-175.99222235,-129.73359284,77.57400428
23.50479930,-11.90529120,-4.95079920,-1.79622934,-0.64185238,2.12375551

>  <Name>
ligand

>  <RI>
0

>  <Rbt.Current_Directory>
/home/itssahil/PROJECTS/Mol_Feturizer/New_Systems/rnas/4F8V

>  <Rbt.Executable>
rbdock ($Id: //depot/dev/client3/rdock/2013.1/src/exe/rbdock.cxx#4 $)

>  <Rbt.Library>
libRbt.so (2013.1, Build901 2013/11/27)

>  <Rbt.Parameter_File>
/export/apps/rDock/src/rDock_2013.1_src/data/scripts/dock_solv.prm

>  <Rbt.Receptor>
prm/pocket_docking_5.prm

>  <SCORE>
-10.3653

>  <SCORE.INTER>
-5.4102

>  <SCORE.INTER.CONST>
1

>  <SCORE.INTER.POLAR>
0

>  <SCORE.INTER.ROT>
6

>  <SCORE.INTER.SOLV>
10.7432

>  <SCORE.INTER.VDW>
-14.7879

>  <SCORE.INTER.norm>
-0.174522

>  <SCORE.INTRA>
-4.95515

>  <SCORE.INTRA.DIHEDRAL>
-11.6906

>  <SCORE.INTRA.DIHEDRAL.0>
15.9129

>  <SCORE.INTRA.POLAR>
0

>  <SCORE.INTRA.POLAR.0>
0

>  <SCORE.INTRA.REPUL>
0

>  <SCORE.INTRA.REPUL.0>
0

>  <SCORE.INTRA.SOLV>
-1.59305

>  <SCORE.INTRA.SOLV.lig_0>
-75.7056

>  <SCORE.INTRA.VDW>
1.68669

>  <SCORE.INTRA.VDW.0>
-4.61812

>  <SCORE.INTRA.norm>
-0.159843

>  <SCORE.RESTR>
0

>  <SCORE.RESTR.CAVITY>
0

>  <SCORE.RESTR.norm>
0

>  <SCORE.SYSTEM>
0

>  <SCORE.SYSTEM.CONST>
0

>  <SCORE.SYSTEM.DIHEDRAL>
0

>  <SCORE.SYSTEM.SOLV>
0

>  <SCORE.SYSTEM.norm>
0

>  <SCORE.heavy>
31

>  <SCORE.norm>
-0.334366

>  <RMSD>
3.593

$$$$
ligand
 OpenBabel11021811493D
libRbt.so/2013.1/901 2013/11/27
 31 33  0  0  0  0  0  0  0  0999 V2000
   19.9761  -10.3494   -7.0927 C   0  0  2  0  0  0  0  0  0  0  0  0
   20.5142  -10.8986   -5.8822 O   0  0  0  0  0  0  0  0  0  0  0  0
   21.5907  -14.9264   -4.9844 C   0  0  2  0  0  0  0  0  0  0  0  0
   22.2954  -16.1634   -5.0205 N   0  0  0  0  0  0  0  0  0  0  0  0
   23.9426  -15.2063   -3.0223 C   0  0  2  0  0  0  0  0  0  0  0  0
   21.1751   -9.7532   -7.8931 C   0  0  2  0  0  0  0  0  0  0  0  0
   22.1595  -10.8075   -8.1284 N   0  0  0  0  0  0  0  0  0  0  0  0
   20.9725  -14.6403   -6.4041 C   0  0  0  0  0  0  0  0  0  0  0  0
   24.1218  -15.1527   -1.4811 C   0  0  2  0  0  0  0  0  0  0  0  0
   22.8487  -15.1882   -0.8777 O   0  0  0  0  0  0  0  0  0  0  0  0
   21.8040   -8.5368   -7.1104 C   0  0  0  0  0  0  0  0  0  0  0  0
   20.1898  -13.2651   -6.3600 C   0  0  2  0  0  0  0  0  0  0  0  0
   19.6105  -12.9900   -7.6908 N   0  0  0  0  0  0  0  0  0  0  0  0
   24.8938  -13.8211   -1.1233 C   0  0  1  0  0  0  0  0  0  0  0  0
   25.0705  -13.7141    0.3527 N   0  0  0  0  0  0  0  0  0  0  0  0
   20.7429   -7.7334   -6.2739 C   0  0  0  0  0  0  0  0  0  0  0  0
   21.1984  -12.1105   -5.9462 C   0  0  2  0  0  0  0  0  0  0  0  0
   26.3538  -13.8279   -1.8437 C   0  0  1  0  0  0  0  0  0  0  0  0
   27.1692  -14.8956   -1.4269 O   0  0  0  0  0  0  0  0  0  0  0  0
   19.4669   -8.1383   -6.1903 C   0  0  1  0  0  0  0  0  0  0  0  0
   19.0016   -9.2997   -6.8491 O   0  0  0  0  0  0  0  0  0  0  0  0
   21.8158  -12.4307   -4.5366 C   0  0  2  0  0  0  0  0  0  0  0  0
   22.7287  -11.3947   -4.1786 O   0  0  0  0  0  0  0  0  0  0  0  0
   26.1552  -13.9481   -3.3864 C   0  0  0  0  0  0  0  0  0  0  0  0
   25.2823  -15.1433   -3.7123 O   0  0  0  0  0  0  0  0  0  0  0  0
   18.4034   -7.3842   -5.3683 C   0  0  0  0  0  0  0  0  0  0  0  0
   18.2128   -8.0724   -4.1104 N   0  0  0  0  0  0  0  0  0  0  0  0
   22.5803  -13.8066   -4.6005 C   0  0  1  0  0  0  0  0  0  0  0  0
   23.1085  -14.0703   -3.3339 O   0  0  0  0  0  0  0  0  0  0  0  0
   27.2302  -12.5931   -1.5897 C   0  0  0  0  0  0  0  0  0  0  0  0
   24.1379  -12.8188    1.0545 C   0  0  0  0  0  0  0  0  0  0  0  0
  1  2  1  1  0  0  0
  1  6  1  0  0  0  0
  1 21  1  0  0  0  0
  3  4  1  6  0  0  0
  3  8  1  0  0  0  0
  3 28  1  0  0  0  0
  5  9  1  0  0  0  0
  5 25  1  0  0  0  0
  5 29  1  6  0  0  0
  6  7  1  1  0  0  0
  6 11  1  0  0  0  0
  8 12  1  0  0  0  0
  9 10  1  1  0  0  0
  9 14  1  0  0  0  0
 11 16  1  0  0  0  0
 12 13  1  6  0  0  0
 12 17  1  0  0  0  0
 14 15  1  1  0  0  0
 14 18  1  0  0  0  0
 15 31  1  0  0  0  0
 16 20  1  0  0  0  0
 17  2  1  1  0  0  0
 17 22  1  0  0  0  0
 18 19  1  1  0  0  0
 18 24  1  0  0  0  0
 18 30  1  0  0  0  0
 20 21  1  0  0  0  0
 20 26  1  1  0  0  0
 22 23  1  6  0  0  0
 22 28  1  0  0  0  0
 24 25  1  0  0  0  0
 26 27  1  0  0  0  0
 28 29  1  1  0  0  0
M  END
>  <CHROM.1>
-75.67225109,-173.24116919,-100.94464379,-65.83681902,-100.77348388,64.72950109
22.43837894,-12.36508747,-4.31645985,2.87258412,-0.89219210,0.44162041

>  <Name>
ligand

>  <RI>
0

>  <Rbt.Current_Directory>
/home/itssahil/PROJECTS/Mol_Feturizer/New_Systems/rnas/4F8V

>  <Rbt.Executable>
rbdock ($Id: //depot/dev/client3/rdock/2013.1/src/exe/rbdock.cxx#4 $)

>  <Rbt.Library>
libRbt.so (2013.1, Build901 2013/11/27)

>  <Rbt.Parameter_File>
/export/apps/rDock/src/rDock_2013.1_src/data/scripts/dock_solv.prm

>  <Rbt.Receptor>
prm/pocket_docking_7.prm

>  <SCORE>
-10.3919

>  <SCORE.INTER>
-8.68625

>  <SCORE.INTER.CONST>
1

>  <SCORE.INTER.POLAR>
0

>  <SCORE.INTER.ROT>
6

>  <SCORE.INTER.SOLV>
17.5348

>  <SCORE.INTER.VDW>
-19.2357

>  <SCORE.INTER.norm>
-0.280201

>  <SCORE.INTRA>
-1.70563

>  <SCORE.INTRA.DIHEDRAL>
-11.2108

>  <SCORE.INTRA.DIHEDRAL.0>
15.9129

>  <SCORE.INTRA.POLAR>
0

>  <SCORE.INTRA.POLAR.0>
0

>  <SCORE.INTRA.REPUL>
0

>  <SCORE.INTRA.REPUL.0>
0

>  <SCORE.INTRA.SOLV>
2.31509

>  <SCORE.INTRA.SOLV.lig_0>
-75.7056

>  <SCORE.INTRA.VDW>
2.74223

>  <SCORE.INTRA.VDW.0>
-4.61812

>  <SCORE.INTRA.norm>
-0.0550204

>  <SCORE.RESTR>
0

>  <SCORE.RESTR.CAVITY>
0

>  <SCORE.RESTR.norm>
0

>  <SCORE.SYSTEM>
0

>  <SCORE.SYSTEM.CONST>
0

>  <SCORE.SYSTEM.DIHEDRAL>
0

>  <SCORE.SYSTEM.SOLV>
0

>  <SCORE.SYSTEM.norm>
0

>  <SCORE.heavy>
31

>  <SCORE.norm>
-0.335222

>  <RMSD>
3.637

$$$$
ligand
 OpenBabel11021811493D
libRbt.so/2013.1/901 2013/11/27
 31 33  0  0  0  0  0  0  0  0999 V2000
   20.8043   -9.9751   -7.3988 C   0  0  2  0  0  0  0  0  0  0  0  0
   21.1291  -10.5911   -6.1452 O   0  0  0  0  0  0  0  0  0  0  0  0
   21.6030  -14.7034   -5.1192 C   0  0  2  0  0  0  0  0  0  0  0  0
   22.1335  -16.0248   -5.0966 N   0  0  0  0  0  0  0  0  0  0  0  0
   23.8593  -15.2189   -3.0492 C   0  0  2  0  0  0  0  0  0  0  0  0
   22.1375   -9.4247   -7.9933 C   0  0  2  0  0  0  0  0  0  0  0  0
   23.0890  -10.5263   -8.1240 N   0  0  0  0  0  0  0  0  0  0  0  0
   21.0974  -14.3724   -6.5733 C   0  0  0  0  0  0  0  0  0  0  0  0
   23.9983  -15.1446   -1.5046 C   0  0  2  0  0  0  0  0  0  0  0  0
   22.7105  -15.0481   -0.9402 O   0  0  0  0  0  0  0  0  0  0  0  0
   22.7077   -8.2711   -7.0811 C   0  0  0  0  0  0  0  0  0  0  0  0
   20.5083  -12.9034   -6.5944 C   0  0  2  0  0  0  0  0  0  0  0  0
   20.0355  -12.5864   -7.9576 N   0  0  0  0  0  0  0  0  0  0  0  0
   24.8798  -13.8814   -1.1518 C   0  0  1  0  0  0  0  0  0  0  0  0
   25.0231  -13.7553    0.3262 N   0  0  0  0  0  0  0  0  0  0  0  0
   21.5790   -7.4339   -6.3769 C   0  0  0  0  0  0  0  0  0  0  0  0
   21.6441  -11.8856   -6.1521 C   0  0  2  0  0  0  0  0  0  0  0  0
   26.3530  -14.0400   -1.8265 C   0  0  1  0  0  0  0  0  0  0  0  0
   27.0536  -15.1678   -1.3618 O   0  0  0  0  0  0  0  0  0  0  0  0
   20.2850   -7.7670   -6.4948 C   0  0  1  0  0  0  0  0  0  0  0  0
   19.8611   -8.8789   -7.2586 O   0  0  0  0  0  0  0  0  0  0  0  0
   22.1447  -12.2505   -4.7074 C   0  0  2  0  0  0  0  0  0  0  0  0
   23.1722  -11.3387   -4.3233 O   0  0  0  0  0  0  0  0  0  0  0  0
   26.1886  -14.1788   -3.3716 C   0  0  0  0  0  0  0  0  0  0  0  0
   25.2184  -15.2962   -3.6986 O   0  0  0  0  0  0  0  0  0  0  0  0
   19.1534   -6.9783   -5.8071 C   0  0  0  0  0  0  0  0  0  0  0  0
   18.4281   -7.8724   -4.9314 N   0  0  0  0  0  0  0  0  0  0  0  0
   22.7167  -13.7183   -4.7070 C   0  0  1  0  0  0  0  0  0  0  0  0
   23.1435  -14.0188   -3.4107 O   0  0  0  0  0  0  0  0  0  0  0  0
   27.3325  -12.8854   -1.5721 C   0  0  0  0  0  0  0  0  0  0  0  0
   24.2483  -12.6796    0.9637 C   0  0  0  0  0  0  0  0  0  0  0  0
  1  2  1  1  0  0  0
  1  6  1  0  0  0  0
  1 21  1  0  0  0  0
  3  4  1  6  0  0  0
  3  8  1  0  0  0  0
  3 28  1  0  0  0  0
  5  9  1  0  0  0  0
  5 25  1  0  0  0  0
  5 29  1  6  0  0  0
  6  7  1  1  0  0  0
  6 11  1  0  0  0  0
  8 12  1  0  0  0  0
  9 10  1  1  0  0  0
  9 14  1  0  0  0  0
 11 16  1  0  0  0  0
 12 13  1  6  0  0  0
 12 17  1  0  0  0  0
 14 15  1  1  0  0  0
 14 18  1  0  0  0  0
 15 31  1  0  0  0  0
 16 20  1  0  0  0  0
 17  2  1  1  0  0  0
 17 22  1  0  0  0  0
 18 19  1  1  0  0  0
 18 24  1  0  0  0  0
 18 30  1  0  0  0  0
 20 21  1  0  0  0  0
 20 26  1  1  0  0  0
 22 23  1  6  0  0  0
 22 28  1  0  0  0  0
 24 25  1  0  0  0  0
 26 27  1  0  0  0  0
 28 29  1  1  0  0  0
M  END
>  <CHROM.1>
-81.14841518,-175.41388595,-106.28335495,-69.55108519,-120.97281549,68.00957776
22.74197752,-12.23012932,-4.45884366,2.65299938,-0.93995511,0.21730079

>  <Name>
ligand

>  <RI>
0

>  <Rbt.Current_Directory>
/home/itssahil/PROJECTS/Mol_Feturizer/New_Systems/rnas/4F8V

>  <Rbt.Executable>
rbdock ($Id: //depot/dev/client3/rdock/2013.1/src/exe/rbdock.cxx#4 $)

>  <Rbt.Library>
libRbt.so (2013.1, Build901 2013/11/27)

>  <Rbt.Parameter_File>
/export/apps/rDock/src/rDock_2013.1_src/data/scripts/dock_solv.prm

>  <Rbt.Receptor>
prm/pocket_docking_4.prm

>  <SCORE>
-10.5474

>  <SCORE.INTER>
-8.30392

>  <SCORE.INTER.CONST>
1

>  <SCORE.INTER.POLAR>
0

>  <SCORE.INTER.ROT>
6

>  <SCORE.INTER.SOLV>
14.5239

>  <SCORE.INTER.VDW>
-17.9772

>  <SCORE.INTER.norm>
-0.267868

>  <SCORE.INTRA>
-2.24348

>  <SCORE.INTRA.DIHEDRAL>
-10.3304

>  <SCORE.INTRA.DIHEDRAL.0>
15.9129

>  <SCORE.INTRA.POLAR>
0

>  <SCORE.INTRA.POLAR.0>
0

>  <SCORE.INTRA.REPUL>
0

>  <SCORE.INTRA.REPUL.0>
0

>  <SCORE.INTRA.SOLV>
1.7513

>  <SCORE.INTRA.SOLV.lig_0>
-75.7056

>  <SCORE.INTRA.VDW>
2.04606

>  <SCORE.INTRA.VDW.0>
-4.61812

>  <SCORE.INTRA.norm>
-0.0723702

>  <SCORE.RESTR>
0

>  <SCORE.RESTR.CAVITY>
0

>  <SCORE.RESTR.norm>
0

>  <SCORE.SYSTEM>
0

>  <SCORE.SYSTEM.CONST>
0

>  <SCORE.SYSTEM.DIHEDRAL>
0

>  <SCORE.SYSTEM.SOLV>
0

>  <SCORE.SYSTEM.norm>
0

>  <SCORE.heavy>
31

>  <SCORE.norm>
-0.340239

>  <RMSD>
3.668

$$$$
ligand
 OpenBabel11021811493D
libRbt.so/2013.1/901 2013/11/27
 31 33  0  0  0  0  0  0  0  0999 V2000
   20.9385   -9.9027   -7.4099 C   0  0  2  0  0  0  0  0  0  0  0  0
   21.2387  -10.4844   -6.1340 O   0  0  0  0  0  0  0  0  0  0  0  0
   21.7621  -14.5706   -5.0303 C   0  0  2  0  0  0  0  0  0  0  0  0
   22.3236  -15.8775   -4.9631 N   0  0  0  0  0  0  0  0  0  0  0  0
   23.8979  -15.0156   -2.8372 C   0  0  2  0  0  0  0  0  0  0  0  0
   22.2758   -9.3312   -7.9744 C   0  0  2  0  0  0  0  0  0  0  0  0
   23.2578  -10.4109   -8.0520 N   0  0  0  0  0  0  0  0  0  0  0  0
   21.3238  -14.2702   -6.5127 C   0  0  0  0  0  0  0  0  0  0  0  0
   23.9802  -14.9025   -1.2909 C   0  0  2  0  0  0  0  0  0  0  0  0
   22.6725  -14.7939   -0.7766 O   0  0  0  0  0  0  0  0  0  0  0  0
   22.7884   -8.1450   -7.0699 C   0  0  0  0  0  0  0  0  0  0  0  0
   20.6999  -12.8172   -6.5834 C   0  0  2  0  0  0  0  0  0  0  0  0
   20.2900  -12.5288   -7.9731 N   0  0  0  0  0  0  0  0  0  0  0  0
   24.8474  -13.6295   -0.9379 C   0  0  1  0  0  0  0  0  0  0  0  0
   24.9364  -13.4663    0.5407 N   0  0  0  0  0  0  0  0  0  0  0  0
   21.6178   -7.3223   -6.4189 C   0  0  0  0  0  0  0  0  0  0  0  0
   21.7856  -11.7653   -6.0972 C   0  0  2  0  0  0  0  0  0  0  0  0
   26.3444  -13.8027   -1.5541 C   0  0  1  0  0  0  0  0  0  0  0  0
   27.0282  -14.9174   -1.0359 O   0  0  0  0  0  0  0  0  0  0  0  0
   20.3367   -7.6903   -6.5698 C   0  0  1  0  0  0  0  0  0  0  0  0
   19.9646   -8.8280   -7.3224 O   0  0  0  0  0  0  0  0  0  0  0  0
   22.2202  -12.0997   -4.6241 C   0  0  2  0  0  0  0  0  0  0  0  0
   23.2035  -11.1573   -4.2002 O   0  0  0  0  0  0  0  0  0  0  0  0
   26.2367  -13.9804   -3.1002 C   0  0  0  0  0  0  0  0  0  0  0  0
   25.2798  -15.1071   -3.4344 O   0  0  0  0  0  0  0  0  0  0  0  0
   19.1650   -6.9165   -5.9344 C   0  0  0  0  0  0  0  0  0  0  0  0
   18.4495   -7.8037   -5.0438 N   0  0  0  0  0  0  0  0  0  0  0  0
   22.8281  -13.5523   -4.5750 C   0  0  1  0  0  0  0  0  0  0  0  0
   23.1950  -13.8261   -3.2546 O   0  0  0  0  0  0  0  0  0  0  0  0
   27.3132  -12.6405   -1.2931 C   0  0  0  0  0  0  0  0  0  0  0  0
   23.9621  -12.5493    1.1520 C   0  0  0  0  0  0  0  0  0  0  0  0
  1  2  1  1  0  0  0
  1  6  1  0  0  0  0
  1 21  1  0  0  0  0
  3  4  1  6  0  0  0
  3  8  1  0  0  0  0
  3 28  1  0  0  0  0
  5  9  1  0  0  0  0
  5 25  1  0  0  0  0
  5 29  1  6  0  0  0
  6  7  1  1  0  0  0
  6 11  1  0  0  0  0
  8 12  1  0  0  0  0
  9 10  1  1  0  0  0
  9 14  1  0  0  0  0
 11 16  1  0  0  0  0
 12 13  1  6  0  0  0
 12 17  1  0  0  0  0
 14 15  1  1  0  0  0
 14 18  1  0  0  0  0
 15 31  1  0  0  0  0
 16 20  1  0  0  0  0
 17  2  1  1  0  0  0
 17 22  1  0  0  0  0
 18 19  1  1  0  0  0
 18 24  1  0  0  0  0
 18 30  1  0  0  0  0
 20 21  1  0  0  0  0
 20 26  1  1  0  0  0
 22 23  1  6  0  0  0
 22 28  1  0  0  0  0
 24 25  1  0  0  0  0
 26 27  1  0  0  0  0
 28 29  1  1  0  0  0
M  END
>  <CHROM.1>
-81.13396236,-176.11294622,-95.47494113,-68.31427738,-119.92793738,66.72490952
22.80205285,-12.07743932,-4.35646358,2.73335727,-0.98839893,0.28210664

>  <Name>
ligand

>  <RI>
0

>  <Rbt.Current_Directory>
/home/itssahil/PROJECTS/Mol_Feturizer/New_Systems/rnas/4F8V

>  <Rbt.Executable>
rbdock ($Id: //depot/dev/client3/rdock/2013.1/src/exe/rbdock.cxx#4 $)

>  <Rbt.Library>
libRbt.so (2013.1, Build901 2013/11/27)

>  <Rbt.Parameter_File>
/export/apps/rDock/src/rDock_2013.1_src/data/scripts/dock_solv.prm

>  <Rbt.Receptor>
prm/pocket_docking_8.prm

>  <SCORE>
-10.3765

>  <SCORE.INTER>
-8.15829

>  <SCORE.INTER.CONST>
1

>  <SCORE.INTER.POLAR>
0

>  <SCORE.INTER.ROT>
6

>  <SCORE.INTER.SOLV>
13.1959

>  <SCORE.INTER.VDW>
-17.4375

>  <SCORE.INTER.norm>
-0.263171

>  <SCORE.INTRA>
-2.21825

>  <SCORE.INTRA.DIHEDRAL>
-10.8411

>  <SCORE.INTRA.DIHEDRAL.0>
15.9129

>  <SCORE.INTRA.POLAR>
0

>  <SCORE.INTRA.POLAR.0>
0

>  <SCORE.INTRA.REPUL>
0

>  <SCORE.INTRA.REPUL.0>
0

>  <SCORE.INTRA.SOLV>
1.85417

>  <SCORE.INTRA.SOLV.lig_0>
-75.7056

>  <SCORE.INTRA.VDW>
2.27523

>  <SCORE.INTRA.VDW.0>
-4.61812

>  <SCORE.INTRA.norm>
-0.0715566

>  <SCORE.RESTR>
0

>  <SCORE.RESTR.CAVITY>
0

>  <SCORE.RESTR.norm>
0

>  <SCORE.SYSTEM>
0

>  <SCORE.SYSTEM.CONST>
0

>  <SCORE.SYSTEM.DIHEDRAL>
0

>  <SCORE.SYSTEM.SOLV>
0

>  <SCORE.SYSTEM.norm>
0

>  <SCORE.heavy>
31

>  <SCORE.norm>
-0.334727

>  <RMSD>
3.685

$$$$
ligand
 OpenBabel11021811493D
libRbt.so/2013.1/901 2013/11/27
 31 33  0  0  0  0  0  0  0  0999 V2000
   23.0026  -10.8956   -6.6363 C   0  0  2  0  0  0  0  0  0  0  0  0
   22.2557   -9.8874   -5.9420 O   0  0  0  0  0  0  0  0  0  0  0  0
   21.1558   -9.5983   -1.8316 C   0  0  2  0  0  0  0  0  0  0  0  0
   20.5773   -9.9328   -0.5741 N   0  0  0  0  0  0  0  0  0  0  0  0
   23.0279  -11.6515   -0.0980 C   0  0  2  0  0  0  0  0  0  0  0  0
   23.6341  -10.2116   -7.8882 C   0  0  2  0  0  0  0  0  0  0  0  0
   24.4575   -9.0867   -7.4493 N   0  0  0  0  0  0  0  0  0  0  0  0
   20.0120   -9.4352   -2.9016 C   0  0  0  0  0  0  0  0  0  0  0  0
   24.3477  -11.3777    0.6726 C   0  0  2  0  0  0  0  0  0  0  0  0
   24.4524   -9.9923    0.9093 O   0  0  0  0  0  0  0  0  0  0  0  0
   22.5040   -9.7484   -8.8863 C   0  0  0  0  0  0  0  0  0  0  0  0
   20.6586   -9.0631   -4.2976 C   0  0  2  0  0  0  0  0  0  0  0  0
   19.5898   -8.9122   -5.3062 N   0  0  0  0  0  0  0  0  0  0  0  0
   25.5485  -11.9055   -0.2088 C   0  0  1  0  0  0  0  0  0  0  0  0
   26.8427  -11.6436    0.4822 N   0  0  0  0  0  0  0  0  0  0  0  0
   21.2470  -10.6921   -8.8676 C   0  0  0  0  0  0  0  0  0  0  0  0
   21.6635  -10.2162   -4.7245 C   0  0  2  0  0  0  0  0  0  0  0  0
   25.3808  -13.5061   -0.4548 C   0  0  1  0  0  0  0  0  0  0  0  0
   25.3931  -14.2514    0.7382 O   0  0  0  0  0  0  0  0  0  0  0  0
   21.1539  -11.7151   -8.0050 C   0  0  1  0  0  0  0  0  0  0  0  0
   22.1753  -12.0077   -7.0721 O   0  0  0  0  0  0  0  0  0  0  0  0
   22.7818  -10.3717   -3.6310 C   0  0  2  0  0  0  0  0  0  0  0  0
   23.6726  -11.4168   -4.0170 O   0  0  0  0  0  0  0  0  0  0  0  0
   24.0197  -13.7671   -1.1711 C   0  0  0  0  0  0  0  0  0  0  0  0
   22.8868  -13.1229   -0.3976 O   0  0  0  0  0  0  0  0  0  0  0  0
   19.9309  -12.6513   -7.9485 C   0  0  0  0  0  0  0  0  0  0  0  0
   20.3400  -13.9771   -8.3575 N   0  0  0  0  0  0  0  0  0  0  0  0
   22.1161  -10.7314   -2.2492 C   0  0  1  0  0  0  0  0  0  0  0  0
   23.1306  -10.8527   -1.2958 O   0  0  0  0  0  0  0  0  0  0  0  0
   26.4774  -14.1712   -1.2989 C   0  0  0  0  0  0  0  0  0  0  0  0
   27.6384  -10.5196   -0.0347 C   0  0  0  0  0  0  0  0  0  0  0  0
  1  2  1  6  0  0  0
  1  6  1  0  0  0  0
  1 21  1  0  0  0  0
  3  4  1  1  0  0  0
  3  8  1  0  0  0  0
  3 28  1  0  0  0  0
  5  9  1  0  0  0  0
  5 25  1  0  0  0  0
  5 29  1  6  0  0  0
  6  7  1  1  0  0  0
  6 11  1  0  0  0  0
  8 12  1  0  0  0  0
  9 10  1  6  0  0  0
  9 14  1  0  0  0  0
 11 16  1  0  0  0  0
 12 13  1  6  0  0  0
 12 17  1  0  0  0  0
 14 15  1  1  0  0  0
 14 18  1  0  0  0  0
 15 31  1  0  0  0  0
 16 20  1  0  0  0  0
 17  2  1  6  0  0  0
 17 22  1  0  0  0  0
 18 19  1  1  0  0  0
 18 24  1  0  0  0  0
 18 30  1  0  0  0  0
 20 21  1  0  0  0  0
 20 26  1  1  0  0  0
 22 23  1  6  0  0  0
 22 28  1  0  0  0  0
 24 25  1  0  0  0  0
 26 27  1  0  0  0  0
 28 29  1  1  0  0  0
M  END
>  <CHROM.1>
-175.50654807,-175.87164856,-103.76890250,-168.39198279,113.95843340,86.42336190
23.00060247,-11.22507316,-3.47420484,-2.10499374,-0.60331270,1.41121001

>  <Name>
ligand

>  <RI>
0

>  <Rbt.Current_Directory>
/home/itssahil/PROJECTS/Mol_Feturizer/New_Systems/rnas/4F8V

>  <Rbt.Executable>
rbdock ($Id: //depot/dev/client3/rdock/2013.1/src/exe/rbdock.cxx#4 $)

>  <Rbt.Library>
libRbt.so (2013.1, Build901 2013/11/27)

>  <Rbt.Parameter_File>
/export/apps/rDock/src/rDock_2013.1_src/data/scripts/dock_solv.prm

>  <Rbt.Receptor>
prm/pocket_docking_7.prm

>  <SCORE>
-7.13387

>  <SCORE.INTER>
-2.28526

>  <SCORE.INTER.CONST>
1

>  <SCORE.INTER.POLAR>
0

>  <SCORE.INTER.ROT>
6

>  <SCORE.INTER.SOLV>
9.054

>  <SCORE.INTER.VDW>
-12.1415

>  <SCORE.INTER.norm>
-0.0737182

>  <SCORE.INTRA>
-4.84861

>  <SCORE.INTRA.DIHEDRAL>
-9.43152

>  <SCORE.INTRA.DIHEDRAL.0>
15.9129

>  <SCORE.INTRA.POLAR>
0

>  <SCORE.INTRA.POLAR.0>
0

>  <SCORE.INTRA.REPUL>
0

>  <SCORE.INTRA.REPUL.0>
0

>  <SCORE.INTRA.SOLV>
-2.48461

>  <SCORE.INTRA.SOLV.lig_0>
-75.7056

>  <SCORE.INTRA.VDW>
1.10946

>  <SCORE.INTRA.VDW.0>
-4.61812

>  <SCORE.INTRA.norm>
-0.156407

>  <SCORE.RESTR>
0

>  <SCORE.RESTR.CAVITY>
0

>  <SCORE.RESTR.norm>
0

>  <SCORE.SYSTEM>
0

>  <SCORE.SYSTEM.CONST>
0

>  <SCORE.SYSTEM.DIHEDRAL>
0

>  <SCORE.SYSTEM.SOLV>
0

>  <SCORE.SYSTEM.norm>
0

>  <SCORE.heavy>
31

>  <SCORE.norm>
-0.230125

>  <RMSD>
3.692

$$$$
ligand
 OpenBabel11021811493D
libRbt.so/2013.1/901 2013/11/27
 31 33  0  0  0  0  0  0  0  0999 V2000
   19.6702   -8.1824   -4.4319 C   0  0  2  0  0  0  0  0  0  0  0  0
   19.5834   -9.2274   -5.4101 O   0  0  0  0  0  0  0  0  0  0  0  0
   21.8716  -12.7713   -6.0377 C   0  0  2  0  0  0  0  0  0  0  0  0
   22.9990  -13.6213   -6.2233 N   0  0  0  0  0  0  0  0  0  0  0  0
   22.7515  -12.7634   -2.3993 C   0  0  2  0  0  0  0  0  0  0  0  0
   18.3825   -7.3142   -4.5794 C   0  0  2  0  0  0  0  0  0  0  0  0
   17.2108   -8.1698   -4.4035 N   0  0  0  0  0  0  0  0  0  0  0  0
   21.8059  -11.7318   -7.2187 C   0  0  0  0  0  0  0  0  0  0  0  0
   24.2181  -12.4441   -2.7963 C   0  0  2  0  0  0  0  0  0  0  0  0
   24.2202  -11.3215   -3.6484 O   0  0  0  0  0  0  0  0  0  0  0  0
   18.3678   -6.5919   -5.9816 C   0  0  0  0  0  0  0  0  0  0  0  0
   20.5517  -10.7892   -7.0092 C   0  0  2  0  0  0  0  0  0  0  0  0
   20.4872   -9.8096   -8.1131 N   0  0  0  0  0  0  0  0  0  0  0  0
   24.8194  -13.7163   -3.5154 C   0  0  1  0  0  0  0  0  0  0  0  0
   26.2238  -13.4489   -3.9362 N   0  0  0  0  0  0  0  0  0  0  0  0
   19.8076   -6.2290   -6.4977 C   0  0  0  0  0  0  0  0  0  0  0  0
   20.6943  -10.0430   -5.6148 C   0  0  2  0  0  0  0  0  0  0  0  0
   24.7931  -14.9829   -2.4928 C   0  0  1  0  0  0  0  0  0  0  0  0
   25.5597  -14.7708   -1.3326 O   0  0  0  0  0  0  0  0  0  0  0  0
   20.9061   -6.6027   -5.8247 C   0  0  1  0  0  0  0  0  0  0  0  0
   20.8357   -7.3348   -4.6171 O   0  0  0  0  0  0  0  0  0  0  0  0
   20.7782  -11.1025   -4.4567 C   0  0  2  0  0  0  0  0  0  0  0  0
   20.9177  -10.4237   -3.2099 O   0  0  0  0  0  0  0  0  0  0  0  0
   23.3195  -15.2472   -2.0541 C   0  0  0  0  0  0  0  0  0  0  0  0
   22.6985  -13.9779   -1.5065 O   0  0  0  0  0  0  0  0  0  0  0  0
   22.3329   -6.2772   -6.3081 C   0  0  0  0  0  0  0  0  0  0  0  0
   22.2469   -5.4123   -7.4644 N   0  0  0  0  0  0  0  0  0  0  0  0
   22.0260  -12.0353   -4.6904 C   0  0  1  0  0  0  0  0  0  0  0  0
   22.0694  -12.9719   -3.6541 O   0  0  0  0  0  0  0  0  0  0  0  0
   25.3491  -16.3019   -3.0481 C   0  0  0  0  0  0  0  0  0  0  0  0
   26.4888  -13.5003   -5.3823 C   0  0  0  0  0  0  0  0  0  0  0  0
  1  2  1  6  0  0  0
  1  6  1  0  0  0  0
  1 21  1  0  0  0  0
  3  4  1  6  0  0  0
  3  8  1  0  0  0  0
  3 28  1  0  0  0  0
  5  9  1  0  0  0  0
  5 25  1  0  0  0  0
  5 29  1  6  0  0  0
  6  7  1  6  0  0  0
  6 11  1  0  0  0  0
  8 12  1  0  0  0  0
  9 10  1  6  0  0  0
  9 14  1  0  0  0  0
 11 16  1  0  0  0  0
 12 13  1  6  0  0  0
 12 17  1  0  0  0  0
 14 15  1  1  0  0  0
 14 18  1  0  0  0  0
 15 31  1  0  0  0  0
 16 20  1  0  0  0  0
 17  2  1  1  0  0  0
 17 22  1  0  0  0  0
 18 19  1  1  0  0  0
 18 24  1  0  0  0  0
 18 30  1  0  0  0  0
 20 21  1  0  0  0  0
 20 26  1  6  0  0  0
 22 23  1  1  0  0  0
 22 28  1  0  0  0  0
 24 25  1  0  0  0  0
 26 27  1  0  0  0  0
 28 29  1  1  0  0  0
M  END
>  <CHROM.1>
171.45918952,-56.54135161,-117.77215503,-162.03795687,6.34434998,152.04521943
22.08969826,-10.96054877,-4.60643209,2.22508176,0.50970530,-0.74661243

>  <Name>
ligand

>  <RI>
0

>  <Rbt.Current_Directory>
/home/itssahil/PROJECTS/Mol_Feturizer/New_Systems/rnas/4F8V

>  <Rbt.Executable>
rbdock ($Id: //depot/dev/client3/rdock/2013.1/src/exe/rbdock.cxx#4 $)

>  <Rbt.Library>
libRbt.so (2013.1, Build901 2013/11/27)

>  <Rbt.Parameter_File>
/export/apps/rDock/src/rDock_2013.1_src/data/scripts/dock_solv.prm

>  <Rbt.Receptor>
prm/pocket_docking_3.prm

>  <SCORE>
-5.70031

>  <SCORE.INTER>
-5.29187

>  <SCORE.INTER.CONST>
1

>  <SCORE.INTER.POLAR>
0

>  <SCORE.INTER.ROT>
6

>  <SCORE.INTER.SOLV>
19.0851

>  <SCORE.INTER.VDW>
-17.4896

>  <SCORE.INTER.norm>
-0.170706

>  <SCORE.INTRA>
-0.422897

>  <SCORE.INTRA.DIHEDRAL>
-7.87687

>  <SCORE.INTRA.DIHEDRAL.0>
15.9129

>  <SCORE.INTRA.POLAR>
0

>  <SCORE.INTRA.POLAR.0>
0

>  <SCORE.INTRA.REPUL>
0

>  <SCORE.INTRA.REPUL.0>
0

>  <SCORE.INTRA.SOLV>
0.59927

>  <SCORE.INTRA.SOLV.lig_0>
-75.7056

>  <SCORE.INTRA.VDW>
3.2159

>  <SCORE.INTRA.VDW.0>
-4.61812

>  <SCORE.INTRA.norm>
-0.0136418

>  <SCORE.RESTR>
0.0144557

>  <SCORE.RESTR.CAVITY>
0.0144557

>  <SCORE.RESTR.norm>
0.000466312

>  <SCORE.SYSTEM>
0

>  <SCORE.SYSTEM.CONST>
0

>  <SCORE.SYSTEM.DIHEDRAL>
0

>  <SCORE.SYSTEM.SOLV>
0

>  <SCORE.SYSTEM.norm>
0

>  <SCORE.heavy>
31

>  <SCORE.norm>
-0.183881

>  <RMSD>
3.724

$$$$
ligand
 OpenBabel11021811493D
libRbt.so/2013.1/901 2013/11/27
 31 33  0  0  0  0  0  0  0  0999 V2000
   23.0048  -10.8258   -6.3833 C   0  0  2  0  0  0  0  0  0  0  0  0
   22.2508   -9.7772   -5.7599 O   0  0  0  0  0  0  0  0  0  0  0  0
   20.5963   -9.7408   -1.8293 C   0  0  2  0  0  0  0  0  0  0  0  0
   19.7639  -10.0783   -0.7242 N   0  0  0  0  0  0  0  0  0  0  0  0
   22.4012  -12.8893   -1.0108 C   0  0  2  0  0  0  0  0  0  0  0  0
   23.7863  -10.1801   -7.5690 C   0  0  2  0  0  0  0  0  0  0  0  0
   24.6237   -9.0993   -7.0526 N   0  0  0  0  0  0  0  0  0  0  0  0
   19.7040   -9.1754   -2.9970 C   0  0  0  0  0  0  0  0  0  0  0  0
   22.8609  -12.9535    0.4708 C   0  0  2  0  0  0  0  0  0  0  0  0
   21.8433  -12.4129    1.2824 O   0  0  0  0  0  0  0  0  0  0  0  0
   22.7810   -9.6603   -8.6677 C   0  0  0  0  0  0  0  0  0  0  0  0
   20.6324   -8.8010   -4.2231 C   0  0  2  0  0  0  0  0  0  0  0  0
   19.7996   -8.2730   -5.3230 N   0  0  0  0  0  0  0  0  0  0  0  0
   24.2037  -12.1310    0.6036 C   0  0  1  0  0  0  0  0  0  0  0  0
   24.6735  -12.1452    2.0178 N   0  0  0  0  0  0  0  0  0  0  0  0
   21.4793  -10.5357   -8.7688 C   0  0  0  0  0  0  0  0  0  0  0  0
   21.4129  -10.1010   -4.6949 C   0  0  2  0  0  0  0  0  0  0  0  0
   25.3440  -12.7924   -0.3519 C   0  0  1  0  0  0  0  0  0  0  0  0
   25.6461  -14.1229   -0.0095 O   0  0  0  0  0  0  0  0  0  0  0  0
   21.2514  -11.5498   -7.9209 C   0  0  1  0  0  0  0  0  0  0  0  0
   22.1639  -11.8936   -6.8970 O   0  0  0  0  0  0  0  0  0  0  0  0
   22.2787  -10.6560   -3.5062 C   0  0  2  0  0  0  0  0  0  0  0  0
   22.9667  -11.8294   -3.9356 O   0  0  0  0  0  0  0  0  0  0  0  0
   24.8369  -12.7786   -1.8272 C   0  0  0  0  0  0  0  0  0  0  0  0
   23.4737  -13.4342   -1.9205 O   0  0  0  0  0  0  0  0  0  0  0  0
   19.9805  -12.4195   -7.9812 C   0  0  0  0  0  0  0  0  0  0  0  0
   20.3680  -13.7962   -8.1976 N   0  0  0  0  0  0  0  0  0  0  0  0
   21.3369  -11.0119   -2.2946 C   0  0  1  0  0  0  0  0  0  0  0  0
   22.1329  -11.4916   -1.2509 O   0  0  0  0  0  0  0  0  0  0  0  0
   26.7152  -12.1020   -0.3325 C   0  0  0  0  0  0  0  0  0  0  0  0
   24.3995  -10.9330    2.8048 C   0  0  0  0  0  0  0  0  0  0  0  0
  1  2  1  6  0  0  0
  1  6  1  0  0  0  0
  1 21  1  0  0  0  0
  3  4  1  1  0  0  0
  3  8  1  0  0  0  0
  3 28  1  0  0  0  0
  5  9  1  0  0  0  0
  5 25  1  0  0  0  0
  5 29  1  6  0  0  0
  6  7  1  1  0  0  0
  6 11  1  0  0  0  0
  8 12  1  0  0  0  0
  9 10  1  1  0  0  0
  9 14  1  0  0  0  0
 11 16  1  0  0  0  0
 12 13  1  6  0  0  0
 12 17  1  0  0  0  0
 14 15  1  1  0  0  0
 14 18  1  0  0  0  0
 15 31  1  0  0  0  0
 16 20  1  0  0  0  0
 17  2  1  6  0  0  0
 17 22  1  0  0  0  0
 18 19  1  1  0  0  0
 18 24  1  0  0  0  0
 18 30  1  0  0  0  0
 20 21  1  0  0  0  0
 20 26  1  1  0  0  0
 22 23  1  6  0  0  0
 22 28  1  0  0  0  0
 24 25  1  0  0  0  0
 26 27  1  0  0  0  0
 28 29  1  1  0  0  0
M  END
>  <CHROM.1>
177.38245705,-160.26161257,-101.24654866,-177.06544355,120.59750813,146.50885329
22.56203197,-11.30593798,-3.32954183,-1.90428265,-0.53663517,1.59912705

>  <Name>
ligand

>  <RI>
0

>  <Rbt.Current_Directory>
/home/itssahil/PROJECTS/Mol_Feturizer/New_Systems/rnas/4F8V

>  <Rbt.Executable>
rbdock ($Id: //depot/dev/client3/rdock/2013.1/src/exe/rbdock.cxx#4 $)

>  <Rbt.Library>
libRbt.so (2013.1, Build901 2013/11/27)

>  <Rbt.Parameter_File>
/export/apps/rDock/src/rDock_2013.1_src/data/scripts/dock_solv.prm

>  <Rbt.Receptor>
prm/pocket_docking_5.prm

>  <SCORE>
-3.29464

>  <SCORE.INTER>
-0.0605757

>  <SCORE.INTER.CONST>
1

>  <SCORE.INTER.POLAR>
0

>  <SCORE.INTER.ROT>
6

>  <SCORE.INTER.SOLV>
12.3257

>  <SCORE.INTER.VDW>
-11.7489

>  <SCORE.INTER.norm>
-0.00195405

>  <SCORE.INTRA>
-3.23407

>  <SCORE.INTRA.DIHEDRAL>
-7.21116

>  <SCORE.INTRA.DIHEDRAL.0>
15.9129

>  <SCORE.INTRA.POLAR>
0

>  <SCORE.INTRA.POLAR.0>
0

>  <SCORE.INTRA.REPUL>
0

>  <SCORE.INTRA.REPUL.0>
0

>  <SCORE.INTRA.SOLV>
-3.03751

>  <SCORE.INTRA.SOLV.lig_0>
-75.7056

>  <SCORE.INTRA.VDW>
1.89027

>  <SCORE.INTRA.VDW.0>
-4.61812

>  <SCORE.INTRA.norm>
-0.104325

>  <SCORE.RESTR>
0

>  <SCORE.RESTR.CAVITY>
0

>  <SCORE.RESTR.norm>
0

>  <SCORE.SYSTEM>
0

>  <SCORE.SYSTEM.CONST>
0

>  <SCORE.SYSTEM.DIHEDRAL>
0

>  <SCORE.SYSTEM.SOLV>
0

>  <SCORE.SYSTEM.norm>
0

>  <SCORE.heavy>
31

>  <SCORE.norm>
-0.106279

>  <RMSD>
3.797

$$$$
ligand
 OpenBabel11021811493D
libRbt.so/2013.1/901 2013/11/27
 31 33  0  0  0  0  0  0  0  0999 V2000
   24.5223  -10.1001   -7.5957 C   0  0  2  0  0  0  0  0  0  0  0  0
   23.6269   -9.3235   -6.7885 O   0  0  0  0  0  0  0  0  0  0  0  0
   21.6073  -10.4553   -3.2068 C   0  0  2  0  0  0  0  0  0  0  0  0
   20.7222  -11.1452   -2.3301 N   0  0  0  0  0  0  0  0  0  0  0  0
   22.7764  -13.1666   -2.0167 C   0  0  2  0  0  0  0  0  0  0  0  0
   25.3242   -9.0954   -8.4796 C   0  0  2  0  0  0  0  0  0  0  0  0
   26.0132   -8.1439   -7.6102 N   0  0  0  0  0  0  0  0  0  0  0  0
   20.7669   -9.7051   -4.3071 C   0  0  0  0  0  0  0  0  0  0  0  0
   23.9952  -13.6201   -1.1685 C   0  0  2  0  0  0  0  0  0  0  0  0
   24.5078  -12.5011   -0.4818 O   0  0  0  0  0  0  0  0  0  0  0  0
   24.3582   -8.3640   -9.4894 C   0  0  0  0  0  0  0  0  0  0  0  0
   21.7538   -8.9393   -5.2793 C   0  0  2  0  0  0  0  0  0  0  0  0
   20.9705   -8.2363   -6.3158 N   0  0  0  0  0  0  0  0  0  0  0  0
   25.0702  -14.2396   -2.1471 C   0  0  1  0  0  0  0  0  0  0  0  0
   26.2722  -14.6704   -1.3785 N   0  0  0  0  0  0  0  0  0  0  0  0
   23.1577   -9.2678   -9.9509 C   0  0  0  0  0  0  0  0  0  0  0  0
   22.7385   -9.9905   -5.9478 C   0  0  2  0  0  0  0  0  0  0  0  0
   24.4305  -15.5244   -2.9156 C   0  0  1  0  0  0  0  0  0  0  0  0
   24.0381  -16.5520   -2.0387 O   0  0  0  0  0  0  0  0  0  0  0  0
   22.9659  -10.4915   -9.4361 C   0  0  1  0  0  0  0  0  0  0  0  0
   23.8285  -11.0402   -8.4593 O   0  0  0  0  0  0  0  0  0  0  0  0
   23.5492  -10.7387   -4.8281 C   0  0  2  0  0  0  0  0  0  0  0  0
   24.4221  -11.6885   -5.4369 O   0  0  0  0  0  0  0  0  0  0  0  0
   23.1696  -15.0618   -3.7093 C   0  0  0  0  0  0  0  0  0  0  0  0
   22.2105  -14.3300   -2.7921 O   0  0  0  0  0  0  0  0  0  0  0  0
   21.7924  -11.3990   -9.8540 C   0  0  0  0  0  0  0  0  0  0  0  0
   22.3184  -12.6849  -10.2565 N   0  0  0  0  0  0  0  0  0  0  0  0
   22.5482  -11.4845   -3.8671 C   0  0  1  0  0  0  0  0  0  0  0  0
   23.2943  -12.1304   -2.8777 O   0  0  0  0  0  0  0  0  0  0  0  0
   25.3585  -16.2404   -3.9072 C   0  0  0  0  0  0  0  0  0  0  0  0
   27.4430  -13.7831   -1.4541 C   0  0  0  0  0  0  0  0  0  0  0  0
  1  2  1  6  0  0  0
  1  6  1  0  0  0  0
  1 21  1  0  0  0  0
  3  4  1  1  0  0  0
  3  8  1  0  0  0  0
  3 28  1  0  0  0  0
  5  9  1  0  0  0  0
  5 25  1  0  0  0  0
  5 29  1  6  0  0  0
  6  7  1  1  0  0  0
  6 11  1  0  0  0  0
  8 12  1  0  0  0  0
  9 10  1  6  0  0  0
  9 14  1  0  0  0  0
 11 16  1  0  0  0  0
 12 13  1  6  0  0  0
 12 17  1  0  0  0  0
 14 15  1  1  0  0  0
 14 18  1  0  0  0  0
 15 31  1  0  0  0  0
 16 20  1  0  0  0  0
 17  2  1  6  0  0  0
 17 22  1  0  0  0  0
 18 19  1  1  0  0  0
 18 24  1  0  0  0  0
 18 30  1  0  0  0  0
 20 21  1  0  0  0  0
 20 26  1  1  0  0  0
 22 23  1  6  0  0  0
 22 28  1  0  0  0  0
 24 25  1  0  0  0  0
 26 27  1  0  0  0  0
 28 29  1  1  0  0  0
M  END
>  <CHROM.1>
176.79134685,176.43229490,-102.72497804,-173.99265174,126.89732533,76.55413059
23.55313124,-11.78338369,-5.01604956,-1.78642611,-0.87542626,2.03385976

>  <Name>
ligand

>  <RI>
0

>  <Rbt.Current_Directory>
/home/itssahil/PROJECTS/Mol_Feturizer/New_Systems/rnas/4F8V

>  <Rbt.Executable>
rbdock ($Id: //depot/dev/client3/rdock/2013.1/src/exe/rbdock.cxx#4 $)

>  <Rbt.Library>
libRbt.so (2013.1, Build901 2013/11/27)

>  <Rbt.Parameter_File>
/export/apps/rDock/src/rDock_2013.1_src/data/scripts/dock_solv.prm

>  <Rbt.Receptor>
prm/pocket_docking_8.prm

>  <SCORE>
-10.5553

>  <SCORE.INTER>
-5.14839

>  <SCORE.INTER.CONST>
1

>  <SCORE.INTER.POLAR>
0

>  <SCORE.INTER.ROT>
6

>  <SCORE.INTER.SOLV>
10.1138

>  <SCORE.INTER.VDW>
-14.4035

>  <SCORE.INTER.norm>
-0.166077

>  <SCORE.INTRA>
-5.40687

>  <SCORE.INTRA.DIHEDRAL>
-11.6375

>  <SCORE.INTRA.DIHEDRAL.0>
15.9129

>  <SCORE.INTRA.POLAR>
0

>  <SCORE.INTRA.POLAR.0>
0

>  <SCORE.INTRA.REPUL>
0

>  <SCORE.INTRA.REPUL.0>
0

>  <SCORE.INTRA.SOLV>
-2.58013

>  <SCORE.INTRA.SOLV.lig_0>
-75.7056

>  <SCORE.INTRA.VDW>
1.70194

>  <SCORE.INTRA.VDW.0>
-4.61812

>  <SCORE.INTRA.norm>
-0.174415

>  <SCORE.RESTR>
0

>  <SCORE.RESTR.CAVITY>
0

>  <SCORE.RESTR.norm>
0

>  <SCORE.SYSTEM>
0

>  <SCORE.SYSTEM.CONST>
0

>  <SCORE.SYSTEM.DIHEDRAL>
0

>  <SCORE.SYSTEM.SOLV>
0

>  <SCORE.SYSTEM.norm>
0

>  <SCORE.heavy>
31

>  <SCORE.norm>
-0.340492

>  <RMSD>
3.814

$$$$
ligand
 OpenBabel11021811493D
libRbt.so/2013.1/901 2013/11/27
 31 33  0  0  0  0  0  0  0  0999 V2000
   21.0745   -8.9052   -4.6076 C   0  0  2  0  0  0  0  0  0  0  0  0
   20.5840  -10.0577   -5.3058 O   0  0  0  0  0  0  0  0  0  0  0  0
   22.1464  -14.0260   -5.2931 C   0  0  2  0  0  0  0  0  0  0  0  0
   23.0409  -15.1130   -5.5078 N   0  0  0  0  0  0  0  0  0  0  0  0
   24.0720  -14.6648   -3.0464 C   0  0  2  0  0  0  0  0  0  0  0  0
   19.8499   -7.9728   -4.3536 C   0  0  2  0  0  0  0  0  0  0  0  0
   18.8383   -8.7126   -3.6017 N   0  0  0  0  0  0  0  0  0  0  0  0
   21.7293  -13.4153   -6.6833 C   0  0  0  0  0  0  0  0  0  0  0  0
   24.1577  -14.8843   -1.5118 C   0  0  2  0  0  0  0  0  0  0  0  0
   22.8535  -15.0640   -1.0085 O   0  0  0  0  0  0  0  0  0  0  0  0
   19.2781   -7.4364   -5.7223 C   0  0  0  0  0  0  0  0  0  0  0  0
   20.7349  -12.2079   -6.4407 C   0  0  2  0  0  0  0  0  0  0  0  0
   20.3431  -11.6290   -7.7420 N   0  0  0  0  0  0  0  0  0  0  0  0
   24.8538  -13.6174   -0.8734 C   0  0  1  0  0  0  0  0  0  0  0  0
   24.9386  -13.7727    0.6064 N   0  0  0  0  0  0  0  0  0  0  0  0
   20.3898   -7.2467   -6.8172 C   0  0  0  0  0  0  0  0  0  0  0  0
   21.4591  -11.1152   -5.5445 C   0  0  2  0  0  0  0  0  0  0  0  0
   26.3528  -13.4528   -1.4868 C   0  0  1  0  0  0  0  0  0  0  0  0
   27.1840  -14.5545   -1.2142 O   0  0  0  0  0  0  0  0  0  0  0  0
   21.6615   -7.6093   -6.5922 C   0  0  1  0  0  0  0  0  0  0  0  0
   22.0765   -8.1741   -5.3642 O   0  0  0  0  0  0  0  0  0  0  0  0
   21.8825  -11.7555   -4.1729 C   0  0  2  0  0  0  0  0  0  0  0  0
   22.5422  -10.7703   -3.3797 O   0  0  0  0  0  0  0  0  0  0  0  0
   26.2505  -13.2991   -3.0359 C   0  0  0  0  0  0  0  0  0  0  0  0
   25.4465  -14.4405   -3.6253 O   0  0  0  0  0  0  0  0  0  0  0  0
   22.7741   -7.4515   -7.6469 C   0  0  0  0  0  0  0  0  0  0  0  0
   23.3544   -8.7502   -7.9096 N   0  0  0  0  0  0  0  0  0  0  0  0
   22.8627  -12.9600   -4.4381 C   0  0  1  0  0  0  0  0  0  0  0  0
   23.2133  -13.5154   -3.2046 O   0  0  0  0  0  0  0  0  0  0  0  0
   27.1631  -12.2595   -0.9608 C   0  0  0  0  0  0  0  0  0  0  0  0
   24.0922  -12.8712    1.4030 C   0  0  0  0  0  0  0  0  0  0  0  0
  1  2  1  6  0  0  0
  1  6  1  0  0  0  0
  1 21  1  0  0  0  0
  3  4  1  6  0  0  0
  3  8  1  0  0  0  0
  3 28  1  0  0  0  0
  5  9  1  0  0  0  0
  5 25  1  0  0  0  0
  5 29  1  1  0  0  0
  6  7  1  6  0  0  0
  6 11  1  0  0  0  0
  8 12  1  0  0  0  0
  9 10  1  1  0  0  0
  9 14  1  0  0  0  0
 11 16  1  0  0  0  0
 12 13  1  6  0  0  0
 12 17  1  0  0  0  0
 14 15  1  1  0  0  0
 14 18  1  0  0  0  0
 15 31  1  0  0  0  0
 16 20  1  0  0  0  0
 17  2  1  1  0  0  0
 17 22  1  0  0  0  0
 18 19  1  1  0  0  0
 18 24  1  0  0  0  0
 18 30  1  0  0  0  0
 20 21  1  0  0  0  0
 20 26  1  6  0  0  0
 22 23  1  1  0  0  0
 22 28  1  0  0  0  0
 24 25  1  0  0  0  0
 26 27  1  0  0  0  0
 28 29  1  1  0  0  0
M  END
>  <CHROM.1>
-173.94325018,179.83618054,-111.24917519,-174.81173546,-121.69881756,59.20635282
22.84296845,-11.68277431,-3.99790087,-2.97366078,1.02000507,-2.49839177

>  <Name>
ligand

>  <RI>
0

>  <Rbt.Current_Directory>
/home/itssahil/PROJECTS/Mol_Feturizer/New_Systems/rnas/4F8V

>  <Rbt.Executable>
rbdock ($Id: //depot/dev/client3/rdock/2013.1/src/exe/rbdock.cxx#4 $)

>  <Rbt.Library>
libRbt.so (2013.1, Build901 2013/11/27)

>  <Rbt.Parameter_File>
/export/apps/rDock/src/rDock_2013.1_src/data/scripts/dock_solv.prm

>  <Rbt.Receptor>
prm/pocket_docking_4.prm

>  <SCORE>
-9.46772

>  <SCORE.INTER>
-4.97101

>  <SCORE.INTER.CONST>
1

>  <SCORE.INTER.POLAR>
0

>  <SCORE.INTER.ROT>
6

>  <SCORE.INTER.SOLV>
15.1357

>  <SCORE.INTER.VDW>
-15.9592

>  <SCORE.INTER.norm>
-0.160355

>  <SCORE.INTRA>
-4.4967

>  <SCORE.INTRA.DIHEDRAL>
-12.7732

>  <SCORE.INTRA.DIHEDRAL.0>
15.9129

>  <SCORE.INTRA.POLAR>
0

>  <SCORE.INTRA.POLAR.0>
0

>  <SCORE.INTRA.REPUL>
0

>  <SCORE.INTRA.REPUL.0>
0

>  <SCORE.INTRA.SOLV>
-0.848475

>  <SCORE.INTRA.SOLV.lig_0>
-75.7056

>  <SCORE.INTRA.VDW>
2.31415

>  <SCORE.INTRA.VDW.0>
-4.61812

>  <SCORE.INTRA.norm>
-0.145055

>  <SCORE.RESTR>
0

>  <SCORE.RESTR.CAVITY>
0

>  <SCORE.RESTR.norm>
0

>  <SCORE.SYSTEM>
0

>  <SCORE.SYSTEM.CONST>
0

>  <SCORE.SYSTEM.DIHEDRAL>
0

>  <SCORE.SYSTEM.SOLV>
0

>  <SCORE.SYSTEM.norm>
0

>  <SCORE.heavy>
31

>  <SCORE.norm>
-0.30541

>  <RMSD>
4.083

$$$$
ligand
 OpenBabel11021811493D
libRbt.so/2013.1/901 2013/11/27
 31 33  0  0  0  0  0  0  0  0999 V2000
   21.9330   -7.5746   -7.4019 C   0  0  2  0  0  0  0  0  0  0  0  0
   22.3820   -8.0808   -6.1376 O   0  0  0  0  0  0  0  0  0  0  0  0
   24.8076  -11.5001   -5.3546 C   0  0  2  0  0  0  0  0  0  0  0  0
   25.9538  -12.3432   -5.2966 N   0  0  0  0  0  0  0  0  0  0  0  0
   24.4306  -11.0887   -2.3343 C   0  0  2  0  0  0  0  0  0  0  0  0
   22.8327   -6.3472   -7.7452 C   0  0  2  0  0  0  0  0  0  0  0  0
   24.2306   -6.7733   -7.7606 N   0  0  0  0  0  0  0  0  0  0  0  0
   24.4809  -11.1720   -6.8596 C   0  0  0  0  0  0  0  0  0  0  0  0
   25.0961  -10.9681   -0.9368 C   0  0  2  0  0  0  0  0  0  0  0  0
   25.3814   -9.6103   -0.6890 O   0  0  0  0  0  0  0  0  0  0  0  0
   22.5920   -5.1854   -6.7059 C   0  0  0  0  0  0  0  0  0  0  0  0
   23.2064  -10.2353   -6.9202 C   0  0  2  0  0  0  0  0  0  0  0  0
   22.8975   -9.9215   -8.3303 N   0  0  0  0  0  0  0  0  0  0  0  0
   26.4120  -11.8430   -0.9432 C   0  0  1  0  0  0  0  0  0  0  0  0
   27.0998  -11.7406    0.3750 N   0  0  0  0  0  0  0  0  0  0  0  0
   21.1166   -5.1445   -6.1651 C   0  0  0  0  0  0  0  0  0  0  0  0
   23.5064   -8.9030   -6.1098 C   0  0  2  0  0  0  0  0  0  0  0  0
   26.0300  -13.3986   -1.2346 C   0  0  1  0  0  0  0  0  0  0  0  0
   25.1797  -13.9495   -0.2588 O   0  0  0  0  0  0  0  0  0  0  0  0
   20.2200   -6.0811   -6.5088 C   0  0  1  0  0  0  0  0  0  0  0  0
   20.5437   -7.1500   -7.3760 O   0  0  0  0  0  0  0  0  0  0  0  0
   23.8490   -9.2600   -4.6178 C   0  0  2  0  0  0  0  0  0  0  0  0
   24.1282   -8.0588   -3.9009 O   0  0  0  0  0  0  0  0  0  0  0  0
   25.3043  -13.4909   -2.6125 C   0  0  0  0  0  0  0  0  0  0  0  0
   24.1315  -12.5320   -2.6540 O   0  0  0  0  0  0  0  0  0  0  0  0
   18.7699   -6.0808   -5.9867 C   0  0  0  0  0  0  0  0  0  0  0  0
   18.5648   -7.2643   -5.1808 N   0  0  0  0  0  0  0  0  0  0  0  0
   25.1127  -10.2000   -4.5817 C   0  0  1  0  0  0  0  0  0  0  0  0
   25.3871  -10.5091   -3.2468 O   0  0  0  0  0  0  0  0  0  0  0  0
   27.2094  -14.3809   -1.2715 C   0  0  0  0  0  0  0  0  0  0  0  0
   28.0877  -10.6590    0.5090 C   0  0  0  0  0  0  0  0  0  0  0  0
  1  2  1  1  0  0  0
  1  6  1  0  0  0  0
  1 21  1  0  0  0  0
  3  4  1  6  0  0  0
  3  8  1  0  0  0  0
  3 28  1  0  0  0  0
  5  9  1  0  0  0  0
  5 25  1  0  0  0  0
  5 29  1  6  0  0  0
  6  7  1  1  0  0  0
  6 11  1  0  0  0  0
  8 12  1  0  0  0  0
  9 10  1  6  0  0  0
  9 14  1  0  0  0  0
 11 16  1  0  0  0  0
 12 13  1  6  0  0  0
 12 17  1  0  0  0  0
 14 15  1  1  0  0  0
 14 18  1  0  0  0  0
 15 31  1  0  0  0  0
 16 20  1  0  0  0  0
 17  2  1  1  0  0  0
 17 22  1  0  0  0  0
 18 19  1  1  0  0  0
 18 24  1  0  0  0  0
 18 30  1  0  0  0  0
 20 21  1  0  0  0  0
 20 26  1  1  0  0  0
 22 23  1  1  0  0  0
 22 28  1  0  0  0  0
 24 25  1  0  0  0  0
 26 27  1  0  0  0  0
 28 29  1  1  0  0  0
M  END
>  <CHROM.1>
-80.68362359,-168.65904967,-90.04633954,-63.29641819,-116.00869637,-64.25639511
23.90947000,-9.73510169,-4.28540757,-2.71816562,-0.96394215,1.27964478

>  <Name>
ligand

>  <RI>
0

>  <Rbt.Current_Directory>
/home/itssahil/PROJECTS/Mol_Feturizer/New_Systems/rnas/4F8V

>  <Rbt.Executable>
rbdock ($Id: //depot/dev/client3/rdock/2013.1/src/exe/rbdock.cxx#4 $)

>  <Rbt.Library>
libRbt.so (2013.1, Build901 2013/11/27)

>  <Rbt.Parameter_File>
/export/apps/rDock/src/rDock_2013.1_src/data/scripts/dock_solv.prm

>  <Rbt.Receptor>
prm/pocket_docking_5.prm

>  <SCORE>
-10.4999

>  <SCORE.INTER>
-9.29936

>  <SCORE.INTER.CONST>
1

>  <SCORE.INTER.POLAR>
0

>  <SCORE.INTER.ROT>
6

>  <SCORE.INTER.SOLV>
9.34381

>  <SCORE.INTER.VDW>
-16.9142

>  <SCORE.INTER.norm>
-0.29998

>  <SCORE.INTRA>
-1.20058

>  <SCORE.INTRA.DIHEDRAL>
-10.9355

>  <SCORE.INTRA.DIHEDRAL.0>
15.9129

>  <SCORE.INTRA.POLAR>
0

>  <SCORE.INTRA.POLAR.0>
0

>  <SCORE.INTRA.REPUL>
0

>  <SCORE.INTRA.REPUL.0>
0

>  <SCORE.INTRA.SOLV>
3.26171

>  <SCORE.INTRA.SOLV.lig_0>
-75.7056

>  <SCORE.INTRA.VDW>
2.63632

>  <SCORE.INTRA.VDW.0>
-4.61812

>  <SCORE.INTRA.norm>
-0.0387283

>  <SCORE.RESTR>
0

>  <SCORE.RESTR.CAVITY>
0

>  <SCORE.RESTR.norm>
0

>  <SCORE.SYSTEM>
0

>  <SCORE.SYSTEM.CONST>
0

>  <SCORE.SYSTEM.DIHEDRAL>
0

>  <SCORE.SYSTEM.SOLV>
0

>  <SCORE.SYSTEM.norm>
0

>  <SCORE.heavy>
31

>  <SCORE.norm>
-0.338708

>  <RMSD>
4.093

$$$$
ligand
 OpenBabel11021811493D
libRbt.so/2013.1/901 2013/11/27
 31 33  0  0  0  0  0  0  0  0999 V2000
   21.2834   -8.9740   -4.7412 C   0  0  2  0  0  0  0  0  0  0  0  0
   20.6783  -10.1142   -5.3659 O   0  0  0  0  0  0  0  0  0  0  0  0
   21.9340  -14.1870   -5.2087 C   0  0  2  0  0  0  0  0  0  0  0  0
   22.7328  -15.3498   -5.4026 N   0  0  0  0  0  0  0  0  0  0  0  0
   23.9389  -14.8403   -3.0134 C   0  0  2  0  0  0  0  0  0  0  0  0
   20.1522   -7.9222   -4.5227 C   0  0  2  0  0  0  0  0  0  0  0  0
   19.0934   -8.5251   -3.7156 N   0  0  0  0  0  0  0  0  0  0  0  0
   21.5021  -13.6149   -6.6107 C   0  0  0  0  0  0  0  0  0  0  0  0
   24.1039  -14.9712   -1.4752 C   0  0  2  0  0  0  0  0  0  0  0  0
   22.8244  -15.0512   -0.8897 O   0  0  0  0  0  0  0  0  0  0  0  0
   19.6040   -7.4126   -5.9111 C   0  0  0  0  0  0  0  0  0  0  0  0
   20.6142  -12.3230   -6.3912 C   0  0  2  0  0  0  0  0  0  0  0  0
   20.2089  -11.7801   -7.7040 N   0  0  0  0  0  0  0  0  0  0  0  0
   24.8978  -13.7065   -0.9579 C   0  0  1  0  0  0  0  0  0  0  0  0
   25.0619  -13.7767    0.5217 N   0  0  0  0  0  0  0  0  0  0  0  0
   20.7068   -7.3847   -7.0310 C   0  0  0  0  0  0  0  0  0  0  0  0
   21.4590  -11.2473   -5.5845 C   0  0  2  0  0  0  0  0  0  0  0  0
   26.3645  -13.6585   -1.6631 C   0  0  1  0  0  0  0  0  0  0  0  0
   27.1550  -14.7840   -1.3682 O   0  0  0  0  0  0  0  0  0  0  0  0
   21.9451   -7.8477   -6.8043 C   0  0  1  0  0  0  0  0  0  0  0  0
   22.3318   -8.3792   -5.5524 O   0  0  0  0  0  0  0  0  0  0  0  0
   21.8942  -11.8503   -4.1997 C   0  0  2  0  0  0  0  0  0  0  0  0
   22.6619  -10.8817   -3.4874 O   0  0  0  0  0  0  0  0  0  0  0  0
   26.1788  -13.5932   -3.2107 C   0  0  0  0  0  0  0  0  0  0  0  0
   25.2863  -14.7241   -3.6811 O   0  0  0  0  0  0  0  0  0  0  0  0
   23.0466   -7.8494   -7.8822 C   0  0  0  0  0  0  0  0  0  0  0  0
   24.1584   -7.0517   -7.4132 N   0  0  0  0  0  0  0  0  0  0  0  0
   22.7671  -13.1393   -4.4413 C   0  0  1  0  0  0  0  0  0  0  0  0
   23.1299  -13.6589   -3.1958 O   0  0  0  0  0  0  0  0  0  0  0  0
   27.2620  -12.4800   -1.2595 C   0  0  0  0  0  0  0  0  0  0  0  0
   24.2059  -12.8793    1.3127 C   0  0  0  0  0  0  0  0  0  0  0  0
  1  2  1  6  0  0  0
  1  6  1  0  0  0  0
  1 21  1  0  0  0  0
  3  4  1  6  0  0  0
  3  8  1  0  0  0  0
  3 28  1  0  0  0  0
  5  9  1  0  0  0  0
  5 25  1  0  0  0  0
  5 29  1  1  0  0  0
  6  7  1  1  0  0  0
  6 11  1  0  0  0  0
  8 12  1  0  0  0  0
  9 10  1  1  0  0  0
  9 14  1  0  0  0  0
 11 16  1  0  0  0  0
 12 13  1  6  0  0  0
 12 17  1  0  0  0  0
 14 15  1  1  0  0  0
 14 18  1  0  0  0  0
 15 31  1  0  0  0  0
 16 20  1  0  0  0  0
 17  2  1  1  0  0  0
 17 22  1  0  0  0  0
 18 19  1  1  0  0  0
 18 24  1  0  0  0  0
 18 30  1  0  0  0  0
 20 21  1  0  0  0  0
 20 26  1  6  0  0  0
 22 23  1  6  0  0  0
 22 28  1  0  0  0  0
 24 25  1  0  0  0  0
 26 27  1  0  0  0  0
 28 29  1  1  0  0  0
M  END
>  <CHROM.1>
-175.38036280,177.91422554,-105.17770226,-175.26581376,120.13989236,61.14652155
22.90717572,-11.75628165,-4.05560433,-2.39943421,0.86740014,3.12678417

>  <Name>
ligand

>  <RI>
0

>  <Rbt.Current_Directory>
/home/itssahil/PROJECTS/Mol_Feturizer/New_Systems/rnas/4F8V

>  <Rbt.Executable>
rbdock ($Id: //depot/dev/client3/rdock/2013.1/src/exe/rbdock.cxx#4 $)

>  <Rbt.Library>
libRbt.so (2013.1, Build901 2013/11/27)

>  <Rbt.Parameter_File>
/export/apps/rDock/src/rDock_2013.1_src/data/scripts/dock_solv.prm

>  <Rbt.Receptor>
prm/pocket_docking_5.prm

>  <SCORE>
-10.0807

>  <SCORE.INTER>
-4.96822

>  <SCORE.INTER.CONST>
1

>  <SCORE.INTER.POLAR>
0

>  <SCORE.INTER.ROT>
6

>  <SCORE.INTER.SOLV>
14.4176

>  <SCORE.INTER.VDW>
-15.718

>  <SCORE.INTER.norm>
-0.160265

>  <SCORE.INTRA>
-5.11244

>  <SCORE.INTRA.DIHEDRAL>
-12.9587

>  <SCORE.INTRA.DIHEDRAL.0>
15.9129

>  <SCORE.INTRA.POLAR>
0

>  <SCORE.INTRA.POLAR.0>
0

>  <SCORE.INTRA.REPUL>
0

>  <SCORE.INTRA.REPUL.0>
0

>  <SCORE.INTRA.SOLV>
-2.2044

>  <SCORE.INTRA.SOLV.lig_0>
-75.7056

>  <SCORE.INTRA.VDW>
2.46911

>  <SCORE.INTRA.VDW.0>
-4.61812

>  <SCORE.INTRA.norm>
-0.164917

>  <SCORE.RESTR>
0

>  <SCORE.RESTR.CAVITY>
0

>  <SCORE.RESTR.norm>
0

>  <SCORE.SYSTEM>
0

>  <SCORE.SYSTEM.CONST>
0

>  <SCORE.SYSTEM.DIHEDRAL>
0

>  <SCORE.SYSTEM.SOLV>
0

>  <SCORE.SYSTEM.norm>
0

>  <SCORE.heavy>
31

>  <SCORE.norm>
-0.325183

>  <RMSD>
4.108

$$$$
ligand
 OpenBabel11021811493D
libRbt.so/2013.1/901 2013/11/27
 31 33  0  0  0  0  0  0  0  0999 V2000
   21.2354   -9.0549   -4.6928 C   0  0  2  0  0  0  0  0  0  0  0  0
   20.6353  -10.1792   -5.3504 O   0  0  0  0  0  0  0  0  0  0  0  0
   21.9094  -14.2492   -5.3571 C   0  0  2  0  0  0  0  0  0  0  0  0
   22.7156  -15.3990   -5.5935 N   0  0  0  0  0  0  0  0  0  0  0  0
   23.9476  -14.9513   -3.1710 C   0  0  2  0  0  0  0  0  0  0  0  0
   20.0911   -8.0355   -4.4011 C   0  0  2  0  0  0  0  0  0  0  0  0
   19.0649   -8.6925   -3.5941 N   0  0  0  0  0  0  0  0  0  0  0  0
   21.4874  -13.6191   -6.7372 C   0  0  0  0  0  0  0  0  0  0  0  0
   24.1035  -15.1407   -1.6380 C   0  0  2  0  0  0  0  0  0  0  0  0
   22.8236  -15.3070   -1.0718 O   0  0  0  0  0  0  0  0  0  0  0  0
   19.4978   -7.4783   -5.7522 C   0  0  0  0  0  0  0  0  0  0  0  0
   20.5913  -12.3419   -6.4705 C   0  0  2  0  0  0  0  0  0  0  0  0
   20.1953  -11.7447   -7.7623 N   0  0  0  0  0  0  0  0  0  0  0  0
   24.8304  -13.8632   -1.0575 C   0  0  1  0  0  0  0  0  0  0  0  0
   24.9831  -13.9895    0.4195 N   0  0  0  0  0  0  0  0  0  0  0  0
   20.5703   -7.3815   -6.8972 C   0  0  0  0  0  0  0  0  0  0  0  0
   21.4235  -11.2982   -5.6103 C   0  0  2  0  0  0  0  0  0  0  0  0
   26.2999  -13.7147   -1.7425 C   0  0  1  0  0  0  0  0  0  0  0  0
   27.1408  -14.8129   -1.4866 O   0  0  0  0  0  0  0  0  0  0  0  0
   21.8224   -7.8296   -6.7218 C   0  0  1  0  0  0  0  0  0  0  0  0
   22.2513   -8.4059   -5.5040 O   0  0  0  0  0  0  0  0  0  0  0  0
   21.8490  -11.9584   -4.2488 C   0  0  2  0  0  0  0  0  0  0  0  0
   22.6055  -11.0180   -3.4883 O   0  0  0  0  0  0  0  0  0  0  0  0
   26.1266  -13.5913   -3.2880 C   0  0  0  0  0  0  0  0  0  0  0  0
   25.2943  -14.7420   -3.8170 O   0  0  0  0  0  0  0  0  0  0  0  0
   22.8954   -7.7642   -7.8262 C   0  0  0  0  0  0  0  0  0  0  0  0
   23.9760   -6.9145   -7.3760 N   0  0  0  0  0  0  0  0  0  0  0  0
   22.7303  -13.2318   -4.5376 C   0  0  1  0  0  0  0  0  0  0  0  0
   23.0844  -13.8031   -3.3124 O   0  0  0  0  0  0  0  0  0  0  0  0
   27.1355  -12.5133   -1.2781 C   0  0  0  0  0  0  0  0  0  0  0  0
   24.3159  -12.9600    1.2312 C   0  0  0  0  0  0  0  0  0  0  0  0
  1  2  1  6  0  0  0
  1  6  1  0  0  0  0
  1 21  1  0  0  0  0
  3  4  1  6  0  0  0
  3  8  1  0  0  0  0
  3 28  1  0  0  0  0
  5  9  1  0  0  0  0
  5 25  1  0  0  0  0
  5 29  1  1  0  0  0
  6  7  1  6  0  0  0
  6 11  1  0  0  0  0
  8 12  1  0  0  0  0
  9 10  1  1  0  0  0
  9 14  1  0  0  0  0
 11 16  1  0  0  0  0
 12 13  1  6  0  0  0
 12 17  1  0  0  0  0
 14 15  1  1  0  0  0
 14 18  1  0  0  0  0
 15 31  1  0  0  0  0
 16 20  1  0  0  0  0
 17  2  1  1  0  0  0
 17 22  1  0  0  0  0
 18 19  1  1  0  0  0
 18 24  1  0  0  0  0
 18 30  1  0  0  0  0
 20 21  1  0  0  0  0
 20 26  1  6  0  0  0
 22 23  1  1  0  0  0
 22 28  1  0  0  0  0
 24 25  1  0  0  0  0
 26 27  1  0  0  0  0
 28 29  1  1  0  0  0
M  END
>  <CHROM.1>
-173.97837281,176.59916345,-118.99625920,-174.16899473,117.49363818,64.12040444
22.85773991,-11.82213390,-4.09753612,-2.43597490,0.88601884,-3.08632440

>  <Name>
ligand

>  <RI>
0

>  <Rbt.Current_Directory>
/home/itssahil/PROJECTS/Mol_Feturizer/New_Systems/rnas/4F8V

>  <Rbt.Executable>
rbdock ($Id: //depot/dev/client3/rdock/2013.1/src/exe/rbdock.cxx#4 $)

>  <Rbt.Library>
libRbt.so (2013.1, Build901 2013/11/27)

>  <Rbt.Parameter_File>
/export/apps/rDock/src/rDock_2013.1_src/data/scripts/dock_solv.prm

>  <Rbt.Receptor>
prm/pocket_docking_8.prm

>  <SCORE>
-10.1778

>  <SCORE.INTER>
-4.96046

>  <SCORE.INTER.CONST>
1

>  <SCORE.INTER.POLAR>
0

>  <SCORE.INTER.ROT>
6

>  <SCORE.INTER.SOLV>
15.08

>  <SCORE.INTER.VDW>
-15.9336

>  <SCORE.INTER.norm>
-0.160015

>  <SCORE.INTRA>
-5.21731

>  <SCORE.INTRA.DIHEDRAL>
-12.5383

>  <SCORE.INTRA.DIHEDRAL.0>
15.9129

>  <SCORE.INTRA.POLAR>
0

>  <SCORE.INTRA.POLAR.0>
0

>  <SCORE.INTRA.REPUL>
0

>  <SCORE.INTRA.REPUL.0>
0

>  <SCORE.INTRA.SOLV>
-2.25543

>  <SCORE.INTRA.SOLV.lig_0>
-75.7056

>  <SCORE.INTRA.VDW>
2.17956

>  <SCORE.INTRA.VDW.0>
-4.61812

>  <SCORE.INTRA.norm>
-0.1683

>  <SCORE.RESTR>
0

>  <SCORE.RESTR.CAVITY>
0

>  <SCORE.RESTR.norm>
0

>  <SCORE.SYSTEM>
0

>  <SCORE.SYSTEM.CONST>
0

>  <SCORE.SYSTEM.DIHEDRAL>
0

>  <SCORE.SYSTEM.SOLV>
0

>  <SCORE.SYSTEM.norm>
0

>  <SCORE.heavy>
31

>  <SCORE.norm>
-0.328315

>  <RMSD>
4.111

$$$$
ligand
 OpenBabel11021811493D
libRbt.so/2013.1/901 2013/11/27
 31 33  0  0  0  0  0  0  0  0999 V2000
   21.5060   -9.0180   -4.8285 C   0  0  2  0  0  0  0  0  0  0  0  0
   20.8562  -10.1226   -5.4719 O   0  0  0  0  0  0  0  0  0  0  0  0
   21.9197  -14.2488   -5.2912 C   0  0  2  0  0  0  0  0  0  0  0  0
   22.6632  -15.4488   -5.4782 N   0  0  0  0  0  0  0  0  0  0  0  0
   23.9474  -14.9463   -3.0911 C   0  0  2  0  0  0  0  0  0  0  0  0
   20.4031   -7.9580   -4.5222 C   0  0  2  0  0  0  0  0  0  0  0  0
   19.3678   -8.5760   -3.6962 N   0  0  0  0  0  0  0  0  0  0  0  0
   21.5153  -13.6650   -6.6967 C   0  0  0  0  0  0  0  0  0  0  0  0
   24.0902  -15.0828   -1.5511 C   0  0  2  0  0  0  0  0  0  0  0  0
   22.8024  -15.1678   -0.9848 O   0  0  0  0  0  0  0  0  0  0  0  0
   19.8077   -7.3848   -5.8656 C   0  0  0  0  0  0  0  0  0  0  0  0
   20.6889  -12.3317   -6.4848 C   0  0  2  0  0  0  0  0  0  0  0  0
   20.3098  -11.7778   -7.8008 N   0  0  0  0  0  0  0  0  0  0  0  0
   24.8737  -13.8185   -1.0174 C   0  0  1  0  0  0  0  0  0  0  0  0
   25.0162  -13.8940    0.4642 N   0  0  0  0  0  0  0  0  0  0  0  0
   20.8641   -7.3295   -7.0283 C   0  0  0  0  0  0  0  0  0  0  0  0
   21.5830  -11.2923   -5.6838 C   0  0  2  0  0  0  0  0  0  0  0  0
   26.3504  -13.7647   -1.7008 C   0  0  1  0  0  0  0  0  0  0  0  0
   27.1389  -14.8897   -1.3986 O   0  0  0  0  0  0  0  0  0  0  0  0
   22.1024   -7.8207   -6.8714 C   0  0  1  0  0  0  0  0  0  0  0  0
   22.5306   -8.4078   -5.6585 O   0  0  0  0  0  0  0  0  0  0  0  0
   21.9892  -11.9071   -4.2954 C   0  0  2  0  0  0  0  0  0  0  0  0
   22.8013  -10.9716   -3.5882 O   0  0  0  0  0  0  0  0  0  0  0  0
   26.1873  -13.6938   -3.2507 C   0  0  0  0  0  0  0  0  0  0  0  0
   25.3042  -14.8247   -3.7385 O   0  0  0  0  0  0  0  0  0  0  0  0
   23.1589   -7.7966   -7.9933 C   0  0  0  0  0  0  0  0  0  0  0  0
   24.2729   -6.9786   -7.5665 N   0  0  0  0  0  0  0  0  0  0  0  0
   22.8008  -13.2369   -4.5294 C   0  0  1  0  0  0  0  0  0  0  0  0
   23.1387  -13.7660   -3.2808 O   0  0  0  0  0  0  0  0  0  0  0  0
   27.2393  -12.5859   -1.2795 C   0  0  0  0  0  0  0  0  0  0  0  0
   24.2595  -12.8996    1.2403 C   0  0  0  0  0  0  0  0  0  0  0  0
  1  2  1  6  0  0  0
  1  6  1  0  0  0  0
  1 21  1  0  0  0  0
  3  4  1  6  0  0  0
  3  8  1  0  0  0  0
  3 28  1  0  0  0  0
  5  9  1  0  0  0  0
  5 25  1  0  0  0  0
  5 29  1  1  0  0  0
  6  7  1  6  0  0  0
  6 11  1  0  0  0  0
  8 12  1  0  0  0  0
  9 10  1  1  0  0  0
  9 14  1  0  0  0  0
 11 16  1  0  0  0  0
 12 13  1  6  0  0  0
 12 17  1  0  0  0  0
 14 15  1  1  0  0  0
 14 18  1  0  0  0  0
 15 31  1  0  0  0  0
 16 20  1  0  0  0  0
 17  2  1  1  0  0  0
 17 22  1  0  0  0  0
 18 19  1  1  0  0  0
 18 24  1  0  0  0  0
 18 30  1  0  0  0  0
 20 21  1  0  0  0  0
 20 26  1  6  0  0  0
 22 23  1  6  0  0  0
 22 28  1  0  0  0  0
 24 25  1  0  0  0  0
 26 27  1  0  0  0  0
 28 29  1  1  0  0  0
M  END
>  <CHROM.1>
-171.01287074,177.44591248,-111.78225739,-176.52824056,117.22073196,64.36028127
22.98140574,-11.80993130,-4.12336985,-2.35291368,0.87979170,3.09583850

>  <Name>
ligand

>  <RI>
0

>  <Rbt.Current_Directory>
/home/itssahil/PROJECTS/Mol_Feturizer/New_Systems/rnas/4F8V

>  <Rbt.Executable>
rbdock ($Id: //depot/dev/client3/rdock/2013.1/src/exe/rbdock.cxx#4 $)

>  <Rbt.Library>
libRbt.so (2013.1, Build901 2013/11/27)

>  <Rbt.Parameter_File>
/export/apps/rDock/src/rDock_2013.1_src/data/scripts/dock_solv.prm

>  <Rbt.Receptor>
prm/pocket_docking_7.prm

>  <SCORE>
-10.163

>  <SCORE.INTER>
-5.15928

>  <SCORE.INTER.CONST>
1

>  <SCORE.INTER.POLAR>
0

>  <SCORE.INTER.ROT>
6

>  <SCORE.INTER.SOLV>
13.946

>  <SCORE.INTER.VDW>
-15.6882

>  <SCORE.INTER.norm>
-0.166428

>  <SCORE.INTRA>
-5.00368

>  <SCORE.INTRA.DIHEDRAL>
-12.4985

>  <SCORE.INTRA.DIHEDRAL.0>
15.9129

>  <SCORE.INTRA.POLAR>
0

>  <SCORE.INTRA.POLAR.0>
0

>  <SCORE.INTRA.REPUL>
0

>  <SCORE.INTRA.REPUL.0>
0

>  <SCORE.INTRA.SOLV>
-2.29762

>  <SCORE.INTRA.SOLV.lig_0>
-75.7056

>  <SCORE.INTRA.VDW>
2.39438

>  <SCORE.INTRA.VDW.0>
-4.61812

>  <SCORE.INTRA.norm>
-0.161409

>  <SCORE.RESTR>
0

>  <SCORE.RESTR.CAVITY>
0

>  <SCORE.RESTR.norm>
0

>  <SCORE.SYSTEM>
0

>  <SCORE.SYSTEM.CONST>
0

>  <SCORE.SYSTEM.DIHEDRAL>
0

>  <SCORE.SYSTEM.SOLV>
0

>  <SCORE.SYSTEM.norm>
0

>  <SCORE.heavy>
31

>  <SCORE.norm>
-0.327837

>  <RMSD>
4.155

$$$$
ligand
 OpenBabel11021811493D
libRbt.so/2013.1/901 2013/11/27
 31 33  0  0  0  0  0  0  0  0999 V2000
   19.8409  -10.3608   -5.1605 C   0  0  2  0  0  0  0  0  0  0  0  0
   21.1103  -10.3603   -5.8277 O   0  0  0  0  0  0  0  0  0  0  0  0
   22.0453  -14.4939   -5.3505 C   0  0  2  0  0  0  0  0  0  0  0  0
   22.7392  -15.7318   -5.4699 N   0  0  0  0  0  0  0  0  0  0  0  0
   24.2139  -15.0411   -3.1980 C   0  0  2  0  0  0  0  0  0  0  0  0
   19.2597   -8.9188   -5.2894 C   0  0  2  0  0  0  0  0  0  0  0  0
   19.1642   -8.5706   -6.7056 N   0  0  0  0  0  0  0  0  0  0  0  0
   21.5929  -14.0131   -6.7801 C   0  0  0  0  0  0  0  0  0  0  0  0
   24.2829  -15.1531   -1.6510 C   0  0  2  0  0  0  0  0  0  0  0  0
   22.9718  -15.2768   -1.1490 O   0  0  0  0  0  0  0  0  0  0  0  0
   20.1612   -7.8934   -4.4996 C   0  0  0  0  0  0  0  0  0  0  0  0
   20.8218  -12.6375   -6.6434 C   0  0  2  0  0  0  0  0  0  0  0  0
   20.3980  -12.1800   -7.9825 N   0  0  0  0  0  0  0  0  0  0  0  0
   24.9937  -13.8552   -1.0966 C   0  0  1  0  0  0  0  0  0  0  0  0
   25.0634  -13.9071    0.3912 N   0  0  0  0  0  0  0  0  0  0  0  0
   20.8317   -8.5237   -3.2252 C   0  0  0  0  0  0  0  0  0  0  0  0
   21.7872  -11.5693   -5.9736 C   0  0  2  0  0  0  0  0  0  0  0  0
   26.5004  -13.7574   -1.7056 C   0  0  1  0  0  0  0  0  0  0  0  0
   27.3114  -14.8497   -1.3481 O   0  0  0  0  0  0  0  0  0  0  0  0
   20.6975   -9.8269   -2.9371 C   0  0  1  0  0  0  0  0  0  0  0  0
   19.9461  -10.7040   -3.7527 O   0  0  0  0  0  0  0  0  0  0  0  0
   22.2396  -12.0825   -4.5585 C   0  0  2  0  0  0  0  0  0  0  0  0
   23.1151  -11.1225   -3.9697 O   0  0  0  0  0  0  0  0  0  0  0  0
   26.4138  -13.7117   -3.2626 C   0  0  0  0  0  0  0  0  0  0  0  0
   25.5967  -14.8794   -3.7780 O   0  0  0  0  0  0  0  0  0  0  0  0
   21.3522  -10.4816   -1.7050 C   0  0  0  0  0  0  0  0  0  0  0  0
   20.3128  -10.8751   -0.7792 N   0  0  0  0  0  0  0  0  0  0  0  0
   22.9949  -13.4559   -4.7168 C   0  0  1  0  0  0  0  0  0  0  0  0
   23.3751  -13.8927   -3.4450 O   0  0  0  0  0  0  0  0  0  0  0  0
   27.3252  -12.5425   -1.2570 C   0  0  0  0  0  0  0  0  0  0  0  0
   24.2921  -12.8833    1.1129 C   0  0  0  0  0  0  0  0  0  0  0  0
  1  2  1  1  0  0  0
  1  6  1  0  0  0  0
  1 21  1  0  0  0  0
  3  4  1  6  0  0  0
  3  8  1  0  0  0  0
  3 28  1  0  0  0  0
  5  9  1  0  0  0  0
  5 25  1  0  0  0  0
  5 29  1  1  0  0  0
  6  7  1  6  0  0  0
  6 11  1  0  0  0  0
  8 12  1  0  0  0  0
  9 10  1  1  0  0  0
  9 14  1  0  0  0  0
 11 16  1  0  0  0  0
 12 13  1  6  0  0  0
 12 17  1  0  0  0  0
 14 15  1  1  0  0  0
 14 18  1  0  0  0  0
 15 31  1  0  0  0  0
 16 20  1  0  0  0  0
 17  2  1  1  0  0  0
 17 22  1  0  0  0  0
 18 19  1  1  0  0  0
 18 24  1  0  0  0  0
 18 30  1  0  0  0  0
 20 21  1  0  0  0  0
 20 26  1  6  0  0  0
 22 23  1  6  0  0  0
 22 28  1  0  0  0  0
 24 25  1  0  0  0  0
 26 27  1  0  0  0  0
 28 29  1  1  0  0  0
M  END
>  <CHROM.1>
-173.80749935,-177.15269430,-115.03506557,52.74822349,112.08028349,67.90233107
22.70209819,-12.38505843,-3.57121750,3.03689106,0.81197366,-2.15797796

>  <Name>
ligand

>  <RI>
0

>  <Rbt.Current_Directory>
/home/itssahil/PROJECTS/Mol_Feturizer/New_Systems/rnas/4F8V

>  <Rbt.Executable>
rbdock ($Id: //depot/dev/client3/rdock/2013.1/src/exe/rbdock.cxx#4 $)

>  <Rbt.Library>
libRbt.so (2013.1, Build901 2013/11/27)

>  <Rbt.Parameter_File>
/export/apps/rDock/src/rDock_2013.1_src/data/scripts/dock_solv.prm

>  <Rbt.Receptor>
prm/pocket_docking_5.prm

>  <SCORE>
-7.189

>  <SCORE.INTER>
-2.45398

>  <SCORE.INTER.CONST>
1

>  <SCORE.INTER.POLAR>
0

>  <SCORE.INTER.ROT>
6

>  <SCORE.INTER.SOLV>
20.7992

>  <SCORE.INTER.VDW>
-16.1691

>  <SCORE.INTER.norm>
-0.0791607

>  <SCORE.INTRA>
-4.73501

>  <SCORE.INTRA.DIHEDRAL>
-12.1819

>  <SCORE.INTRA.DIHEDRAL.0>
15.9129

>  <SCORE.INTRA.POLAR>
0

>  <SCORE.INTRA.POLAR.0>
0

>  <SCORE.INTRA.REPUL>
0

>  <SCORE.INTRA.REPUL.0>
0

>  <SCORE.INTRA.SOLV>
-0.903431

>  <SCORE.INTRA.SOLV.lig_0>
-75.7056

>  <SCORE.INTRA.VDW>
1.80766

>  <SCORE.INTRA.VDW.0>
-4.61812

>  <SCORE.INTRA.norm>
-0.152742

>  <SCORE.RESTR>
0

>  <SCORE.RESTR.CAVITY>
0

>  <SCORE.RESTR.norm>
0

>  <SCORE.SYSTEM>
0

>  <SCORE.SYSTEM.CONST>
0

>  <SCORE.SYSTEM.DIHEDRAL>
0

>  <SCORE.SYSTEM.SOLV>
0

>  <SCORE.SYSTEM.norm>
0

>  <SCORE.heavy>
31

>  <SCORE.norm>
-0.231903

>  <RMSD>
4.156

$$$$
ligand
 OpenBabel11021811493D
libRbt.so/2013.1/901 2013/11/27
 31 33  0  0  0  0  0  0  0  0999 V2000
   21.6106   -7.3723   -6.6261 C   0  0  2  0  0  0  0  0  0  0  0  0
   21.9700   -7.3639   -5.2379 O   0  0  0  0  0  0  0  0  0  0  0  0
   24.4683   -9.9478   -2.9420 C   0  0  2  0  0  0  0  0  0  0  0  0
   24.9941  -11.1421   -2.3719 N   0  0  0  0  0  0  0  0  0  0  0  0
   26.2259  -10.4544   -6.2688 C   0  0  2  0  0  0  0  0  0  0  0  0
   21.4027   -5.8855   -7.0504 C   0  0  2  0  0  0  0  0  0  0  0  0
   22.6295   -5.1389   -6.7790 N   0  0  0  0  0  0  0  0  0  0  0  0
   22.9858   -9.7476   -2.4505 C   0  0  0  0  0  0  0  0  0  0  0  0
   25.9404  -11.9575   -6.5330 C   0  0  2  0  0  0  0  0  0  0  0  0
   24.5765  -12.2083   -6.2813 O   0  0  0  0  0  0  0  0  0  0  0  0
   20.1673   -5.2674   -6.2891 C   0  0  0  0  0  0  0  0  0  0  0  0
   22.4049   -8.4192   -3.0858 C   0  0  2  0  0  0  0  0  0  0  0  0
   21.0126   -8.2283   -2.6305 N   0  0  0  0  0  0  0  0  0  0  0  0
   26.8698  -12.8081   -5.5791 C   0  0  1  0  0  0  0  0  0  0  0  0
   26.6146  -14.2624   -5.7814 N   0  0  0  0  0  0  0  0  0  0  0  0
   19.0418   -6.3235   -5.9910 C   0  0  0  0  0  0  0  0  0  0  0  0
   22.4582   -8.5381   -4.6684 C   0  0  2  0  0  0  0  0  0  0  0  0
   28.4307  -12.4821   -5.9074 C   0  0  1  0  0  0  0  0  0  0  0  0
   28.7959  -12.8062   -7.2266 O   0  0  0  0  0  0  0  0  0  0  0  0
   19.2053   -7.6216   -6.2869 C   0  0  1  0  0  0  0  0  0  0  0  0
   20.3881   -8.1134   -6.8856 O   0  0  0  0  0  0  0  0  0  0  0  0
   23.9445   -8.7575   -5.1304 C   0  0  2  0  0  0  0  0  0  0  0  0
   23.9811   -8.8747   -6.5515 O   0  0  0  0  0  0  0  0  0  0  0  0
   28.6826  -10.9566   -5.6995 C   0  0  0  0  0  0  0  0  0  0  0  0
   27.6839  -10.1452   -6.5002 O   0  0  0  0  0  0  0  0  0  0  0  0
   18.1299   -8.6865   -5.9958 C   0  0  0  0  0  0  0  0  0  0  0  0
   17.2313   -8.1764   -4.9835 N   0  0  0  0  0  0  0  0  0  0  0  0
   24.5053  -10.0778   -4.4790 C   0  0  1  0  0  0  0  0  0  0  0  0
   25.8285  -10.2415   -4.8976 O   0  0  0  0  0  0  0  0  0  0  0  0
   29.4640  -13.2366   -5.0586 C   0  0  0  0  0  0  0  0  0  0  0  0
   25.6080  -14.8733   -4.8997 C   0  0  0  0  0  0  0  0  0  0  0  0
  1  2  1  1  0  0  0
  1  6  1  0  0  0  0
  1 21  1  0  0  0  0
  3  4  1  1  0  0  0
  3  8  1  0  0  0  0
  3 28  1  0  0  0  0
  5  9  1  0  0  0  0
  5 25  1  0  0  0  0
  5 29  1  1  0  0  0
  6  7  1  1  0  0  0
  6 11  1  0  0  0  0
  8 12  1  0  0  0  0
  9 10  1  1  0  0  0
  9 14  1  0  0  0  0
 11 16  1  0  0  0  0
 12 13  1  6  0  0  0
 12 17  1  0  0  0  0
 14 15  1  6  0  0  0
 14 18  1  0  0  0  0
 15 31  1  0  0  0  0
 16 20  1  0  0  0  0
 17  2  1  6  0  0  0
 17 22  1  0  0  0  0
 18 19  1  6  0  0  0
 18 24  1  0  0  0  0
 18 30  1  0  0  0  0
 20 21  1  0  0  0  0
 20 26  1  1  0  0  0
 22 23  1  6  0  0  0
 22 28  1  0  0  0  0
 24 25  1  0  0  0  0
 26 27  1  0  0  0  0
 28 29  1  6  0  0  0
M  END
>  <CHROM.1>
-168.00293708,-79.00512564,-92.16297772,-164.43240759,-20.37322280,177.07773881
23.81485555,-9.70811414,-5.41309262,-2.66397735,-0.41744233,2.46966848

>  <Name>
ligand

>  <RI>
0

>  <Rbt.Current_Directory>
/home/itssahil/PROJECTS/Mol_Feturizer/New_Systems/rnas/4F8V

>  <Rbt.Executable>
rbdock ($Id: //depot/dev/client3/rdock/2013.1/src/exe/rbdock.cxx#4 $)

>  <Rbt.Library>
libRbt.so (2013.1, Build901 2013/11/27)

>  <Rbt.Parameter_File>
/export/apps/rDock/src/rDock_2013.1_src/data/scripts/dock_solv.prm

>  <Rbt.Receptor>
prm/pocket_docking_6.prm

>  <SCORE>
-8.46841

>  <SCORE.INTER>
-5.45375

>  <SCORE.INTER.CONST>
1

>  <SCORE.INTER.POLAR>
0

>  <SCORE.INTER.ROT>
6

>  <SCORE.INTER.SOLV>
11.9303

>  <SCORE.INTER.VDW>
-15.2126

>  <SCORE.INTER.norm>
-0.175928

>  <SCORE.INTRA>
-3.01465

>  <SCORE.INTRA.DIHEDRAL>
-9.567

>  <SCORE.INTRA.DIHEDRAL.0>
15.9129

>  <SCORE.INTRA.POLAR>
0

>  <SCORE.INTRA.POLAR.0>
0

>  <SCORE.INTRA.REPUL>
0

>  <SCORE.INTRA.REPUL.0>
0

>  <SCORE.INTRA.SOLV>
-1.80037

>  <SCORE.INTRA.SOLV.lig_0>
-75.7056

>  <SCORE.INTRA.VDW>
2.66903

>  <SCORE.INTRA.VDW.0>
-4.61812

>  <SCORE.INTRA.norm>
-0.0972468

>  <SCORE.RESTR>
0

>  <SCORE.RESTR.CAVITY>
0

>  <SCORE.RESTR.norm>
0

>  <SCORE.SYSTEM>
0

>  <SCORE.SYSTEM.CONST>
0

>  <SCORE.SYSTEM.DIHEDRAL>
0

>  <SCORE.SYSTEM.SOLV>
0

>  <SCORE.SYSTEM.norm>
0

>  <SCORE.heavy>
31

>  <SCORE.norm>
-0.273174

>  <RMSD>
4.162

$$$$
ligand
 OpenBabel11021811493D
libRbt.so/2013.1/901 2013/11/27
 31 33  0  0  0  0  0  0  0  0999 V2000
   22.7349   -7.8658   -6.3419 C   0  0  2  0  0  0  0  0  0  0  0  0
   23.5777   -7.1890   -5.3995 O   0  0  0  0  0  0  0  0  0  0  0  0
   23.2979   -7.1017   -1.1448 C   0  0  2  0  0  0  0  0  0  0  0  0
   22.7817   -6.8471    0.1578 N   0  0  0  0  0  0  0  0  0  0  0  0
   20.9673  -10.0542   -1.4950 C   0  0  2  0  0  0  0  0  0  0  0  0
   23.3957   -7.6971   -7.7450 C   0  0  2  0  0  0  0  0  0  0  0  0
   24.7533   -8.2363   -7.6978 N   0  0  0  0  0  0  0  0  0  0  0  0
   23.5387   -5.7323   -1.8839 C   0  0  0  0  0  0  0  0  0  0  0  0
   20.8329  -10.8740   -0.1834 C   0  0  2  0  0  0  0  0  0  0  0  0
   20.6441   -9.9799    0.8896 O   0  0  0  0  0  0  0  0  0  0  0  0
   23.3892   -6.1792   -8.1734 C   0  0  0  0  0  0  0  0  0  0  0  0
   24.1128   -6.0193   -3.3309 C   0  0  2  0  0  0  0  0  0  0  0  0
   24.3374   -4.7376   -4.0302 N   0  0  0  0  0  0  0  0  0  0  0  0
   22.1512  -11.7258   -0.0003 C   0  0  1  0  0  0  0  0  0  0  0  0
   22.0779  -12.5154    1.2616 N   0  0  0  0  0  0  0  0  0  0  0  0
   22.1438   -5.3937   -7.6231 C   0  0  0  0  0  0  0  0  0  0  0  0
   23.0714   -6.9114   -4.1316 C   0  0  2  0  0  0  0  0  0  0  0  0
   22.3245  -12.7389   -1.2629 C   0  0  1  0  0  0  0  0  0  0  0  0
   21.2627  -13.6534   -1.3856 O   0  0  0  0  0  0  0  0  0  0  0  0
   21.2589   -5.9751   -6.7995 C   0  0  1  0  0  0  0  0  0  0  0  0
   21.3888   -7.3206   -6.3847 O   0  0  0  0  0  0  0  0  0  0  0  0
   22.8339   -8.2616   -3.3627 C   0  0  2  0  0  0  0  0  0  0  0  0
   21.8890   -9.0510   -4.0828 O   0  0  0  0  0  0  0  0  0  0  0  0
   22.3920  -11.9010   -2.5771 C   0  0  0  0  0  0  0  0  0  0  0  0
   21.1985  -10.9716   -2.6697 O   0  0  0  0  0  0  0  0  0  0  0  0
   20.0350   -5.2318   -6.2294 C   0  0  0  0  0  0  0  0  0  0  0  0
   18.8598   -6.0524   -6.4235 N   0  0  0  0  0  0  0  0  0  0  0  0
   22.2730   -7.9525   -1.9234 C   0  0  1  0  0  0  0  0  0  0  0  0
   22.0820   -9.1678   -1.2604 O   0  0  0  0  0  0  0  0  0  0  0  0
   23.5665  -13.6409   -1.2307 C   0  0  0  0  0  0  0  0  0  0  0  0
   23.2419  -12.4189    2.1558 C   0  0  0  0  0  0  0  0  0  0  0  0
  1  2  1  1  0  0  0
  1  6  1  0  0  0  0
  1 21  1  0  0  0  0
  3  4  1  1  0  0  0
  3  8  1  0  0  0  0
  3 28  1  0  0  0  0
  5  9  1  0  0  0  0
  5 25  1  0  0  0  0
  5 29  1  1  0  0  0
  6  7  1  1  0  0  0
  6 11  1  0  0  0  0
  8 12  1  0  0  0  0
  9 10  1  1  0  0  0
  9 14  1  0  0  0  0
 11 16  1  0  0  0  0
 12 13  1  6  0  0  0
 12 17  1  0  0  0  0
 14 15  1  1  0  0  0
 14 18  1  0  0  0  0
 15 31  1  0  0  0  0
 16 20  1  0  0  0  0
 17  2  1  6  0  0  0
 17 22  1  0  0  0  0
 18 19  1  6  0  0  0
 18 24  1  0  0  0  0
 18 30  1  0  0  0  0
 20 21  1  0  0  0  0
 20 26  1  1  0  0  0
 22 23  1  6  0  0  0
 22 28  1  0  0  0  0
 24 25  1  0  0  0  0
 26 27  1  0  0  0  0
 28 29  1  1  0  0  0
M  END
>  <CHROM.1>
165.04575202,-155.72224689,-130.19101994,-173.52608801,131.28042215,163.35821470
22.31859755,-8.73301478,-3.21514822,1.26650417,-1.43767534,-1.16243808

>  <Name>
ligand

>  <RI>
0

>  <Rbt.Current_Directory>
/home/itssahil/PROJECTS/Mol_Feturizer/New_Systems/rnas/4F8V

>  <Rbt.Executable>
rbdock ($Id: //depot/dev/client3/rdock/2013.1/src/exe/rbdock.cxx#4 $)

>  <Rbt.Library>
libRbt.so (2013.1, Build901 2013/11/27)

>  <Rbt.Parameter_File>
/export/apps/rDock/src/rDock_2013.1_src/data/scripts/dock_solv.prm

>  <Rbt.Receptor>
prm/pocket_docking_8.prm

>  <SCORE>
-9.90727

>  <SCORE.INTER>
-6.61183

>  <SCORE.INTER.CONST>
1

>  <SCORE.INTER.POLAR>
0

>  <SCORE.INTER.ROT>
6

>  <SCORE.INTER.SOLV>
18.4043

>  <SCORE.INTER.VDW>
-18.1426

>  <SCORE.INTER.norm>
-0.213285

>  <SCORE.INTRA>
-3.29544

>  <SCORE.INTRA.DIHEDRAL>
-7.87741

>  <SCORE.INTRA.DIHEDRAL.0>
15.9129

>  <SCORE.INTRA.POLAR>
0

>  <SCORE.INTRA.POLAR.0>
0

>  <SCORE.INTRA.REPUL>
0

>  <SCORE.INTRA.REPUL.0>
0

>  <SCORE.INTRA.SOLV>
-2.92776

>  <SCORE.INTRA.SOLV.lig_0>
-75.7056

>  <SCORE.INTRA.VDW>
2.10714

>  <SCORE.INTRA.VDW.0>
-4.61812

>  <SCORE.INTRA.norm>
-0.106305

>  <SCORE.RESTR>
0

>  <SCORE.RESTR.CAVITY>
0

>  <SCORE.RESTR.norm>
0

>  <SCORE.SYSTEM>
0

>  <SCORE.SYSTEM.CONST>
0

>  <SCORE.SYSTEM.DIHEDRAL>
0

>  <SCORE.SYSTEM.SOLV>
0

>  <SCORE.SYSTEM.norm>
0

>  <SCORE.heavy>
31

>  <SCORE.norm>
-0.319589

>  <RMSD>
4.162

$$$$
ligand
 OpenBabel11021811493D
libRbt.so/2013.1/901 2013/11/27
 31 33  0  0  0  0  0  0  0  0999 V2000
   21.7477   -8.5858   -4.9931 C   0  0  2  0  0  0  0  0  0  0  0  0
   21.3583   -9.7046   -5.8014 O   0  0  0  0  0  0  0  0  0  0  0  0
   22.9798  -13.6452   -5.9768 C   0  0  2  0  0  0  0  0  0  0  0  0
   23.9185  -14.6991   -6.1664 N   0  0  0  0  0  0  0  0  0  0  0  0
   24.6019  -14.4779   -3.5223 C   0  0  2  0  0  0  0  0  0  0  0  0
   20.4539   -7.7645   -4.7010 C   0  0  2  0  0  0  0  0  0  0  0  0
   19.4778   -8.6337   -4.0470 N   0  0  0  0  0  0  0  0  0  0  0  0
   22.7705  -12.8858   -7.3403 C   0  0  0  0  0  0  0  0  0  0  0  0
   24.4715  -14.8488   -2.0203 C   0  0  2  0  0  0  0  0  0  0  0  0
   23.1220  -15.1480   -1.7454 O   0  0  0  0  0  0  0  0  0  0  0  0
   19.8817   -7.1523   -6.0373 C   0  0  0  0  0  0  0  0  0  0  0  0
   21.7264  -11.7156   -7.1259 C   0  0  2  0  0  0  0  0  0  0  0  0
   21.5289  -10.9974   -8.4016 N   0  0  0  0  0  0  0  0  0  0  0  0
   24.9761  -13.6188   -1.1660 C   0  0  1  0  0  0  0  0  0  0  0  0
   24.8487  -13.9204    0.2879 N   0  0  0  0  0  0  0  0  0  0  0  0
   21.0056   -6.7934   -7.0760 C   0  0  0  0  0  0  0  0  0  0  0  0
   22.2810  -10.7265   -6.0143 C   0  0  2  0  0  0  0  0  0  0  0  0
   26.5354  -13.3130   -1.5203 C   0  0  1  0  0  0  0  0  0  0  0  0
   27.3894  -14.3911   -1.2255 O   0  0  0  0  0  0  0  0  0  0  0  0
   22.2934   -7.0865   -6.8416 C   0  0  1  0  0  0  0  0  0  0  0  0
   22.7150   -7.7255   -5.6528 O   0  0  0  0  0  0  0  0  0  0  0  0
   22.5001  -11.5133   -4.6712 C   0  0  2  0  0  0  0  0  0  0  0  0
   23.0090  -10.6199   -3.6825 O   0  0  0  0  0  0  0  0  0  0  0  0
   26.6561  -13.0068   -3.0453 C   0  0  0  0  0  0  0  0  0  0  0  0
   26.0291  -14.1228   -3.8566 O   0  0  0  0  0  0  0  0  0  0  0  0
   23.4193   -6.7628   -7.8429 C   0  0  0  0  0  0  0  0  0  0  0  0
   24.1581   -7.9749   -8.1210 N   0  0  0  0  0  0  0  0  0  0  0  0
   23.5335  -12.6781   -4.9098 C   0  0  1  0  0  0  0  0  0  0  0  0
   23.7003  -13.3655   -3.7046 O   0  0  0  0  0  0  0  0  0  0  0  0
   27.1745  -12.1386   -0.7656 C   0  0  0  0  0  0  0  0  0  0  0  0
   24.1986  -12.8883    1.1101 C   0  0  0  0  0  0  0  0  0  0  0  0
  1  2  1  6  0  0  0
  1  6  1  0  0  0  0
  1 21  1  0  0  0  0
  3  4  1  6  0  0  0
  3  8  1  0  0  0  0
  3 28  1  0  0  0  0
  5  9  1  0  0  0  0
  5 25  1  0  0  0  0
  5 29  1  1  0  0  0
  6  7  1  6  0  0  0
  6 11  1  0  0  0  0
  8 12  1  0  0  0  0
  9 10  1  1  0  0  0
  9 14  1  0  0  0  0
 11 16  1  0  0  0  0
 12 13  1  6  0  0  0
 12 17  1  0  0  0  0
 14 15  1  1  0  0  0
 14 18  1  0  0  0  0
 15 31  1  0  0  0  0
 16 20  1  0  0  0  0
 17  2  1  1  0  0  0
 17 22  1  0  0  0  0
 18 19  1  1  0  0  0
 18 24  1  0  0  0  0
 18 30  1  0  0  0  0
 20 21  1  0  0  0  0
 20 26  1  6  0  0  0
 22 23  1  1  0  0  0
 22 28  1  0  0  0  0
 24 25  1  0  0  0  0
 26 27  1  0  0  0  0
 28 29  1  1  0  0  0
M  END
>  <CHROM.1>
-169.04396273,177.66596761,-131.25990404,-170.26823657,-125.78870833,62.71043658
23.39548781,-11.40137562,-4.36635599,3.01659854,1.10378086,-2.14365200

>  <Name>
ligand

>  <RI>
0

>  <Rbt.Current_Directory>
/home/itssahil/PROJECTS/Mol_Feturizer/New_Systems/rnas/4F8V

>  <Rbt.Executable>
rbdock ($Id: //depot/dev/client3/rdock/2013.1/src/exe/rbdock.cxx#4 $)

>  <Rbt.Library>
libRbt.so (2013.1, Build901 2013/11/27)

>  <Rbt.Parameter_File>
/export/apps/rDock/src/rDock_2013.1_src/data/scripts/dock_solv.prm

>  <Rbt.Receptor>
prm/pocket_docking_4.prm

>  <SCORE>
-9.16301

>  <SCORE.INTER>
-4.83999

>  <SCORE.INTER.CONST>
1

>  <SCORE.INTER.POLAR>
0

>  <SCORE.INTER.ROT>
6

>  <SCORE.INTER.SOLV>
10.0274

>  <SCORE.INTER.VDW>
-14.1691

>  <SCORE.INTER.norm>
-0.156129

>  <SCORE.INTRA>
-4.32302

>  <SCORE.INTRA.DIHEDRAL>
-11.9913

>  <SCORE.INTRA.DIHEDRAL.0>
15.9129

>  <SCORE.INTRA.POLAR>
0

>  <SCORE.INTRA.POLAR.0>
0

>  <SCORE.INTRA.REPUL>
0

>  <SCORE.INTRA.REPUL.0>
0

>  <SCORE.INTRA.SOLV>
-0.503619

>  <SCORE.INTRA.SOLV.lig_0>
-75.7056

>  <SCORE.INTRA.VDW>
1.92443

>  <SCORE.INTRA.VDW.0>
-4.61812

>  <SCORE.INTRA.norm>
-0.139452

>  <SCORE.RESTR>
0

>  <SCORE.RESTR.CAVITY>
0

>  <SCORE.RESTR.norm>
0

>  <SCORE.SYSTEM>
0

>  <SCORE.SYSTEM.CONST>
0

>  <SCORE.SYSTEM.DIHEDRAL>
0

>  <SCORE.SYSTEM.SOLV>
0

>  <SCORE.SYSTEM.norm>
0

>  <SCORE.heavy>
31

>  <SCORE.norm>
-0.295581

>  <RMSD>
4.408

$$$$
ligand
 OpenBabel11021811493D
libRbt.so/2013.1/901 2013/11/27
 31 33  0  0  0  0  0  0  0  0999 V2000
   22.3300   -7.3207   -6.1632 C   0  0  2  0  0  0  0  0  0  0  0  0
   23.6406   -7.6048   -6.6713 O   0  0  0  0  0  0  0  0  0  0  0  0
   23.3902  -11.8622   -6.6652 C   0  0  2  0  0  0  0  0  0  0  0  0
   23.7422  -13.2241   -6.8875 N   0  0  0  0  0  0  0  0  0  0  0  0
   23.5567  -11.8674   -3.5932 C   0  0  2  0  0  0  0  0  0  0  0  0
   22.1535   -5.7711   -6.2032 C   0  0  2  0  0  0  0  0  0  0  0  0
   22.3511   -5.3065   -7.5748 N   0  0  0  0  0  0  0  0  0  0  0  0
   23.2512  -11.1296   -8.0522 C   0  0  0  0  0  0  0  0  0  0  0  0
   24.2892  -12.1944   -2.2639 C   0  0  2  0  0  0  0  0  0  0  0  0
   25.2839  -11.2201   -2.0458 O   0  0  0  0  0  0  0  0  0  0  0  0
   23.1615   -5.0802   -5.2060 C   0  0  0  0  0  0  0  0  0  0  0  0
   22.8596   -9.6166   -7.8012 C   0  0  2  0  0  0  0  0  0  0  0  0
   22.7312   -8.9236   -9.0995 N   0  0  0  0  0  0  0  0  0  0  0  0
   24.9148  -13.6400   -2.3916 C   0  0  1  0  0  0  0  0  0  0  0  0
   25.6498  -13.9904   -1.1434 N   0  0  0  0  0  0  0  0  0  0  0  0
   23.4639   -5.9570   -3.9369 C   0  0  0  0  0  0  0  0  0  0  0  0
   23.9871   -8.9316   -6.9174 C   0  0  2  0  0  0  0  0  0  0  0  0
   23.7285  -14.7262   -2.6438 C   0  0  1  0  0  0  0  0  0  0  0  0
   22.7957  -14.7778   -1.5921 O   0  0  0  0  0  0  0  0  0  0  0  0
   22.9676   -7.1966   -3.8093 C   0  0  1  0  0  0  0  0  0  0  0  0
   22.1442   -7.7826   -4.7982 O   0  0  0  0  0  0  0  0  0  0  0  0
   24.1192   -9.6937   -5.5490 C   0  0  2  0  0  0  0  0  0  0  0  0
   25.1416   -9.0789   -4.7671 O   0  0  0  0  0  0  0  0  0  0  0  0
   22.9625  -14.3438   -3.9479 C   0  0  0  0  0  0  0  0  0  0  0  0
   22.4983  -12.9027   -3.8814 O   0  0  0  0  0  0  0  0  0  0  0  0
   23.2548   -8.0896   -2.5865 C   0  0  0  0  0  0  0  0  0  0  0  0
   22.0347   -8.2429   -1.8248 N   0  0  0  0  0  0  0  0  0  0  0  0
   24.4988  -11.1980   -5.8225 C   0  0  1  0  0  0  0  0  0  0  0  0
   24.5988  -11.8522   -4.5916 O   0  0  0  0  0  0  0  0  0  0  0  0
   24.1792  -16.1867   -2.7890 C   0  0  0  0  0  0  0  0  0  0  0  0
   24.9361  -13.7475    0.1197 C   0  0  0  0  0  0  0  0  0  0  0  0
  1  2  1  1  0  0  0
  1  6  1  0  0  0  0
  1 21  1  0  0  0  0
  3  4  1  6  0  0  0
  3  8  1  0  0  0  0
  3 28  1  0  0  0  0
  5  9  1  0  0  0  0
  5 25  1  0  0  0  0
  5 29  1  6  0  0  0
  6  7  1  6  0  0  0
  6 11  1  0  0  0  0
  8 12  1  0  0  0  0
  9 10  1  6  0  0  0
  9 14  1  0  0  0  0
 11 16  1  0  0  0  0
 12 13  1  6  0  0  0
 12 17  1  0  0  0  0
 14 15  1  1  0  0  0
 14 18  1  0  0  0  0
 15 31  1  0  0  0  0
 16 20  1  0  0  0  0
 17  2  1  1  0  0  0
 17 22  1  0  0  0  0
 18 19  1  1  0  0  0
 18 24  1  0  0  0  0
 18 30  1  0  0  0  0
 20 21  1  0  0  0  0
 20 26  1  6  0  0  0
 22 23  1  1  0  0  0
 22 28  1  0  0  0  0
 24 25  1  0  0  0  0
 26 27  1  0  0  0  0
 28 29  1  1  0  0  0
M  END
>  <CHROM.1>
-171.22993893,-158.42104563,48.05071397,50.62102181,111.03292398,-64.84144617
23.57765483,-10.45786195,-4.51317196,-2.86942666,1.40988936,-2.34371164

>  <Name>
ligand

>  <RI>
0

>  <Rbt.Current_Directory>
/home/itssahil/PROJECTS/Mol_Feturizer/New_Systems/rnas/4F8V

>  <Rbt.Executable>
rbdock ($Id: //depot/dev/client3/rdock/2013.1/src/exe/rbdock.cxx#4 $)

>  <Rbt.Library>
libRbt.so (2013.1, Build901 2013/11/27)

>  <Rbt.Parameter_File>
/export/apps/rDock/src/rDock_2013.1_src/data/scripts/dock_solv.prm

>  <Rbt.Receptor>
prm/pocket_docking_6.prm

>  <SCORE>
-3.00044

>  <SCORE.INTER>
-0.796557

>  <SCORE.INTER.CONST>
1

>  <SCORE.INTER.POLAR>
0

>  <SCORE.INTER.ROT>
6

>  <SCORE.INTER.SOLV>
12.7335

>  <SCORE.INTER.VDW>
-12.3755

>  <SCORE.INTER.norm>
-0.0256954

>  <SCORE.INTRA>
-2.20388

>  <SCORE.INTRA.DIHEDRAL>
-11.0361

>  <SCORE.INTRA.DIHEDRAL.0>
15.9129

>  <SCORE.INTRA.POLAR>
0

>  <SCORE.INTRA.POLAR.0>
0

>  <SCORE.INTRA.REPUL>
0

>  <SCORE.INTRA.REPUL.0>
0

>  <SCORE.INTRA.SOLV>
0.354239

>  <SCORE.INTRA.SOLV.lig_0>
-75.7056

>  <SCORE.INTRA.VDW>
3.13705

>  <SCORE.INTRA.VDW.0>
-4.61812

>  <SCORE.INTRA.norm>
-0.071093

>  <SCORE.RESTR>
0

>  <SCORE.RESTR.CAVITY>
0

>  <SCORE.RESTR.norm>
0

>  <SCORE.SYSTEM>
0

>  <SCORE.SYSTEM.CONST>
0

>  <SCORE.SYSTEM.DIHEDRAL>
0

>  <SCORE.SYSTEM.SOLV>
0

>  <SCORE.SYSTEM.norm>
0

>  <SCORE.heavy>
31

>  <SCORE.norm>
-0.0967884

>  <RMSD>
4.433

$$$$
ligand
 OpenBabel11021811493D
libRbt.so/2013.1/901 2013/11/27
 31 33  0  0  0  0  0  0  0  0999 V2000
   21.8233   -8.5643   -5.0106 C   0  0  2  0  0  0  0  0  0  0  0  0
   21.5126   -9.6744   -5.8636 O   0  0  0  0  0  0  0  0  0  0  0  0
   23.3012  -13.5388   -6.1000 C   0  0  2  0  0  0  0  0  0  0  0  0
   24.2902  -14.5471   -6.2818 N   0  0  0  0  0  0  0  0  0  0  0  0
   24.8305  -14.4076   -3.6078 C   0  0  2  0  0  0  0  0  0  0  0  0
   20.4817   -7.8208   -4.7260 C   0  0  2  0  0  0  0  0  0  0  0  0
   19.5370   -8.7602   -4.1251 N   0  0  0  0  0  0  0  0  0  0  0  0
   23.1233  -12.7386   -7.4444 C   0  0  0  0  0  0  0  0  0  0  0  0
   24.6681  -14.8203   -2.1198 C   0  0  2  0  0  0  0  0  0  0  0  0
   23.3199  -15.1612   -1.8911 O   0  0  0  0  0  0  0  0  0  0  0  0
   19.9105   -7.1953   -6.0565 C   0  0  0  0  0  0  0  0  0  0  0  0
   22.0231  -11.6192   -7.2387 C   0  0  2  0  0  0  0  0  0  0  0  0
   21.8547  -10.8630   -8.4965 N   0  0  0  0  0  0  0  0  0  0  0  0
   25.1159  -13.6001   -1.2210 C   0  0  1  0  0  0  0  0  0  0  0  0
   24.9560  -13.9421    0.2207 N   0  0  0  0  0  0  0  0  0  0  0  0
   21.0386   -6.7449   -7.0542 C   0  0  0  0  0  0  0  0  0  0  0  0
   22.4853  -10.6506   -6.0683 C   0  0  2  0  0  0  0  0  0  0  0  0
   26.6758  -13.2450   -1.5229 C   0  0  1  0  0  0  0  0  0  0  0  0
   27.5496  -14.3080   -1.2308 O   0  0  0  0  0  0  0  0  0  0  0  0
   22.3340   -6.9788   -6.7961 C   0  0  1  0  0  0  0  0  0  0  0  0
   22.7598   -7.6340   -5.6177 O   0  0  0  0  0  0  0  0  0  0  0  0
   22.6751  -11.4769   -4.7448 C   0  0  2  0  0  0  0  0  0  0  0  0
   23.1012  -10.6012   -3.7026 O   0  0  0  0  0  0  0  0  0  0  0  0
   26.8309  -12.8968   -3.0357 C   0  0  0  0  0  0  0  0  0  0  0  0
   26.2566  -14.0074   -3.8922 O   0  0  0  0  0  0  0  0  0  0  0  0
   23.4652   -6.5646   -7.7574 C   0  0  0  0  0  0  0  0  0  0  0  0
   24.2223   -7.7424   -8.1207 N   0  0  0  0  0  0  0  0  0  0  0  0
   23.7654  -12.5905   -4.9749 C   0  0  1  0  0  0  0  0  0  0  0  0
   23.9052  -13.3147   -3.7879 O   0  0  0  0  0  0  0  0  0  0  0  0
   27.2622  -12.0743   -0.7211 C   0  0  0  0  0  0  0  0  0  0  0  0
   24.2598  -12.9466    1.0503 C   0  0  0  0  0  0  0  0  0  0  0  0
  1  2  1  6  0  0  0
  1  6  1  0  0  0  0
  1 21  1  0  0  0  0
  3  4  1  6  0  0  0
  3  8  1  0  0  0  0
  3 28  1  0  0  0  0
  5  9  1  0  0  0  0
  5 25  1  0  0  0  0
  5 29  1  1  0  0  0
  6  7  1  6  0  0  0
  6 11  1  0  0  0  0
  8 12  1  0  0  0  0
  9 10  1  6  0  0  0
  9 14  1  0  0  0  0
 11 16  1  0  0  0  0
 12 13  1  6  0  0  0
 12 17  1  0  0  0  0
 14 15  1  1  0  0  0
 14 18  1  0  0  0  0
 15 31  1  0  0  0  0
 16 20  1  0  0  0  0
 17  2  1  1  0  0  0
 17 22  1  0  0  0  0
 18 19  1  1  0  0  0
 18 24  1  0  0  0  0
 18 30  1  0  0  0  0
 20 21  1  0  0  0  0
 20 26  1  6  0  0  0
 22 23  1  1  0  0  0
 22 28  1  0  0  0  0
 24 25  1  0  0  0  0
 26 27  1  0  0  0  0
 28 29  1  1  0  0  0
M  END
>  <CHROM.1>
-168.06214807,176.85423541,-131.44537761,-169.61489445,-122.24918969,61.88149894
23.55179526,-11.34122362,-4.40994592,2.86922195,1.08157152,-1.97094841

>  <Name>
ligand

>  <RI>
0

>  <Rbt.Current_Directory>
/home/itssahil/PROJECTS/Mol_Feturizer/New_Systems/rnas/4F8V

>  <Rbt.Executable>
rbdock ($Id: //depot/dev/client3/rdock/2013.1/src/exe/rbdock.cxx#4 $)

>  <Rbt.Library>
libRbt.so (2013.1, Build901 2013/11/27)

>  <Rbt.Parameter_File>
/export/apps/rDock/src/rDock_2013.1_src/data/scripts/dock_solv.prm

>  <Rbt.Receptor>
prm/pocket_docking_5.prm

>  <SCORE>
-9.20717

>  <SCORE.INTER>
-5.03568

>  <SCORE.INTER.CONST>
1

>  <SCORE.INTER.POLAR>
0

>  <SCORE.INTER.ROT>
6

>  <SCORE.INTER.SOLV>
9.51144

>  <SCORE.INTER.VDW>
-14.1276

>  <SCORE.INTER.norm>
-0.162441

>  <SCORE.INTRA>
-4.17149

>  <SCORE.INTRA.DIHEDRAL>
-11.8618

>  <SCORE.INTRA.DIHEDRAL.0>
15.9129

>  <SCORE.INTRA.POLAR>
0

>  <SCORE.INTRA.POLAR.0>
0

>  <SCORE.INTRA.REPUL>
0

>  <SCORE.INTRA.REPUL.0>
0

>  <SCORE.INTRA.SOLV>
-0.301874

>  <SCORE.INTRA.SOLV.lig_0>
-75.7056

>  <SCORE.INTRA.VDW>
1.91036

>  <SCORE.INTRA.VDW.0>
-4.61812

>  <SCORE.INTRA.norm>
-0.134564

>  <SCORE.RESTR>
0

>  <SCORE.RESTR.CAVITY>
0

>  <SCORE.RESTR.norm>
0

>  <SCORE.SYSTEM>
0

>  <SCORE.SYSTEM.CONST>
0

>  <SCORE.SYSTEM.DIHEDRAL>
0

>  <SCORE.SYSTEM.SOLV>
0

>  <SCORE.SYSTEM.norm>
0

>  <SCORE.heavy>
31

>  <SCORE.norm>
-0.297006

>  <RMSD>
4.491

$$$$
ligand
 OpenBabel11021811493D
libRbt.so/2013.1/901 2013/11/27
 31 33  0  0  0  0  0  0  0  0999 V2000
   21.8753   -8.5961   -5.0302 C   0  0  2  0  0  0  0  0  0  0  0  0
   21.5506   -9.6980   -5.8884 O   0  0  0  0  0  0  0  0  0  0  0  0
   23.2974  -13.5813   -6.1292 C   0  0  2  0  0  0  0  0  0  0  0  0
   24.2744  -14.6002   -6.3168 N   0  0  0  0  0  0  0  0  0  0  0  0
   24.8444  -14.4546   -3.6464 C   0  0  2  0  0  0  0  0  0  0  0  0
   20.5385   -7.8556   -4.7164 C   0  0  2  0  0  0  0  0  0  0  0  0
   19.6039   -8.8009   -4.1090 N   0  0  0  0  0  0  0  0  0  0  0  0
   23.1155  -12.7832   -7.4744 C   0  0  0  0  0  0  0  0  0  0  0  0
   24.6876  -14.8640   -2.1570 C   0  0  2  0  0  0  0  0  0  0  0  0
   23.3386  -15.1967   -1.9206 O   0  0  0  0  0  0  0  0  0  0  0  0
   19.9454   -7.2175   -6.0313 C   0  0  0  0  0  0  0  0  0  0  0  0
   22.0288  -11.6521   -7.2622 C   0  0  2  0  0  0  0  0  0  0  0  0
   21.8567  -10.8979   -8.5207 N   0  0  0  0  0  0  0  0  0  0  0  0
   25.1473  -13.6451   -1.2625 C   0  0  1  0  0  0  0  0  0  0  0  0
   24.9931  -13.9840    0.1806 N   0  0  0  0  0  0  0  0  0  0  0  0
   21.0570   -6.7575   -7.0431 C   0  0  0  0  0  0  0  0  0  0  0  0
   22.5114  -10.6847   -6.0990 C   0  0  2  0  0  0  0  0  0  0  0  0
   26.7076  -13.2997   -1.5733 C   0  0  1  0  0  0  0  0  0  0  0  0
   27.5767  -14.3673   -1.2842 O   0  0  0  0  0  0  0  0  0  0  0  0
   22.3564   -6.9935   -6.8087 C   0  0  1  0  0  0  0  0  0  0  0  0
   22.8016   -7.6598   -5.6437 O   0  0  0  0  0  0  0  0  0  0  0  0
   22.7047  -11.5091   -4.7747 C   0  0  2  0  0  0  0  0  0  0  0  0
   23.1491  -10.6347   -3.7390 O   0  0  0  0  0  0  0  0  0  0  0  0
   26.8566  -12.9547   -3.0874 C   0  0  0  0  0  0  0  0  0  0  0  0
   26.2713  -14.0632   -3.9391 O   0  0  0  0  0  0  0  0  0  0  0  0
   23.4716   -6.5700   -7.7845 C   0  0  0  0  0  0  0  0  0  0  0  0
   24.2507   -7.7369   -8.1362 N   0  0  0  0  0  0  0  0  0  0  0  0
   23.7815  -12.6344   -5.0112 C   0  0  1  0  0  0  0  0  0  0  0  0
   23.9246  -13.3565   -3.8234 O   0  0  0  0  0  0  0  0  0  0  0  0
   27.3051  -12.1312   -0.7765 C   0  0  0  0  0  0  0  0  0  0  0  0
   24.2883  -12.9928    1.0080 C   0  0  0  0  0  0  0  0  0  0  0  0
  1  2  1  6  0  0  0
  1  6  1  0  0  0  0
  1 21  1  0  0  0  0
  3  4  1  6  0  0  0
  3  8  1  0  0  0  0
  3 28  1  0  0  0  0
  5  9  1  0  0  0  0
  5 25  1  0  0  0  0
  5 29  1  1  0  0  0
  6  7  1  6  0  0  0
  6 11  1  0  0  0  0
  8 12  1  0  0  0  0
  9 10  1  6  0  0  0
  9 14  1  0  0  0  0
 11 16  1  0  0  0  0
 12 13  1  6  0  0  0
 12 17  1  0  0  0  0
 14 15  1  1  0  0  0
 14 18  1  0  0  0  0
 15 31  1  0  0  0  0
 16 20  1  0  0  0  0
 17  2  1  1  0  0  0
 17 22  1  0  0  0  0
 18 19  1  1  0  0  0
 18 24  1  0  0  0  0
 18 30  1  0  0  0  0
 20 21  1  0  0  0  0
 20 26  1  6  0  0  0
 22 23  1  1  0  0  0
 22 28  1  0  0  0  0
 24 25  1  0  0  0  0
 26 27  1  0  0  0  0
 28 29  1  1  0  0  0
M  END
>  <CHROM.1>
-166.90245536,176.94068227,-130.50852856,-170.27788788,-124.15918156,62.16334767
23.57704159,-11.37818791,-4.43802784,2.90144789,1.08727396,-2.00120229

>  <Name>
ligand

>  <RI>
0

>  <Rbt.Current_Directory>
/home/itssahil/PROJECTS/Mol_Feturizer/New_Systems/rnas/4F8V

>  <Rbt.Executable>
rbdock ($Id: //depot/dev/client3/rdock/2013.1/src/exe/rbdock.cxx#4 $)

>  <Rbt.Library>
libRbt.so (2013.1, Build901 2013/11/27)

>  <Rbt.Parameter_File>
/export/apps/rDock/src/rDock_2013.1_src/data/scripts/dock_solv.prm

>  <Rbt.Receptor>
prm/pocket_docking_6.prm

>  <SCORE>
-9.23212

>  <SCORE.INTER>
-5.09924

>  <SCORE.INTER.CONST>
1

>  <SCORE.INTER.POLAR>
0

>  <SCORE.INTER.ROT>
6

>  <SCORE.INTER.SOLV>
9.59981

>  <SCORE.INTER.VDW>
-14.1994

>  <SCORE.INTER.norm>
-0.164491

>  <SCORE.INTRA>
-4.13289

>  <SCORE.INTRA.DIHEDRAL>
-11.7566

>  <SCORE.INTRA.DIHEDRAL.0>
15.9129

>  <SCORE.INTRA.POLAR>
0

>  <SCORE.INTRA.POLAR.0>
0

>  <SCORE.INTRA.REPUL>
0

>  <SCORE.INTRA.REPUL.0>
0

>  <SCORE.INTRA.SOLV>
-0.424725

>  <SCORE.INTRA.SOLV.lig_0>
-75.7056

>  <SCORE.INTRA.VDW>
1.95779

>  <SCORE.INTRA.VDW.0>
-4.61812

>  <SCORE.INTRA.norm>
-0.133319

>  <SCORE.RESTR>
0

>  <SCORE.RESTR.CAVITY>
0

>  <SCORE.RESTR.norm>
0

>  <SCORE.SYSTEM>
0

>  <SCORE.SYSTEM.CONST>
0

>  <SCORE.SYSTEM.DIHEDRAL>
0

>  <SCORE.SYSTEM.SOLV>
0

>  <SCORE.SYSTEM.norm>
0

>  <SCORE.heavy>
31

>  <SCORE.norm>
-0.29781

>  <RMSD>
4.503

$$$$
ligand
 OpenBabel11021811493D
libRbt.so/2013.1/901 2013/11/27
 31 33  0  0  0  0  0  0  0  0999 V2000
   21.9673   -8.3793   -6.5655 C   0  0  2  0  0  0  0  0  0  0  0  0
   22.1955   -8.1824   -5.1635 O   0  0  0  0  0  0  0  0  0  0  0  0
   26.2556   -9.4786   -5.0096 C   0  0  2  0  0  0  0  0  0  0  0  0
   27.5599   -9.7367   -4.4995 N   0  0  0  0  0  0  0  0  0  0  0  0
   26.7326  -12.1929   -3.8205 C   0  0  2  0  0  0  0  0  0  0  0  0
   20.6422   -7.6356   -6.9188 C   0  0  2  0  0  0  0  0  0  0  0  0
   20.7759   -6.2275   -6.5507 N   0  0  0  0  0  0  0  0  0  0  0  0
   25.9885   -7.9269   -4.9892 C   0  0  0  0  0  0  0  0  0  0  0  0
   26.4440  -13.7184   -3.8171 C   0  0  2  0  0  0  0  0  0  0  0  0
   25.9475  -14.0860   -5.0839 O   0  0  0  0  0  0  0  0  0  0  0  0
   19.4222   -8.3138   -6.1842 C   0  0  0  0  0  0  0  0  0  0  0  0
   24.5384   -7.6439   -5.5572 C   0  0  2  0  0  0  0  0  0  0  0  0
   24.2813   -6.1894   -5.5370 N   0  0  0  0  0  0  0  0  0  0  0  0
   25.3921  -14.0158   -2.6759 C   0  0  1  0  0  0  0  0  0  0  0  0
   25.0658  -15.4697   -2.6485 N   0  0  0  0  0  0  0  0  0  0  0  0
   19.6062   -9.8635   -5.9962 C   0  0  0  0  0  0  0  0  0  0  0  0
   23.4744   -8.4064   -4.6582 C   0  0  2  0  0  0  0  0  0  0  0  0
   26.0109  -13.5731   -1.2365 C   0  0  1  0  0  0  0  0  0  0  0  0
   27.1838  -14.2738   -0.9017 O   0  0  0  0  0  0  0  0  0  0  0  0
   20.7423  -10.4809   -6.3532 C   0  0  1  0  0  0  0  0  0  0  0  0
   21.8319   -9.7814   -6.9213 O   0  0  0  0  0  0  0  0  0  0  0  0
   23.7757   -9.9489   -4.6795 C   0  0  2  0  0  0  0  0  0  0  0  0
   22.8226  -10.6240   -3.8606 O   0  0  0  0  0  0  0  0  0  0  0  0
   26.3552  -12.0522   -1.2810 C   0  0  0  0  0  0  0  0  0  0  0  0
   27.2418  -11.7487   -2.4721 O   0  0  0  0  0  0  0  0  0  0  0  0
   20.9631  -11.9952   -6.1702 C   0  0  0  0  0  0  0  0  0  0  0  0
   21.3743  -12.5621   -7.4359 N   0  0  0  0  0  0  0  0  0  0  0  0
   25.2259  -10.2065   -4.1205 C   0  0  1  0  0  0  0  0  0  0  0  0
   25.4700  -11.5819   -4.1612 O   0  0  0  0  0  0  0  0  0  0  0  0
   25.1027  -13.8016   -0.0198 C   0  0  0  0  0  0  0  0  0  0  0  0
   23.7357  -15.8457   -3.1518 C   0  0  0  0  0  0  0  0  0  0  0  0
  1  2  1  1  0  0  0
  1  6  1  0  0  0  0
  1 21  1  0  0  0  0
  3  4  1  1  0  0  0
  3  8  1  0  0  0  0
  3 28  1  0  0  0  0
  5  9  1  0  0  0  0
  5 25  1  0  0  0  0
  5 29  1  1  0  0  0
  6  7  1  1  0  0  0
  6 11  1  0  0  0  0
  8 12  1  0  0  0  0
  9 10  1  6  0  0  0
  9 14  1  0  0  0  0
 11 16  1  0  0  0  0
 12 13  1  1  0  0  0
 12 17  1  0  0  0  0
 14 15  1  1  0  0  0
 14 18  1  0  0  0  0
 15 31  1  0  0  0  0
 16 20  1  0  0  0  0
 17  2  1  6  0  0  0
 17 22  1  0  0  0  0
 18 19  1  1  0  0  0
 18 24  1  0  0  0  0
 18 30  1  0  0  0  0
 20 21  1  0  0  0  0
 20 26  1  1  0  0  0
 22 23  1  1  0  0  0
 22 28  1  0  0  0  0
 24 25  1  0  0  0  0
 26 27  1  0  0  0  0
 28 29  1  6  0  0  0
M  END
>  <CHROM.1>
-162.05738733,171.89849522,-107.37213817,49.29214429,127.07079903,56.17838374
24.01513969,-10.87910409,-4.44343783,-2.25551357,0.44604775,2.84192384

>  <Name>
ligand

>  <RI>
0

>  <Rbt.Current_Directory>
/home/itssahil/PROJECTS/Mol_Feturizer/New_Systems/rnas/4F8V

>  <Rbt.Executable>
rbdock ($Id: //depot/dev/client3/rdock/2013.1/src/exe/rbdock.cxx#4 $)

>  <Rbt.Library>
libRbt.so (2013.1, Build901 2013/11/27)

>  <Rbt.Parameter_File>
/export/apps/rDock/src/rDock_2013.1_src/data/scripts/dock_solv.prm

>  <Rbt.Receptor>
prm/pocket_docking_5.prm

>  <SCORE>
-7.38111

>  <SCORE.INTER>
-4.29675

>  <SCORE.INTER.CONST>
1

>  <SCORE.INTER.POLAR>
0

>  <SCORE.INTER.ROT>
6

>  <SCORE.INTER.SOLV>
8.17036

>  <SCORE.INTER.VDW>
-13.188

>  <SCORE.INTER.norm>
-0.138605

>  <SCORE.INTRA>
-3.08436

>  <SCORE.INTRA.DIHEDRAL>
-10.6732

>  <SCORE.INTRA.DIHEDRAL.0>
15.9129

>  <SCORE.INTRA.POLAR>
0

>  <SCORE.INTRA.POLAR.0>
0

>  <SCORE.INTRA.REPUL>
0

>  <SCORE.INTRA.REPUL.0>
0

>  <SCORE.INTRA.SOLV>
0.368723

>  <SCORE.INTRA.SOLV.lig_0>
-75.7056

>  <SCORE.INTRA.VDW>
2.06788

>  <SCORE.INTRA.VDW.0>
-4.61812

>  <SCORE.INTRA.norm>
-0.0994956

>  <SCORE.RESTR>
0

>  <SCORE.RESTR.CAVITY>
0

>  <SCORE.RESTR.norm>
0

>  <SCORE.SYSTEM>
0

>  <SCORE.SYSTEM.CONST>
0

>  <SCORE.SYSTEM.DIHEDRAL>
0

>  <SCORE.SYSTEM.SOLV>
0

>  <SCORE.SYSTEM.norm>
0

>  <SCORE.heavy>
31

>  <SCORE.norm>
-0.2381

>  <RMSD>
4.511

$$$$
ligand
 OpenBabel11021811493D
libRbt.so/2013.1/901 2013/11/27
 31 33  0  0  0  0  0  0  0  0999 V2000
   21.3557   -8.1045   -4.3600 C   0  0  2  0  0  0  0  0  0  0  0  0
   21.9039   -9.1995   -5.1062 O   0  0  0  0  0  0  0  0  0  0  0  0
   24.1765  -12.5584   -3.7865 C   0  0  2  0  0  0  0  0  0  0  0  0
   24.5060  -13.7735   -3.1210 N   0  0  0  0  0  0  0  0  0  0  0  0
   23.7145  -15.1296   -5.3439 C   0  0  2  0  0  0  0  0  0  0  0  0
   19.8163   -8.3414   -4.2703 C   0  0  2  0  0  0  0  0  0  0  0  0
   19.5719   -9.6407   -3.6472 N   0  0  0  0  0  0  0  0  0  0  0  0
   23.8133  -11.4627   -2.7156 C   0  0  0  0  0  0  0  0  0  0  0  0
   24.0695  -15.7707   -6.7126 C   0  0  2  0  0  0  0  0  0  0  0  0
   25.0782  -14.9991   -7.3238 O   0  0  0  0  0  0  0  0  0  0  0  0
   19.1655   -8.2544   -5.7044 C   0  0  0  0  0  0  0  0  0  0  0  0
   23.4481  -10.1137   -3.4588 C   0  0  2  0  0  0  0  0  0  0  0  0
   23.1031   -9.0829   -2.4585 N   0  0  0  0  0  0  0  0  0  0  0  0
   22.7572  -15.8070   -7.5922 C   0  0  1  0  0  0  0  0  0  0  0  0
   23.0542  -16.3960   -8.9286 N   0  0  0  0  0  0  0  0  0  0  0  0
   19.9044   -7.2400   -6.6509 C   0  0  0  0  0  0  0  0  0  0  0  0
   22.2190  -10.3759   -4.4295 C   0  0  2  0  0  0  0  0  0  0  0  0
   21.6251  -16.7067   -6.8441 C   0  0  1  0  0  0  0  0  0  0  0  0
   22.0220  -18.0421   -6.6500 O   0  0  0  0  0  0  0  0  0  0  0  0
   21.0244   -6.6116   -6.2638 C   0  0  1  0  0  0  0  0  0  0  0  0
   21.6001   -6.8177   -4.9888 O   0  0  0  0  0  0  0  0  0  0  0  0
   22.6007  -11.4867   -5.4742 C   0  0  2  0  0  0  0  0  0  0  0  0
   21.4875  -11.7237   -6.3340 O   0  0  0  0  0  0  0  0  0  0  0  0
   21.3293  -16.0845   -5.4444 C   0  0  0  0  0  0  0  0  0  0  0  0
   22.6167  -15.9093   -4.6644 O   0  0  0  0  0  0  0  0  0  0  0  0
   21.7830   -5.6224   -7.1700 C   0  0  0  0  0  0  0  0  0  0  0  0
   23.1085   -6.1439   -7.4218 N   0  0  0  0  0  0  0  0  0  0  0  0
   22.9701  -12.8158   -4.7133 C   0  0  1  0  0  0  0  0  0  0  0  0
   23.3147  -13.7802   -5.6641 O   0  0  0  0  0  0  0  0  0  0  0  0
   20.2836  -16.8394   -7.5790 C   0  0  0  0  0  0  0  0  0  0  0  0
   23.2854  -15.4397  -10.0222 C   0  0  0  0  0  0  0  0  0  0  0  0
  1  2  1  6  0  0  0
  1  6  1  0  0  0  0
  1 21  1  0  0  0  0
  3  4  1  1  0  0  0
  3  8  1  0  0  0  0
  3 28  1  0  0  0  0
  5  9  1  0  0  0  0
  5 25  1  0  0  0  0
  5 29  1  6  0  0  0
  6  7  1  6  0  0  0
  6 11  1  0  0  0  0
  8 12  1  0  0  0  0
  9 10  1  6  0  0  0
  9 14  1  0  0  0  0
 11 16  1  0  0  0  0
 12 13  1  1  0  0  0
 12 17  1  0  0  0  0
 14 15  1  6  0  0  0
 14 18  1  0  0  0  0
 15 31  1  0  0  0  0
 16 20  1  0  0  0  0
 17  2  1  6  0  0  0
 17 22  1  0  0  0  0
 18 19  1  1  0  0  0
 18 24  1  0  0  0  0
 18 30  1  0  0  0  0
 20 21  1  0  0  0  0
 20 26  1  6  0  0  0
 22 23  1  6  0  0  0
 22 28  1  0  0  0  0
 24 25  1  0  0  0  0
 26 27  1  0  0  0  0
 28 29  1  6  0  0  0
M  END
>  <CHROM.1>
-85.06542877,-176.75178846,-97.99477133,-68.20513695,-117.83514219,60.84382869
22.28378333,-11.98269321,-5.66789070,-1.97336366,1.14105102,-2.59444252

>  <Name>
ligand

>  <RI>
0

>  <Rbt.Current_Directory>
/home/itssahil/PROJECTS/Mol_Feturizer/New_Systems/rnas/4F8V

>  <Rbt.Executable>
rbdock ($Id: //depot/dev/client3/rdock/2013.1/src/exe/rbdock.cxx#4 $)

>  <Rbt.Library>
libRbt.so (2013.1, Build901 2013/11/27)

>  <Rbt.Parameter_File>
/export/apps/rDock/src/rDock_2013.1_src/data/scripts/dock_solv.prm

>  <Rbt.Receptor>
prm/pocket_docking_8.prm

>  <SCORE>
-5.12695

>  <SCORE.INTER>
-3.23828

>  <SCORE.INTER.CONST>
1

>  <SCORE.INTER.POLAR>
0

>  <SCORE.INTER.ROT>
6

>  <SCORE.INTER.SOLV>
7.25905

>  <SCORE.INTER.VDW>
-12.1785

>  <SCORE.INTER.norm>
-0.104461

>  <SCORE.INTRA>
-1.88866

>  <SCORE.INTRA.DIHEDRAL>
-10.3167

>  <SCORE.INTRA.DIHEDRAL.0>
15.9129

>  <SCORE.INTRA.POLAR>
0

>  <SCORE.INTRA.POLAR.0>
0

>  <SCORE.INTRA.REPUL>
0

>  <SCORE.INTRA.REPUL.0>
0

>  <SCORE.INTRA.SOLV>
1.72883

>  <SCORE.INTRA.SOLV.lig_0>
-75.7056

>  <SCORE.INTRA.VDW>
2.40529

>  <SCORE.INTRA.VDW.0>
-4.61812

>  <SCORE.INTRA.norm>
-0.0609247

>  <SCORE.RESTR>
0

>  <SCORE.RESTR.CAVITY>
0

>  <SCORE.RESTR.norm>
0

>  <SCORE.SYSTEM>
0

>  <SCORE.SYSTEM.CONST>
0

>  <SCORE.SYSTEM.DIHEDRAL>
0

>  <SCORE.SYSTEM.SOLV>
0

>  <SCORE.SYSTEM.norm>
0

>  <SCORE.heavy>
31

>  <SCORE.norm>
-0.165385

>  <RMSD>
4.529

$$$$
ligand
 OpenBabel11021811493D
libRbt.so/2013.1/901 2013/11/27
 31 33  0  0  0  0  0  0  0  0999 V2000
   21.0922   -8.3023   -4.8683 C   0  0  2  0  0  0  0  0  0  0  0  0
   21.3055   -9.2347   -5.9368 O   0  0  0  0  0  0  0  0  0  0  0  0
   24.6433  -11.7412   -6.8113 C   0  0  2  0  0  0  0  0  0  0  0  0
   25.9792  -12.1371   -7.1055 N   0  0  0  0  0  0  0  0  0  0  0  0
   26.4602  -12.2970   -4.3539 C   0  0  2  0  0  0  0  0  0  0  0  0
   19.5488   -8.1521   -4.6979 C   0  0  2  0  0  0  0  0  0  0  0  0
   18.9702   -9.4684   -4.4359 N   0  0  0  0  0  0  0  0  0  0  0  0
   24.1113  -10.8128   -7.9665 C   0  0  0  0  0  0  0  0  0  0  0  0
   26.3245  -13.8318   -4.1626 C   0  0  2  0  0  0  0  0  0  0  0  0
   25.6072  -14.3605   -5.2545 O   0  0  0  0  0  0  0  0  0  0  0  0
   18.9192   -7.4872   -5.9822 C   0  0  0  0  0  0  0  0  0  0  0  0
   22.6263  -10.3753   -7.6363 C   0  0  2  0  0  0  0  0  0  0  0  0
   22.1233   -9.5010   -8.7156 N   0  0  0  0  0  0  0  0  0  0  0  0
   25.5723  -14.0911   -2.7973 C   0  0  1  0  0  0  0  0  0  0  0  0
   25.3983  -15.5552   -2.5802 N   0  0  0  0  0  0  0  0  0  0  0  0
   19.8893   -6.4660   -6.6801 C   0  0  0  0  0  0  0  0  0  0  0  0
   22.6122   -9.6045   -6.2481 C   0  0  2  0  0  0  0  0  0  0  0  0
   26.4380  -13.4615   -1.5706 C   0  0  1  0  0  0  0  0  0  0  0  0
   27.7162  -14.0356   -1.4465 O   0  0  0  0  0  0  0  0  0  0  0  0
   21.1457   -6.2869   -6.2458 C   0  0  1  0  0  0  0  0  0  0  0  0
   21.6673   -6.9958   -5.1393 O   0  0  0  0  0  0  0  0  0  0  0  0
   23.1664  -10.5455   -5.1175 C   0  0  2  0  0  0  0  0  0  0  0  0
   23.1608   -9.8412   -3.8771 O   0  0  0  0  0  0  0  0  0  0  0  0
   26.6195  -11.9313   -1.8138 C   0  0  0  0  0  0  0  0  0  0  0  0
   27.1999  -11.6833   -3.1916 O   0  0  0  0  0  0  0  0  0  0  0  0
   22.1285   -5.3056   -6.9141 C   0  0  0  0  0  0  0  0  0  0  0  0
   23.3403   -6.0189   -7.2533 N   0  0  0  0  0  0  0  0  0  0  0  0
   24.6398  -10.9766   -5.4712 C   0  0  1  0  0  0  0  0  0  0  0  0
   25.1020  -11.8192   -4.4567 O   0  0  0  0  0  0  0  0  0  0  0  0
   25.8350  -13.6341   -0.1692 C   0  0  0  0  0  0  0  0  0  0  0  0
   24.0524  -16.0930   -2.8317 C   0  0  0  0  0  0  0  0  0  0  0  0
  1  2  1  6  0  0  0
  1  6  1  0  0  0  0
  1 21  1  0  0  0  0
  3  4  1  6  0  0  0
  3  8  1  0  0  0  0
  3 28  1  0  0  0  0
  5  9  1  0  0  0  0
  5 25  1  0  0  0  0
  5 29  1  1  0  0  0
  6  7  1  6  0  0  0
  6 11  1  0  0  0  0
  8 12  1  0  0  0  0
  9 10  1  6  0  0  0
  9 14  1  0  0  0  0
 11 16  1  0  0  0  0
 12 13  1  6  0  0  0
 12 17  1  0  0  0  0
 14 15  1  1  0  0  0
 14 18  1  0  0  0  0
 15 31  1  0  0  0  0
 16 20  1  0  0  0  0
 17  2  1  1  0  0  0
 17 22  1  0  0  0  0
 18 19  1  6  0  0  0
 18 24  1  0  0  0  0
 18 30  1  0  0  0  0
 20 21  1  0  0  0  0
 20 26  1  6  0  0  0
 22 23  1  1  0  0  0
 22 28  1  0  0  0  0
 24 25  1  0  0  0  0
 26 27  1  0  0  0  0
 28 29  1  1  0  0  0
M  END
>  <CHROM.1>
-176.57937158,-129.97928334,-103.49184569,-167.73325366,-126.06923984,68.13648747
23.68442358,-10.73490697,-4.86107880,2.43153967,0.70915462,-1.15611300

>  <Name>
ligand

>  <RI>
0

>  <Rbt.Current_Directory>
/home/itssahil/PROJECTS/Mol_Feturizer/New_Systems/rnas/4F8V

>  <Rbt.Executable>
rbdock ($Id: //depot/dev/client3/rdock/2013.1/src/exe/rbdock.cxx#4 $)

>  <Rbt.Library>
libRbt.so (2013.1, Build901 2013/11/27)

>  <Rbt.Parameter_File>
/export/apps/rDock/src/rDock_2013.1_src/data/scripts/dock_solv.prm

>  <Rbt.Receptor>
prm/pocket_docking_4.prm

>  <SCORE>
-9.16376

>  <SCORE.INTER>
-8.08584

>  <SCORE.INTER.CONST>
1

>  <SCORE.INTER.POLAR>
0

>  <SCORE.INTER.ROT>
6

>  <SCORE.INTER.SOLV>
12.3326

>  <SCORE.INTER.VDW>
-17.1014

>  <SCORE.INTER.norm>
-0.260834

>  <SCORE.INTRA>
-1.08173

>  <SCORE.INTRA.DIHEDRAL>
-5.37669

>  <SCORE.INTRA.DIHEDRAL.0>
15.9129

>  <SCORE.INTRA.POLAR>
0

>  <SCORE.INTRA.POLAR.0>
0

>  <SCORE.INTRA.REPUL>
0

>  <SCORE.INTRA.REPUL.0>
0

>  <SCORE.INTRA.SOLV>
0.545888

>  <SCORE.INTRA.SOLV.lig_0>
-75.7056

>  <SCORE.INTRA.VDW>
1.33367

>  <SCORE.INTRA.VDW.0>
-4.61812

>  <SCORE.INTRA.norm>
-0.0348945

>  <SCORE.RESTR>
0.00380877

>  <SCORE.RESTR.CAVITY>
0.00380877

>  <SCORE.RESTR.norm>
0.000122864

>  <SCORE.SYSTEM>
0

>  <SCORE.SYSTEM.CONST>
0

>  <SCORE.SYSTEM.DIHEDRAL>
0

>  <SCORE.SYSTEM.SOLV>
0

>  <SCORE.SYSTEM.norm>
0

>  <SCORE.heavy>
31

>  <SCORE.norm>
-0.295605

>  <RMSD>
4.702

$$$$
ligand
 OpenBabel11021811493D
libRbt.so/2013.1/901 2013/11/27
 31 33  0  0  0  0  0  0  0  0999 V2000
   21.3253   -7.8632   -5.5369 C   0  0  2  0  0  0  0  0  0  0  0  0
   21.7658   -8.2530   -6.8448 O   0  0  0  0  0  0  0  0  0  0  0  0
   24.8182  -11.0137   -7.9626 C   0  0  2  0  0  0  0  0  0  0  0  0
   26.1082  -11.6033   -8.0910 N   0  0  0  0  0  0  0  0  0  0  0  0
   24.4353  -12.3242   -4.4275 C   0  0  2  0  0  0  0  0  0  0  0  0
   19.8642   -7.3376   -5.6877 C   0  0  2  0  0  0  0  0  0  0  0  0
   19.0409   -8.3889   -6.2817 N   0  0  0  0  0  0  0  0  0  0  0  0
   24.8185   -9.6068   -8.6699 C   0  0  0  0  0  0  0  0  0  0  0  0
   25.2221  -13.6425   -4.1959 C   0  0  2  0  0  0  0  0  0  0  0  0
   26.5254  -13.4857   -4.7088 O   0  0  0  0  0  0  0  0  0  0  0  0
   19.8435   -6.0229   -6.5590 C   0  0  0  0  0  0  0  0  0  0  0  0
   23.3833   -8.9549   -8.5256 C   0  0  2  0  0  0  0  0  0  0  0  0
   23.3790   -7.6328   -9.1847 N   0  0  0  0  0  0  0  0  0  0  0  0
   24.4494  -14.8099   -4.9289 C   0  0  1  0  0  0  0  0  0  0  0  0
   25.1813  -16.0962   -4.7528 N   0  0  0  0  0  0  0  0  0  0  0  0
   21.1398   -5.1517   -6.3824 C   0  0  0  0  0  0  0  0  0  0  0  0
   23.0374   -8.8052   -6.9830 C   0  0  2  0  0  0  0  0  0  0  0  0
   22.9528  -14.9491   -4.3032 C   0  0  1  0  0  0  0  0  0  0  0  0
   22.9556  -15.2612   -2.9316 O   0  0  0  0  0  0  0  0  0  0  0  0
   22.1688   -5.5737   -5.6325 C   0  0  1  0  0  0  0  0  0  0  0  0
   22.1472   -6.8152   -4.9562 O   0  0  0  0  0  0  0  0  0  0  0  0
   23.0641  -10.2195   -6.2977 C   0  0  2  0  0  0  0  0  0  0  0  0
   22.7638  -10.0740   -4.9108 O   0  0  0  0  0  0  0  0  0  0  0  0
   22.2007  -13.5947   -4.4868 C   0  0  0  0  0  0  0  0  0  0  0  0
   23.0223  -12.4559   -3.9169 O   0  0  0  0  0  0  0  0  0  0  0  0
   23.4604   -4.7530   -5.4487 C   0  0  0  0  0  0  0  0  0  0  0  0
   24.5823   -5.5406   -5.9107 N   0  0  0  0  0  0  0  0  0  0  0  0
   24.4967  -10.8538   -6.4621 C   0  0  1  0  0  0  0  0  0  0  0  0
   24.4880  -12.1121   -5.8542 O   0  0  0  0  0  0  0  0  0  0  0  0
   22.0723  -16.0483   -4.9145 C   0  0  0  0  0  0  0  0  0  0  0  0
   26.0953  -16.4767   -5.8407 C   0  0  0  0  0  0  0  0  0  0  0  0
  1  2  1  6  0  0  0
  1  6  1  0  0  0  0
  1 21  1  0  0  0  0
  3  4  1  1  0  0  0
  3  8  1  0  0  0  0
  3 28  1  0  0  0  0
  5  9  1  0  0  0  0
  5 25  1  0  0  0  0
  5 29  1  6  0  0  0
  6  7  1  6  0  0  0
  6 11  1  0  0  0  0
  8 12  1  0  0  0  0
  9 10  1  6  0  0  0
  9 14  1  0  0  0  0
 11 16  1  0  0  0  0
 12 13  1  1  0  0  0
 12 17  1  0  0  0  0
 14 15  1  1  0  0  0
 14 18  1  0  0  0  0
 15 31  1  0  0  0  0
 16 20  1  0  0  0  0
 17  2  1  6  0  0  0
 17 22  1  0  0  0  0
 18 19  1  1  0  0  0
 18 24  1  0  0  0  0
 18 30  1  0  0  0  0
 20 21  1  0  0  0  0
 20 26  1  6  0  0  0
 22 23  1  1  0  0  0
 22 28  1  0  0  0  0
 24 25  1  0  0  0  0
 26 27  1  0  0  0  0
 28 29  1  1  0  0  0
M  END
>  <CHROM.1>
-177.89196772,-148.72671865,-95.39038724,-171.67079060,-121.29184499,169.65760886
23.25993700,-10.54508018,-5.82634041,1.90801776,0.52864014,-0.36710337

>  <Name>
ligand

>  <RI>
0

>  <Rbt.Current_Directory>
/home/itssahil/PROJECTS/Mol_Feturizer/New_Systems/rnas/4F8V

>  <Rbt.Executable>
rbdock ($Id: //depot/dev/client3/rdock/2013.1/src/exe/rbdock.cxx#4 $)

>  <Rbt.Library>
libRbt.so (2013.1, Build901 2013/11/27)

>  <Rbt.Parameter_File>
/export/apps/rDock/src/rDock_2013.1_src/data/scripts/dock_solv.prm

>  <Rbt.Receptor>
prm/pocket_docking_6.prm

>  <SCORE>
-8.70453

>  <SCORE.INTER>
-5.25989

>  <SCORE.INTER.CONST>
1

>  <SCORE.INTER.POLAR>
0

>  <SCORE.INTER.ROT>
6

>  <SCORE.INTER.SOLV>
12.9188

>  <SCORE.INTER.VDW>
-15.4129

>  <SCORE.INTER.norm>
-0.169674

>  <SCORE.INTRA>
-3.44464

>  <SCORE.INTRA.DIHEDRAL>
-8.74713

>  <SCORE.INTRA.DIHEDRAL.0>
15.9129

>  <SCORE.INTRA.POLAR>
0

>  <SCORE.INTRA.POLAR.0>
0

>  <SCORE.INTRA.REPUL>
0

>  <SCORE.INTRA.REPUL.0>
0

>  <SCORE.INTRA.SOLV>
-1.62123

>  <SCORE.INTRA.SOLV.lig_0>
-75.7056

>  <SCORE.INTRA.VDW>
1.73954

>  <SCORE.INTRA.VDW.0>
-4.61812

>  <SCORE.INTRA.norm>
-0.111118

>  <SCORE.RESTR>
0

>  <SCORE.RESTR.CAVITY>
0

>  <SCORE.RESTR.norm>
0

>  <SCORE.SYSTEM>
0

>  <SCORE.SYSTEM.CONST>
0

>  <SCORE.SYSTEM.DIHEDRAL>
0

>  <SCORE.SYSTEM.SOLV>
0

>  <SCORE.SYSTEM.norm>
0

>  <SCORE.heavy>
31

>  <SCORE.norm>
-0.280791

>  <RMSD>
4.868

$$$$
ligand
 OpenBabel11021811493D
libRbt.so/2013.1/901 2013/11/27
 31 33  0  0  0  0  0  0  0  0999 V2000
   20.2175   -7.7773   -5.6433 C   0  0  2  0  0  0  0  0  0  0  0  0
   20.4550   -9.0447   -6.2708 O   0  0  0  0  0  0  0  0  0  0  0  0
   23.8311  -10.6720   -8.3062 C   0  0  2  0  0  0  0  0  0  0  0  0
   25.1669  -11.0990   -8.5538 N   0  0  0  0  0  0  0  0  0  0  0  0
   24.4891  -13.5879   -7.5201 C   0  0  2  0  0  0  0  0  0  0  0  0
   20.5485   -7.9514   -4.1287 C   0  0  2  0  0  0  0  0  0  0  0  0
   21.9301   -8.4089   -3.9947 N   0  0  0  0  0  0  0  0  0  0  0  0
   23.8238   -9.1201   -8.0397 C   0  0  0  0  0  0  0  0  0  0  0  0
   23.9758  -15.0423   -7.6980 C   0  0  2  0  0  0  0  0  0  0  0  0
   23.0828  -15.0751   -8.7879 O   0  0  0  0  0  0  0  0  0  0  0  0
   19.5363   -8.9598   -3.4604 C   0  0  0  0  0  0  0  0  0  0  0  0
   22.3376   -8.6492   -7.7653 C   0  0  2  0  0  0  0  0  0  0  0  0
   22.3255   -7.1940   -7.5112 N   0  0  0  0  0  0  0  0  0  0  0  0
   23.2652  -15.4790   -6.3558 C   0  0  1  0  0  0  0  0  0  0  0  0
   22.7345  -16.8655   -6.4866 N   0  0  0  0  0  0  0  0  0  0  0  0
   18.1047   -8.9082   -4.1073 C   0  0  0  0  0  0  0  0  0  0  0  0
   21.7713   -9.4353   -6.5072 C   0  0  2  0  0  0  0  0  0  0  0  0
   24.3353  -15.4229   -5.1300 C   0  0  1  0  0  0  0  0  0  0  0  0
   25.4283  -16.2893   -5.3125 O   0  0  0  0  0  0  0  0  0  0  0  0
   17.8482   -8.1402   -5.1768 C   0  0  1  0  0  0  0  0  0  0  0  0
   18.8408   -7.3327   -5.7783 O   0  0  0  0  0  0  0  0  0  0  0  0
   21.8088  -10.9808   -6.7913 C   0  0  2  0  0  0  0  0  0  0  0  0
   21.3094  -11.6790   -5.6521 O   0  0  0  0  0  0  0  0  0  0  0  0
   24.8886  -13.9693   -5.0089 C   0  0  0  0  0  0  0  0  0  0  0  0
   25.4297  -13.4999   -6.3444 O   0  0  0  0  0  0  0  0  0  0  0  0
   16.4612   -8.0759   -5.8456 C   0  0  0  0  0  0  0  0  0  0  0  0
   15.9092   -6.7537   -5.6470 N   0  0  0  0  0  0  0  0  0  0  0  0
   23.2939  -11.4255   -7.0716 C   0  0  1  0  0  0  0  0  0  0  0  0
   23.2955  -12.7987   -7.3309 O   0  0  0  0  0  0  0  0  0  0  0  0
   23.7930  -15.8229   -3.7505 C   0  0  0  0  0  0  0  0  0  0  0  0
   21.3188  -17.0542   -6.1347 C   0  0  0  0  0  0  0  0  0  0  0  0
  1  2  1  6  0  0  0
  1  6  1  0  0  0  0
  1 21  1  0  0  0  0
  3  4  1  1  0  0  0
  3  8  1  0  0  0  0
  3 28  1  0  0  0  0
  5  9  1  0  0  0  0
  5 25  1  0  0  0  0
  5 29  1  1  0  0  0
  6  7  1  6  0  0  0
  6 11  1  0  0  0  0
  8 12  1  0  0  0  0
  9 10  1  6  0  0  0
  9 14  1  0  0  0  0
 11 16  1  0  0  0  0
 12 13  1  1  0  0  0
 12 17  1  0  0  0  0
 14 15  1  6  0  0  0
 14 18  1  0  0  0  0
 15 31  1  0  0  0  0
 16 20  1  0  0  0  0
 17  2  1  6  0  0  0
 17 22  1  0  0  0  0
 18 19  1  6  0  0  0
 18 24  1  0  0  0  0
 18 30  1  0  0  0  0
 20 21  1  0  0  0  0
 20 26  1  6  0  0  0
 22 23  1  1  0  0  0
 22 28  1  0  0  0  0
 24 25  1  0  0  0  0
 26 27  1  0  0  0  0
 28 29  1  6  0  0  0
M  END
>  <CHROM.1>
-75.77896702,177.02066598,-128.10356378,-76.67625878,113.11173335,66.42977500
21.99179000,-11.41772255,-6.19463021,-2.27813356,-0.50840736,2.87078120

>  <Name>
ligand

>  <RI>
0

>  <Rbt.Current_Directory>
/home/itssahil/PROJECTS/Mol_Feturizer/New_Systems/rnas/4F8V

>  <Rbt.Executable>
rbdock ($Id: //depot/dev/client3/rdock/2013.1/src/exe/rbdock.cxx#4 $)

>  <Rbt.Library>
libRbt.so (2013.1, Build901 2013/11/27)

>  <Rbt.Parameter_File>
/export/apps/rDock/src/rDock_2013.1_src/data/scripts/dock_solv.prm

>  <Rbt.Receptor>
prm/pocket_docking_5.prm

>  <SCORE>
-6.65262

>  <SCORE.INTER>
-4.32694

>  <SCORE.INTER.CONST>
1

>  <SCORE.INTER.POLAR>
0

>  <SCORE.INTER.ROT>
6

>  <SCORE.INTER.SOLV>
11.7961

>  <SCORE.INTER.VDW>
-14.4167

>  <SCORE.INTER.norm>
-0.139579

>  <SCORE.INTRA>
-2.32568

>  <SCORE.INTRA.DIHEDRAL>
-10.3286

>  <SCORE.INTRA.DIHEDRAL.0>
15.9129

>  <SCORE.INTRA.POLAR>
0

>  <SCORE.INTRA.POLAR.0>
0

>  <SCORE.INTRA.REPUL>
0

>  <SCORE.INTRA.REPUL.0>
0

>  <SCORE.INTRA.SOLV>
1.49662

>  <SCORE.INTRA.SOLV.lig_0>
-75.7056

>  <SCORE.INTRA.VDW>
2.09033

>  <SCORE.INTRA.VDW.0>
-4.61812

>  <SCORE.INTRA.norm>
-0.075022

>  <SCORE.RESTR>
0

>  <SCORE.RESTR.CAVITY>
0

>  <SCORE.RESTR.norm>
0

>  <SCORE.SYSTEM>
0

>  <SCORE.SYSTEM.CONST>
0

>  <SCORE.SYSTEM.DIHEDRAL>
0

>  <SCORE.SYSTEM.SOLV>
0

>  <SCORE.SYSTEM.norm>
0

>  <SCORE.heavy>
31

>  <SCORE.norm>
-0.214601

>  <RMSD>
4.877

$$$$
ligand
 OpenBabel11021811493D
libRbt.so/2013.1/901 2013/11/27
 31 33  0  0  0  0  0  0  0  0999 V2000
   21.4275   -8.3232   -5.2435 C   0  0  2  0  0  0  0  0  0  0  0  0
   21.7742   -9.0365   -6.4383 O   0  0  0  0  0  0  0  0  0  0  0  0
   25.1291  -11.4640   -7.4582 C   0  0  2  0  0  0  0  0  0  0  0  0
   26.4821  -11.8709   -7.6362 N   0  0  0  0  0  0  0  0  0  0  0  0
   26.4522  -12.8633   -5.0427 C   0  0  2  0  0  0  0  0  0  0  0  0
   19.8697   -8.2607   -5.1877 C   0  0  2  0  0  0  0  0  0  0  0  0
   19.3390   -9.6221   -5.2185 N   0  0  0  0  0  0  0  0  0  0  0  0
   24.8427  -10.2063   -8.3614 C   0  0  0  0  0  0  0  0  0  0  0  0
   26.1566  -14.2410   -4.3907 C   0  0  2  0  0  0  0  0  0  0  0  0
   25.2646  -14.9501   -5.2200 O   0  0  0  0  0  0  0  0  0  0  0  0
   19.3143   -7.3946   -6.3832 C   0  0  0  0  0  0  0  0  0  0  0  0
   23.3381   -9.7573   -8.1612 C   0  0  2  0  0  0  0  0  0  0  0  0
   23.0650   -8.5752   -9.0040 N   0  0  0  0  0  0  0  0  0  0  0  0
   25.5351  -13.9835   -2.9608 C   0  0  1  0  0  0  0  0  0  0  0  0
   25.2129  -15.2812   -2.3027 N   0  0  0  0  0  0  0  0  0  0  0  0
   20.2852   -6.2298   -6.7973 C   0  0  0  0  0  0  0  0  0  0  0  0
   23.1024   -9.4112   -6.6295 C   0  0  2  0  0  0  0  0  0  0  0  0
   26.6006  -13.1620   -2.0440 C   0  0  1  0  0  0  0  0  0  0  0  0
   27.8070  -13.8572   -1.8443 O   0  0  0  0  0  0  0  0  0  0  0  0
   21.4913   -6.0893   -6.2274 C   0  0  1  0  0  0  0  0  0  0  0  0
   21.9560   -6.9699   -5.2236 O   0  0  0  0  0  0  0  0  0  0  0  0
   23.4145  -10.6758   -5.7497 C   0  0  2  0  0  0  0  0  0  0  0  0
   23.2113  -10.3523   -4.3754 O   0  0  0  0  0  0  0  0  0  0  0  0
   26.9352  -11.8102   -2.7472 C   0  0  0  0  0  0  0  0  0  0  0  0
   27.3844  -12.0569   -4.1735 O   0  0  0  0  0  0  0  0  0  0  0  0
   22.4745   -4.9687   -6.6185 C   0  0  0  0  0  0  0  0  0  0  0  0
   23.7291   -5.5681   -7.0173 N   0  0  0  0  0  0  0  0  0  0  0  0
   24.9122  -11.1111   -5.9719 C   0  0  1  0  0  0  0  0  0  0  0  0
   25.1579  -12.2413   -5.1876 O   0  0  0  0  0  0  0  0  0  0  0  0
   26.1407  -12.8339   -0.6164 C   0  0  0  0  0  0  0  0  0  0  0  0
   23.8964  -15.8581   -2.6155 C   0  0  0  0  0  0  0  0  0  0  0  0
  1  2  1  6  0  0  0
  1  6  1  0  0  0  0
  1 21  1  0  0  0  0
  3  4  1  1  0  0  0
  3  8  1  0  0  0  0
  3 28  1  0  0  0  0
  5  9  1  0  0  0  0
  5 25  1  0  0  0  0
  5 29  1  1  0  0  0
  6  7  1  6  0  0  0
  6 11  1  0  0  0  0
  8 12  1  0  0  0  0
  9 10  1  6  0  0  0
  9 14  1  0  0  0  0
 11 16  1  0  0  0  0
 12 13  1  6  0  0  0
 12 17  1  0  0  0  0
 14 15  1  1  0  0  0
 14 18  1  0  0  0  0
 15 31  1  0  0  0  0
 16 20  1  0  0  0  0
 17  2  1  6  0  0  0
 17 22  1  0  0  0  0
 18 19  1  1  0  0  0
 18 24  1  0  0  0  0
 18 30  1  0  0  0  0
 20 21  1  0  0  0  0
 20 26  1  6  0  0  0
 22 23  1  1  0  0  0
 22 28  1  0  0  0  0
 24 25  1  0  0  0  0
 26 27  1  0  0  0  0
 28 29  1  1  0  0  0
M  END
>  <CHROM.1>
-170.42745686,-166.34158191,-86.22778837,-162.28965321,-123.99641872,66.25659495
23.94697354,-10.64390219,-5.21946598,2.27897222,0.61048327,-0.93361718

>  <Name>
ligand

>  <RI>
0

>  <Rbt.Current_Directory>
/home/itssahil/PROJECTS/Mol_Feturizer/New_Systems/rnas/4F8V

>  <Rbt.Executable>
rbdock ($Id: //depot/dev/client3/rdock/2013.1/src/exe/rbdock.cxx#4 $)

>  <Rbt.Library>
libRbt.so (2013.1, Build901 2013/11/27)

>  <Rbt.Parameter_File>
/export/apps/rDock/src/rDock_2013.1_src/data/scripts/dock_solv.prm

>  <Rbt.Receptor>
prm/pocket_docking_5.prm

>  <SCORE>
-11.4707

>  <SCORE.INTER>
-7.9083

>  <SCORE.INTER.CONST>
1

>  <SCORE.INTER.POLAR>
0

>  <SCORE.INTER.ROT>
6

>  <SCORE.INTER.SOLV>
9.21381

>  <SCORE.INTER.VDW>
-15.9435

>  <SCORE.INTER.norm>
-0.255106

>  <SCORE.INTRA>
-3.56241

>  <SCORE.INTRA.DIHEDRAL>
-10.7707

>  <SCORE.INTRA.DIHEDRAL.0>
15.9129

>  <SCORE.INTRA.POLAR>
0

>  <SCORE.INTRA.POLAR.0>
0

>  <SCORE.INTRA.REPUL>
0

>  <SCORE.INTRA.REPUL.0>
0

>  <SCORE.INTRA.SOLV>
0.527157

>  <SCORE.INTRA.SOLV.lig_0>
-75.7056

>  <SCORE.INTRA.VDW>
1.55937

>  <SCORE.INTRA.VDW.0>
-4.61812

>  <SCORE.INTRA.norm>
-0.114916

>  <SCORE.RESTR>
0

>  <SCORE.RESTR.CAVITY>
0

>  <SCORE.RESTR.norm>
0

>  <SCORE.SYSTEM>
0

>  <SCORE.SYSTEM.CONST>
0

>  <SCORE.SYSTEM.DIHEDRAL>
0

>  <SCORE.SYSTEM.SOLV>
0

>  <SCORE.SYSTEM.norm>
0

>  <SCORE.heavy>
31

>  <SCORE.norm>
-0.370023

>  <RMSD>
4.971

$$$$
ligand
 OpenBabel11021811493D
libRbt.so/2013.1/901 2013/11/27
 31 33  0  0  0  0  0  0  0  0999 V2000
   21.3551   -8.3744   -5.2701 C   0  0  2  0  0  0  0  0  0  0  0  0
   21.7235   -9.0394   -6.4860 O   0  0  0  0  0  0  0  0  0  0  0  0
   25.1067  -11.4194   -7.5242 C   0  0  2  0  0  0  0  0  0  0  0  0
   26.4645  -11.8127   -7.6965 N   0  0  0  0  0  0  0  0  0  0  0  0
   26.4131  -12.8660   -5.1284 C   0  0  2  0  0  0  0  0  0  0  0  0
   19.7970   -8.3007   -5.2469 C   0  0  2  0  0  0  0  0  0  0  0  0
   19.2565   -9.6549   -5.3476 N   0  0  0  0  0  0  0  0  0  0  0  0
   24.8213  -10.1432   -8.4013 C   0  0  0  0  0  0  0  0  0  0  0  0
   26.1264  -14.2314   -4.4473 C   0  0  2  0  0  0  0  0  0  0  0  0
   25.2271  -14.9575   -5.2538 O   0  0  0  0  0  0  0  0  0  0  0  0
   19.2758   -7.3799   -6.4167 C   0  0  0  0  0  0  0  0  0  0  0  0
   23.3114   -9.7093   -8.2076 C   0  0  2  0  0  0  0  0  0  0  0  0
   23.0390   -8.5100   -9.0259 N   0  0  0  0  0  0  0  0  0  0  0  0
   25.5191  -13.9475   -3.0163 C   0  0  1  0  0  0  0  0  0  0  0  0
   25.2058  -15.2330   -2.3303 N   0  0  0  0  0  0  0  0  0  0  0  0
   20.2649   -6.2071   -6.7588 C   0  0  0  0  0  0  0  0  0  0  0  0
   23.0564   -9.4003   -6.6710 C   0  0  2  0  0  0  0  0  0  0  0  0
   26.5925  -13.1071   -2.1263 C   0  0  1  0  0  0  0  0  0  0  0  0
   27.8020  -13.7967   -1.9257 O   0  0  0  0  0  0  0  0  0  0  0  0
   21.4587   -6.1014   -6.1564 C   0  0  1  0  0  0  0  0  0  0  0  0
   21.8934   -7.0278   -5.1807 O   0  0  0  0  0  0  0  0  0  0  0  0
   23.3680  -10.6828   -5.8172 C   0  0  2  0  0  0  0  0  0  0  0  0
   23.1475  -10.3926   -4.4381 O   0  0  0  0  0  0  0  0  0  0  0  0
   26.9176  -11.7685   -2.8586 C   0  0  0  0  0  0  0  0  0  0  0  0
   27.3527  -12.0417   -4.2844 O   0  0  0  0  0  0  0  0  0  0  0  0
   22.4593   -4.9738   -6.4771 C   0  0  0  0  0  0  0  0  0  0  0  0
   23.6838   -5.5644   -6.9711 N   0  0  0  0  0  0  0  0  0  0  0  0
   24.8710  -11.1025   -6.0328 C   0  0  1  0  0  0  0  0  0  0  0  0
   25.1162  -12.2488   -5.2720 O   0  0  0  0  0  0  0  0  0  0  0  0
   26.1466  -12.7525   -0.7006 C   0  0  0  0  0  0  0  0  0  0  0  0
   23.8518  -15.7678   -2.5413 C   0  0  0  0  0  0  0  0  0  0  0  0
  1  2  1  6  0  0  0
  1  6  1  0  0  0  0
  1 21  1  0  0  0  0
  3  4  1  1  0  0  0
  3  8  1  0  0  0  0
  3 28  1  0  0  0  0
  5  9  1  0  0  0  0
  5 25  1  0  0  0  0
  5 29  1  1  0  0  0
  6  7  1  6  0  0  0
  6 11  1  0  0  0  0
  8 12  1  0  0  0  0
  9 10  1  6  0  0  0
  9 14  1  0  0  0  0
 11 16  1  0  0  0  0
 12 13  1  6  0  0  0
 12 17  1  0  0  0  0
 14 15  1  1  0  0  0
 14 18  1  0  0  0  0
 15 31  1  0  0  0  0
 16 20  1  0  0  0  0
 17  2  1  6  0  0  0
 17 22  1  0  0  0  0
 18 19  1  1  0  0  0
 18 24  1  0  0  0  0
 18 30  1  0  0  0  0
 20 21  1  0  0  0  0
 20 26  1  6  0  0  0
 22 23  1  1  0  0  0
 22 28  1  0  0  0  0
 24 25  1  0  0  0  0
 26 27  1  0  0  0  0
 28 29  1  1  0  0  0
M  END
>  <CHROM.1>
-171.31784047,-169.01721360,-90.50433387,-163.22052793,-119.63216541,66.17337402
23.91210526,-10.62767867,-5.25695157,2.28375078,0.60058117,-0.92663090

>  <Name>
ligand

>  <RI>
0

>  <Rbt.Current_Directory>
/home/itssahil/PROJECTS/Mol_Feturizer/New_Systems/rnas/4F8V

>  <Rbt.Executable>
rbdock ($Id: //depot/dev/client3/rdock/2013.1/src/exe/rbdock.cxx#4 $)

>  <Rbt.Library>
libRbt.so (2013.1, Build901 2013/11/27)

>  <Rbt.Parameter_File>
/export/apps/rDock/src/rDock_2013.1_src/data/scripts/dock_solv.prm

>  <Rbt.Receptor>
prm/pocket_docking_8.prm

>  <SCORE>
-11.383

>  <SCORE.INTER>
-7.47464

>  <SCORE.INTER.CONST>
1

>  <SCORE.INTER.POLAR>
0

>  <SCORE.INTER.ROT>
6

>  <SCORE.INTER.SOLV>
9.56954

>  <SCORE.INTER.VDW>
-15.7729

>  <SCORE.INTER.norm>
-0.241118

>  <SCORE.INTRA>
-3.9084

>  <SCORE.INTRA.DIHEDRAL>
-11.1804

>  <SCORE.INTRA.DIHEDRAL.0>
15.9129

>  <SCORE.INTRA.POLAR>
0

>  <SCORE.INTRA.POLAR.0>
0

>  <SCORE.INTRA.REPUL>
0

>  <SCORE.INTRA.REPUL.0>
0

>  <SCORE.INTRA.SOLV>
0.414531

>  <SCORE.INTRA.SOLV.lig_0>
-75.7056

>  <SCORE.INTRA.VDW>
1.47453

>  <SCORE.INTRA.VDW.0>
-4.61812

>  <SCORE.INTRA.norm>
-0.126077

>  <SCORE.RESTR>
0

>  <SCORE.RESTR.CAVITY>
0

>  <SCORE.RESTR.norm>
0

>  <SCORE.SYSTEM>
0

>  <SCORE.SYSTEM.CONST>
0

>  <SCORE.SYSTEM.DIHEDRAL>
0

>  <SCORE.SYSTEM.SOLV>
0

>  <SCORE.SYSTEM.norm>
0

>  <SCORE.heavy>
31

>  <SCORE.norm>
-0.367195

>  <RMSD>
4.971

$$$$
ligand
 OpenBabel11021811493D
libRbt.so/2013.1/901 2013/11/27
 31 33  0  0  0  0  0  0  0  0999 V2000
   21.4080   -8.3339   -5.2403 C   0  0  2  0  0  0  0  0  0  0  0  0
   21.7316   -9.0703   -6.4275 O   0  0  0  0  0  0  0  0  0  0  0  0
   25.0725  -11.4946   -7.4995 C   0  0  2  0  0  0  0  0  0  0  0  0
   26.4230  -11.8998   -7.6994 N   0  0  0  0  0  0  0  0  0  0  0  0
   26.4426  -12.8735   -5.0841 C   0  0  2  0  0  0  0  0  0  0  0  0
   19.8524   -8.2347   -5.1772 C   0  0  2  0  0  0  0  0  0  0  0  0
   19.2903   -9.5838   -5.1875 N   0  0  0  0  0  0  0  0  0  0  0  0
   24.7694  -10.2386   -8.3996 C   0  0  0  0  0  0  0  0  0  0  0  0
   26.1656  -14.2543   -4.4308 C   0  0  2  0  0  0  0  0  0  0  0  0
   25.2823  -14.9758   -5.2588 O   0  0  0  0  0  0  0  0  0  0  0  0
   19.3104   -7.3715   -6.3810 C   0  0  0  0  0  0  0  0  0  0  0  0
   23.2677   -9.7915   -8.1751 C   0  0  2  0  0  0  0  0  0  0  0  0
   22.9789   -8.6110   -9.0150 N   0  0  0  0  0  0  0  0  0  0  0  0
   25.5419  -14.0037   -3.0006 C   0  0  1  0  0  0  0  0  0  0  0  0
   25.2372  -15.3051   -2.3412 N   0  0  0  0  0  0  0  0  0  0  0  0
   20.3055   -6.2349   -6.8153 C   0  0  0  0  0  0  0  0  0  0  0  0
   23.0569   -9.4434   -6.6402 C   0  0  2  0  0  0  0  0  0  0  0  0
   26.5972  -13.1676   -2.0853 C   0  0  1  0  0  0  0  0  0  0  0  0
   27.8128  -13.8468   -1.8859 O   0  0  0  0  0  0  0  0  0  0  0  0
   21.5177   -6.1149   -6.2536 C   0  0  1  0  0  0  0  0  0  0  0  0
   21.9676   -6.9930   -5.2408 O   0  0  0  0  0  0  0  0  0  0  0  0
   23.3854  -10.7064   -5.7639 C   0  0  2  0  0  0  0  0  0  0  0  0
   23.2047  -10.3811   -4.3869 O   0  0  0  0  0  0  0  0  0  0  0  0
   26.9135  -11.8122   -2.7900 C   0  0  0  0  0  0  0  0  0  0  0  0
   27.3648  -12.0541   -4.2164 O   0  0  0  0  0  0  0  0  0  0  0  0
   22.5242   -5.0224   -6.6643 C   0  0  0  0  0  0  0  0  0  0  0  0
   23.7410   -5.6579   -7.1204 N   0  0  0  0  0  0  0  0  0  0  0  0
   24.8798  -11.1399   -6.0104 C   0  0  1  0  0  0  0  0  0  0  0  0
   25.1401  -12.2686   -5.2286 O   0  0  0  0  0  0  0  0  0  0  0  0
   26.1342  -12.8443   -0.6576 C   0  0  0  0  0  0  0  0  0  0  0  0
   23.9266  -15.8975   -2.6496 C   0  0  0  0  0  0  0  0  0  0  0  0
  1  2  1  6  0  0  0
  1  6  1  0  0  0  0
  1 21  1  0  0  0  0
  3  4  1  1  0  0  0
  3  8  1  0  0  0  0
  3 28  1  0  0  0  0
  5  9  1  0  0  0  0
  5 25  1  0  0  0  0
  5 29  1  1  0  0  0
  6  7  1  6  0  0  0
  6 11  1  0  0  0  0
  8 12  1  0  0  0  0
  9 10  1  6  0  0  0
  9 14  1  0  0  0  0
 11 16  1  0  0  0  0
 12 13  1  6  0  0  0
 12 17  1  0  0  0  0
 14 15  1  1  0  0  0
 14 18  1  0  0  0  0
 15 31  1  0  0  0  0
 16 20  1  0  0  0  0
 17  2  1  6  0  0  0
 17 22  1  0  0  0  0
 18 19  1  1  0  0  0
 18 24  1  0  0  0  0
 18 30  1  0  0  0  0
 20 21  1  0  0  0  0
 20 26  1  6  0  0  0
 22 23  1  1  0  0  0
 22 28  1  0  0  0  0
 24 25  1  0  0  0  0
 26 27  1  0  0  0  0
 28 29  1  1  0  0  0
M  END
>  <CHROM.1>
-172.31547588,-166.55173952,-86.39319193,-161.13306762,-121.38192186,67.48981359
23.93275035,-10.66336799,-5.24784351,2.29016200,0.62375170,-0.94813898

>  <Name>
ligand

>  <RI>
0

>  <Rbt.Current_Directory>
/home/itssahil/PROJECTS/Mol_Feturizer/New_Systems/rnas/4F8V

>  <Rbt.Executable>
rbdock ($Id: //depot/dev/client3/rdock/2013.1/src/exe/rbdock.cxx#4 $)

>  <Rbt.Library>
libRbt.so (2013.1, Build901 2013/11/27)

>  <Rbt.Parameter_File>
/export/apps/rDock/src/rDock_2013.1_src/data/scripts/dock_solv.prm

>  <Rbt.Receptor>
prm/pocket_docking_6.prm

>  <SCORE>
-11.4732

>  <SCORE.INTER>
-7.90733

>  <SCORE.INTER.CONST>
1

>  <SCORE.INTER.POLAR>
0

>  <SCORE.INTER.ROT>
6

>  <SCORE.INTER.SOLV>
9.27996

>  <SCORE.INTER.VDW>
-15.9649

>  <SCORE.INTER.norm>
-0.255075

>  <SCORE.INTRA>
-3.56587

>  <SCORE.INTRA.DIHEDRAL>
-10.7048

>  <SCORE.INTRA.DIHEDRAL.0>
15.9129

>  <SCORE.INTRA.POLAR>
0

>  <SCORE.INTRA.POLAR.0>
0

>  <SCORE.INTRA.REPUL>
0

>  <SCORE.INTRA.REPUL.0>
0

>  <SCORE.INTRA.SOLV>
0.714797

>  <SCORE.INTRA.SOLV.lig_0>
-75.7056

>  <SCORE.INTRA.VDW>
1.42914

>  <SCORE.INTRA.VDW.0>
-4.61812

>  <SCORE.INTRA.norm>
-0.115028

>  <SCORE.RESTR>
0

>  <SCORE.RESTR.CAVITY>
0

>  <SCORE.RESTR.norm>
0

>  <SCORE.SYSTEM>
0

>  <SCORE.SYSTEM.CONST>
0

>  <SCORE.SYSTEM.DIHEDRAL>
0

>  <SCORE.SYSTEM.SOLV>
0

>  <SCORE.SYSTEM.norm>
0

>  <SCORE.heavy>
31

>  <SCORE.norm>
-0.370103

>  <RMSD>
4.972

$$$$
ligand
 OpenBabel11021811493D
libRbt.so/2013.1/901 2013/11/27
 31 33  0  0  0  0  0  0  0  0999 V2000
   22.1060   -7.9602   -5.7456 C   0  0  2  0  0  0  0  0  0  0  0  0
   21.8757   -8.7708   -6.9059 O   0  0  0  0  0  0  0  0  0  0  0  0
   23.2062  -12.7239   -7.7953 C   0  0  2  0  0  0  0  0  0  0  0  0
   24.0857  -13.8170   -8.0396 N   0  0  0  0  0  0  0  0  0  0  0  0
   23.9631  -14.4181   -5.4074 C   0  0  2  0  0  0  0  0  0  0  0  0
   20.8004   -7.1438   -5.4955 C   0  0  2  0  0  0  0  0  0  0  0  0
   19.6835   -8.0727   -5.3349 N   0  0  0  0  0  0  0  0  0  0  0  0
   23.4380  -11.6170   -8.8910 C   0  0  0  0  0  0  0  0  0  0  0  0
   23.3957  -15.1425   -4.1569 C   0  0  2  0  0  0  0  0  0  0  0  0
   21.9957  -15.2386   -4.2880 O   0  0  0  0  0  0  0  0  0  0  0  0
   20.5501   -6.1358   -6.6826 C   0  0  0  0  0  0  0  0  0  0  0  0
   22.4587  -10.4041   -8.6165 C   0  0  2  0  0  0  0  0  0  0  0  0
   22.6745   -9.3610   -9.6400 N   0  0  0  0  0  0  0  0  0  0  0  0
   23.8001  -14.3048   -2.8794 C   0  0  1  0  0  0  0  0  0  0  0  0
   23.2567  -14.9516   -1.6516 N   0  0  0  0  0  0  0  0  0  0  0  0
   21.8828   -5.6005   -7.3215 C   0  0  0  0  0  0  0  0  0  0  0  0
   22.7485   -9.8250   -7.1666 C   0  0  2  0  0  0  0  0  0  0  0  0
   25.4226  -14.2218   -2.7741 C   0  0  1  0  0  0  0  0  0  0  0  0
   26.0318  -15.4829   -2.6434 O   0  0  0  0  0  0  0  0  0  0  0  0
   23.0803   -6.0580   -6.9267 C   0  0  1  0  0  0  0  0  0  0  0  0
   23.2153   -7.0374   -5.9158 O   0  0  0  0  0  0  0  0  0  0  0  0
   22.5299  -10.9541   -6.0952 C   0  0  2  0  0  0  0  0  0  0  0  0
   22.8035  -10.4283   -4.7977 O   0  0  0  0  0  0  0  0  0  0  0  0
   25.9790  -13.5505   -4.0678 C   0  0  0  0  0  0  0  0  0  0  0  0
   25.4598  -14.2685   -5.2973 O   0  0  0  0  0  0  0  0  0  0  0  0
   24.4060   -5.5669   -7.5405 C   0  0  0  0  0  0  0  0  0  0  0  0
   25.1105   -6.7014   -8.0961 N   0  0  0  0  0  0  0  0  0  0  0  0
   23.5060  -12.1542   -6.3931 C   0  0  1  0  0  0  0  0  0  0  0  0
   23.2826  -13.1454   -5.4337 O   0  0  0  0  0  0  0  0  0  0  0  0
   25.9754  -13.4359   -1.5765 C   0  0  0  0  0  0  0  0  0  0  0  0
   22.4770  -14.0861   -0.7533 C   0  0  0  0  0  0  0  0  0  0  0  0
  1  2  1  6  0  0  0
  1  6  1  0  0  0  0
  1 21  1  0  0  0  0
  3  4  1  6  0  0  0
  3  8  1  0  0  0  0
  3 28  1  0  0  0  0
  5  9  1  0  0  0  0
  5 25  1  0  0  0  0
  5 29  1  1  0  0  0
  6  7  1  6  0  0  0
  6 11  1  0  0  0  0
  8 12  1  0  0  0  0
  9 10  1  6  0  0  0
  9 14  1  0  0  0  0
 11 16  1  0  0  0  0
 12 13  1  6  0  0  0
 12 17  1  0  0  0  0
 14 15  1  1  0  0  0
 14 18  1  0  0  0  0
 15 31  1  0  0  0  0
 16 20  1  0  0  0  0
 17  2  1  1  0  0  0
 17 22  1  0  0  0  0
 18 19  1  1  0  0  0
 18 24  1  0  0  0  0
 18 30  1  0  0  0  0
 20 21  1  0  0  0  0
 20 26  1  6  0  0  0
 22 23  1  1  0  0  0
 22 28  1  0  0  0  0
 24 25  1  0  0  0  0
 26 27  1  0  0  0  0
 28 29  1  1  0  0  0
M  END
>  <CHROM.1>
-164.87956725,178.99874439,-127.97272975,-169.84336166,-121.42664577,58.84674893
23.27721916,-11.08164866,-5.58639212,2.25808080,1.20942536,-1.13172097

>  <Name>
ligand

>  <RI>
0

>  <Rbt.Current_Directory>
/home/itssahil/PROJECTS/Mol_Feturizer/New_Systems/rnas/4F8V

>  <Rbt.Executable>
rbdock ($Id: //depot/dev/client3/rdock/2013.1/src/exe/rbdock.cxx#4 $)

>  <Rbt.Library>
libRbt.so (2013.1, Build901 2013/11/27)

>  <Rbt.Parameter_File>
/export/apps/rDock/src/rDock_2013.1_src/data/scripts/dock_solv.prm

>  <Rbt.Receptor>
prm/pocket_docking_7.prm

>  <SCORE>
-8.50274

>  <SCORE.INTER>
-4.70827

>  <SCORE.INTER.CONST>
1

>  <SCORE.INTER.POLAR>
0

>  <SCORE.INTER.ROT>
6

>  <SCORE.INTER.SOLV>
10.5025

>  <SCORE.INTER.VDW>
-14.2397

>  <SCORE.INTER.norm>
-0.15188

>  <SCORE.INTRA>
-3.79447

>  <SCORE.INTRA.DIHEDRAL>
-11.4996

>  <SCORE.INTRA.DIHEDRAL.0>
15.9129

>  <SCORE.INTRA.POLAR>
0

>  <SCORE.INTRA.POLAR.0>
0

>  <SCORE.INTRA.REPUL>
0

>  <SCORE.INTRA.REPUL.0>
0

>  <SCORE.INTRA.SOLV>
-0.241862

>  <SCORE.INTRA.SOLV.lig_0>
-75.7056

>  <SCORE.INTRA.VDW>
2.07626

>  <SCORE.INTRA.VDW.0>
-4.61812

>  <SCORE.INTRA.norm>
-0.122402

>  <SCORE.RESTR>
0

>  <SCORE.RESTR.CAVITY>
0

>  <SCORE.RESTR.norm>
0

>  <SCORE.SYSTEM>
0

>  <SCORE.SYSTEM.CONST>
0

>  <SCORE.SYSTEM.DIHEDRAL>
0

>  <SCORE.SYSTEM.SOLV>
0

>  <SCORE.SYSTEM.norm>
0

>  <SCORE.heavy>
31

>  <SCORE.norm>
-0.274282

>  <RMSD>
4.976

$$$$
ligand
 OpenBabel11021811493D
libRbt.so/2013.1/901 2013/11/27
 31 33  0  0  0  0  0  0  0  0999 V2000
   21.4309   -8.3728   -5.2565 C   0  0  2  0  0  0  0  0  0  0  0  0
   21.7503   -9.0974   -6.4521 O   0  0  0  0  0  0  0  0  0  0  0  0
   25.0732  -11.5575   -7.4985 C   0  0  2  0  0  0  0  0  0  0  0  0
   26.4204  -11.9727   -7.6994 N   0  0  0  0  0  0  0  0  0  0  0  0
   26.4548  -12.8913   -5.0617 C   0  0  2  0  0  0  0  0  0  0  0  0
   19.8753   -8.2819   -5.1824 C   0  0  2  0  0  0  0  0  0  0  0  0
   19.3198   -9.6337   -5.2006 N   0  0  0  0  0  0  0  0  0  0  0  0
   24.7693  -10.3183   -8.4212 C   0  0  0  0  0  0  0  0  0  0  0  0
   26.1747  -14.2710   -4.4071 C   0  0  2  0  0  0  0  0  0  0  0  0
   25.2951  -14.9939   -5.2378 O   0  0  0  0  0  0  0  0  0  0  0  0
   19.3212   -7.4112   -6.3751 C   0  0  0  0  0  0  0  0  0  0  0  0
   23.2711   -9.8600   -8.1955 C   0  0  2  0  0  0  0  0  0  0  0  0
   22.9818   -8.6951   -9.0566 N   0  0  0  0  0  0  0  0  0  0  0  0
   25.5444  -14.0178   -2.9802 C   0  0  1  0  0  0  0  0  0  0  0  0
   25.2367  -15.3179   -2.3199 N   0  0  0  0  0  0  0  0  0  0  0  0
   20.3078   -6.2659   -6.8061 C   0  0  0  0  0  0  0  0  0  0  0  0
   23.0725   -9.4807   -6.6663 C   0  0  2  0  0  0  0  0  0  0  0  0
   26.5957  -13.1800   -2.0616 C   0  0  1  0  0  0  0  0  0  0  0  0
   27.8103  -13.8590   -1.8555 O   0  0  0  0  0  0  0  0  0  0  0  0
   21.5230   -6.1447   -6.2514 C   0  0  1  0  0  0  0  0  0  0  0  0
   21.9839   -7.0292   -5.2491 O   0  0  0  0  0  0  0  0  0  0  0  0
   23.4015  -10.7274   -5.7674 C   0  0  2  0  0  0  0  0  0  0  0  0
   23.2317  -10.3742   -4.3959 O   0  0  0  0  0  0  0  0  0  0  0  0
   26.9153  -11.8259   -2.7673 C   0  0  0  0  0  0  0  0  0  0  0  0
   27.3731  -12.0705   -4.1912 O   0  0  0  0  0  0  0  0  0  0  0  0
   22.5215   -5.0438   -6.6593 C   0  0  0  0  0  0  0  0  0  0  0  0
   23.7716   -5.6656   -7.0373 N   0  0  0  0  0  0  0  0  0  0  0  0
   24.8923  -11.1725   -6.0154 C   0  0  1  0  0  0  0  0  0  0  0  0
   25.1530  -12.2866   -5.2131 O   0  0  0  0  0  0  0  0  0  0  0  0
   26.1261  -12.8542   -0.6367 C   0  0  0  0  0  0  0  0  0  0  0  0
   23.9362  -15.9212   -2.6494 C   0  0  0  0  0  0  0  0  0  0  0  0
  1  2  1  6  0  0  0
  1  6  1  0  0  0  0
  1 21  1  0  0  0  0
  3  4  1  1  0  0  0
  3  8  1  0  0  0  0
  3 28  1  0  0  0  0
  5  9  1  0  0  0  0
  5 25  1  0  0  0  0
  5 29  1  1  0  0  0
  6  7  1  6  0  0  0
  6 11  1  0  0  0  0
  8 12  1  0  0  0  0
  9 10  1  6  0  0  0
  9 14  1  0  0  0  0
 11 16  1  0  0  0  0
 12 13  1  6  0  0  0
 12 17  1  0  0  0  0
 14 15  1  1  0  0  0
 14 18  1  0  0  0  0
 15 31  1  0  0  0  0
 16 20  1  0  0  0  0
 17  2  1  6  0  0  0
 17 22  1  0  0  0  0
 18 19  1  1  0  0  0
 18 24  1  0  0  0  0
 18 30  1  0  0  0  0
 20 21  1  0  0  0  0
 20 26  1  6  0  0  0
 22 23  1  1  0  0  0
 22 28  1  0  0  0  0
 24 25  1  0  0  0  0
 26 27  1  0  0  0  0
 28 29  1  1  0  0  0
M  END
>  <CHROM.1>
-171.30899825,-165.45816642,-85.47320327,-163.08342147,-125.45656004,67.73423719
23.94213491,-10.69401695,-5.24256521,2.30310862,0.64402535,-0.97361616

>  <Name>
ligand

>  <RI>
0

>  <Rbt.Current_Directory>
/home/itssahil/PROJECTS/Mol_Feturizer/New_Systems/rnas/4F8V

>  <Rbt.Executable>
rbdock ($Id: //depot/dev/client3/rdock/2013.1/src/exe/rbdock.cxx#4 $)

>  <Rbt.Library>
libRbt.so (2013.1, Build901 2013/11/27)

>  <Rbt.Parameter_File>
/export/apps/rDock/src/rDock_2013.1_src/data/scripts/dock_solv.prm

>  <Rbt.Receptor>
prm/pocket_docking_6.prm

>  <SCORE>
-11.4848

>  <SCORE.INTER>
-7.86011

>  <SCORE.INTER.CONST>
1

>  <SCORE.INTER.POLAR>
0

>  <SCORE.INTER.ROT>
6

>  <SCORE.INTER.SOLV>
9.25318

>  <SCORE.INTER.VDW>
-15.9245

>  <SCORE.INTER.norm>
-0.253552

>  <SCORE.INTRA>
-3.62473

>  <SCORE.INTRA.DIHEDRAL>
-10.7586

>  <SCORE.INTRA.DIHEDRAL.0>
15.9129

>  <SCORE.INTRA.POLAR>
0

>  <SCORE.INTRA.POLAR.0>
0

>  <SCORE.INTRA.REPUL>
0

>  <SCORE.INTRA.REPUL.0>
0

>  <SCORE.INTRA.SOLV>
0.379309

>  <SCORE.INTRA.SOLV.lig_0>
-75.7056

>  <SCORE.INTRA.VDW>
1.56491

>  <SCORE.INTRA.VDW.0>
-4.61812

>  <SCORE.INTRA.norm>
-0.116927

>  <SCORE.RESTR>
0

>  <SCORE.RESTR.CAVITY>
0

>  <SCORE.RESTR.norm>
0

>  <SCORE.SYSTEM>
0

>  <SCORE.SYSTEM.CONST>
0

>  <SCORE.SYSTEM.DIHEDRAL>
0

>  <SCORE.SYSTEM.SOLV>
0

>  <SCORE.SYSTEM.norm>
0

>  <SCORE.heavy>
31

>  <SCORE.norm>
-0.370479

>  <RMSD>
4.978

$$$$
ligand
 OpenBabel11021811493D
libRbt.so/2013.1/901 2013/11/27
 31 33  0  0  0  0  0  0  0  0999 V2000
   21.4440   -8.3543   -5.2507 C   0  0  2  0  0  0  0  0  0  0  0  0
   21.7725   -9.0681   -6.4503 O   0  0  0  0  0  0  0  0  0  0  0  0
   25.1037  -11.5218   -7.4851 C   0  0  2  0  0  0  0  0  0  0  0  0
   26.4525  -11.9353   -7.6793 N   0  0  0  0  0  0  0  0  0  0  0  0
   26.4668  -12.8774   -5.0626 C   0  0  2  0  0  0  0  0  0  0  0  0
   19.8878   -8.2657   -5.1867 C   0  0  2  0  0  0  0  0  0  0  0  0
   19.3340   -9.6178   -5.2206 N   0  0  0  0  0  0  0  0  0  0  0  0
   24.8047  -10.2794   -8.4052 C   0  0  0  0  0  0  0  0  0  0  0  0
   26.1754  -14.2677   -4.4361 C   0  0  2  0  0  0  0  0  0  0  0  0
   25.2903  -14.9665   -5.2814 O   0  0  0  0  0  0  0  0  0  0  0  0
   19.3410   -7.3852   -6.3756 C   0  0  0  0  0  0  0  0  0  0  0  0
   23.3048   -9.8231   -8.1871 C   0  0  2  0  0  0  0  0  0  0  0  0
   23.0198   -8.6552   -9.0457 N   0  0  0  0  0  0  0  0  0  0  0  0
   25.5467  -14.0383   -3.0045 C   0  0  1  0  0  0  0  0  0  0  0  0
   25.2283  -15.3490   -2.3706 N   0  0  0  0  0  0  0  0  0  0  0  0
   20.3293   -6.2351   -6.7897 C   0  0  0  0  0  0  0  0  0  0  0  0
   23.0964   -9.4495   -6.6578 C   0  0  2  0  0  0  0  0  0  0  0  0
   26.6043  -13.2278   -2.0690 C   0  0  1  0  0  0  0  0  0  0  0  0
   27.8134  -13.9205   -1.8764 O   0  0  0  0  0  0  0  0  0  0  0  0
   21.5405   -6.1174   -6.2254 C   0  0  1  0  0  0  0  0  0  0  0  0
   21.9953   -7.0102   -5.2277 O   0  0  0  0  0  0  0  0  0  0  0  0
   23.4208  -10.6993   -5.7615 C   0  0  2  0  0  0  0  0  0  0  0  0
   23.2422  -10.3512   -4.3897 O   0  0  0  0  0  0  0  0  0  0  0  0
   26.9351  -11.8623   -2.7471 C   0  0  0  0  0  0  0  0  0  0  0  0
   27.3914  -12.0817   -4.1755 O   0  0  0  0  0  0  0  0  0  0  0  0
   22.5404   -5.0119   -6.6167 C   0  0  0  0  0  0  0  0  0  0  0  0
   23.7677   -5.6317   -7.0660 N   0  0  0  0  0  0  0  0  0  0  0  0
   24.9133  -11.1424   -6.0018 C   0  0  1  0  0  0  0  0  0  0  0  0
   25.1700  -12.2592   -5.2021 O   0  0  0  0  0  0  0  0  0  0  0  0
   26.1369  -12.9270   -0.6378 C   0  0  0  0  0  0  0  0  0  0  0  0
   23.9302  -15.9429   -2.7255 C   0  0  0  0  0  0  0  0  0  0  0  0
  1  2  1  6  0  0  0
  1  6  1  0  0  0  0
  1 21  1  0  0  0  0
  3  4  1  1  0  0  0
  3  8  1  0  0  0  0
  3 28  1  0  0  0  0
  5  9  1  0  0  0  0
  5 25  1  0  0  0  0
  5 29  1  1  0  0  0
  6  7  1  6  0  0  0
  6 11  1  0  0  0  0
  8 12  1  0  0  0  0
  9 10  1  6  0  0  0
  9 14  1  0  0  0  0
 11 16  1  0  0  0  0
 12 13  1  6  0  0  0
 12 17  1  0  0  0  0
 14 15  1  1  0  0  0
 14 18  1  0  0  0  0
 15 31  1  0  0  0  0
 16 20  1  0  0  0  0
 17  2  1  6  0  0  0
 17 22  1  0  0  0  0
 18 19  1  1  0  0  0
 18 24  1  0  0  0  0
 18 30  1  0  0  0  0
 20 21  1  0  0  0  0
 20 26  1  6  0  0  0
 22 23  1  1  0  0  0
 22 28  1  0  0  0  0
 24 25  1  0  0  0  0
 26 27  1  0  0  0  0
 28 29  1  1  0  0  0
M  END
>  <CHROM.1>
-171.22355985,-164.17821539,-84.74690323,-163.40926987,-122.14752494,66.62932890
23.95693370,-10.68405840,-5.24420411,2.29252642,0.63458078,-0.95336137

>  <Name>
ligand

>  <RI>
0

>  <Rbt.Current_Directory>
/home/itssahil/PROJECTS/Mol_Feturizer/New_Systems/rnas/4F8V

>  <Rbt.Executable>
rbdock ($Id: //depot/dev/client3/rdock/2013.1/src/exe/rbdock.cxx#4 $)

>  <Rbt.Library>
libRbt.so (2013.1, Build901 2013/11/27)

>  <Rbt.Parameter_File>
/export/apps/rDock/src/rDock_2013.1_src/data/scripts/dock_solv.prm

>  <Rbt.Receptor>
prm/pocket_docking_5.prm

>  <SCORE>
-11.4966

>  <SCORE.INTER>
-7.97389

>  <SCORE.INTER.CONST>
1

>  <SCORE.INTER.POLAR>
0

>  <SCORE.INTER.ROT>
6

>  <SCORE.INTER.SOLV>
9.32799

>  <SCORE.INTER.VDW>
-16.0253

>  <SCORE.INTER.norm>
-0.257222

>  <SCORE.INTRA>
-3.52267

>  <SCORE.INTRA.DIHEDRAL>
-10.7575

>  <SCORE.INTRA.DIHEDRAL.0>
15.9129

>  <SCORE.INTRA.POLAR>
0

>  <SCORE.INTRA.POLAR.0>
0

>  <SCORE.INTRA.REPUL>
0

>  <SCORE.INTRA.REPUL.0>
0

>  <SCORE.INTRA.SOLV>
0.431364

>  <SCORE.INTRA.SOLV.lig_0>
-75.7056

>  <SCORE.INTRA.VDW>
1.64039

>  <SCORE.INTRA.VDW.0>
-4.61812

>  <SCORE.INTRA.norm>
-0.113634

>  <SCORE.RESTR>
0

>  <SCORE.RESTR.CAVITY>
0

>  <SCORE.RESTR.norm>
0

>  <SCORE.SYSTEM>
0

>  <SCORE.SYSTEM.CONST>
0

>  <SCORE.SYSTEM.DIHEDRAL>
0

>  <SCORE.SYSTEM.SOLV>
0

>  <SCORE.SYSTEM.norm>
0

>  <SCORE.heavy>
31

>  <SCORE.norm>
-0.370857

>  <RMSD>
4.981

$$$$
ligand
 OpenBabel11021811493D
libRbt.so/2013.1/901 2013/11/27
 31 33  0  0  0  0  0  0  0  0999 V2000
   21.4962   -8.3964   -5.2921 C   0  0  2  0  0  0  0  0  0  0  0  0
   21.8294   -9.0882   -6.5033 O   0  0  0  0  0  0  0  0  0  0  0  0
   25.1393  -11.5693   -7.5412 C   0  0  2  0  0  0  0  0  0  0  0  0
   26.4846  -11.9970   -7.7284 N   0  0  0  0  0  0  0  0  0  0  0  0
   26.4683  -12.9560   -5.0988 C   0  0  2  0  0  0  0  0  0  0  0  0
   19.9393   -8.3720   -5.1966 C   0  0  2  0  0  0  0  0  0  0  0  0
   19.4404   -9.7454   -5.2297 N   0  0  0  0  0  0  0  0  0  0  0  0
   24.8647  -10.3104   -8.4464 C   0  0  0  0  0  0  0  0  0  0  0  0
   26.1670  -14.3300   -4.4417 C   0  0  2  0  0  0  0  0  0  0  0  0
   25.2902  -15.0480   -5.2796 O   0  0  0  0  0  0  0  0  0  0  0  0
   19.3333   -7.5066   -6.3678 C   0  0  0  0  0  0  0  0  0  0  0  0
   23.3686   -9.8382   -8.2360 C   0  0  2  0  0  0  0  0  0  0  0  0
   23.1066   -8.6549   -9.0807 N   0  0  0  0  0  0  0  0  0  0  0  0
   25.5225  -14.0644   -3.0234 C   0  0  1  0  0  0  0  0  0  0  0  0
   25.1944  -15.3585   -2.3612 N   0  0  0  0  0  0  0  0  0  0  0  0
   20.2654   -6.3143   -6.7928 C   0  0  0  0  0  0  0  0  0  0  0  0
   23.1502   -9.4834   -6.7037 C   0  0  2  0  0  0  0  0  0  0  0  0
   26.5711  -13.2329   -2.0962 C   0  0  1  0  0  0  0  0  0  0  0  0
   27.7764  -13.9227   -1.8728 O   0  0  0  0  0  0  0  0  0  0  0  0
   21.4819   -6.1511   -6.2517 C   0  0  1  0  0  0  0  0  0  0  0  0
   21.9927   -7.0311   -5.2700 O   0  0  0  0  0  0  0  0  0  0  0  0
   23.4503  -10.7497   -5.8220 C   0  0  2  0  0  0  0  0  0  0  0  0
   23.2629  -10.4186   -4.4473 O   0  0  0  0  0  0  0  0  0  0  0  0
   26.9122  -11.8850   -2.8038 C   0  0  0  0  0  0  0  0  0  0  0  0
   27.3842  -12.1403   -4.2211 O   0  0  0  0  0  0  0  0  0  0  0  0
   22.4280   -5.0030   -6.6545 C   0  0  0  0  0  0  0  0  0  0  0  0
   23.6879   -5.5674   -7.0861 N   0  0  0  0  0  0  0  0  0  0  0  0
   24.9394  -11.2082   -6.0545 C   0  0  1  0  0  0  0  0  0  0  0  0
   25.1743  -12.3394   -5.2682 O   0  0  0  0  0  0  0  0  0  0  0  0
   26.0880  -12.8962   -0.6782 C   0  0  0  0  0  0  0  0  0  0  0  0
   23.9020  -15.9620   -2.7210 C   0  0  0  0  0  0  0  0  0  0  0  0
  1  2  1  6  0  0  0
  1  6  1  0  0  0  0
  1 21  1  0  0  0  0
  3  4  1  1  0  0  0
  3  8  1  0  0  0  0
  3 28  1  0  0  0  0
  5  9  1  0  0  0  0
  5 25  1  0  0  0  0
  5 29  1  1  0  0  0
  6  7  1  6  0  0  0
  6 11  1  0  0  0  0
  8 12  1  0  0  0  0
  9 10  1  6  0  0  0
  9 14  1  0  0  0  0
 11 16  1  0  0  0  0
 12 13  1  6  0  0  0
 12 17  1  0  0  0  0
 14 15  1  1  0  0  0
 14 18  1  0  0  0  0
 15 31  1  0  0  0  0
 16 20  1  0  0  0  0
 17  2  1  6  0  0  0
 17 22  1  0  0  0  0
 18 19  1  1  0  0  0
 18 24  1  0  0  0  0
 18 30  1  0  0  0  0
 20 21  1  0  0  0  0
 20 26  1  6  0  0  0
 22 23  1  1  0  0  0
 22 28  1  0  0  0  0
 24 25  1  0  0  0  0
 26 27  1  0  0  0  0
 28 29  1  1  0  0  0
M  END
>  <CHROM.1>
-167.49831063,-166.96244711,-84.46725979,-163.89549874,-124.23158000,68.24344648
23.96015792,-10.72479176,-5.27516487,2.29211754,0.64337941,-0.95690858

>  <Name>
ligand

>  <RI>
0

>  <Rbt.Current_Directory>
/home/itssahil/PROJECTS/Mol_Feturizer/New_Systems/rnas/4F8V

>  <Rbt.Executable>
rbdock ($Id: //depot/dev/client3/rdock/2013.1/src/exe/rbdock.cxx#4 $)

>  <Rbt.Library>
libRbt.so (2013.1, Build901 2013/11/27)

>  <Rbt.Parameter_File>
/export/apps/rDock/src/rDock_2013.1_src/data/scripts/dock_solv.prm

>  <Rbt.Receptor>
prm/pocket_docking_5.prm

>  <SCORE>
-11.4316

>  <SCORE.INTER>
-7.87407

>  <SCORE.INTER.CONST>
1

>  <SCORE.INTER.POLAR>
0

>  <SCORE.INTER.ROT>
6

>  <SCORE.INTER.SOLV>
9.20462

>  <SCORE.INTER.VDW>
-15.9176

>  <SCORE.INTER.norm>
-0.254002

>  <SCORE.INTRA>
-3.55753

>  <SCORE.INTRA.DIHEDRAL>
-10.6915

>  <SCORE.INTRA.DIHEDRAL.0>
15.9129

>  <SCORE.INTRA.POLAR>
0

>  <SCORE.INTRA.POLAR.0>
0

>  <SCORE.INTRA.REPUL>
0

>  <SCORE.INTRA.REPUL.0>
0

>  <SCORE.INTRA.SOLV>
0.28493

>  <SCORE.INTRA.SOLV.lig_0>
-75.7056

>  <SCORE.INTRA.VDW>
1.64574

>  <SCORE.INTRA.VDW.0>
-4.61812

>  <SCORE.INTRA.norm>
-0.114759

>  <SCORE.RESTR>
0

>  <SCORE.RESTR.CAVITY>
0

>  <SCORE.RESTR.norm>
0

>  <SCORE.SYSTEM>
0

>  <SCORE.SYSTEM.CONST>
0

>  <SCORE.SYSTEM.DIHEDRAL>
0

>  <SCORE.SYSTEM.SOLV>
0

>  <SCORE.SYSTEM.norm>
0

>  <SCORE.heavy>
31

>  <SCORE.norm>
-0.368761

>  <RMSD>
4.994

$$$$
ligand
 OpenBabel11021811493D
libRbt.so/2013.1/901 2013/11/27
 31 33  0  0  0  0  0  0  0  0999 V2000
   21.4407   -8.3182   -5.4804 C   0  0  2  0  0  0  0  0  0  0  0  0
   22.0778   -8.7194   -6.7009 O   0  0  0  0  0  0  0  0  0  0  0  0
   25.0983  -11.6076   -7.5515 C   0  0  2  0  0  0  0  0  0  0  0  0
   26.3275  -12.3222   -7.4714 N   0  0  0  0  0  0  0  0  0  0  0  0
   25.1551  -13.9777   -5.5455 C   0  0  2  0  0  0  0  0  0  0  0  0
   20.0149   -7.8101   -5.8582 C   0  0  2  0  0  0  0  0  0  0  0  0
   19.3003   -8.8774   -6.5555 N   0  0  0  0  0  0  0  0  0  0  0  0
   25.3929  -10.1122   -7.9472 C   0  0  0  0  0  0  0  0  0  0  0  0
   24.4012  -15.3348   -5.5273 C   0  0  2  0  0  0  0  0  0  0  0  0
   23.7736  -15.5186   -6.7758 O   0  0  0  0  0  0  0  0  0  0  0  0
   20.1151   -6.5066   -6.7407 C   0  0  0  0  0  0  0  0  0  0  0  0
   24.0246   -9.3212   -8.0357 C   0  0  2  0  0  0  0  0  0  0  0  0
   24.2955   -7.9163   -8.4035 N   0  0  0  0  0  0  0  0  0  0  0  0
   23.3467  -15.2941   -4.3511 C   0  0  1  0  0  0  0  0  0  0  0  0
   22.5803  -16.5715   -4.3079 N   0  0  0  0  0  0  0  0  0  0  0  0
   21.3621   -5.6194   -6.3818 C   0  0  0  0  0  0  0  0  0  0  0  0
   23.2948   -9.3936   -6.6273 C   0  0  2  0  0  0  0  0  0  0  0  0
   24.1194  -15.0788   -2.9343 C   0  0  1  0  0  0  0  0  0  0  0  0
   25.0223  -16.1153   -2.6358 O   0  0  0  0  0  0  0  0  0  0  0  0
   22.2690   -6.0211   -5.4788 C   0  0  1  0  0  0  0  0  0  0  0  0
   22.1558   -7.2543   -4.7965 O   0  0  0  0  0  0  0  0  0  0  0  0
   23.0314  -10.8959   -6.2473 C   0  0  2  0  0  0  0  0  0  0  0  0
   22.3864  -10.9516   -4.9762 O   0  0  0  0  0  0  0  0  0  0  0  0
   24.9235  -13.7433   -2.9955 C   0  0  0  0  0  0  0  0  0  0  0  0
   25.8215  -13.7259   -4.2161 O   0  0  0  0  0  0  0  0  0  0  0  0
   23.5106   -5.1845   -5.1129 C   0  0  0  0  0  0  0  0  0  0  0  0
   23.8528   -4.3423   -6.2380 N   0  0  0  0  0  0  0  0  0  0  0  0
   24.4039  -11.6658   -6.1750 C   0  0  1  0  0  0  0  0  0  0  0  0
   24.1389  -12.9980   -5.8466 O   0  0  0  0  0  0  0  0  0  0  0  0
   23.2253  -15.0183   -1.6877 C   0  0  0  0  0  0  0  0  0  0  0  0
   21.5344  -16.7354   -5.3292 C   0  0  0  0  0  0  0  0  0  0  0  0
  1  2  1  6  0  0  0
  1  6  1  0  0  0  0
  1 21  1  0  0  0  0
  3  4  1  1  0  0  0
  3  8  1  0  0  0  0
  3 28  1  0  0  0  0
  5  9  1  0  0  0  0
  5 25  1  0  0  0  0
  5 29  1  1  0  0  0
  6  7  1  6  0  0  0
  6 11  1  0  0  0  0
  8 12  1  0  0  0  0
  9 10  1  6  0  0  0
  9 14  1  0  0  0  0
 11 16  1  0  0  0  0
 12 13  1  1  0  0  0
 12 17  1  0  0  0  0
 14 15  1  1  0  0  0
 14 18  1  0  0  0  0
 15 31  1  0  0  0  0
 16 20  1  0  0  0  0
 17  2  1  6  0  0  0
 17 22  1  0  0  0  0
 18 19  1  1  0  0  0
 18 24  1  0  0  0  0
 18 30  1  0  0  0  0
 20 21  1  0  0  0  0
 20 26  1  6  0  0  0
 22 23  1  1  0  0  0
 22 28  1  0  0  0  0
 24 25  1  0  0  0  0
 26 27  1  0  0  0  0
 28 29  1  6  0  0  0
M  END
>  <CHROM.1>
-170.88848797,-169.14111723,-76.53701798,-161.91356262,-26.42945078,68.07389220
23.30493196,-11.10696905,-5.61828572,1.81239331,0.53091694,-0.34999269

>  <Name>
ligand

>  <RI>
0

>  <Rbt.Current_Directory>
/home/itssahil/PROJECTS/Mol_Feturizer/New_Systems/rnas/4F8V

>  <Rbt.Executable>
rbdock ($Id: //depot/dev/client3/rdock/2013.1/src/exe/rbdock.cxx#4 $)

>  <Rbt.Library>
libRbt.so (2013.1, Build901 2013/11/27)

>  <Rbt.Parameter_File>
/export/apps/rDock/src/rDock_2013.1_src/data/scripts/dock_solv.prm

>  <Rbt.Receptor>
prm/pocket_docking_8.prm

>  <SCORE>
-8.36748

>  <SCORE.INTER>
-5.34393

>  <SCORE.INTER.CONST>
1

>  <SCORE.INTER.POLAR>
0

>  <SCORE.INTER.ROT>
6

>  <SCORE.INTER.SOLV>
12.6039

>  <SCORE.INTER.VDW>
-15.3639

>  <SCORE.INTER.norm>
-0.172385

>  <SCORE.INTRA>
-3.02354

>  <SCORE.INTRA.DIHEDRAL>
-10.4569

>  <SCORE.INTRA.DIHEDRAL.0>
15.9129

>  <SCORE.INTRA.POLAR>
0

>  <SCORE.INTRA.POLAR.0>
0

>  <SCORE.INTRA.REPUL>
0

>  <SCORE.INTRA.REPUL.0>
0

>  <SCORE.INTRA.SOLV>
-1.13463

>  <SCORE.INTRA.SOLV.lig_0>
-75.7056

>  <SCORE.INTRA.VDW>
2.77223

>  <SCORE.INTRA.VDW.0>
-4.61812

>  <SCORE.INTRA.norm>
-0.0975337

>  <SCORE.RESTR>
0

>  <SCORE.RESTR.CAVITY>
0

>  <SCORE.RESTR.norm>
0

>  <SCORE.SYSTEM>
0

>  <SCORE.SYSTEM.CONST>
0

>  <SCORE.SYSTEM.DIHEDRAL>
0

>  <SCORE.SYSTEM.SOLV>
0

>  <SCORE.SYSTEM.norm>
0

>  <SCORE.heavy>
31

>  <SCORE.norm>
-0.269919

>  <RMSD>
5.047

$$$$
ligand
 OpenBabel11021811493D
libRbt.so/2013.1/901 2013/11/27
 31 33  0  0  0  0  0  0  0  0999 V2000
   22.7162   -6.7201   -7.3598 C   0  0  2  0  0  0  0  0  0  0  0  0
   23.3321   -6.9241   -6.0809 O   0  0  0  0  0  0  0  0  0  0  0  0
   24.9566  -10.7989   -6.8124 C   0  0  2  0  0  0  0  0  0  0  0  0
   25.6659  -12.0151   -6.5987 N   0  0  0  0  0  0  0  0  0  0  0  0
   22.0569  -11.9252   -6.8877 C   0  0  2  0  0  0  0  0  0  0  0  0
   22.3866   -5.1991   -7.4677 C   0  0  2  0  0  0  0  0  0  0  0  0
   23.6194   -4.4332   -7.2950 N   0  0  0  0  0  0  0  0  0  0  0  0
   25.9648   -9.5914   -6.7417 C   0  0  0  0  0  0  0  0  0  0  0  0
   21.1615  -13.1081   -6.4299 C   0  0  2  0  0  0  0  0  0  0  0  0
   20.5560  -12.7669   -5.2038 O   0  0  0  0  0  0  0  0  0  0  0  0
   21.2999   -4.7979   -6.3972 C   0  0  0  0  0  0  0  0  0  0  0  0
   25.1731   -8.2416   -6.9801 C   0  0  2  0  0  0  0  0  0  0  0  0
   26.1141   -7.1049   -6.9114 N   0  0  0  0  0  0  0  0  0  0  0  0
   22.0765  -14.3884   -6.2857 C   0  0  1  0  0  0  0  0  0  0  0  0
   21.2624  -15.5486   -5.8251 N   0  0  0  0  0  0  0  0  0  0  0  0
   20.2840   -5.9581   -6.0926 C   0  0  0  0  0  0  0  0  0  0  0  0
   24.0502   -8.0985   -5.8665 C   0  0  2  0  0  0  0  0  0  0  0  0
   22.7525  -14.7392   -7.7247 C   0  0  1  0  0  0  0  0  0  0  0  0
   21.8046  -15.0267   -8.7235 O   0  0  0  0  0  0  0  0  0  0  0  0
   20.4276   -7.1744   -6.6396 C   0  0  1  0  0  0  0  0  0  0  0  0
   21.4897   -7.4822   -7.5209 O   0  0  0  0  0  0  0  0  0  0  0  0
   23.0706   -9.3252   -5.9456 C   0  0  2  0  0  0  0  0  0  0  0  0
   22.0728   -9.1941   -4.9347 O   0  0  0  0  0  0  0  0  0  0  0  0
   23.5948  -13.5148   -8.1990 C   0  0  0  0  0  0  0  0  0  0  0  0
   22.7481  -12.2579   -8.1863 O   0  0  0  0  0  0  0  0  0  0  0  0
   19.4598   -8.3390   -6.3525 C   0  0  0  0  0  0  0  0  0  0  0  0
   18.5379   -7.9332   -5.3143 N   0  0  0  0  0  0  0  0  0  0  0  0
   23.8803  -10.6570   -5.7161 C   0  0  1  0  0  0  0  0  0  0  0  0
   22.9880  -11.7291   -5.8024 O   0  0  0  0  0  0  0  0  0  0  0  0
   23.6749  -15.9664   -7.7485 C   0  0  0  0  0  0  0  0  0  0  0  0
   21.8910  -16.4264   -4.8261 C   0  0  0  0  0  0  0  0  0  0  0  0
  1  2  1  1  0  0  0
  1  6  1  0  0  0  0
  1 21  1  0  0  0  0
  3  4  1  1  0  0  0
  3  8  1  0  0  0  0
  3 28  1  0  0  0  0
  5  9  1  0  0  0  0
  5 25  1  0  0  0  0
  5 29  1  1  0  0  0
  6  7  1  1  0  0  0
  6 11  1  0  0  0  0
  8 12  1  0  0  0  0
  9 10  1  1  0  0  0
  9 14  1  0  0  0  0
 11 16  1  0  0  0  0
 12 13  1  1  0  0  0
 12 17  1  0  0  0  0
 14 15  1  6  0  0  0
 14 18  1  0  0  0  0
 15 31  1  0  0  0  0
 16 20  1  0  0  0  0
 17  2  1  6  0  0  0
 17 22  1  0  0  0  0
 18 19  1  6  0  0  0
 18 24  1  0  0  0  0
 18 30  1  0  0  0  0
 20 21  1  0  0  0  0
 20 26  1  1  0  0  0
 22 23  1  1  0  0  0
 22 28  1  0  0  0  0
 24 25  1  0  0  0  0
 26 27  1  0  0  0  0
 28 29  1  6  0  0  0
M  END
>  <CHROM.1>
-162.71931571,-171.89138386,-139.56792289,55.57916255,-6.96062745,-68.73872526
22.59286841,-10.27799500,-6.60372157,-1.58364577,-0.19620256,-3.12495604

>  <Name>
ligand

>  <RI>
0

>  <Rbt.Current_Directory>
/home/itssahil/PROJECTS/Mol_Feturizer/New_Systems/rnas/4F8V

>  <Rbt.Executable>
rbdock ($Id: //depot/dev/client3/rdock/2013.1/src/exe/rbdock.cxx#4 $)

>  <Rbt.Library>
libRbt.so (2013.1, Build901 2013/11/27)

>  <Rbt.Parameter_File>
/export/apps/rDock/src/rDock_2013.1_src/data/scripts/dock_solv.prm

>  <Rbt.Receptor>
prm/pocket_docking_7.prm

>  <SCORE>
-7.19516

>  <SCORE.INTER>
-4.57744

>  <SCORE.INTER.CONST>
1

>  <SCORE.INTER.POLAR>
0

>  <SCORE.INTER.ROT>
6

>  <SCORE.INTER.SOLV>
8.85831

>  <SCORE.INTER.VDW>
-13.6044

>  <SCORE.INTER.norm>
-0.147659

>  <SCORE.INTRA>
-2.61773

>  <SCORE.INTRA.DIHEDRAL>
-11.0943

>  <SCORE.INTRA.DIHEDRAL.0>
15.9129

>  <SCORE.INTRA.POLAR>
0

>  <SCORE.INTRA.POLAR.0>
0

>  <SCORE.INTRA.REPUL>
0

>  <SCORE.INTRA.REPUL.0>
0

>  <SCORE.INTRA.SOLV>
1.17057

>  <SCORE.INTRA.SOLV.lig_0>
-75.7056

>  <SCORE.INTRA.VDW>
2.34415

>  <SCORE.INTRA.VDW.0>
-4.61812

>  <SCORE.INTRA.norm>
-0.0844428

>  <SCORE.RESTR>
0

>  <SCORE.RESTR.CAVITY>
0

>  <SCORE.RESTR.norm>
0

>  <SCORE.SYSTEM>
0

>  <SCORE.SYSTEM.CONST>
0

>  <SCORE.SYSTEM.DIHEDRAL>
0

>  <SCORE.SYSTEM.SOLV>
0

>  <SCORE.SYSTEM.norm>
0

>  <SCORE.heavy>
31

>  <SCORE.norm>
-0.232102

>  <RMSD>
5.056

$$$$
ligand
 OpenBabel11021811493D
libRbt.so/2013.1/901 2013/11/27
 31 33  0  0  0  0  0  0  0  0999 V2000
   21.5981   -8.3481   -5.3120 C   0  0  2  0  0  0  0  0  0  0  0  0
   22.1783   -8.7834   -6.5491 O   0  0  0  0  0  0  0  0  0  0  0  0
   25.6830  -11.0904   -7.3128 C   0  0  2  0  0  0  0  0  0  0  0  0
   27.0510  -11.4859   -7.3148 N   0  0  0  0  0  0  0  0  0  0  0  0
   26.5866  -12.8703   -5.0113 C   0  0  2  0  0  0  0  0  0  0  0  0
   20.0843   -8.0896   -5.5865 C   0  0  2  0  0  0  0  0  0  0  0  0
   19.4801   -9.3155   -6.1045 N   0  0  0  0  0  0  0  0  0  0  0  0
   25.5390   -9.7177   -8.0707 C   0  0  0  0  0  0  0  0  0  0  0  0
   26.1842  -14.2380   -4.3963 C   0  0  2  0  0  0  0  0  0  0  0  0
   25.2876  -14.8804   -5.2736 O   0  0  0  0  0  0  0  0  0  0  0  0
   19.9086   -6.8869   -6.5916 C   0  0  0  0  0  0  0  0  0  0  0  0
   24.0174   -9.2815   -8.0668 C   0  0  2  0  0  0  0  0  0  0  0  0
   23.8771   -7.9921   -8.7739 N   0  0  0  0  0  0  0  0  0  0  0  0
   25.5199  -13.9661   -2.9885 C   0  0  1  0  0  0  0  0  0  0  0  0
   25.0954  -15.2525   -2.3671 N   0  0  0  0  0  0  0  0  0  0  0  0
   21.0342   -5.7993   -6.4468 C   0  0  0  0  0  0  0  0  0  0  0  0
   23.5237   -9.1449   -6.5638 C   0  0  2  0  0  0  0  0  0  0  0  0
   26.5925  -13.2230   -2.0148 C   0  0  1  0  0  0  0  0  0  0  0  0
   27.7469  -13.9912   -1.7785 O   0  0  0  0  0  0  0  0  0  0  0  0
   22.0675   -5.9702   -5.6086 C   0  0  1  0  0  0  0  0  0  0  0  0
   22.2022   -7.1271   -4.8069 O   0  0  0  0  0  0  0  0  0  0  0  0
   23.6971  -10.5217   -5.8253 C   0  0  2  0  0  0  0  0  0  0  0  0
   23.2622  -10.3864   -4.4736 O   0  0  0  0  0  0  0  0  0  0  0  0
   27.0343  -11.8828   -2.6798 C   0  0  0  0  0  0  0  0  0  0  0  0
   27.5273  -12.1337   -4.0908 O   0  0  0  0  0  0  0  0  0  0  0  0
   23.1961   -4.9325   -5.4515 C   0  0  0  0  0  0  0  0  0  0  0  0
   24.4638   -5.5812   -5.7051 N   0  0  0  0  0  0  0  0  0  0  0  0
   25.2154  -10.9411   -5.8501 C   0  0  1  0  0  0  0  0  0  0  0  0
   25.3378  -12.1708   -5.1976 O   0  0  0  0  0  0  0  0  0  0  0  0
   26.0935  -12.8902   -0.6014 C   0  0  0  0  0  0  0  0  0  0  0  0
   23.7430  -15.7215   -2.7060 C   0  0  0  0  0  0  0  0  0  0  0  0
  1  2  1  6  0  0  0
  1  6  1  0  0  0  0
  1 21  1  0  0  0  0
  3  4  1  1  0  0  0
  3  8  1  0  0  0  0
  3 28  1  0  0  0  0
  5  9  1  0  0  0  0
  5 25  1  0  0  0  0
  5 29  1  1  0  0  0
  6  7  1  6  0  0  0
  6 11  1  0  0  0  0
  8 12  1  0  0  0  0
  9 10  1  6  0  0  0
  9 14  1  0  0  0  0
 11 16  1  0  0  0  0
 12 13  1  1  0  0  0
 12 17  1  0  0  0  0
 14 15  1  1  0  0  0
 14 18  1  0  0  0  0
 15 31  1  0  0  0  0
 16 20  1  0  0  0  0
 17  2  1  6  0  0  0
 17 22  1  0  0  0  0
 18 19  1  1  0  0  0
 18 24  1  0  0  0  0
 18 30  1  0  0  0  0
 20 21  1  0  0  0  0
 20 26  1  6  0  0  0
 22 23  1  1  0  0  0
 22 28  1  0  0  0  0
 24 25  1  0  0  0  0
 26 27  1  0  0  0  0
 28 29  1  1  0  0  0
M  END
>  <CHROM.1>
-177.01739390,-173.51216633,-88.32262543,-167.77279164,-124.28833698,61.45044960
24.23580406,-10.50610949,-5.11293229,2.18099686,0.52965424,-0.77616482

>  <Name>
ligand

>  <RI>
0

>  <Rbt.Current_Directory>
/home/itssahil/PROJECTS/Mol_Feturizer/New_Systems/rnas/4F8V

>  <Rbt.Executable>
rbdock ($Id: //depot/dev/client3/rdock/2013.1/src/exe/rbdock.cxx#4 $)

>  <Rbt.Library>
libRbt.so (2013.1, Build901 2013/11/27)

>  <Rbt.Parameter_File>
/export/apps/rDock/src/rDock_2013.1_src/data/scripts/dock_solv.prm

>  <Rbt.Receptor>
prm/pocket_docking_8.prm

>  <SCORE>
-10.957

>  <SCORE.INTER>
-6.44695

>  <SCORE.INTER.CONST>
1

>  <SCORE.INTER.POLAR>
0

>  <SCORE.INTER.ROT>
6

>  <SCORE.INTER.SOLV>
9.14399

>  <SCORE.INTER.VDW>
-14.946

>  <SCORE.INTER.norm>
-0.207966

>  <SCORE.INTRA>
-4.51004

>  <SCORE.INTRA.DIHEDRAL>
-12.6858

>  <SCORE.INTRA.DIHEDRAL.0>
15.9129

>  <SCORE.INTRA.POLAR>
0

>  <SCORE.INTRA.POLAR.0>
0

>  <SCORE.INTRA.REPUL>
0

>  <SCORE.INTRA.REPUL.0>
0

>  <SCORE.INTRA.SOLV>
-0.250296

>  <SCORE.INTRA.SOLV.lig_0>
-75.7056

>  <SCORE.INTRA.VDW>
1.95802

>  <SCORE.INTRA.VDW.0>
-4.61812

>  <SCORE.INTRA.norm>
-0.145485

>  <SCORE.RESTR>
0

>  <SCORE.RESTR.CAVITY>
0

>  <SCORE.RESTR.norm>
0

>  <SCORE.SYSTEM>
0

>  <SCORE.SYSTEM.CONST>
0

>  <SCORE.SYSTEM.DIHEDRAL>
0

>  <SCORE.SYSTEM.SOLV>
0

>  <SCORE.SYSTEM.norm>
0

>  <SCORE.heavy>
31

>  <SCORE.norm>
-0.353451

>  <RMSD>
5.097

$$$$
ligand
 OpenBabel11021811493D
libRbt.so/2013.1/901 2013/11/27
 31 33  0  0  0  0  0  0  0  0999 V2000
   22.6928   -8.4736   -6.6170 C   0  0  2  0  0  0  0  0  0  0  0  0
   24.1251   -8.4043   -6.5998 O   0  0  0  0  0  0  0  0  0  0  0  0
   24.9437  -12.5138   -7.3937 C   0  0  2  0  0  0  0  0  0  0  0  0
   25.6753  -13.7034   -7.6722 N   0  0  0  0  0  0  0  0  0  0  0  0
   26.1708  -13.9087   -4.7272 C   0  0  2  0  0  0  0  0  0  0  0  0
   22.1663   -7.0069   -6.5447 C   0  0  2  0  0  0  0  0  0  0  0  0
   22.7182   -6.2490   -7.6658 N   0  0  0  0  0  0  0  0  0  0  0  0
   25.1443  -11.4929   -8.5757 C   0  0  0  0  0  0  0  0  0  0  0  0
   25.4452  -14.7183   -3.6188 C   0  0  2  0  0  0  0  0  0  0  0  0
   24.1900  -15.1303   -4.1098 O   0  0  0  0  0  0  0  0  0  0  0  0
   22.5497   -6.3561   -5.1600 C   0  0  0  0  0  0  0  0  0  0  0  0
   24.3294  -10.1724   -8.2629 C   0  0  2  0  0  0  0  0  0  0  0  0
   24.5171   -9.2096   -9.3675 N   0  0  0  0  0  0  0  0  0  0  0  0
   25.2923  -13.7866   -2.3516 C   0  0  1  0  0  0  0  0  0  0  0  0
   24.5791  -14.5156   -1.2648 N   0  0  0  0  0  0  0  0  0  0  0  0
   22.5864   -7.3982   -3.9837 C   0  0  0  0  0  0  0  0  0  0  0  0
   24.8519   -9.5553   -6.8962 C   0  0  2  0  0  0  0  0  0  0  0  0
   26.7660  -13.3376   -1.8250 C   0  0  1  0  0  0  0  0  0  0  0  0
   27.5675  -14.4261   -1.4356 O   0  0  0  0  0  0  0  0  0  0  0  0
   22.3990   -8.7079   -4.2042 C   0  0  1  0  0  0  0  0  0  0  0  0
   22.1532   -9.2254   -5.4969 O   0  0  0  0  0  0  0  0  0  0  0  0
   24.6591  -10.6009   -5.7385 C   0  0  2  0  0  0  0  0  0  0  0  0
   25.1415  -10.0426   -4.5177 O   0  0  0  0  0  0  0  0  0  0  0  0
   27.5045  -12.5831   -2.9736 C   0  0  0  0  0  0  0  0  0  0  0  0
   27.5112  -13.4232   -4.2349 O   0  0  0  0  0  0  0  0  0  0  0  0
   22.4425   -9.7592   -3.0780 C   0  0  0  0  0  0  0  0  0  0  0  0
   21.1307  -10.3540   -2.9452 N   0  0  0  0  0  0  0  0  0  0  0  0
   25.4692  -11.9095   -6.0750 C   0  0  1  0  0  0  0  0  0  0  0  0
   25.2712  -12.8231   -5.0362 O   0  0  0  0  0  0  0  0  0  0  0  0
   26.7853  -12.4245   -0.5908 C   0  0  0  0  0  0  0  0  0  0  0  0
   23.1095  -14.4754   -1.3127 C   0  0  0  0  0  0  0  0  0  0  0  0
  1  2  1  1  0  0  0
  1  6  1  0  0  0  0
  1 21  1  0  0  0  0
  3  4  1  6  0  0  0
  3  8  1  0  0  0  0
  3 28  1  0  0  0  0
  5  9  1  0  0  0  0
  5 25  1  0  0  0  0
  5 29  1  1  0  0  0
  6  7  1  6  0  0  0
  6 11  1  0  0  0  0
  8 12  1  0  0  0  0
  9 10  1  6  0  0  0
  9 14  1  0  0  0  0
 11 16  1  0  0  0  0
 12 13  1  6  0  0  0
 12 17  1  0  0  0  0
 14 15  1  1  0  0  0
 14 18  1  0  0  0  0
 15 31  1  0  0  0  0
 16 20  1  0  0  0  0
 17  2  1  1  0  0  0
 17 22  1  0  0  0  0
 18 19  1  1  0  0  0
 18 24  1  0  0  0  0
 18 30  1  0  0  0  0
 20 21  1  0  0  0  0
 20 26  1  6  0  0  0
 22 23  1  1  0  0  0
 22 28  1  0  0  0  0
 24 25  1  0  0  0  0
 26 27  1  0  0  0  0
 28 29  1  1  0  0  0
M  END
>  <CHROM.1>
-168.57766893,-173.81008196,-85.61613812,51.38263882,115.18945268,83.70944100
24.52683580,-11.21132614,-4.81109449,2.26287939,0.94491474,-1.18672720

>  <Name>
ligand

>  <RI>
0

>  <Rbt.Current_Directory>
/home/itssahil/PROJECTS/Mol_Feturizer/New_Systems/rnas/4F8V

>  <Rbt.Executable>
rbdock ($Id: //depot/dev/client3/rdock/2013.1/src/exe/rbdock.cxx#4 $)

>  <Rbt.Library>
libRbt.so (2013.1, Build901 2013/11/27)

>  <Rbt.Parameter_File>
/export/apps/rDock/src/rDock_2013.1_src/data/scripts/dock_solv.prm

>  <Rbt.Receptor>
prm/pocket_docking_7.prm

>  <SCORE>
-4.81969

>  <SCORE.INTER>
-0.632083

>  <SCORE.INTER.CONST>
1

>  <SCORE.INTER.POLAR>
0

>  <SCORE.INTER.ROT>
6

>  <SCORE.INTER.SOLV>
7.60417

>  <SCORE.INTER.VDW>
-10.5561

>  <SCORE.INTER.norm>
-0.0203898

>  <SCORE.INTRA>
-4.18761

>  <SCORE.INTRA.DIHEDRAL>
-10.1301

>  <SCORE.INTRA.DIHEDRAL.0>
15.9129

>  <SCORE.INTRA.POLAR>
0

>  <SCORE.INTRA.POLAR.0>
0

>  <SCORE.INTRA.REPUL>
0

>  <SCORE.INTRA.REPUL.0>
0

>  <SCORE.INTRA.SOLV>
-0.901274

>  <SCORE.INTRA.SOLV.lig_0>
-75.7056

>  <SCORE.INTRA.VDW>
1.32809

>  <SCORE.INTRA.VDW.0>
-4.61812

>  <SCORE.INTRA.norm>
-0.135084

>  <SCORE.RESTR>
0

>  <SCORE.RESTR.CAVITY>
0

>  <SCORE.RESTR.norm>
0

>  <SCORE.SYSTEM>
0

>  <SCORE.SYSTEM.CONST>
0

>  <SCORE.SYSTEM.DIHEDRAL>
0

>  <SCORE.SYSTEM.SOLV>
0

>  <SCORE.SYSTEM.norm>
0

>  <SCORE.heavy>
31

>  <SCORE.norm>
-0.155474

>  <RMSD>
5.137

$$$$
ligand
 OpenBabel11021811493D
libRbt.so/2013.1/901 2013/11/27
 31 33  0  0  0  0  0  0  0  0999 V2000
   22.0109   -8.1136   -5.3563 C   0  0  2  0  0  0  0  0  0  0  0  0
   22.1575   -8.9190   -6.5336 O   0  0  0  0  0  0  0  0  0  0  0  0
   24.9452  -12.0385   -7.3622 C   0  0  2  0  0  0  0  0  0  0  0  0
   26.1871  -12.7023   -7.5741 N   0  0  0  0  0  0  0  0  0  0  0  0
   26.2678  -13.2674   -4.8917 C   0  0  2  0  0  0  0  0  0  0  0  0
   20.5004   -7.7394   -5.2472 C   0  0  2  0  0  0  0  0  0  0  0  0
   19.7093   -8.9676   -5.2051 N   0  0  0  0  0  0  0  0  0  0  0  0
   24.7616  -10.9206   -8.4559 C   0  0  0  0  0  0  0  0  0  0  0  0
   25.9133  -14.2766   -3.7663 C   0  0  2  0  0  0  0  0  0  0  0  0
   24.7292  -14.9525   -4.1235 O   0  0  0  0  0  0  0  0  0  0  0  0
   20.0769   -6.8179   -6.4552 C   0  0  0  0  0  0  0  0  0  0  0  0
   23.3803  -10.1853   -8.2175 C   0  0  2  0  0  0  0  0  0  0  0  0
   23.2045   -9.1329   -9.2392 N   0  0  0  0  0  0  0  0  0  0  0  0
   25.7331  -13.4673   -2.4210 C   0  0  1  0  0  0  0  0  0  0  0  0
   25.3689  -14.3943   -1.3124 N   0  0  0  0  0  0  0  0  0  0  0  0
   21.2408   -5.8842   -6.9495 C   0  0  0  0  0  0  0  0  0  0  0  0
   23.3786   -9.5496   -6.7623 C   0  0  2  0  0  0  0  0  0  0  0  0
   27.1240  -12.7050   -2.0538 C   0  0  1  0  0  0  0  0  0  0  0  0
   28.2011  -13.5881   -1.8565 O   0  0  0  0  0  0  0  0  0  0  0  0
   22.4742   -5.9696   -6.4292 C   0  0  1  0  0  0  0  0  0  0  0  0
   22.7977   -6.8932   -5.4087 O   0  0  0  0  0  0  0  0  0  0  0  0
   23.5837  -10.6827   -5.6924 C   0  0  2  0  0  0  0  0  0  0  0  0
   23.5925  -10.1012   -4.3899 O   0  0  0  0  0  0  0  0  0  0  0  0
   27.4979  -11.7445   -3.2248 C   0  0  0  0  0  0  0  0  0  0  0  0
   27.5171  -12.4999   -4.5385 O   0  0  0  0  0  0  0  0  0  0  0  0
   23.6424   -5.0809   -6.8992 C   0  0  0  0  0  0  0  0  0  0  0  0
   24.7332   -5.9312   -7.3228 N   0  0  0  0  0  0  0  0  0  0  0  0
   24.9579  -11.4072   -5.9544 C   0  0  1  0  0  0  0  0  0  0  0  0
   25.1084  -12.4142   -4.9972 O   0  0  0  0  0  0  0  0  0  0  0  0
   27.1092  -11.8713   -0.7646 C   0  0  0  0  0  0  0  0  0  0  0  0
   24.2987  -13.9394   -0.4115 C   0  0  0  0  0  0  0  0  0  0  0  0
  1  2  1  6  0  0  0
  1  6  1  0  0  0  0
  1 21  1  0  0  0  0
  3  4  1  6  0  0  0
  3  8  1  0  0  0  0
  3 28  1  0  0  0  0
  5  9  1  0  0  0  0
  5 25  1  0  0  0  0
  5 29  1  1  0  0  0
  6  7  1  6  0  0  0
  6 11  1  0  0  0  0
  8 12  1  0  0  0  0
  9 10  1  6  0  0  0
  9 14  1  0  0  0  0
 11 16  1  0  0  0  0
 12 13  1  6  0  0  0
 12 17  1  0  0  0  0
 14 15  1  1  0  0  0
 14 18  1  0  0  0  0
 15 31  1  0  0  0  0
 16 20  1  0  0  0  0
 17  2  1  1  0  0  0
 17 22  1  0  0  0  0
 18 19  1  1  0  0  0
 18 24  1  0  0  0  0
 18 30  1  0  0  0  0
 20 21  1  0  0  0  0
 20 26  1  6  0  0  0
 22 23  1  1  0  0  0
 22 28  1  0  0  0  0
 24 25  1  0  0  0  0
 26 27  1  0  0  0  0
 28 29  1  1  0  0  0
M  END
>  <CHROM.1>
-170.88296875,-175.73686568,-136.49710465,-171.13209859,-123.81703874,62.95514096
24.28602307,-10.54576283,-5.11684879,2.44578014,0.86888027,-1.31143747

>  <Name>
ligand

>  <RI>
0

>  <Rbt.Current_Directory>
/home/itssahil/PROJECTS/Mol_Feturizer/New_Systems/rnas/4F8V

>  <Rbt.Executable>
rbdock ($Id: //depot/dev/client3/rdock/2013.1/src/exe/rbdock.cxx#4 $)

>  <Rbt.Library>
libRbt.so (2013.1, Build901 2013/11/27)

>  <Rbt.Parameter_File>
/export/apps/rDock/src/rDock_2013.1_src/data/scripts/dock_solv.prm

>  <Rbt.Receptor>
prm/pocket_docking_5.prm

>  <SCORE>
-9.76211

>  <SCORE.INTER>
-5.27659

>  <SCORE.INTER.CONST>
1

>  <SCORE.INTER.POLAR>
0

>  <SCORE.INTER.ROT>
6

>  <SCORE.INTER.SOLV>
7.14049

>  <SCORE.INTER.VDW>
-13.4979

>  <SCORE.INTER.norm>
-0.170213

>  <SCORE.INTRA>
-4.48552

>  <SCORE.INTRA.DIHEDRAL>
-12.3054

>  <SCORE.INTRA.DIHEDRAL.0>
15.9129

>  <SCORE.INTRA.POLAR>
0

>  <SCORE.INTRA.POLAR.0>
0

>  <SCORE.INTRA.REPUL>
0

>  <SCORE.INTRA.REPUL.0>
0

>  <SCORE.INTRA.SOLV>
-0.739343

>  <SCORE.INTRA.SOLV.lig_0>
-75.7056

>  <SCORE.INTRA.VDW>
2.03685

>  <SCORE.INTRA.VDW.0>
-4.61812

>  <SCORE.INTRA.norm>
-0.144694

>  <SCORE.RESTR>
0

>  <SCORE.RESTR.CAVITY>
0

>  <SCORE.RESTR.norm>
0

>  <SCORE.SYSTEM>
0

>  <SCORE.SYSTEM.CONST>
0

>  <SCORE.SYSTEM.DIHEDRAL>
0

>  <SCORE.SYSTEM.SOLV>
0

>  <SCORE.SYSTEM.norm>
0

>  <SCORE.heavy>
31

>  <SCORE.norm>
-0.314907

>  <RMSD>
5.140

$$$$
ligand
 OpenBabel11021811493D
libRbt.so/2013.1/901 2013/11/27
 31 33  0  0  0  0  0  0  0  0999 V2000
   22.4726   -5.9204   -4.9192 C   0  0  2  0  0  0  0  0  0  0  0  0
   23.3272   -7.0662   -5.0342 O   0  0  0  0  0  0  0  0  0  0  0  0
   26.9529   -8.1504   -3.0677 C   0  0  2  0  0  0  0  0  0  0  0  0
   27.8670   -8.4588   -2.0202 N   0  0  0  0  0  0  0  0  0  0  0  0
   27.1541  -11.0859   -2.2596 C   0  0  2  0  0  0  0  0  0  0  0  0
   21.1136   -6.2988   -5.5854 C   0  0  2  0  0  0  0  0  0  0  0  0
   20.5753   -7.4857   -4.9239 N   0  0  0  0  0  0  0  0  0  0  0  0
   26.4518   -6.6672   -2.8987 C   0  0  0  0  0  0  0  0  0  0  0  0
   27.3240  -12.5146   -2.8429 C   0  0  2  0  0  0  0  0  0  0  0  0
   27.7752  -12.4074   -4.1738 O   0  0  0  0  0  0  0  0  0  0  0  0
   21.3105   -6.5361   -7.1322 C   0  0  0  0  0  0  0  0  0  0  0  0
   25.4366   -6.3280   -4.0648 C   0  0  2  0  0  0  0  0  0  0  0  0
   24.9605   -4.9383   -3.9090 N   0  0  0  0  0  0  0  0  0  0  0  0
   25.9253  -13.2458   -2.7644 C   0  0  1  0  0  0  0  0  0  0  0  0
   26.0337  -14.6181   -3.3354 N   0  0  0  0  0  0  0  0  0  0  0  0
   22.4386   -5.6330   -7.7508 C   0  0  0  0  0  0  0  0  0  0  0  0
   24.2161   -7.3417   -3.9974 C   0  0  2  0  0  0  0  0  0  0  0  0
   25.4481  -13.3426   -1.2108 C   0  0  1  0  0  0  0  0  0  0  0  0
   26.3374  -14.0775   -0.4058 O   0  0  0  0  0  0  0  0  0  0  0  0
   23.1918   -4.8314   -6.9831 C   0  0  1  0  0  0  0  0  0  0  0  0
   23.0139   -4.7467   -5.5829 O   0  0  0  0  0  0  0  0  0  0  0  0
   24.7455   -8.8141   -4.1479 C   0  0  2  0  0  0  0  0  0  0  0  0
   23.6444   -9.7178   -4.0746 O   0  0  0  0  0  0  0  0  0  0  0  0
   25.3463  -11.9011   -0.6230 C   0  0  0  0  0  0  0  0  0  0  0  0
   26.6452  -11.1516   -0.8413 O   0  0  0  0  0  0  0  0  0  0  0  0
   24.3155   -3.9437   -7.5528 C   0  0  0  0  0  0  0  0  0  0  0  0
   25.5919   -4.5363   -7.2183 N   0  0  0  0  0  0  0  0  0  0  0  0
   25.7609   -9.1265   -2.9846 C   0  0  1  0  0  0  0  0  0  0  0  0
   26.2224  -10.4352   -3.1496 O   0  0  0  0  0  0  0  0  0  0  0  0
   24.0983  -14.0326   -0.9679 C   0  0  0  0  0  0  0  0  0  0  0  0
   25.0087  -14.9933   -4.3216 C   0  0  0  0  0  0  0  0  0  0  0  0
  1  2  1  6  0  0  0
  1  6  1  0  0  0  0
  1 21  1  0  0  0  0
  3  4  1  1  0  0  0
  3  8  1  0  0  0  0
  3 28  1  0  0  0  0
  5  9  1  0  0  0  0
  5 25  1  0  0  0  0
  5 29  1  6  0  0  0
  6  7  1  1  0  0  0
  6 11  1  0  0  0  0
  8 12  1  0  0  0  0
  9 10  1  6  0  0  0
  9 14  1  0  0  0  0
 11 16  1  0  0  0  0
 12 13  1  1  0  0  0
 12 17  1  0  0  0  0
 14 15  1  1  0  0  0
 14 18  1  0  0  0  0
 15 31  1  0  0  0  0
 16 20  1  0  0  0  0
 17  2  1  6  0  0  0
 17 22  1  0  0  0  0
 18 19  1  1  0  0  0
 18 24  1  0  0  0  0
 18 30  1  0  0  0  0
 20 21  1  0  0  0  0
 20 26  1  1  0  0  0
 22 23  1  1  0  0  0
 22 28  1  0  0  0  0
 24 25  1  0  0  0  0
 26 27  1  0  0  0  0
 28 29  1  6  0  0  0
M  END
>  <CHROM.1>
-144.78500380,178.76268698,-130.74153312,-75.46984019,-105.20093949,61.98132998
24.86866249,-9.09090393,-3.88165000,1.93849970,-0.48028964,-0.31111049

>  <Name>
ligand

>  <RI>
0

>  <Rbt.Current_Directory>
/home/itssahil/PROJECTS/Mol_Feturizer/New_Systems/rnas/4F8V

>  <Rbt.Executable>
rbdock ($Id: //depot/dev/client3/rdock/2013.1/src/exe/rbdock.cxx#4 $)

>  <Rbt.Library>
libRbt.so (2013.1, Build901 2013/11/27)

>  <Rbt.Parameter_File>
/export/apps/rDock/src/rDock_2013.1_src/data/scripts/dock_solv.prm

>  <Rbt.Receptor>
prm/pocket_docking_8.prm

>  <SCORE>
-7.03362

>  <SCORE.INTER>
-6.50605

>  <SCORE.INTER.CONST>
1

>  <SCORE.INTER.POLAR>
0

>  <SCORE.INTER.ROT>
6

>  <SCORE.INTER.SOLV>
8.10654

>  <SCORE.INTER.VDW>
-14.6395

>  <SCORE.INTER.norm>
-0.209872

>  <SCORE.INTRA>
-0.527579

>  <SCORE.INTRA.DIHEDRAL>
-7.13137

>  <SCORE.INTRA.DIHEDRAL.0>
15.9129

>  <SCORE.INTRA.POLAR>
0

>  <SCORE.INTRA.POLAR.0>
0

>  <SCORE.INTRA.REPUL>
0

>  <SCORE.INTRA.REPUL.0>
0

>  <SCORE.INTRA.SOLV>
2.95495

>  <SCORE.INTRA.SOLV.lig_0>
-75.7056

>  <SCORE.INTRA.VDW>
1.56063

>  <SCORE.INTRA.VDW.0>
-4.61812

>  <SCORE.INTRA.norm>
-0.0170187

>  <SCORE.RESTR>
0

>  <SCORE.RESTR.CAVITY>
0

>  <SCORE.RESTR.norm>
0

>  <SCORE.SYSTEM>
0

>  <SCORE.SYSTEM.CONST>
0

>  <SCORE.SYSTEM.DIHEDRAL>
0

>  <SCORE.SYSTEM.SOLV>
0

>  <SCORE.SYSTEM.norm>
0

>  <SCORE.heavy>
31

>  <SCORE.norm>
-0.226891

>  <RMSD>
5.140

$$$$
ligand
 OpenBabel11021811493D
libRbt.so/2013.1/901 2013/11/27
 31 33  0  0  0  0  0  0  0  0999 V2000
   21.8569   -8.1962   -5.4137 C   0  0  2  0  0  0  0  0  0  0  0  0
   22.0207   -8.9975   -6.5916 O   0  0  0  0  0  0  0  0  0  0  0  0
   25.0141  -11.8307   -7.6876 C   0  0  2  0  0  0  0  0  0  0  0  0
   26.2980  -12.3855   -7.9553 N   0  0  0  0  0  0  0  0  0  0  0  0
   26.4736  -13.0945   -5.2414 C   0  0  2  0  0  0  0  0  0  0  0  0
   20.3262   -7.9490   -5.2417 C   0  0  2  0  0  0  0  0  0  0  0  0
   19.6439   -9.2389   -5.1586 N   0  0  0  0  0  0  0  0  0  0  0  0
   24.7484  -10.6364   -8.6788 C   0  0  0  0  0  0  0  0  0  0  0  0
   26.1399  -14.3764   -4.4315 C   0  0  2  0  0  0  0  0  0  0  0  0
   25.1471  -15.1002   -5.1220 O   0  0  0  0  0  0  0  0  0  0  0  0
   19.7757   -7.0777   -6.4357 C   0  0  0  0  0  0  0  0  0  0  0  0
   23.3205  -10.0227   -8.3787 C   0  0  2  0  0  0  0  0  0  0  0  0
   23.0675   -8.8993   -9.3039 N   0  0  0  0  0  0  0  0  0  0  0  0
   25.6414  -13.9350   -2.9983 C   0  0  1  0  0  0  0  0  0  0  0  0
   25.2867  -15.1351   -2.1890 N   0  0  0  0  0  0  0  0  0  0  0  0
   20.8348   -6.0542   -6.9850 C   0  0  0  0  0  0  0  0  0  0  0  0
   23.2816   -9.5191   -6.8732 C   0  0  2  0  0  0  0  0  0  0  0  0
   26.8203  -13.1032   -2.2442 C   0  0  1  0  0  0  0  0  0  0  0  0
   27.9919  -13.8580   -2.0530 O   0  0  0  0  0  0  0  0  0  0  0  0
   22.0920   -6.0310   -6.5179 C   0  0  1  0  0  0  0  0  0  0  0  0
   22.5352   -6.9147   -5.5070 O   0  0  0  0  0  0  0  0  0  0  0  0
   23.5697  -10.7249   -5.9069 C   0  0  2  0  0  0  0  0  0  0  0  0
   23.5442  -10.2611   -4.5582 O   0  0  0  0  0  0  0  0  0  0  0  0
   27.1875  -11.8548   -3.1048 C   0  0  0  0  0  0  0  0  0  0  0  0
   27.5154  -12.2730   -4.5241 O   0  0  0  0  0  0  0  0  0  0  0  0
   23.1602   -5.0518   -7.0428 C   0  0  0  0  0  0  0  0  0  0  0  0
   23.7664   -4.3763   -5.9166 N   0  0  0  0  0  0  0  0  0  0  0  0
   24.9895  -11.3263   -6.2296 C   0  0  1  0  0  0  0  0  0  0  0  0
   25.2139  -12.4008   -5.3647 O   0  0  0  0  0  0  0  0  0  0  0  0
   26.4869  -12.6033   -0.8313 C   0  0  0  0  0  0  0  0  0  0  0  0
   23.9047  -15.6214   -2.3210 C   0  0  0  0  0  0  0  0  0  0  0  0
  1  2  1  6  0  0  0
  1  6  1  0  0  0  0
  1 21  1  0  0  0  0
  3  4  1  6  0  0  0
  3  8  1  0  0  0  0
  3 28  1  0  0  0  0
  5  9  1  0  0  0  0
  5 25  1  0  0  0  0
  5 29  1  1  0  0  0
  6  7  1  6  0  0  0
  6 11  1  0  0  0  0
  8 12  1  0  0  0  0
  9 10  1  6  0  0  0
  9 14  1  0  0  0  0
 11 16  1  0  0  0  0
 12 13  1  6  0  0  0
 12 17  1  0  0  0  0
 14 15  1  1  0  0  0
 14 18  1  0  0  0  0
 15 31  1  0  0  0  0
 16 20  1  0  0  0  0
 17  2  1  1  0  0  0
 17 22  1  0  0  0  0
 18 19  1  1  0  0  0
 18 24  1  0  0  0  0
 18 30  1  0  0  0  0
 20 21  1  0  0  0  0
 20 26  1  6  0  0  0
 22 23  1  1  0  0  0
 22 28  1  0  0  0  0
 24 25  1  0  0  0  0
 26 27  1  0  0  0  0
 28 29  1  1  0  0  0
M  END
>  <CHROM.1>
-171.24457296,-167.37843093,-88.06659211,-164.93783758,128.70877930,69.24642113
24.13969017,-10.63711374,-5.34665935,2.54307391,0.92488782,-1.31804423

>  <Name>
ligand

>  <RI>
0

>  <Rbt.Current_Directory>
/home/itssahil/PROJECTS/Mol_Feturizer/New_Systems/rnas/4F8V

>  <Rbt.Executable>
rbdock ($Id: //depot/dev/client3/rdock/2013.1/src/exe/rbdock.cxx#4 $)

>  <Rbt.Library>
libRbt.so (2013.1, Build901 2013/11/27)

>  <Rbt.Parameter_File>
/export/apps/rDock/src/rDock_2013.1_src/data/scripts/dock_solv.prm

>  <Rbt.Receptor>
prm/pocket_docking_7.prm

>  <SCORE>
-10.9744

>  <SCORE.INTER>
-6.39388

>  <SCORE.INTER.CONST>
1

>  <SCORE.INTER.POLAR>
0

>  <SCORE.INTER.ROT>
6

>  <SCORE.INTER.SOLV>
9.88909

>  <SCORE.INTER.VDW>
-15.159

>  <SCORE.INTER.norm>
-0.206254

>  <SCORE.INTRA>
-4.58053

>  <SCORE.INTRA.DIHEDRAL>
-10.9855

>  <SCORE.INTRA.DIHEDRAL.0>
15.9129

>  <SCORE.INTRA.POLAR>
0

>  <SCORE.INTRA.POLAR.0>
0

>  <SCORE.INTRA.REPUL>
0

>  <SCORE.INTRA.REPUL.0>
0

>  <SCORE.INTRA.SOLV>
-1.68891

>  <SCORE.INTRA.SOLV.lig_0>
-75.7056

>  <SCORE.INTRA.VDW>
1.7567

>  <SCORE.INTRA.VDW.0>
-4.61812

>  <SCORE.INTRA.norm>
-0.147759

>  <SCORE.RESTR>
0

>  <SCORE.RESTR.CAVITY>
0

>  <SCORE.RESTR.norm>
0

>  <SCORE.SYSTEM>
0

>  <SCORE.SYSTEM.CONST>
0

>  <SCORE.SYSTEM.DIHEDRAL>
0

>  <SCORE.SYSTEM.SOLV>
0

>  <SCORE.SYSTEM.norm>
0

>  <SCORE.heavy>
31

>  <SCORE.norm>
-0.354013

>  <RMSD>
5.147

$$$$
ligand
 OpenBabel11021811493D
libRbt.so/2013.1/901 2013/11/27
 31 33  0  0  0  0  0  0  0  0999 V2000
   22.2620   -8.3137   -6.0219 C   0  0  2  0  0  0  0  0  0  0  0  0
   21.9204   -9.0721   -7.1900 O   0  0  0  0  0  0  0  0  0  0  0  0
   22.8400  -13.1145   -8.1913 C   0  0  2  0  0  0  0  0  0  0  0  0
   23.6032  -14.2802   -8.4853 N   0  0  0  0  0  0  0  0  0  0  0  0
   23.5024  -14.9240   -5.8704 C   0  0  2  0  0  0  0  0  0  0  0  0
   21.0685   -7.3489   -5.7417 C   0  0  2  0  0  0  0  0  0  0  0  0
   19.8492   -8.1378   -5.5781 N   0  0  0  0  0  0  0  0  0  0  0  0
   23.1368  -12.0130   -9.2767 C   0  0  0  0  0  0  0  0  0  0  0  0
   22.9882  -15.5872   -4.5641 C   0  0  2  0  0  0  0  0  0  0  0  0
   21.5798  -15.5366   -4.5570 O   0  0  0  0  0  0  0  0  0  0  0  0
   20.9278   -6.2996   -6.9109 C   0  0  0  0  0  0  0  0  0  0  0  0
   22.2865  -10.7192   -8.9470 C   0  0  2  0  0  0  0  0  0  0  0  0
   22.5639   -9.6811   -9.9607 N   0  0  0  0  0  0  0  0  0  0  0  0
   23.6008  -14.7982   -3.3396 C   0  0  1  0  0  0  0  0  0  0  0  0
   23.1161  -15.3866   -2.0590 N   0  0  0  0  0  0  0  0  0  0  0  0
   22.3076   -5.9200   -7.5614 C   0  0  0  0  0  0  0  0  0  0  0  0
   22.6801  -10.1982   -7.4995 C   0  0  2  0  0  0  0  0  0  0  0  0
   25.2256  -14.8849   -3.3940 C   0  0  1  0  0  0  0  0  0  0  0  0
   25.7103  -16.2029   -3.3124 O   0  0  0  0  0  0  0  0  0  0  0  0
   23.4454   -6.5256   -7.1902 C   0  0  1  0  0  0  0  0  0  0  0  0
   23.4730   -7.5298   -6.1951 O   0  0  0  0  0  0  0  0  0  0  0  0
   22.3935  -11.3226   -6.4392 C   0  0  2  0  0  0  0  0  0  0  0  0
   22.7607  -10.8502   -5.1443 O   0  0  0  0  0  0  0  0  0  0  0  0
   25.7192  -14.2734   -4.7417 C   0  0  0  0  0  0  0  0  0  0  0  0
   25.0102  -14.9315   -5.9083 O   0  0  0  0  0  0  0  0  0  0  0  0
   24.8132   -6.1894   -7.8160 C   0  0  0  0  0  0  0  0  0  0  0  0
   25.3719   -7.3943   -8.3890 N   0  0  0  0  0  0  0  0  0  0  0  0
   23.2410  -12.6029   -6.7920 C   0  0  1  0  0  0  0  0  0  0  0  0
   22.9587  -13.5873   -5.8412 O   0  0  0  0  0  0  0  0  0  0  0  0
   25.9718  -14.1628   -2.2630 C   0  0  0  0  0  0  0  0  0  0  0  0
   22.7609  -14.4304   -0.9991 C   0  0  0  0  0  0  0  0  0  0  0  0
  1  2  1  6  0  0  0
  1  6  1  0  0  0  0
  1 21  1  0  0  0  0
  3  4  1  6  0  0  0
  3  8  1  0  0  0  0
  3 28  1  0  0  0  0
  5  9  1  0  0  0  0
  5 25  1  0  0  0  0
  5 29  1  1  0  0  0
  6  7  1  6  0  0  0
  6 11  1  0  0  0  0
  8 12  1  0  0  0  0
  9 10  1  1  0  0  0
  9 14  1  0  0  0  0
 11 16  1  0  0  0  0
 12 13  1  6  0  0  0
 12 17  1  0  0  0  0
 14 15  1  1  0  0  0
 14 18  1  0  0  0  0
 15 31  1  0  0  0  0
 16 20  1  0  0  0  0
 17  2  1  1  0  0  0
 17 22  1  0  0  0  0
 18 19  1  1  0  0  0
 18 24  1  0  0  0  0
 18 30  1  0  0  0  0
 20 21  1  0  0  0  0
 20 26  1  6  0  0  0
 22 23  1  1  0  0  0
 22 28  1  0  0  0  0
 24 25  1  0  0  0  0
 26 27  1  0  0  0  0
 28 29  1  1  0  0  0
M  END
>  <CHROM.1>
-166.73601847,175.73104031,-139.18710728,-170.17859798,-121.82981608,57.97834849
23.20838815,-11.52332138,-5.96949263,2.42229076,1.33800127,-1.28018966

>  <Name>
ligand

>  <RI>
0

>  <Rbt.Current_Directory>
/home/itssahil/PROJECTS/Mol_Feturizer/New_Systems/rnas/4F8V

>  <Rbt.Executable>
rbdock ($Id: //depot/dev/client3/rdock/2013.1/src/exe/rbdock.cxx#4 $)

>  <Rbt.Library>
libRbt.so (2013.1, Build901 2013/11/27)

>  <Rbt.Parameter_File>
/export/apps/rDock/src/rDock_2013.1_src/data/scripts/dock_solv.prm

>  <Rbt.Receptor>
prm/pocket_docking_6.prm

>  <SCORE>
-8.95863

>  <SCORE.INTER>
-5.21048

>  <SCORE.INTER.CONST>
1

>  <SCORE.INTER.POLAR>
0

>  <SCORE.INTER.ROT>
6

>  <SCORE.INTER.SOLV>
11.1144

>  <SCORE.INTER.VDW>
-14.7785

>  <SCORE.INTER.norm>
-0.16808

>  <SCORE.INTRA>
-3.74815

>  <SCORE.INTRA.DIHEDRAL>
-11.8945

>  <SCORE.INTRA.DIHEDRAL.0>
15.9129

>  <SCORE.INTRA.POLAR>
0

>  <SCORE.INTRA.POLAR.0>
0

>  <SCORE.INTRA.REPUL>
0

>  <SCORE.INTRA.REPUL.0>
0

>  <SCORE.INTRA.SOLV>
-0.19769

>  <SCORE.INTRA.SOLV.lig_0>
-75.7056

>  <SCORE.INTRA.VDW>
2.29796

>  <SCORE.INTRA.VDW.0>
-4.61812

>  <SCORE.INTRA.norm>
-0.120908

>  <SCORE.RESTR>
0

>  <SCORE.RESTR.CAVITY>
0

>  <SCORE.RESTR.norm>
0

>  <SCORE.SYSTEM>
0

>  <SCORE.SYSTEM.CONST>
0

>  <SCORE.SYSTEM.DIHEDRAL>
0

>  <SCORE.SYSTEM.SOLV>
0

>  <SCORE.SYSTEM.norm>
0

>  <SCORE.heavy>
31

>  <SCORE.norm>
-0.288988

>  <RMSD>
5.153

$$$$
ligand
 OpenBabel11021811493D
libRbt.so/2013.1/901 2013/11/27
 31 33  0  0  0  0  0  0  0  0999 V2000
   21.8671   -8.0882   -5.4047 C   0  0  2  0  0  0  0  0  0  0  0  0
   22.0701   -8.8802   -6.5828 O   0  0  0  0  0  0  0  0  0  0  0  0
   25.1060  -11.6979   -7.5988 C   0  0  2  0  0  0  0  0  0  0  0  0
   26.3995  -12.2467   -7.8303 N   0  0  0  0  0  0  0  0  0  0  0  0
   26.4909  -12.9807   -5.1340 C   0  0  2  0  0  0  0  0  0  0  0  0
   20.3365   -7.8023   -5.3079 C   0  0  2  0  0  0  0  0  0  0  0  0
   19.6174   -9.0743   -5.2761 N   0  0  0  0  0  0  0  0  0  0  0  0
   24.8647  -10.5016   -8.5939 C   0  0  0  0  0  0  0  0  0  0  0  0
   26.1300  -14.2719   -4.3512 C   0  0  2  0  0  0  0  0  0  0  0  0
   25.1460  -14.9767   -5.0732 O   0  0  0  0  0  0  0  0  0  0  0  0
   19.8709   -6.9030   -6.5171 C   0  0  0  0  0  0  0  0  0  0  0  0
   23.4261   -9.8945   -8.3340 C   0  0  2  0  0  0  0  0  0  0  0  0
   23.1958   -8.7692   -9.2628 N   0  0  0  0  0  0  0  0  0  0  0  0
   25.6052  -13.8482   -2.9220 C   0  0  1  0  0  0  0  0  0  0  0  0
   25.2239  -15.0575   -2.1389 N   0  0  0  0  0  0  0  0  0  0  0  0
   20.9832   -5.9020   -6.9987 C   0  0  0  0  0  0  0  0  0  0  0  0
   23.3408   -9.3958   -6.8287 C   0  0  2  0  0  0  0  0  0  0  0  0
   26.7748  -13.0379   -2.1308 C   0  0  1  0  0  0  0  0  0  0  0  0
   27.9359  -13.8054   -1.9270 O   0  0  0  0  0  0  0  0  0  0  0  0
   22.2149   -5.9177   -6.4678 C   0  0  1  0  0  0  0  0  0  0  0  0
   22.5824   -6.8243   -5.4470 O   0  0  0  0  0  0  0  0  0  0  0  0
   23.6054  -10.6035   -5.8581 C   0  0  2  0  0  0  0  0  0  0  0  0
   23.5383  -10.1441   -4.5093 O   0  0  0  0  0  0  0  0  0  0  0  0
   27.1699  -11.7797   -2.9642 C   0  0  0  0  0  0  0  0  0  0  0  0
   27.5241  -12.1789   -4.3827 O   0  0  0  0  0  0  0  0  0  0  0  0
   23.3338   -4.9615   -6.9251 C   0  0  0  0  0  0  0  0  0  0  0  0
   23.9104   -4.3280   -5.7595 N   0  0  0  0  0  0  0  0  0  0  0  0
   25.0365  -11.1983   -6.1407 C   0  0  1  0  0  0  0  0  0  0  0  0
   25.2397  -12.2746   -5.2728 O   0  0  0  0  0  0  0  0  0  0  0  0
   26.4159  -12.5569   -0.7176 C   0  0  0  0  0  0  0  0  0  0  0  0
   23.8563  -15.5587   -2.3440 C   0  0  0  0  0  0  0  0  0  0  0  0
  1  2  1  6  0  0  0
  1  6  1  0  0  0  0
  1 21  1  0  0  0  0
  3  4  1  6  0  0  0
  3  8  1  0  0  0  0
  3 28  1  0  0  0  0
  5  9  1  0  0  0  0
  5 25  1  0  0  0  0
  5 29  1  1  0  0  0
  6  7  1  6  0  0  0
  6 11  1  0  0  0  0
  8 12  1  0  0  0  0
  9 10  1  6  0  0  0
  9 14  1  0  0  0  0
 11 16  1  0  0  0  0
 12 13  1  6  0  0  0
 12 17  1  0  0  0  0
 14 15  1  1  0  0  0
 14 18  1  0  0  0  0
 15 31  1  0  0  0  0
 16 20  1  0  0  0  0
 17  2  1  1  0  0  0
 17 22  1  0  0  0  0
 18 19  1  1  0  0  0
 18 24  1  0  0  0  0
 18 30  1  0  0  0  0
 20 21  1  0  0  0  0
 20 26  1  6  0  0  0
 22 23  1  1  0  0  0
 22 28  1  0  0  0  0
 24 25  1  0  0  0  0
 26 27  1  0  0  0  0
 28 29  1  1  0  0  0
M  END
>  <CHROM.1>
-173.30498824,-166.34725682,-85.93399171,-165.21124206,129.43227683,67.95899237
24.17599908,-10.52828845,-5.28802059,2.51288536,0.92667709,-1.29398659

>  <Name>
ligand

>  <RI>
0

>  <Rbt.Current_Directory>
/home/itssahil/PROJECTS/Mol_Feturizer/New_Systems/rnas/4F8V

>  <Rbt.Executable>
rbdock ($Id: //depot/dev/client3/rdock/2013.1/src/exe/rbdock.cxx#4 $)

>  <Rbt.Library>
libRbt.so (2013.1, Build901 2013/11/27)

>  <Rbt.Parameter_File>
/export/apps/rDock/src/rDock_2013.1_src/data/scripts/dock_solv.prm

>  <Rbt.Receptor>
prm/pocket_docking_6.prm

>  <SCORE>
-10.9619

>  <SCORE.INTER>
-6.37555

>  <SCORE.INTER.CONST>
1

>  <SCORE.INTER.POLAR>
0

>  <SCORE.INTER.ROT>
6

>  <SCORE.INTER.SOLV>
9.60623

>  <SCORE.INTER.VDW>
-15.0524

>  <SCORE.INTER.norm>
-0.205663

>  <SCORE.INTRA>
-4.58638

>  <SCORE.INTRA.DIHEDRAL>
-11.2062

>  <SCORE.INTRA.DIHEDRAL.0>
15.9129

>  <SCORE.INTRA.POLAR>
0

>  <SCORE.INTRA.POLAR.0>
0

>  <SCORE.INTRA.REPUL>
0

>  <SCORE.INTRA.REPUL.0>
0

>  <SCORE.INTRA.SOLV>
-1.70729

>  <SCORE.INTRA.SOLV.lig_0>
-75.7056

>  <SCORE.INTRA.VDW>
1.87037

>  <SCORE.INTRA.VDW.0>
-4.61812

>  <SCORE.INTRA.norm>
-0.147948

>  <SCORE.RESTR>
0

>  <SCORE.RESTR.CAVITY>
0

>  <SCORE.RESTR.norm>
0

>  <SCORE.SYSTEM>
0

>  <SCORE.SYSTEM.CONST>
0

>  <SCORE.SYSTEM.DIHEDRAL>
0

>  <SCORE.SYSTEM.SOLV>
0

>  <SCORE.SYSTEM.norm>
0

>  <SCORE.heavy>
31

>  <SCORE.norm>
-0.353611

>  <RMSD>
5.161

$$$$
ligand
 OpenBabel11021811493D
libRbt.so/2013.1/901 2013/11/27
 31 33  0  0  0  0  0  0  0  0999 V2000
   20.8606   -8.4294   -5.6343 C   0  0  2  0  0  0  0  0  0  0  0  0
   21.2879   -8.7707   -6.9599 O   0  0  0  0  0  0  0  0  0  0  0  0
   24.1344  -11.6051   -8.3924 C   0  0  2  0  0  0  0  0  0  0  0  0
   25.3651  -12.3044   -8.5482 N   0  0  0  0  0  0  0  0  0  0  0  0
   24.5807  -13.9990   -6.4490 C   0  0  2  0  0  0  0  0  0  0  0  0
   19.3845   -7.9371   -5.7455 C   0  0  2  0  0  0  0  0  0  0  0  0
   18.5774   -8.9919   -6.3554 N   0  0  0  0  0  0  0  0  0  0  0  0
   24.3369  -10.1001   -8.8090 C   0  0  0  0  0  0  0  0  0  0  0  0
   23.8643  -15.3760   -6.4143 C   0  0  2  0  0  0  0  0  0  0  0  0
   23.0896  -15.5106   -7.5839 O   0  0  0  0  0  0  0  0  0  0  0  0
   19.3157   -6.5994   -6.5783 C   0  0  0  0  0  0  0  0  0  0  0  0
   22.9671   -9.3263   -8.6350 C   0  0  2  0  0  0  0  0  0  0  0  0
   23.1523   -7.9125   -9.0213 N   0  0  0  0  0  0  0  0  0  0  0  0
   22.9645  -15.4279   -5.1163 C   0  0  1  0  0  0  0  0  0  0  0  0
   22.2371  -16.7270   -5.0508 N   0  0  0  0  0  0  0  0  0  0  0  0
   20.5927   -5.7006   -6.3986 C   0  0  0  0  0  0  0  0  0  0  0  0
   22.5051   -9.4296   -7.1192 C   0  0  2  0  0  0  0  0  0  0  0  0
   23.9035  -15.2666   -3.7961 C   0  0  1  0  0  0  0  0  0  0  0  0
   24.8587  -16.2916   -3.6705 O   0  0  0  0  0  0  0  0  0  0  0  0
   21.6448   -6.1173   -5.6784 C   0  0  1  0  0  0  0  0  0  0  0  0
   21.6661   -7.3775   -5.0377 O   0  0  0  0  0  0  0  0  0  0  0  0
   22.3304  -10.9409   -6.7238 C   0  0  2  0  0  0  0  0  0  0  0  0
   21.9267  -11.0243   -5.3582 O   0  0  0  0  0  0  0  0  0  0  0  0
   24.6647  -13.9075   -3.8807 C   0  0  0  0  0  0  0  0  0  0  0  0
   25.4025  -13.7996   -5.2001 O   0  0  0  0  0  0  0  0  0  0  0  0
   22.9185   -5.2694   -5.4929 C   0  0  0  0  0  0  0  0  0  0  0  0
   24.0446   -5.9952   -6.0383 N   0  0  0  0  0  0  0  0  0  0  0  0
   23.7013  -11.6934   -6.9142 C   0  0  1  0  0  0  0  0  0  0  0  0
   23.5139  -13.0338   -6.5663 O   0  0  0  0  0  0  0  0  0  0  0  0
   23.1712  -15.2981   -2.4470 C   0  0  0  0  0  0  0  0  0  0  0  0
   21.0763  -16.8664   -5.9435 C   0  0  0  0  0  0  0  0  0  0  0  0
  1  2  1  6  0  0  0
  1  6  1  0  0  0  0
  1 21  1  0  0  0  0
  3  4  1  1  0  0  0
  3  8  1  0  0  0  0
  3 28  1  0  0  0  0
  5  9  1  0  0  0  0
  5 25  1  0  0  0  0
  5 29  1  1  0  0  0
  6  7  1  6  0  0  0
  6 11  1  0  0  0  0
  8 12  1  0  0  0  0
  9 10  1  6  0  0  0
  9 14  1  0  0  0  0
 11 16  1  0  0  0  0
 12 13  1  1  0  0  0
 12 17  1  0  0  0  0
 14 15  1  1  0  0  0
 14 18  1  0  0  0  0
 15 31  1  0  0  0  0
 16 20  1  0  0  0  0
 17  2  1  6  0  0  0
 17 22  1  0  0  0  0
 18 19  1  6  0  0  0
 18 24  1  0  0  0  0
 18 30  1  0  0  0  0
 20 21  1  0  0  0  0
 20 26  1  6  0  0  0
 22 23  1  1  0  0  0
 22 28  1  0  0  0  0
 24 25  1  0  0  0  0
 26 27  1  0  0  0  0
 28 29  1  6  0  0  0
M  END
>  <CHROM.1>
-170.47067844,-165.82938760,-76.47712956,-163.61039344,-119.31298460,69.16339278
22.71726081,-11.23860807,-6.15681932,1.89628018,0.67687343,-0.35888076

>  <Name>
ligand

>  <RI>
0

>  <Rbt.Current_Directory>
/home/itssahil/PROJECTS/Mol_Feturizer/New_Systems/rnas/4F8V

>  <Rbt.Executable>
rbdock ($Id: //depot/dev/client3/rdock/2013.1/src/exe/rbdock.cxx#4 $)

>  <Rbt.Library>
libRbt.so (2013.1, Build901 2013/11/27)

>  <Rbt.Parameter_File>
/export/apps/rDock/src/rDock_2013.1_src/data/scripts/dock_solv.prm

>  <Rbt.Receptor>
prm/pocket_docking_8.prm

>  <SCORE>
-9.59377

>  <SCORE.INTER>
-6.26863

>  <SCORE.INTER.CONST>
1

>  <SCORE.INTER.POLAR>
0

>  <SCORE.INTER.ROT>
6

>  <SCORE.INTER.SOLV>
13.046

>  <SCORE.INTER.VDW>
-16.1278

>  <SCORE.INTER.norm>
-0.202214

>  <SCORE.INTRA>
-3.32514

>  <SCORE.INTRA.DIHEDRAL>
-10.9816

>  <SCORE.INTRA.DIHEDRAL.0>
15.9129

>  <SCORE.INTRA.POLAR>
0

>  <SCORE.INTRA.POLAR.0>
0

>  <SCORE.INTRA.REPUL>
0

>  <SCORE.INTRA.REPUL.0>
0

>  <SCORE.INTRA.SOLV>
0.419185

>  <SCORE.INTRA.SOLV.lig_0>
-75.7056

>  <SCORE.INTRA.VDW>
1.95605

>  <SCORE.INTRA.VDW.0>
-4.61812

>  <SCORE.INTRA.norm>
-0.107262

>  <SCORE.RESTR>
0

>  <SCORE.RESTR.CAVITY>
0

>  <SCORE.RESTR.norm>
0

>  <SCORE.SYSTEM>
0

>  <SCORE.SYSTEM.CONST>
0

>  <SCORE.SYSTEM.DIHEDRAL>
0

>  <SCORE.SYSTEM.SOLV>
0

>  <SCORE.SYSTEM.norm>
0

>  <SCORE.heavy>
31

>  <SCORE.norm>
-0.309476

>  <RMSD>
5.190

$$$$
ligand
 OpenBabel11021811493D
libRbt.so/2013.1/901 2013/11/27
 31 33  0  0  0  0  0  0  0  0999 V2000
   24.4886   -9.0673   -3.5335 C   0  0  2  0  0  0  0  0  0  0  0  0
   25.6744   -9.4133   -2.8051 O   0  0  0  0  0  0  0  0  0  0  0  0
   27.0685  -13.3098   -1.7746 C   0  0  2  0  0  0  0  0  0  0  0  0
   27.1257  -14.5903   -1.1540 N   0  0  0  0  0  0  0  0  0  0  0  0
   25.2669  -15.5451   -3.2925 C   0  0  2  0  0  0  0  0  0  0  0  0
   24.7046   -7.6280   -4.0954 C   0  0  2  0  0  0  0  0  0  0  0  0
   25.9101   -7.6174   -4.9217 N   0  0  0  0  0  0  0  0  0  0  0  0
   27.1535  -12.1930   -0.6678 C   0  0  0  0  0  0  0  0  0  0  0  0
   25.1758  -16.1814   -4.7057 C   0  0  2  0  0  0  0  0  0  0  0  0
   26.4315  -16.0638   -5.3349 O   0  0  0  0  0  0  0  0  0  0  0  0
   24.8028   -6.5887   -2.9131 C   0  0  0  0  0  0  0  0  0  0  0  0
   27.0901  -10.7715   -1.3611 C   0  0  2  0  0  0  0  0  0  0  0  0
   27.1660   -9.7197   -0.3266 N   0  0  0  0  0  0  0  0  0  0  0  0
   24.0511  -15.4209   -5.5143 C   0  0  1  0  0  0  0  0  0  0  0  0
   23.9417  -15.9840   -6.8898 N   0  0  0  0  0  0  0  0  0  0  0  0
   23.9243   -6.9888   -1.6725 C   0  0  0  0  0  0  0  0  0  0  0  0
   25.7298  -10.6530   -2.1718 C   0  0  2  0  0  0  0  0  0  0  0  0
   22.6242  -15.5850   -4.7477 C   0  0  1  0  0  0  0  0  0  0  0  0
   22.2096  -16.9245   -4.6354 O   0  0  0  0  0  0  0  0  0  0  0  0
   23.2559   -8.1512   -1.6351 C   0  0  1  0  0  0  0  0  0  0  0  0
   23.2962   -9.0767   -2.7033 O   0  0  0  0  0  0  0  0  0  0  0  0
   25.6615  -11.7903   -3.2547 C   0  0  2  0  0  0  0  0  0  0  0  0
   24.4318  -11.6831   -3.9698 O   0  0  0  0  0  0  0  0  0  0  0  0
   22.7543  -14.9993   -3.3076 C   0  0  0  0  0  0  0  0  0  0  0  0
   23.9342  -15.6243   -2.5907 O   0  0  0  0  0  0  0  0  0  0  0  0
   22.3972   -8.5825   -0.4302 C   0  0  0  0  0  0  0  0  0  0  0  0
   21.0823   -8.9544   -0.9047 N   0  0  0  0  0  0  0  0  0  0  0  0
   25.7364  -13.1944   -2.5444 C   0  0  1  0  0  0  0  0  0  0  0  0
   25.6845  -14.1840   -3.5298 O   0  0  0  0  0  0  0  0  0  0  0  0
   21.4241  -14.8978   -5.4148 C   0  0  0  0  0  0  0  0  0  0  0  0
   24.7410  -15.3172   -7.9292 C   0  0  0  0  0  0  0  0  0  0  0  0
  1  2  1  1  0  0  0
  1  6  1  0  0  0  0
  1 21  1  0  0  0  0
  3  4  1  1  0  0  0
  3  8  1  0  0  0  0
  3 28  1  0  0  0  0
  5  9  1  0  0  0  0
  5 25  1  0  0  0  0
  5 29  1  6  0  0  0
  6  7  1  1  0  0  0
  6 11  1  0  0  0  0
  8 12  1  0  0  0  0
  9 10  1  6  0  0  0
  9 14  1  0  0  0  0
 11 16  1  0  0  0  0
 12 13  1  1  0  0  0
 12 17  1  0  0  0  0
 14 15  1  6  0  0  0
 14 18  1  0  0  0  0
 15 31  1  0  0  0  0
 16 20  1  0  0  0  0
 17  2  1  6  0  0  0
 17 22  1  0  0  0  0
 18 19  1  1  0  0  0
 18 24  1  0  0  0  0
 18 30  1  0  0  0  0
 20 21  1  0  0  0  0
 20 26  1  1  0  0  0
 22 23  1  1  0  0  0
 22 28  1  0  0  0  0
 24 25  1  0  0  0  0
 26 27  1  0  0  0  0
 28 29  1  6  0  0  0
M  END
>  <CHROM.1>
178.69357596,171.78454943,-92.84659596,-176.47230570,128.19936083,83.44905558
24.65699030,-12.18978879,-3.27539902,1.52345605,-0.54827747,0.33347944

>  <Name>
ligand

>  <RI>
0

>  <Rbt.Current_Directory>
/home/itssahil/PROJECTS/Mol_Feturizer/New_Systems/rnas/4F8V

>  <Rbt.Executable>
rbdock ($Id: //depot/dev/client3/rdock/2013.1/src/exe/rbdock.cxx#4 $)

>  <Rbt.Library>
libRbt.so (2013.1, Build901 2013/11/27)

>  <Rbt.Parameter_File>
/export/apps/rDock/src/rDock_2013.1_src/data/scripts/dock_solv.prm

>  <Rbt.Receptor>
prm/pocket_docking_6.prm

>  <SCORE>
-6.48105

>  <SCORE.INTER>
-1.57875

>  <SCORE.INTER.CONST>
1

>  <SCORE.INTER.POLAR>
0

>  <SCORE.INTER.ROT>
6

>  <SCORE.INTER.SOLV>
11.0943

>  <SCORE.INTER.VDW>
-12.3506

>  <SCORE.INTER.norm>
-0.0509274

>  <SCORE.INTRA>
-4.9023

>  <SCORE.INTRA.DIHEDRAL>
-10.6676

>  <SCORE.INTRA.DIHEDRAL.0>
15.9129

>  <SCORE.INTRA.POLAR>
0

>  <SCORE.INTRA.POLAR.0>
0

>  <SCORE.INTRA.REPUL>
0

>  <SCORE.INTRA.REPUL.0>
0

>  <SCORE.INTRA.SOLV>
-2.75668

>  <SCORE.INTRA.SOLV.lig_0>
-75.7056

>  <SCORE.INTRA.VDW>
1.80983

>  <SCORE.INTRA.VDW.0>
-4.61812

>  <SCORE.INTRA.norm>
-0.158139

>  <SCORE.RESTR>
0

>  <SCORE.RESTR.CAVITY>
0

>  <SCORE.RESTR.norm>
0

>  <SCORE.SYSTEM>
0

>  <SCORE.SYSTEM.CONST>
0

>  <SCORE.SYSTEM.DIHEDRAL>
0

>  <SCORE.SYSTEM.SOLV>
0

>  <SCORE.SYSTEM.norm>
0

>  <SCORE.heavy>
31

>  <SCORE.norm>
-0.209066

>  <RMSD>
5.252

$$$$
ligand
 OpenBabel11021811493D
libRbt.so/2013.1/901 2013/11/27
 31 33  0  0  0  0  0  0  0  0999 V2000
   21.8664   -7.9190   -5.3651 C   0  0  2  0  0  0  0  0  0  0  0  0
   22.1647   -8.6338   -6.5719 O   0  0  0  0  0  0  0  0  0  0  0  0
   25.3679  -11.2431   -7.6299 C   0  0  2  0  0  0  0  0  0  0  0  0
   26.6942  -11.7249   -7.8217 N   0  0  0  0  0  0  0  0  0  0  0  0
   26.6346  -12.7166   -5.2222 C   0  0  2  0  0  0  0  0  0  0  0  0
   20.3580   -7.5261   -5.4309 C   0  0  2  0  0  0  0  0  0  0  0  0
   19.5587   -8.7389   -5.5928 N   0  0  0  0  0  0  0  0  0  0  0  0
   25.1447   -9.9682   -8.5268 C   0  0  0  0  0  0  0  0  0  0  0  0
   26.2743  -14.0654   -4.5431 C   0  0  2  0  0  0  0  0  0  0  0  0
   25.3346  -14.7391   -5.3491 O   0  0  0  0  0  0  0  0  0  0  0  0
   20.1096   -6.5064   -6.6083 C   0  0  0  0  0  0  0  0  0  0  0  0
   23.6697   -9.4358   -8.3114 C   0  0  2  0  0  0  0  0  0  0  0  0
   23.4559   -8.2373   -9.1483 N   0  0  0  0  0  0  0  0  0  0  0  0
   25.6864  -13.7513   -3.1103 C   0  0  1  0  0  0  0  0  0  0  0  0
   25.3039  -15.0188   -2.4261 N   0  0  0  0  0  0  0  0  0  0  0  0
   21.3373   -5.5592   -6.8663 C   0  0  0  0  0  0  0  0  0  0  0  0
   23.4678   -9.0821   -6.7766 C   0  0  2  0  0  0  0  0  0  0  0  0
   26.8064  -12.9732   -2.2209 C   0  0  1  0  0  0  0  0  0  0  0  0
   27.9764  -13.7290   -2.0241 O   0  0  0  0  0  0  0  0  0  0  0  0
   22.4881   -5.7076   -6.1933 C   0  0  1  0  0  0  0  0  0  0  0  0
   22.6629   -6.7131   -5.2147 O   0  0  0  0  0  0  0  0  0  0  0  0
   23.7162  -10.3652   -5.9033 C   0  0  2  0  0  0  0  0  0  0  0  0
   23.5442  -10.0354   -4.5263 O   0  0  0  0  0  0  0  0  0  0  0  0
   27.2035  -11.6532   -2.9514 C   0  0  0  0  0  0  0  0  0  0  0  0
   27.6200  -11.9472   -4.3786 O   0  0  0  0  0  0  0  0  0  0  0  0
   23.7163   -4.8072   -6.4302 C   0  0  0  0  0  0  0  0  0  0  0  0
   24.1349   -4.2478   -5.1637 N   0  0  0  0  0  0  0  0  0  0  0  0
   25.1848  -10.8835   -6.1407 C   0  0  1  0  0  0  0  0  0  0  0  0
   25.3736  -12.0283   -5.3619 O   0  0  0  0  0  0  0  0  0  0  0  0
   26.3836  -12.5974   -0.7936 C   0  0  0  0  0  0  0  0  0  0  0  0
   23.9011  -15.4369   -2.5716 C   0  0  0  0  0  0  0  0  0  0  0  0
  1  2  1  6  0  0  0
  1  6  1  0  0  0  0
  1 21  1  0  0  0  0
  3  4  1  1  0  0  0
  3  8  1  0  0  0  0
  3 28  1  0  0  0  0
  5  9  1  0  0  0  0
  5 25  1  0  0  0  0
  5 29  1  1  0  0  0
  6  7  1  6  0  0  0
  6 11  1  0  0  0  0
  8 12  1  0  0  0  0
  9 10  1  6  0  0  0
  9 14  1  0  0  0  0
 11 16  1  0  0  0  0
 12 13  1  6  0  0  0
 12 17  1  0  0  0  0
 14 15  1  1  0  0  0
 14 18  1  0  0  0  0
 15 31  1  0  0  0  0
 16 20  1  0  0  0  0
 17  2  1  6  0  0  0
 17 22  1  0  0  0  0
 18 19  1  1  0  0  0
 18 24  1  0  0  0  0
 18 30  1  0  0  0  0
 20 21  1  0  0  0  0
 20 26  1  6  0  0  0
 22 23  1  1  0  0  0
 22 28  1  0  0  0  0
 24 25  1  0  0  0  0
 26 27  1  0  0  0  0
 28 29  1  1  0  0  0
M  END
>  <CHROM.1>
178.88580163,-167.72444500,-93.90657443,-162.97086036,126.23873505,66.77934525
24.31393124,-10.29020819,-5.29426881,2.44220332,0.89097285,-1.17053917

>  <Name>
ligand

>  <RI>
0

>  <Rbt.Current_Directory>
/home/itssahil/PROJECTS/Mol_Feturizer/New_Systems/rnas/4F8V

>  <Rbt.Executable>
rbdock ($Id: //depot/dev/client3/rdock/2013.1/src/exe/rbdock.cxx#4 $)

>  <Rbt.Library>
libRbt.so (2013.1, Build901 2013/11/27)

>  <Rbt.Parameter_File>
/export/apps/rDock/src/rDock_2013.1_src/data/scripts/dock_solv.prm

>  <Rbt.Receptor>
prm/pocket_docking_6.prm

>  <SCORE>
-10.9293

>  <SCORE.INTER>
-6.07758

>  <SCORE.INTER.CONST>
1

>  <SCORE.INTER.POLAR>
0

>  <SCORE.INTER.ROT>
6

>  <SCORE.INTER.SOLV>
9.83345

>  <SCORE.INTER.VDW>
-14.9295

>  <SCORE.INTER.norm>
-0.196051

>  <SCORE.INTRA>
-4.85175

>  <SCORE.INTRA.DIHEDRAL>
-11.1689

>  <SCORE.INTRA.DIHEDRAL.0>
15.9129

>  <SCORE.INTRA.POLAR>
0

>  <SCORE.INTRA.POLAR.0>
0

>  <SCORE.INTRA.REPUL>
0

>  <SCORE.INTRA.REPUL.0>
0

>  <SCORE.INTRA.SOLV>
-1.65939

>  <SCORE.INTRA.SOLV.lig_0>
-75.7056

>  <SCORE.INTRA.VDW>
1.56239

>  <SCORE.INTRA.VDW.0>
-4.61812

>  <SCORE.INTRA.norm>
-0.156508

>  <SCORE.RESTR>
0

>  <SCORE.RESTR.CAVITY>
0

>  <SCORE.RESTR.norm>
0

>  <SCORE.SYSTEM>
0

>  <SCORE.SYSTEM.CONST>
0

>  <SCORE.SYSTEM.DIHEDRAL>
0

>  <SCORE.SYSTEM.SOLV>
0

>  <SCORE.SYSTEM.norm>
0

>  <SCORE.heavy>
31

>  <SCORE.norm>
-0.352559

>  <RMSD>
5.264

$$$$
ligand
 OpenBabel11021811493D
libRbt.so/2013.1/901 2013/11/27
 31 33  0  0  0  0  0  0  0  0999 V2000
   22.6299   -6.9779   -7.9719 C   0  0  2  0  0  0  0  0  0  0  0  0
   23.7719   -7.7352   -7.5490 O   0  0  0  0  0  0  0  0  0  0  0  0
   22.8248  -11.4111   -9.4931 C   0  0  2  0  0  0  0  0  0  0  0  0
   22.9601  -12.7448   -9.9736 N   0  0  0  0  0  0  0  0  0  0  0  0
   21.8377  -12.4445   -5.9753 C   0  0  2  0  0  0  0  0  0  0  0  0
   22.8518   -5.5121   -7.4862 C   0  0  2  0  0  0  0  0  0  0  0  0
   24.1089   -5.0138   -8.0407 N   0  0  0  0  0  0  0  0  0  0  0  0
   23.9347  -10.5080  -10.1505 C   0  0  0  0  0  0  0  0  0  0  0  0
   23.0411  -13.3476   -5.5920 C   0  0  2  0  0  0  0  0  0  0  0  0
   24.2331  -12.6848   -5.9470 O   0  0  0  0  0  0  0  0  0  0  0  0
   22.8490   -5.4521   -5.9101 C   0  0  0  0  0  0  0  0  0  0  0  0
   23.7809   -9.0266   -9.6145 C   0  0  2  0  0  0  0  0  0  0  0  0
   24.8223   -8.1755  -10.2257 N   0  0  0  0  0  0  0  0  0  0  0  0
   22.8906  -14.7185   -6.3634 C   0  0  1  0  0  0  0  0  0  0  0  0
   24.0386  -15.6132   -6.0433 N   0  0  0  0  0  0  0  0  0  0  0  0
   21.8990   -6.5219   -5.2590 C   0  0  0  0  0  0  0  0  0  0  0  0
   23.9285   -9.0321   -8.0334 C   0  0  2  0  0  0  0  0  0  0  0  0
   21.5010  -15.4423   -5.9212 C   0  0  1  0  0  0  0  0  0  0  0  0
   21.4476  -15.7403   -4.5475 O   0  0  0  0  0  0  0  0  0  0  0  0
   21.2547   -7.4311   -6.0056 C   0  0  1  0  0  0  0  0  0  0  0  0
   21.3855   -7.4779   -7.4127 O   0  0  0  0  0  0  0  0  0  0  0  0
   22.8230   -9.9558   -7.4046 C   0  0  2  0  0  0  0  0  0  0  0  0
   22.9705   -9.9638   -5.9858 O   0  0  0  0  0  0  0  0  0  0  0  0
   20.3087  -14.4929   -6.2541 C   0  0  0  0  0  0  0  0  0  0  0  0
   20.5362  -13.1274   -5.6372 O   0  0  0  0  0  0  0  0  0  0  0  0
   20.3274   -8.5032   -5.4005 C   0  0  0  0  0  0  0  0  0  0  0  0
   18.9543   -8.0816   -5.5715 N   0  0  0  0  0  0  0  0  0  0  0  0
   22.9881  -11.4211   -7.9589 C   0  0  1  0  0  0  0  0  0  0  0  0
   21.9880  -12.2160   -7.3925 O   0  0  0  0  0  0  0  0  0  0  0  0
   21.2098  -16.7942   -6.5881 C   0  0  0  0  0  0  0  0  0  0  0  0
   25.0878  -15.7147   -7.0694 C   0  0  0  0  0  0  0  0  0  0  0  0
  1  2  1  1  0  0  0
  1  6  1  0  0  0  0
  1 21  1  0  0  0  0
  3  4  1  6  0  0  0
  3  8  1  0  0  0  0
  3 28  1  0  0  0  0
  5  9  1  0  0  0  0
  5 25  1  0  0  0  0
  5 29  1  6  0  0  0
  6  7  1  1  0  0  0
  6 11  1  0  0  0  0
  8 12  1  0  0  0  0
  9 10  1  6  0  0  0
  9 14  1  0  0  0  0
 11 16  1  0  0  0  0
 12 13  1  6  0  0  0
 12 17  1  0  0  0  0
 14 15  1  1  0  0  0
 14 18  1  0  0  0  0
 15 31  1  0  0  0  0
 16 20  1  0  0  0  0
 17  2  1  1  0  0  0
 17 22  1  0  0  0  0
 18 19  1  1  0  0  0
 18 24  1  0  0  0  0
 18 30  1  0  0  0  0
 20 21  1  0  0  0  0
 20 26  1  1  0  0  0
 22 23  1  1  0  0  0
 22 28  1  0  0  0  0
 24 25  1  0  0  0  0
 26 27  1  0  0  0  0
 28 29  1  1  0  0  0
M  END
>  <CHROM.1>
-170.11802411,-70.52652532,-102.41930540,50.33654598,100.84410689,-179.78976861
22.54855010,-10.78768812,-7.02927159,-1.50745197,-0.81806129,3.05491607

>  <Name>
ligand

>  <RI>
0

>  <Rbt.Current_Directory>
/home/itssahil/PROJECTS/Mol_Feturizer/New_Systems/rnas/4F8V

>  <Rbt.Executable>
rbdock ($Id: //depot/dev/client3/rdock/2013.1/src/exe/rbdock.cxx#4 $)

>  <Rbt.Library>
libRbt.so (2013.1, Build901 2013/11/27)

>  <Rbt.Parameter_File>
/export/apps/rDock/src/rDock_2013.1_src/data/scripts/dock_solv.prm

>  <Rbt.Receptor>
prm/pocket_docking_6.prm

>  <SCORE>
-7.40998

>  <SCORE.INTER>
-3.53928

>  <SCORE.INTER.CONST>
1

>  <SCORE.INTER.POLAR>
0

>  <SCORE.INTER.ROT>
6

>  <SCORE.INTER.SOLV>
10.4199

>  <SCORE.INTER.VDW>
-13.4328

>  <SCORE.INTER.norm>
-0.11417

>  <SCORE.INTRA>
-3.8707

>  <SCORE.INTRA.DIHEDRAL>
-11.369

>  <SCORE.INTRA.DIHEDRAL.0>
15.9129

>  <SCORE.INTRA.POLAR>
0

>  <SCORE.INTRA.POLAR.0>
0

>  <SCORE.INTRA.REPUL>
0

>  <SCORE.INTRA.REPUL.0>
0

>  <SCORE.INTRA.SOLV>
-1.26988

>  <SCORE.INTRA.SOLV.lig_0>
-75.7056

>  <SCORE.INTRA.VDW>
2.44874

>  <SCORE.INTRA.VDW.0>
-4.61812

>  <SCORE.INTRA.norm>
-0.124861

>  <SCORE.RESTR>
0

>  <SCORE.RESTR.CAVITY>
0

>  <SCORE.RESTR.norm>
0

>  <SCORE.SYSTEM>
0

>  <SCORE.SYSTEM.CONST>
0

>  <SCORE.SYSTEM.DIHEDRAL>
0

>  <SCORE.SYSTEM.SOLV>
0

>  <SCORE.SYSTEM.norm>
0

>  <SCORE.heavy>
31

>  <SCORE.norm>
-0.239032

>  <RMSD>
5.386

$$$$
ligand
 OpenBabel11021811493D
libRbt.so/2013.1/901 2013/11/27
 31 33  0  0  0  0  0  0  0  0999 V2000
   19.1307   -8.1170   -3.7225 C   0  0  2  0  0  0  0  0  0  0  0  0
   19.2095   -9.5455   -3.8198 O   0  0  0  0  0  0  0  0  0  0  0  0
   21.6748  -12.3558   -1.7672 C   0  0  2  0  0  0  0  0  0  0  0  0
   22.8450  -13.0030   -1.2776 N   0  0  0  0  0  0  0  0  0  0  0  0
   21.8252   -9.6728    0.9099 C   0  0  2  0  0  0  0  0  0  0  0  0
   17.7998   -7.6874   -4.4137 C   0  0  2  0  0  0  0  0  0  0  0  0
   16.6845   -8.3701   -3.7608 N   0  0  0  0  0  0  0  0  0  0  0  0
   21.6755  -12.4044   -3.3411 C   0  0  0  0  0  0  0  0  0  0  0  0
   22.7261  -10.1047    2.0982 C   0  0  2  0  0  0  0  0  0  0  0  0
   23.9331  -10.6203    1.5847 O   0  0  0  0  0  0  0  0  0  0  0  0
   17.8554   -8.0119   -5.9562 C   0  0  0  0  0  0  0  0  0  0  0  0
   20.3733  -11.6847   -3.8815 C   0  0  2  0  0  0  0  0  0  0  0  0
   20.3706  -11.7243   -5.3582 N   0  0  0  0  0  0  0  0  0  0  0  0
   21.9439  -11.1920    2.9367 C   0  0  1  0  0  0  0  0  0  0  0  0
   22.7808  -11.6549    4.0797 N   0  0  0  0  0  0  0  0  0  0  0  0
   19.3039   -7.8916   -6.5547 C   0  0  0  0  0  0  0  0  0  0  0  0
   20.3638  -10.1819   -3.3684 C   0  0  2  0  0  0  0  0  0  0  0  0
   20.5601  -10.5495    3.5050 C   0  0  1  0  0  0  0  0  0  0  0  0
   20.7719   -9.4518    4.3588 O   0  0  0  0  0  0  0  0  0  0  0  0
   20.3634   -7.6323   -5.7739 C   0  0  1  0  0  0  0  0  0  0  0  0
   20.2412   -7.4470   -4.3775 O   0  0  0  0  0  0  0  0  0  0  0  0
   20.3841  -10.1620   -1.7968 C   0  0  2  0  0  0  0  0  0  0  0  0
   20.3871   -8.8088   -1.3453 O   0  0  0  0  0  0  0  0  0  0  0  0
   19.6974  -10.0621    2.3000 C   0  0  0  0  0  0  0  0  0  0  0  0
   20.5077   -9.1382    1.4131 O   0  0  0  0  0  0  0  0  0  0  0  0
   21.7990   -7.5218   -6.3237 C   0  0  0  0  0  0  0  0  0  0  0  0
   22.6544   -8.4165   -5.5753 N   0  0  0  0  0  0  0  0  0  0  0  0
   21.6815  -10.8916   -1.2809 C   0  0  1  0  0  0  0  0  0  0  0  0
   21.6677  -10.8681    0.1163 O   0  0  0  0  0  0  0  0  0  0  0  0
   19.6832  -11.4881    4.3460 C   0  0  0  0  0  0  0  0  0  0  0  0
   23.6530  -12.8104    3.8190 C   0  0  0  0  0  0  0  0  0  0  0  0
  1  2  1  6  0  0  0
  1  6  1  0  0  0  0
  1 21  1  0  0  0  0
  3  4  1  1  0  0  0
  3  8  1  0  0  0  0
  3 28  1  0  0  0  0
  5  9  1  0  0  0  0
  5 25  1  0  0  0  0
  5 29  1  6  0  0  0
  6  7  1  1  0  0  0
  6 11  1  0  0  0  0
  8 12  1  0  0  0  0
  9 10  1  6  0  0  0
  9 14  1  0  0  0  0
 11 16  1  0  0  0  0
 12 13  1  6  0  0  0
 12 17  1  0  0  0  0
 14 15  1  1  0  0  0
 14 18  1  0  0  0  0
 15 31  1  0  0  0  0
 16 20  1  0  0  0  0
 17  2  1  1  0  0  0
 17 22  1  0  0  0  0
 18 19  1  1  0  0  0
 18 24  1  0  0  0  0
 18 30  1  0  0  0  0
 20 21  1  0  0  0  0
 20 26  1  1  0  0  0
 22 23  1  6  0  0  0
 22 28  1  0  0  0  0
 24 25  1  0  0  0  0
 26 27  1  0  0  0  0
 28 29  1  1  0  0  0
M  END
>  <CHROM.1>
175.00939900,-139.93871526,-90.12754586,-166.68854982,-126.57639900,172.49029402
20.80322511,-9.97240713,-1.31392254,1.89731874,0.70813856,-1.49550471

>  <Name>
ligand

>  <RI>
0

>  <Rbt.Current_Directory>
/home/itssahil/PROJECTS/Mol_Feturizer/New_Systems/rnas/4F8V

>  <Rbt.Executable>
rbdock ($Id: //depot/dev/client3/rdock/2013.1/src/exe/rbdock.cxx#4 $)

>  <Rbt.Library>
libRbt.so (2013.1, Build901 2013/11/27)

>  <Rbt.Parameter_File>
/export/apps/rDock/src/rDock_2013.1_src/data/scripts/dock_solv.prm

>  <Rbt.Receptor>
prm/pocket_docking_7.prm

>  <SCORE>
-9.01311

>  <SCORE.INTER>
-6.4119

>  <SCORE.INTER.CONST>
1

>  <SCORE.INTER.POLAR>
0

>  <SCORE.INTER.ROT>
6

>  <SCORE.INTER.SOLV>
17.8225

>  <SCORE.INTER.VDW>
-17.8154

>  <SCORE.INTER.norm>
-0.206836

>  <SCORE.INTRA>
-2.60121

>  <SCORE.INTRA.DIHEDRAL>
-6.9237

>  <SCORE.INTRA.DIHEDRAL.0>
15.9129

>  <SCORE.INTRA.POLAR>
0

>  <SCORE.INTRA.POLAR.0>
0

>  <SCORE.INTRA.REPUL>
0

>  <SCORE.INTRA.REPUL.0>
0

>  <SCORE.INTRA.SOLV>
-1.03223

>  <SCORE.INTRA.SOLV.lig_0>
-75.7056

>  <SCORE.INTRA.VDW>
1.37675

>  <SCORE.INTRA.VDW.0>
-4.61812

>  <SCORE.INTRA.norm>
-0.0839101

>  <SCORE.RESTR>
0

>  <SCORE.RESTR.CAVITY>
0

>  <SCORE.RESTR.norm>
0

>  <SCORE.SYSTEM>
0

>  <SCORE.SYSTEM.CONST>
0

>  <SCORE.SYSTEM.DIHEDRAL>
0

>  <SCORE.SYSTEM.SOLV>
0

>  <SCORE.SYSTEM.norm>
0

>  <SCORE.heavy>
31

>  <SCORE.norm>
-0.290746

>  <RMSD>
5.508

$$$$
ligand
 OpenBabel11021811493D
libRbt.so/2013.1/901 2013/11/27
 31 33  0  0  0  0  0  0  0  0999 V2000
   23.1835   -8.8084   -6.5120 C   0  0  2  0  0  0  0  0  0  0  0  0
   22.4449   -9.5547   -7.4887 O   0  0  0  0  0  0  0  0  0  0  0  0
   22.3333  -13.7622   -8.1766 C   0  0  2  0  0  0  0  0  0  0  0  0
   22.7739  -15.0789   -8.4928 N   0  0  0  0  0  0  0  0  0  0  0  0
   23.3575  -15.4546   -5.8047 C   0  0  2  0  0  0  0  0  0  0  0  0
   22.3858   -7.4943   -6.2462 C   0  0  2  0  0  0  0  0  0  0  0  0
   21.0360   -7.8398   -5.8050 N   0  0  0  0  0  0  0  0  0  0  0  0
   22.5508  -12.8287   -9.4259 C   0  0  0  0  0  0  0  0  0  0  0  0
   22.8446  -15.9531   -4.4267 C   0  0  2  0  0  0  0  0  0  0  0  0
   21.4481  -15.7712   -4.3728 O   0  0  0  0  0  0  0  0  0  0  0  0
   22.3601   -6.5984   -7.5441 C   0  0  0  0  0  0  0  0  0  0  0  0
   22.0596  -11.3664   -9.0710 C   0  0  2  0  0  0  0  0  0  0  0  0
   22.2647  -10.4853  -10.2389 N   0  0  0  0  0  0  0  0  0  0  0  0
   23.5792  -15.1227   -3.3005 C   0  0  1  0  0  0  0  0  0  0  0  0
   23.1012  -15.5519   -1.9558 N   0  0  0  0  0  0  0  0  0  0  0  0
   23.6604   -6.7461   -8.4150 C   0  0  0  0  0  0  0  0  0  0  0  0
   22.8856  -10.8332   -7.8239 C   0  0  2  0  0  0  0  0  0  0  0  0
   25.1857  -15.3646   -3.4062 C   0  0  1  0  0  0  0  0  0  0  0  0
   25.5537  -16.7101   -3.2252 O   0  0  0  0  0  0  0  0  0  0  0  0
   24.6195   -7.6275   -8.0950 C   0  0  1  0  0  0  0  0  0  0  0  0
   24.5223   -8.4661   -6.9608 O   0  0  0  0  0  0  0  0  0  0  0  0
   22.6674  -11.7930   -6.5984 C   0  0  2  0  0  0  0  0  0  0  0  0
   23.4218  -11.3130   -5.4871 O   0  0  0  0  0  0  0  0  0  0  0  0
   25.6716  -14.9190   -4.8201 C   0  0  0  0  0  0  0  0  0  0  0  0
   24.8554  -15.6055   -5.8968 O   0  0  0  0  0  0  0  0  0  0  0  0
   25.9000   -7.8095   -8.9332 C   0  0  0  0  0  0  0  0  0  0  0  0
   25.9078   -9.1455   -9.4876 N   0  0  0  0  0  0  0  0  0  0  0  0
   23.1528  -13.2432   -6.9767 C   0  0  1  0  0  0  0  0  0  0  0  0
   22.9374  -14.0755   -5.8750 O   0  0  0  0  0  0  0  0  0  0  0  0
   26.0430  -14.6210   -2.3720 C   0  0  0  0  0  0  0  0  0  0  0  0
   22.8217  -14.4758   -0.9926 C   0  0  0  0  0  0  0  0  0  0  0  0
  1  2  1  6  0  0  0
  1  6  1  0  0  0  0
  1 21  1  0  0  0  0
  3  4  1  6  0  0  0
  3  8  1  0  0  0  0
  3 28  1  0  0  0  0
  5  9  1  0  0  0  0
  5 25  1  0  0  0  0
  5 29  1  1  0  0  0
  6  7  1  6  0  0  0
  6 11  1  0  0  0  0
  8 12  1  0  0  0  0
  9 10  1  6  0  0  0
  9 14  1  0  0  0  0
 11 16  1  0  0  0  0
 12 13  1  6  0  0  0
 12 17  1  0  0  0  0
 14 15  1  1  0  0  0
 14 18  1  0  0  0  0
 15 31  1  0  0  0  0
 16 20  1  0  0  0  0
 17  2  1  1  0  0  0
 17 22  1  0  0  0  0
 18 19  1  1  0  0  0
 18 24  1  0  0  0  0
 18 30  1  0  0  0  0
 20 21  1  0  0  0  0
 20 26  1  6  0  0  0
 22 23  1  1  0  0  0
 22 28  1  0  0  0  0
 24 25  1  0  0  0  0
 26 27  1  0  0  0  0
 28 29  1  1  0  0  0
M  END
>  <CHROM.1>
-174.65283118,-177.79171034,-136.49606187,-171.21204082,-115.68836563,66.17939939
23.48111188,-12.10894953,-6.22723872,-1.93356698,1.39859777,2.95751133

>  <Name>
ligand

>  <RI>
0

>  <Rbt.Current_Directory>
/home/itssahil/PROJECTS/Mol_Feturizer/New_Systems/rnas/4F8V

>  <Rbt.Executable>
rbdock ($Id: //depot/dev/client3/rdock/2013.1/src/exe/rbdock.cxx#4 $)

>  <Rbt.Library>
libRbt.so (2013.1, Build901 2013/11/27)

>  <Rbt.Parameter_File>
/export/apps/rDock/src/rDock_2013.1_src/data/scripts/dock_solv.prm

>  <Rbt.Receptor>
prm/pocket_docking_6.prm

>  <SCORE>
-8.79863

>  <SCORE.INTER>
-3.98775

>  <SCORE.INTER.CONST>
1

>  <SCORE.INTER.POLAR>
0

>  <SCORE.INTER.ROT>
6

>  <SCORE.INTER.SOLV>
11.3429

>  <SCORE.INTER.VDW>
-14.0395

>  <SCORE.INTER.norm>
-0.128637

>  <SCORE.INTRA>
-4.81087

>  <SCORE.INTRA.DIHEDRAL>
-12.4898

>  <SCORE.INTRA.DIHEDRAL.0>
15.9129

>  <SCORE.INTRA.POLAR>
0

>  <SCORE.INTRA.POLAR.0>
0

>  <SCORE.INTRA.REPUL>
0

>  <SCORE.INTRA.REPUL.0>
0

>  <SCORE.INTRA.SOLV>
-0.737838

>  <SCORE.INTRA.SOLV.lig_0>
-75.7056

>  <SCORE.INTRA.VDW>
1.80295

>  <SCORE.INTRA.VDW.0>
-4.61812

>  <SCORE.INTRA.norm>
-0.155189

>  <SCORE.RESTR>
0

>  <SCORE.RESTR.CAVITY>
0

>  <SCORE.RESTR.norm>
0

>  <SCORE.SYSTEM>
0

>  <SCORE.SYSTEM.CONST>
0

>  <SCORE.SYSTEM.DIHEDRAL>
0

>  <SCORE.SYSTEM.SOLV>
0

>  <SCORE.SYSTEM.norm>
0

>  <SCORE.heavy>
31

>  <SCORE.norm>
-0.283827

>  <RMSD>
5.512

$$$$
ligand
 OpenBabel11021811493D
libRbt.so/2013.1/901 2013/11/27
 31 33  0  0  0  0  0  0  0  0999 V2000
   23.4237   -9.2333   -7.4290 C   0  0  2  0  0  0  0  0  0  0  0  0
   23.5034  -10.0404   -6.2463 O   0  0  0  0  0  0  0  0  0  0  0  0
   26.6832  -12.5633   -4.9379 C   0  0  2  0  0  0  0  0  0  0  0  0
   27.9554  -12.9636   -4.4387 N   0  0  0  0  0  0  0  0  0  0  0  0
   26.9106  -12.6856   -1.8008 C   0  0  2  0  0  0  0  0  0  0  0  0
   22.2005   -8.2821   -7.2482 C   0  0  2  0  0  0  0  0  0  0  0  0
   22.3856   -7.4978   -6.0289 N   0  0  0  0  0  0  0  0  0  0  0  0
   26.8781  -11.7985   -6.3005 C   0  0  0  0  0  0  0  0  0  0  0  0
   26.2021  -13.3256   -0.5764 C   0  0  2  0  0  0  0  0  0  0  0  0
   25.4393  -14.4243   -1.0205 O   0  0  0  0  0  0  0  0  0  0  0  0
   20.8620   -9.1153   -7.2041 C   0  0  0  0  0  0  0  0  0  0  0  0
   25.4622  -11.3556   -6.8524 C   0  0  2  0  0  0  0  0  0  0  0  0
   25.6396  -10.6344   -8.1294 N   0  0  0  0  0  0  0  0  0  0  0  0
   25.2904  -12.2227    0.0942 C   0  0  1  0  0  0  0  0  0  0  0  0
   24.5703  -12.7984    1.2652 N   0  0  0  0  0  0  0  0  0  0  0  0
   20.9188  -10.4113   -8.0919 C   0  0  0  0  0  0  0  0  0  0  0  0
   24.7609  -10.4176   -5.7800 C   0  0  2  0  0  0  0  0  0  0  0  0
   26.2160  -10.9774    0.5873 C   0  0  1  0  0  0  0  0  0  0  0  0
   27.1760  -11.3498    1.5456 O   0  0  0  0  0  0  0  0  0  0  0  0
   22.0441  -10.7767   -8.7240 C   0  0  1  0  0  0  0  0  0  0  0  0
   23.2358  -10.0210   -8.6353 O   0  0  0  0  0  0  0  0  0  0  0  0
   24.5972  -11.1975   -4.4251 C   0  0  2  0  0  0  0  0  0  0  0  0
   23.9773  -10.3439   -3.4650 O   0  0  0  0  0  0  0  0  0  0  0  0
   26.9698  -10.3893   -0.6454 C   0  0  0  0  0  0  0  0  0  0  0  0
   27.7193  -11.4858   -1.3753 O   0  0  0  0  0  0  0  0  0  0  0  0
   22.1403  -12.0477   -9.5904 C   0  0  0  0  0  0  0  0  0  0  0  0
   22.6741  -11.6888  -10.8860 N   0  0  0  0  0  0  0  0  0  0  0  0
   26.0158  -11.6373   -3.8998 C   0  0  1  0  0  0  0  0  0  0  0  0
   25.8392  -12.3361   -2.7026 O   0  0  0  0  0  0  0  0  0  0  0  0
   25.4712   -9.8181    1.2645 C   0  0  0  0  0  0  0  0  0  0  0  0
   23.1027  -12.7021    1.2357 C   0  0  0  0  0  0  0  0  0  0  0  0
  1  2  1  1  0  0  0
  1  6  1  0  0  0  0
  1 21  1  0  0  0  0
  3  4  1  1  0  0  0
  3  8  1  0  0  0  0
  3 28  1  0  0  0  0
  5  9  1  0  0  0  0
  5 25  1  0  0  0  0
  5 29  1  6  0  0  0
  6  7  1  1  0  0  0
  6 11  1  0  0  0  0
  8 12  1  0  0  0  0
  9 10  1  6  0  0  0
  9 14  1  0  0  0  0
 11 16  1  0  0  0  0
 12 13  1  6  0  0  0
 12 17  1  0  0  0  0
 14 15  1  1  0  0  0
 14 18  1  0  0  0  0
 15 31  1  0  0  0  0
 16 20  1  0  0  0  0
 17  2  1  6  0  0  0
 17 22  1  0  0  0  0
 18 19  1  1  0  0  0
 18 24  1  0  0  0  0
 18 30  1  0  0  0  0
 20 21  1  0  0  0  0
 20 26  1  1  0  0  0
 22 23  1  1  0  0  0
 22 28  1  0  0  0  0
 24 25  1  0  0  0  0
 26 27  1  0  0  0  0
 28 29  1  1  0  0  0
M  END
>  <CHROM.1>
-145.79327412,174.97513916,-123.19737773,-64.29828927,127.96832653,72.68109498
24.72286997,-11.18627363,-4.15813122,2.00659200,0.57453636,-1.61179812

>  <Name>
ligand

>  <RI>
0

>  <Rbt.Current_Directory>
/home/itssahil/PROJECTS/Mol_Feturizer/New_Systems/rnas/4F8V

>  <Rbt.Executable>
rbdock ($Id: //depot/dev/client3/rdock/2013.1/src/exe/rbdock.cxx#4 $)

>  <Rbt.Library>
libRbt.so (2013.1, Build901 2013/11/27)

>  <Rbt.Parameter_File>
/export/apps/rDock/src/rDock_2013.1_src/data/scripts/dock_solv.prm

>  <Rbt.Receptor>
prm/pocket_docking_6.prm

>  <SCORE>
-1.25551

>  <SCORE.INTER>
0.309843

>  <SCORE.INTER.CONST>
1

>  <SCORE.INTER.POLAR>
0

>  <SCORE.INTER.ROT>
6

>  <SCORE.INTER.SOLV>
9.36669

>  <SCORE.INTER.VDW>
-10.5157

>  <SCORE.INTER.norm>
0.00999492

>  <SCORE.INTRA>
-1.56535

>  <SCORE.INTRA.DIHEDRAL>
-7.58969

>  <SCORE.INTRA.DIHEDRAL.0>
15.9129

>  <SCORE.INTRA.POLAR>
0

>  <SCORE.INTRA.POLAR.0>
0

>  <SCORE.INTRA.REPUL>
0

>  <SCORE.INTRA.REPUL.0>
0

>  <SCORE.INTRA.SOLV>
0.432574

>  <SCORE.INTRA.SOLV.lig_0>
-75.7056

>  <SCORE.INTRA.VDW>
2.0132

>  <SCORE.INTRA.VDW.0>
-4.61812

>  <SCORE.INTRA.norm>
-0.0504953

>  <SCORE.RESTR>
0

>  <SCORE.RESTR.CAVITY>
0

>  <SCORE.RESTR.norm>
0

>  <SCORE.SYSTEM>
0

>  <SCORE.SYSTEM.CONST>
0

>  <SCORE.SYSTEM.DIHEDRAL>
0

>  <SCORE.SYSTEM.SOLV>
0

>  <SCORE.SYSTEM.norm>
0

>  <SCORE.heavy>
31

>  <SCORE.norm>
-0.0405003

>  <RMSD>
5.725

$$$$
ligand
 OpenBabel11021811493D
libRbt.so/2013.1/901 2013/11/27
 31 33  0  0  0  0  0  0  0  0999 V2000
   22.5032   -7.5068   -5.1518 C   0  0  2  0  0  0  0  0  0  0  0  0
   23.0536   -8.3695   -6.1564 O   0  0  0  0  0  0  0  0  0  0  0  0
   26.6293  -10.6934   -6.1137 C   0  0  2  0  0  0  0  0  0  0  0  0
   28.0138  -11.0182   -6.0389 N   0  0  0  0  0  0  0  0  0  0  0  0
   27.7445  -11.1624   -3.2240 C   0  0  2  0  0  0  0  0  0  0  0  0
   20.9704   -7.4107   -5.4258 C   0  0  2  0  0  0  0  0  0  0  0  0
   20.3993   -8.7559   -5.4036 N   0  0  0  0  0  0  0  0  0  0  0  0
   26.3804   -9.7685   -7.3636 C   0  0  0  0  0  0  0  0  0  0  0  0
   27.4732  -12.3144   -2.2192 C   0  0  2  0  0  0  0  0  0  0  0  0
   26.8016  -13.3531   -2.8949 O   0  0  0  0  0  0  0  0  0  0  0  0
   20.7055   -6.6910   -6.8041 C   0  0  0  0  0  0  0  0  0  0  0  0
   24.8407   -9.4101   -7.4437 C   0  0  2  0  0  0  0  0  0  0  0  0
   24.6022   -8.5394   -8.6130 N   0  0  0  0  0  0  0  0  0  0  0  0
   26.6008  -11.7369   -1.0349 C   0  0  1  0  0  0  0  0  0  0  0  0
   26.2950  -12.8153   -0.0528 N   0  0  0  0  0  0  0  0  0  0  0  0
   21.7888   -5.6040   -7.1445 C   0  0  0  0  0  0  0  0  0  0  0  0
   24.4132   -8.6693   -6.1058 C   0  0  2  0  0  0  0  0  0  0  0  0
   27.4177  -10.5421   -0.2894 C   0  0  1  0  0  0  0  0  0  0  0  0
   28.6331  -10.9728    0.2728 O   0  0  0  0  0  0  0  0  0  0  0  0
   22.8596   -5.4145   -6.3592 C   0  0  1  0  0  0  0  0  0  0  0  0
   23.0738   -6.1710   -5.1840 O   0  0  0  0  0  0  0  0  0  0  0  0
   24.6907   -9.6052   -4.8738 C   0  0  2  0  0  0  0  0  0  0  0  0
   24.3147   -8.9273   -3.6764 O   0  0  0  0  0  0  0  0  0  0  0  0
   27.7382   -9.4242   -1.3293 C   0  0  0  0  0  0  0  0  0  0  0  0
   28.4399  -10.0144   -2.5360 O   0  0  0  0  0  0  0  0  0  0  0  0
   23.9484   -4.3687   -6.6695 C   0  0  0  0  0  0  0  0  0  0  0  0
   25.2209   -5.0448   -6.7964 N   0  0  0  0  0  0  0  0  0  0  0  0
   26.2252   -9.9573   -4.8194 C   0  0  1  0  0  0  0  0  0  0  0  0
   26.4404  -10.7970   -3.7232 O   0  0  0  0  0  0  0  0  0  0  0  0
   26.6977   -9.8760    0.8918 C   0  0  0  0  0  0  0  0  0  0  0  0
   25.0388  -13.5502   -0.2664 C   0  0  0  0  0  0  0  0  0  0  0  0
  1  2  1  6  0  0  0
  1  6  1  0  0  0  0
  1 21  1  0  0  0  0
  3  4  1  1  0  0  0
  3  8  1  0  0  0  0
  3 28  1  0  0  0  0
  5  9  1  0  0  0  0
  5 25  1  0  0  0  0
  5 29  1  1  0  0  0
  6  7  1  6  0  0  0
  6 11  1  0  0  0  0
  8 12  1  0  0  0  0
  9 10  1  6  0  0  0
  9 14  1  0  0  0  0
 11 16  1  0  0  0  0
 12 13  1  6  0  0  0
 12 17  1  0  0  0  0
 14 15  1  1  0  0  0
 14 18  1  0  0  0  0
 15 31  1  0  0  0  0
 16 20  1  0  0  0  0
 17  2  1  6  0  0  0
 17 22  1  0  0  0  0
 18 19  1  1  0  0  0
 18 24  1  0  0  0  0
 18 30  1  0  0  0  0
 20 21  1  0  0  0  0
 20 26  1  6  0  0  0
 22 23  1  1  0  0  0
 22 28  1  0  0  0  0
 24 25  1  0  0  0  0
 26 27  1  0  0  0  0
 28 29  1  1  0  0  0
M  END
>  <CHROM.1>
-177.40763229,-168.56266048,-91.96670882,-169.84332919,-121.04982436,71.04910650
25.17783504,-9.32348229,-4.23232004,2.25780537,0.60738735,-1.27345330

>  <Name>
ligand

>  <RI>
0

>  <Rbt.Current_Directory>
/home/itssahil/PROJECTS/Mol_Feturizer/New_Systems/rnas/4F8V

>  <Rbt.Executable>
rbdock ($Id: //depot/dev/client3/rdock/2013.1/src/exe/rbdock.cxx#4 $)

>  <Rbt.Library>
libRbt.so (2013.1, Build901 2013/11/27)

>  <Rbt.Parameter_File>
/export/apps/rDock/src/rDock_2013.1_src/data/scripts/dock_solv.prm

>  <Rbt.Receptor>
prm/pocket_docking_7.prm

>  <SCORE>
-9.57458

>  <SCORE.INTER>
-4.97331

>  <SCORE.INTER.CONST>
1

>  <SCORE.INTER.POLAR>
0

>  <SCORE.INTER.ROT>
6

>  <SCORE.INTER.SOLV>
5.33016

>  <SCORE.INTER.VDW>
-12.6923

>  <SCORE.INTER.norm>
-0.160429

>  <SCORE.INTRA>
-4.60127

>  <SCORE.INTRA.DIHEDRAL>
-11.8245

>  <SCORE.INTRA.DIHEDRAL.0>
15.9129

>  <SCORE.INTRA.POLAR>
0

>  <SCORE.INTRA.POLAR.0>
0

>  <SCORE.INTRA.REPUL>
0

>  <SCORE.INTRA.REPUL.0>
0

>  <SCORE.INTRA.SOLV>
-0.574962

>  <SCORE.INTRA.SOLV.lig_0>
-75.7056

>  <SCORE.INTRA.VDW>
1.59845

>  <SCORE.INTRA.VDW.0>
-4.61812

>  <SCORE.INTRA.norm>
-0.148428

>  <SCORE.RESTR>
0

>  <SCORE.RESTR.CAVITY>
0

>  <SCORE.RESTR.norm>
0

>  <SCORE.SYSTEM>
0

>  <SCORE.SYSTEM.CONST>
0

>  <SCORE.SYSTEM.DIHEDRAL>
0

>  <SCORE.SYSTEM.SOLV>
0

>  <SCORE.SYSTEM.norm>
0

>  <SCORE.heavy>
31

>  <SCORE.norm>
-0.308857

>  <RMSD>
5.843

$$$$
ligand
 OpenBabel11021811493D
libRbt.so/2013.1/901 2013/11/27
 31 33  0  0  0  0  0  0  0  0999 V2000
   18.1026   -8.7251   -5.2532 C   0  0  2  0  0  0  0  0  0  0  0  0
   18.8523   -7.7525   -5.9938 O   0  0  0  0  0  0  0  0  0  0  0  0
   22.4898   -8.2845   -8.1558 C   0  0  2  0  0  0  0  0  0  0  0  0
   23.8634   -8.5525   -8.4192 N   0  0  0  0  0  0  0  0  0  0  0  0
   23.2013  -11.3177   -8.5917 C   0  0  2  0  0  0  0  0  0  0  0  0
   16.7563   -8.0488   -4.8486 C   0  0  2  0  0  0  0  0  0  0  0  0
   16.0717   -7.5944   -6.0572 N   0  0  0  0  0  0  0  0  0  0  0  0
   22.3776   -7.0190   -7.2253 C   0  0  0  0  0  0  0  0  0  0  0  0
   22.7660  -12.5716   -9.3971 C   0  0  2  0  0  0  0  0  0  0  0  0
   22.0576  -12.1497  -10.5401 O   0  0  0  0  0  0  0  0  0  0  0  0
   17.0216   -6.8573   -3.8497 C   0  0  0  0  0  0  0  0  0  0  0  0
   20.8498   -6.7240   -6.9351 C   0  0  2  0  0  0  0  0  0  0  0  0
   20.7390   -5.5393   -6.0595 N   0  0  0  0  0  0  0  0  0  0  0  0
   21.8659  -13.4692   -8.4583 C   0  0  1  0  0  0  0  0  0  0  0  0
   21.4041  -14.6782   -9.1974 N   0  0  0  0  0  0  0  0  0  0  0  0
   18.2635   -7.1050   -2.9184 C   0  0  0  0  0  0  0  0  0  0  0  0
   20.2035   -7.9933   -6.2331 C   0  0  2  0  0  0  0  0  0  0  0  0
   22.7271  -13.9282   -7.1551 C   0  0  1  0  0  0  0  0  0  0  0  0
   23.8606  -14.6932   -7.4849 O   0  0  0  0  0  0  0  0  0  0  0  0
   19.0411   -8.1882   -3.0637 C   0  0  1  0  0  0  0  0  0  0  0  0
   18.7891   -9.1679   -4.0517 O   0  0  0  0  0  0  0  0  0  0  0  0
   20.3471   -9.2450   -7.1730 C   0  0  2  0  0  0  0  0  0  0  0  0
   19.7745  -10.3821   -6.5297 O   0  0  0  0  0  0  0  0  0  0  0  0
   23.2108  -12.6544   -6.3953 C   0  0  0  0  0  0  0  0  0  0  0  0
   23.9416  -11.7236   -7.3419 O   0  0  0  0  0  0  0  0  0  0  0  0
   20.2743   -8.4561   -2.1789 C   0  0  0  0  0  0  0  0  0  0  0  0
   20.1090   -9.7355   -1.5247 N   0  0  0  0  0  0  0  0  0  0  0  0
   21.8731   -9.5140   -7.4568 C   0  0  1  0  0  0  0  0  0  0  0  0
   21.9698  -10.6231   -8.3015 O   0  0  0  0  0  0  0  0  0  0  0  0
   21.9861  -14.8121   -6.1417 C   0  0  0  0  0  0  0  0  0  0  0  0
   20.0195  -15.1047   -8.9428 C   0  0  0  0  0  0  0  0  0  0  0  0
  1  2  1  1  0  0  0
  1  6  1  0  0  0  0
  1 21  1  0  0  0  0
  3  4  1  1  0  0  0
  3  8  1  0  0  0  0
  3 28  1  0  0  0  0
  5  9  1  0  0  0  0
  5 25  1  0  0  0  0
  5 29  1  1  0  0  0
  6  7  1  6  0  0  0
  6 11  1  0  0  0  0
  8 12  1  0  0  0  0
  9 10  1  6  0  0  0
  9 14  1  0  0  0  0
 11 16  1  0  0  0  0
 12 13  1  1  0  0  0
 12 17  1  0  0  0  0
 14 15  1  6  0  0  0
 14 18  1  0  0  0  0
 15 31  1  0  0  0  0
 16 20  1  0  0  0  0
 17  2  1  6  0  0  0
 17 22  1  0  0  0  0
 18 19  1  6  0  0  0
 18 24  1  0  0  0  0
 18 30  1  0  0  0  0
 20 21  1  0  0  0  0
 20 26  1  6  0  0  0
 22 23  1  1  0  0  0
 22 28  1  0  0  0  0
 24 25  1  0  0  0  0
 26 27  1  0  0  0  0
 28 29  1  6  0  0  0
M  END
>  <CHROM.1>
166.59851923,172.23287413,-140.70933822,-174.34623117,122.25308284,72.48697945
20.81188592,-10.13153435,-6.52589265,2.39767242,0.84046089,-0.07369299

>  <Name>
ligand

>  <RI>
0

>  <Rbt.Current_Directory>
/home/itssahil/PROJECTS/Mol_Feturizer/New_Systems/rnas/4F8V

>  <Rbt.Executable>
rbdock ($Id: //depot/dev/client3/rdock/2013.1/src/exe/rbdock.cxx#4 $)

>  <Rbt.Library>
libRbt.so (2013.1, Build901 2013/11/27)

>  <Rbt.Parameter_File>
/export/apps/rDock/src/rDock_2013.1_src/data/scripts/dock_solv.prm

>  <Rbt.Receptor>
prm/pocket_docking_6.prm

>  <SCORE>
-9.54233

>  <SCORE.INTER>
-4.69789

>  <SCORE.INTER.CONST>
1

>  <SCORE.INTER.POLAR>
0

>  <SCORE.INTER.ROT>
6

>  <SCORE.INTER.SOLV>
22.3203

>  <SCORE.INTER.VDW>
-18.172

>  <SCORE.INTER.norm>
-0.151545

>  <SCORE.INTRA>
-4.84444

>  <SCORE.INTRA.DIHEDRAL>
-11.2997

>  <SCORE.INTRA.DIHEDRAL.0>
15.9129

>  <SCORE.INTRA.POLAR>
0

>  <SCORE.INTRA.POLAR.0>
0

>  <SCORE.INTRA.REPUL>
0

>  <SCORE.INTRA.REPUL.0>
0

>  <SCORE.INTRA.SOLV>
-2.35818

>  <SCORE.INTRA.SOLV.lig_0>
-75.7056

>  <SCORE.INTRA.VDW>
1.98451

>  <SCORE.INTRA.VDW.0>
-4.61812

>  <SCORE.INTRA.norm>
-0.156272

>  <SCORE.RESTR>
0

>  <SCORE.RESTR.CAVITY>
0

>  <SCORE.RESTR.norm>
0

>  <SCORE.SYSTEM>
0

>  <SCORE.SYSTEM.CONST>
0

>  <SCORE.SYSTEM.DIHEDRAL>
0

>  <SCORE.SYSTEM.SOLV>
0

>  <SCORE.SYSTEM.norm>
0

>  <SCORE.heavy>
31

>  <SCORE.norm>
-0.307817

>  <RMSD>
5.899

$$$$
ligand
 OpenBabel11021811493D
libRbt.so/2013.1/901 2013/11/27
 31 33  0  0  0  0  0  0  0  0999 V2000
   23.4551  -12.7706   -8.7990 C   0  0  2  0  0  0  0  0  0  0  0  0
   23.3024  -12.8657   -7.3763 O   0  0  0  0  0  0  0  0  0  0  0  0
   24.7981  -15.7127   -4.5752 C   0  0  2  0  0  0  0  0  0  0  0  0
   25.7228  -16.4835   -3.8145 N   0  0  0  0  0  0  0  0  0  0  0  0
   25.7990  -14.3274   -1.9049 C   0  0  2  0  0  0  0  0  0  0  0  0
   23.8420  -11.2930   -9.1164 C   0  0  2  0  0  0  0  0  0  0  0  0
   25.0604  -10.9539   -8.3839 N   0  0  0  0  0  0  0  0  0  0  0  0
   24.9955  -16.0281   -6.1053 C   0  0  0  0  0  0  0  0  0  0  0  0
   25.1897  -13.7423   -0.6022 C   0  0  2  0  0  0  0  0  0  0  0  0
   23.8933  -14.2692   -0.4346 O   0  0  0  0  0  0  0  0  0  0  0  0
   22.6535  -10.3248   -8.7449 C   0  0  0  0  0  0  0  0  0  0  0  0
   23.9660  -15.1700   -6.9475 C   0  0  2  0  0  0  0  0  0  0  0  0
   24.1493  -15.4596   -8.3845 N   0  0  0  0  0  0  0  0  0  0  0  0
   25.1604  -12.1682   -0.7385 C   0  0  1  0  0  0  0  0  0  0  0  0
   24.5610  -11.5609    0.4834 N   0  0  0  0  0  0  0  0  0  0  0  0
   21.2414  -10.9870   -8.9404 C   0  0  0  0  0  0  0  0  0  0  0  0
   24.2190  -13.6295   -6.6569 C   0  0  2  0  0  0  0  0  0  0  0  0
   26.6776  -11.6101   -0.9313 C   0  0  1  0  0  0  0  0  0  0  0  0
   27.5173  -11.9088    0.1570 O   0  0  0  0  0  0  0  0  0  0  0  0
   21.1162  -12.2746   -9.2950 C   0  0  1  0  0  0  0  0  0  0  0  0
   22.2381  -13.1056   -9.5185 O   0  0  0  0  0  0  0  0  0  0  0  0
   24.0359  -13.3462   -5.1217 C   0  0  2  0  0  0  0  0  0  0  0  0
   24.2763  -11.9632   -4.8684 O   0  0  0  0  0  0  0  0  0  0  0  0
   27.2959  -12.2589   -2.2082 C   0  0  0  0  0  0  0  0  0  0  0  0
   27.1801  -13.7684   -2.1394 O   0  0  0  0  0  0  0  0  0  0  0  0
   19.7487  -12.9604   -9.4815 C   0  0  0  0  0  0  0  0  0  0  0  0
   19.7401  -13.6431  -10.7568 N   0  0  0  0  0  0  0  0  0  0  0  0
   25.0620  -14.2171   -4.3028 C   0  0  1  0  0  0  0  0  0  0  0  0
   24.8696  -13.9535   -2.9440 O   0  0  0  0  0  0  0  0  0  0  0  0
   26.8164  -10.0881   -1.0781 C   0  0  0  0  0  0  0  0  0  0  0  0
   23.1002  -11.3881    0.4722 C   0  0  0  0  0  0  0  0  0  0  0  0
  1  2  1  1  0  0  0
  1  6  1  0  0  0  0
  1 21  1  0  0  0  0
  3  4  1  1  0  0  0
  3  8  1  0  0  0  0
  3 28  1  0  0  0  0
  5  9  1  0  0  0  0
  5 25  1  0  0  0  0
  5 29  1  6  0  0  0
  6  7  1  1  0  0  0
  6 11  1  0  0  0  0
  8 12  1  0  0  0  0
  9 10  1  6  0  0  0
  9 14  1  0  0  0  0
 11 16  1  0  0  0  0
 12 13  1  6  0  0  0
 12 17  1  0  0  0  0
 14 15  1  1  0  0  0
 14 18  1  0  0  0  0
 15 31  1  0  0  0  0
 16 20  1  0  0  0  0
 17  2  1  6  0  0  0
 17 22  1  0  0  0  0
 18 19  1  1  0  0  0
 18 24  1  0  0  0  0
 18 30  1  0  0  0  0
 20 21  1  0  0  0  0
 20 26  1  1  0  0  0
 22 23  1  6  0  0  0
 22 28  1  0  0  0  0
 24 25  1  0  0  0  0
 26 27  1  0  0  0  0
 28 29  1  1  0  0  0
M  END
>  <CHROM.1>
-112.52886491,176.47609427,-88.98180222,-71.74558219,130.06687592,75.14392641
24.25618453,-13.02610809,-4.89199365,2.62914155,1.08544817,-2.58696696

>  <Name>
ligand

>  <RI>
0

>  <Rbt.Current_Directory>
/home/itssahil/PROJECTS/Mol_Feturizer/New_Systems/rnas/4F8V

>  <Rbt.Executable>
rbdock ($Id: //depot/dev/client3/rdock/2013.1/src/exe/rbdock.cxx#4 $)

>  <Rbt.Library>
libRbt.so (2013.1, Build901 2013/11/27)

>  <Rbt.Parameter_File>
/export/apps/rDock/src/rDock_2013.1_src/data/scripts/dock_solv.prm

>  <Rbt.Receptor>
prm/pocket_docking_8.prm

>  <SCORE>
-2.57289

>  <SCORE.INTER>
-1.5667

>  <SCORE.INTER.CONST>
1

>  <SCORE.INTER.POLAR>
0

>  <SCORE.INTER.ROT>
6

>  <SCORE.INTER.SOLV>
9.47351

>  <SCORE.INTER.VDW>
-11.8023

>  <SCORE.INTER.norm>
-0.0505389

>  <SCORE.INTRA>
-1.00618

>  <SCORE.INTRA.DIHEDRAL>
-4.80904

>  <SCORE.INTRA.DIHEDRAL.0>
15.9129

>  <SCORE.INTRA.POLAR>
0

>  <SCORE.INTRA.POLAR.0>
0

>  <SCORE.INTRA.REPUL>
0

>  <SCORE.INTRA.REPUL.0>
0

>  <SCORE.INTRA.SOLV>
-0.285224

>  <SCORE.INTRA.SOLV.lig_0>
-75.7056

>  <SCORE.INTRA.VDW>
1.54095

>  <SCORE.INTRA.VDW.0>
-4.61812

>  <SCORE.INTRA.norm>
-0.0324576

>  <SCORE.RESTR>
0

>  <SCORE.RESTR.CAVITY>
0

>  <SCORE.RESTR.norm>
0

>  <SCORE.SYSTEM>
0

>  <SCORE.SYSTEM.CONST>
0

>  <SCORE.SYSTEM.DIHEDRAL>
0

>  <SCORE.SYSTEM.SOLV>
0

>  <SCORE.SYSTEM.norm>
0

>  <SCORE.heavy>
31

>  <SCORE.norm>
-0.0829964

>  <RMSD>
5.904

$$$$
ligand
 OpenBabel11021811493D
libRbt.so/2013.1/901 2013/11/27
 31 33  0  0  0  0  0  0  0  0999 V2000
   23.4477  -12.7833   -8.9465 C   0  0  2  0  0  0  0  0  0  0  0  0
   23.3094  -12.8834   -7.5227 O   0  0  0  0  0  0  0  0  0  0  0  0
   24.8089  -15.7740   -4.7687 C   0  0  2  0  0  0  0  0  0  0  0  0
   25.7346  -16.5565   -4.0212 N   0  0  0  0  0  0  0  0  0  0  0  0
   25.8215  -14.4134   -2.0797 C   0  0  2  0  0  0  0  0  0  0  0  0
   23.7784  -11.2928   -9.2670 C   0  0  2  0  0  0  0  0  0  0  0  0
   24.9892  -10.9095   -8.5438 N   0  0  0  0  0  0  0  0  0  0  0  0
   25.0047  -16.0651   -6.3038 C   0  0  0  0  0  0  0  0  0  0  0  0
   25.2065  -13.8591   -0.7663 C   0  0  2  0  0  0  0  0  0  0  0  0
   23.9204  -14.4117   -0.6023 O   0  0  0  0  0  0  0  0  0  0  0  0
   22.5585  -10.3682   -8.8865 C   0  0  0  0  0  0  0  0  0  0  0  0
   23.9740  -15.1941   -7.1312 C   0  0  2  0  0  0  0  0  0  0  0  0
   24.1557  -15.4609   -8.5727 N   0  0  0  0  0  0  0  0  0  0  0  0
   25.1484  -12.2839   -0.8787 C   0  0  1  0  0  0  0  0  0  0  0  0
   24.5426  -11.7059    0.3541 N   0  0  0  0  0  0  0  0  0  0  0  0
   21.1698  -11.0812   -9.0712 C   0  0  0  0  0  0  0  0  0  0  0  0
   24.2270  -13.6583   -6.8165 C   0  0  2  0  0  0  0  0  0  0  0  0
   26.6546  -11.6956   -1.0682 C   0  0  1  0  0  0  0  0  0  0  0  0
   27.5035  -11.9954    0.0126 O   0  0  0  0  0  0  0  0  0  0  0  0
   21.0887  -12.3726   -9.4248 C   0  0  1  0  0  0  0  0  0  0  0  0
   22.2382  -13.1625   -9.6567 O   0  0  0  0  0  0  0  0  0  0  0  0
   24.0455  -13.3994   -5.2768 C   0  0  2  0  0  0  0  0  0  0  0  0
   24.2859  -12.0204   -5.0020 O   0  0  0  0  0  0  0  0  0  0  0  0
   27.2798  -12.3140   -2.3568 C   0  0  0  0  0  0  0  0  0  0  0  0
   27.1914  -13.8262   -2.3104 O   0  0  0  0  0  0  0  0  0  0  0  0
   19.7455  -13.1076   -9.6008 C   0  0  0  0  0  0  0  0  0  0  0  0
   19.7170  -14.2457   -8.7085 N   0  0  0  0  0  0  0  0  0  0  0  0
   25.0727  -14.2829   -4.4730 C   0  0  1  0  0  0  0  0  0  0  0  0
   24.8818  -14.0408   -3.1099 O   0  0  0  0  0  0  0  0  0  0  0  0
   26.7654  -10.1693   -1.1925 C   0  0  0  0  0  0  0  0  0  0  0  0
   23.0846  -11.5121    0.3311 C   0  0  0  0  0  0  0  0  0  0  0  0
  1  2  1  1  0  0  0
  1  6  1  0  0  0  0
  1 21  1  0  0  0  0
  3  4  1  1  0  0  0
  3  8  1  0  0  0  0
  3 28  1  0  0  0  0
  5  9  1  0  0  0  0
  5 25  1  0  0  0  0
  5 29  1  6  0  0  0
  6  7  1  1  0  0  0
  6 11  1  0  0  0  0
  8 12  1  0  0  0  0
  9 10  1  6  0  0  0
  9 14  1  0  0  0  0
 11 16  1  0  0  0  0
 12 13  1  6  0  0  0
 12 17  1  0  0  0  0
 14 15  1  1  0  0  0
 14 18  1  0  0  0  0
 15 31  1  0  0  0  0
 16 20  1  0  0  0  0
 17  2  1  6  0  0  0
 17 22  1  0  0  0  0
 18 19  1  1  0  0  0
 18 24  1  0  0  0  0
 18 30  1  0  0  0  0
 20 21  1  0  0  0  0
 20 26  1  1  0  0  0
 22 23  1  6  0  0  0
 22 28  1  0  0  0  0
 24 25  1  0  0  0  0
 26 27  1  0  0  0  0
 28 29  1  1  0  0  0
M  END
>  <CHROM.1>
-115.11994071,176.60914989,-91.21191757,-70.75056832,-121.99230433,76.09204698
24.24580532,-13.11069637,-4.97622136,2.67721564,1.09300832,-2.63949742

>  <Name>
ligand

>  <RI>
0

>  <Rbt.Current_Directory>
/home/itssahil/PROJECTS/Mol_Feturizer/New_Systems/rnas/4F8V

>  <Rbt.Executable>
rbdock ($Id: //depot/dev/client3/rdock/2013.1/src/exe/rbdock.cxx#4 $)

>  <Rbt.Library>
libRbt.so (2013.1, Build901 2013/11/27)

>  <Rbt.Parameter_File>
/export/apps/rDock/src/rDock_2013.1_src/data/scripts/dock_solv.prm

>  <Rbt.Receptor>
prm/pocket_docking_7.prm

>  <SCORE>
-2.76334

>  <SCORE.INTER>
-1.81177

>  <SCORE.INTER.CONST>
1

>  <SCORE.INTER.POLAR>
0

>  <SCORE.INTER.ROT>
6

>  <SCORE.INTER.SOLV>
8.5618

>  <SCORE.INTER.VDW>
-11.6618

>  <SCORE.INTER.norm>
-0.0584443

>  <SCORE.INTRA>
-0.95157

>  <SCORE.INTRA.DIHEDRAL>
-4.6887

>  <SCORE.INTRA.DIHEDRAL.0>
15.9129

>  <SCORE.INTRA.POLAR>
0

>  <SCORE.INTRA.POLAR.0>
0

>  <SCORE.INTRA.REPUL>
0

>  <SCORE.INTRA.REPUL.0>
0

>  <SCORE.INTRA.SOLV>
0.0652446

>  <SCORE.INTRA.SOLV.lig_0>
-75.7056

>  <SCORE.INTRA.VDW>
1.36016

>  <SCORE.INTRA.VDW.0>
-4.61812

>  <SCORE.INTRA.norm>
-0.0306958

>  <SCORE.RESTR>
0

>  <SCORE.RESTR.CAVITY>
0

>  <SCORE.RESTR.norm>
0

>  <SCORE.SYSTEM>
0

>  <SCORE.SYSTEM.CONST>
0

>  <SCORE.SYSTEM.DIHEDRAL>
0

>  <SCORE.SYSTEM.SOLV>
0

>  <SCORE.SYSTEM.norm>
0

>  <SCORE.heavy>
31

>  <SCORE.norm>
-0.0891401

>  <RMSD>
5.921

$$$$
ligand
 OpenBabel11021811493D
libRbt.so/2013.1/901 2013/11/27
 31 33  0  0  0  0  0  0  0  0999 V2000
   22.1098   -9.1357    1.9128 C   0  0  2  0  0  0  0  0  0  0  0  0
   22.5061  -10.4804    2.2149 O   0  0  0  0  0  0  0  0  0  0  0  0
   26.1130  -10.5883   -0.0582 C   0  0  2  0  0  0  0  0  0  0  0  0
   27.3535  -11.0551   -0.5790 N   0  0  0  0  0  0  0  0  0  0  0  0
   25.9511  -12.3110   -2.6085 C   0  0  2  0  0  0  0  0  0  0  0  0
   20.8389   -8.8343    2.7660 C   0  0  2  0  0  0  0  0  0  0  0  0
   21.1569   -9.0360    4.1782 N   0  0  0  0  0  0  0  0  0  0  0  0
   26.2430  -10.3991    1.4997 C   0  0  0  0  0  0  0  0  0  0  0  0
   25.2602  -12.5527   -3.9777 C   0  0  2  0  0  0  0  0  0  0  0  0
   24.7181  -11.3332   -4.4307 O   0  0  0  0  0  0  0  0  0  0  0  0
   19.6409   -9.7507    2.3048 C   0  0  0  0  0  0  0  0  0  0  0  0
   24.8628   -9.8798    2.0748 C   0  0  2  0  0  0  0  0  0  0  0  0
   24.9782   -9.7038    3.5370 N   0  0  0  0  0  0  0  0  0  0  0  0
   24.1359  -13.6443   -3.7737 C   0  0  1  0  0  0  0  0  0  0  0  0
   23.4275  -13.8945   -5.0608 N   0  0  0  0  0  0  0  0  0  0  0  0
   19.6819  -10.0841    0.7692 C   0  0  0  0  0  0  0  0  0  0  0  0
   23.7302  -10.9390    1.7327 C   0  0  2  0  0  0  0  0  0  0  0  0
   24.8112  -15.0300   -3.2497 C   0  0  1  0  0  0  0  0  0  0  0  0
   25.7409  -15.5680   -4.1579 O   0  0  0  0  0  0  0  0  0  0  0  0
   20.7027   -9.6872   -0.0052 C   0  0  1  0  0  0  0  0  0  0  0  0
   21.7919   -8.9458    0.5079 O   0  0  0  0  0  0  0  0  0  0  0  0
   23.6354  -11.1239    0.1747 C   0  0  2  0  0  0  0  0  0  0  0  0
   22.6241  -12.0850   -0.1225 O   0  0  0  0  0  0  0  0  0  0  0  0
   25.5555  -14.7528   -1.9069 C   0  0  0  0  0  0  0  0  0  0  0  0
   26.5238  -13.5987   -2.0713 O   0  0  0  0  0  0  0  0  0  0  0  0
   20.7832  -10.0081   -1.5105 C   0  0  0  0  0  0  0  0  0  0  0  0
   20.7898   -8.7661   -2.2518 N   0  0  0  0  0  0  0  0  0  0  0  0
   25.0212  -11.6306   -0.3773 C   0  0  1  0  0  0  0  0  0  0  0  0
   24.9110  -11.7756   -1.7629 O   0  0  0  0  0  0  0  0  0  0  0  0
   23.8417  -16.1949   -3.0038 C   0  0  0  0  0  0  0  0  0  0  0  0
   21.9638  -13.7509   -5.0343 C   0  0  0  0  0  0  0  0  0  0  0  0
  1  2  1  6  0  0  0
  1  6  1  0  0  0  0
  1 21  1  0  0  0  0
  3  4  1  1  0  0  0
  3  8  1  0  0  0  0
  3 28  1  0  0  0  0
  5  9  1  0  0  0  0
  5 25  1  0  0  0  0
  5 29  1  1  0  0  0
  6  7  1  1  0  0  0
  6 11  1  0  0  0  0
  8 12  1  0  0  0  0
  9 10  1  1  0  0  0
  9 14  1  0  0  0  0
 11 16  1  0  0  0  0
 12 13  1  1  0  0  0
 12 17  1  0  0  0  0
 14 15  1  6  0  0  0
 14 18  1  0  0  0  0
 15 31  1  0  0  0  0
 16 20  1  0  0  0  0
 17  2  1  6  0  0  0
 17 22  1  0  0  0  0
 18 19  1  6  0  0  0
 18 24  1  0  0  0  0
 18 30  1  0  0  0  0
 20 21  1  0  0  0  0
 20 26  1  1  0  0  0
 22 23  1  1  0  0  0
 22 28  1  0  0  0  0
 24 25  1  0  0  0  0
 26 27  1  0  0  0  0
 28 29  1  6  0  0  0
M  END
>  <CHROM.1>
-170.81141335,168.21656621,-125.67480505,49.11752421,118.44041480,65.43714842
23.59489367,-11.53029023,-0.75698902,1.99064711,-0.27791549,1.01468554

>  <Name>
ligand

>  <RI>
0

>  <Rbt.Current_Directory>
/home/itssahil/PROJECTS/Mol_Feturizer/New_Systems/rnas/4F8V

>  <Rbt.Executable>
rbdock ($Id: //depot/dev/client3/rdock/2013.1/src/exe/rbdock.cxx#4 $)

>  <Rbt.Library>
libRbt.so (2013.1, Build901 2013/11/27)

>  <Rbt.Parameter_File>
/export/apps/rDock/src/rDock_2013.1_src/data/scripts/dock_solv.prm

>  <Rbt.Receptor>
prm/pocket_docking_7.prm

>  <SCORE>
-8.22195

>  <SCORE.INTER>
-4.01238

>  <SCORE.INTER.CONST>
1

>  <SCORE.INTER.POLAR>
0

>  <SCORE.INTER.ROT>
6

>  <SCORE.INTER.SOLV>
7.43195

>  <SCORE.INTER.VDW>
-12.7522

>  <SCORE.INTER.norm>
-0.129432

>  <SCORE.INTRA>
-4.20957

>  <SCORE.INTRA.DIHEDRAL>
-11.267

>  <SCORE.INTRA.DIHEDRAL.0>
15.9129

>  <SCORE.INTRA.POLAR>
0

>  <SCORE.INTRA.POLAR.0>
0

>  <SCORE.INTRA.REPUL>
0

>  <SCORE.INTRA.REPUL.0>
0

>  <SCORE.INTRA.SOLV>
-0.388612

>  <SCORE.INTRA.SOLV.lig_0>
-75.7056

>  <SCORE.INTRA.VDW>
1.61826

>  <SCORE.INTRA.VDW.0>
-4.61812

>  <SCORE.INTRA.norm>
-0.135793

>  <SCORE.RESTR>
0

>  <SCORE.RESTR.CAVITY>
0

>  <SCORE.RESTR.norm>
0

>  <SCORE.SYSTEM>
0

>  <SCORE.SYSTEM.CONST>
0

>  <SCORE.SYSTEM.DIHEDRAL>
0

>  <SCORE.SYSTEM.SOLV>
0

>  <SCORE.SYSTEM.norm>
0

>  <SCORE.heavy>
31

>  <SCORE.norm>
-0.265224

>  <RMSD>
5.950

$$$$
ligand
 OpenBabel11021811493D
libRbt.so/2013.1/901 2013/11/27
 31 33  0  0  0  0  0  0  0  0999 V2000
   23.9367   -4.6155   -6.1596 C   0  0  2  0  0  0  0  0  0  0  0  0
   24.1760   -5.6824   -5.2317 O   0  0  0  0  0  0  0  0  0  0  0  0
   24.1661   -5.7211   -0.9671 C   0  0  2  0  0  0  0  0  0  0  0  0
   23.6916   -5.6144    0.3713 N   0  0  0  0  0  0  0  0  0  0  0  0
   22.8384   -8.3644    0.1825 C   0  0  2  0  0  0  0  0  0  0  0  0
   22.5717   -4.9145   -6.8532 C   0  0  2  0  0  0  0  0  0  0  0  0
   21.5346   -5.0292   -5.8297 N   0  0  0  0  0  0  0  0  0  0  0  0
   24.0253   -4.3241   -1.6800 C   0  0  0  0  0  0  0  0  0  0  0  0
   23.5607   -9.6597    0.6418 C   0  0  2  0  0  0  0  0  0  0  0  0
   24.9407   -9.3932    0.7468 O   0  0  0  0  0  0  0  0  0  0  0  0
   22.6761   -6.2264   -7.7226 C   0  0  0  0  0  0  0  0  0  0  0  0
   24.5540   -4.4464   -3.1670 C   0  0  2  0  0  0  0  0  0  0  0  0
   24.4210   -3.1389   -3.8416 N   0  0  0  0  0  0  0  0  0  0  0  0
   23.2699  -10.7880   -0.4257 C   0  0  1  0  0  0  0  0  0  0  0  0
   23.9634  -12.0488   -0.0379 N   0  0  0  0  0  0  0  0  0  0  0  0
   24.1069   -6.4405   -8.3373 C   0  0  0  0  0  0  0  0  0  0  0  0
   23.7034   -5.5506   -3.9277 C   0  0  2  0  0  0  0  0  0  0  0  0
   21.6664  -11.0568   -0.5105 C   0  0  1  0  0  0  0  0  0  0  0  0
   21.1160  -11.4967    0.7070 O   0  0  0  0  0  0  0  0  0  0  0  0
   25.1241   -5.6168   -8.0437 C   0  0  1  0  0  0  0  0  0  0  0  0
   24.9704   -4.5117   -7.1753 O   0  0  0  0  0  0  0  0  0  0  0  0
   23.8448   -6.9286   -3.1849 C   0  0  2  0  0  0  0  0  0  0  0  0
   23.0686   -7.9111   -3.8682 O   0  0  0  0  0  0  0  0  0  0  0  0
   20.9520   -9.7285   -0.9093 C   0  0  0  0  0  0  0  0  0  0  0  0
   21.3583   -8.6108    0.0302 O   0  0  0  0  0  0  0  0  0  0  0  0
   26.5427   -5.8046   -8.6161 C   0  0  0  0  0  0  0  0  0  0  0  0
   27.3500   -6.5030   -7.6399 N   0  0  0  0  0  0  0  0  0  0  0  0
   23.3231   -6.7815   -1.7057 C   0  0  1  0  0  0  0  0  0  0  0  0
   23.4705   -8.0160   -1.0675 O   0  0  0  0  0  0  0  0  0  0  0  0
   21.2212  -12.1340   -1.5099 C   0  0  0  0  0  0  0  0  0  0  0  0
   25.2641  -12.2973   -0.6786 C   0  0  0  0  0  0  0  0  0  0  0  0
  1  2  1  1  0  0  0
  1  6  1  0  0  0  0
  1 21  1  0  0  0  0
  3  4  1  1  0  0  0
  3  8  1  0  0  0  0
  3 28  1  0  0  0  0
  5  9  1  0  0  0  0
  5 25  1  0  0  0  0
  5 29  1  6  0  0  0
  6  7  1  1  0  0  0
  6 11  1  0  0  0  0
  8 12  1  0  0  0  0
  9 10  1  6  0  0  0
  9 14  1  0  0  0  0
 11 16  1  0  0  0  0
 12 13  1  6  0  0  0
 12 17  1  0  0  0  0
 14 15  1  1  0  0  0
 14 18  1  0  0  0  0
 15 31  1  0  0  0  0
 16 20  1  0  0  0  0
 17  2  1  6  0  0  0
 17 22  1  0  0  0  0
 18 19  1  1  0  0  0
 18 24  1  0  0  0  0
 18 30  1  0  0  0  0
 20 21  1  0  0  0  0
 20 26  1  1  0  0  0
 22 23  1  6  0  0  0
 22 28  1  0  0  0  0
 24 25  1  0  0  0  0
 26 27  1  0  0  0  0
 28 29  1  1  0  0  0
M  END
>  <CHROM.1>
-89.87661944,-166.72868619,-96.87431164,-70.44694376,-97.21653730,75.47975736
23.58854292,-7.43982610,-3.08738159,0.15031375,1.36520276,0.49546509

>  <Name>
ligand

>  <RI>
0

>  <Rbt.Current_Directory>
/home/itssahil/PROJECTS/Mol_Feturizer/New_Systems/rnas/4F8V

>  <Rbt.Executable>
rbdock ($Id: //depot/dev/client3/rdock/2013.1/src/exe/rbdock.cxx#4 $)

>  <Rbt.Library>
libRbt.so (2013.1, Build901 2013/11/27)

>  <Rbt.Parameter_File>
/export/apps/rDock/src/rDock_2013.1_src/data/scripts/dock_solv.prm

>  <Rbt.Receptor>
prm/pocket_docking_7.prm

>  <SCORE>
-4.41852

>  <SCORE.INTER>
-3.16572

>  <SCORE.INTER.CONST>
1

>  <SCORE.INTER.POLAR>
0

>  <SCORE.INTER.ROT>
6

>  <SCORE.INTER.SOLV>
16.1676

>  <SCORE.INTER.VDW>
-15.0997

>  <SCORE.INTER.norm>
-0.10212

>  <SCORE.INTRA>
-1.2528

>  <SCORE.INTRA.DIHEDRAL>
-6.75586

>  <SCORE.INTRA.DIHEDRAL.0>
15.9129

>  <SCORE.INTRA.POLAR>
0

>  <SCORE.INTRA.POLAR.0>
0

>  <SCORE.INTRA.REPUL>
0

>  <SCORE.INTRA.REPUL.0>
0

>  <SCORE.INTRA.SOLV>
1.01887

>  <SCORE.INTRA.SOLV.lig_0>
-75.7056

>  <SCORE.INTRA.VDW>
1.6157

>  <SCORE.INTRA.VDW.0>
-4.61812

>  <SCORE.INTRA.norm>
-0.0404128

>  <SCORE.RESTR>
0

>  <SCORE.RESTR.CAVITY>
0

>  <SCORE.RESTR.norm>
0

>  <SCORE.SYSTEM>
0

>  <SCORE.SYSTEM.CONST>
0

>  <SCORE.SYSTEM.DIHEDRAL>
0

>  <SCORE.SYSTEM.SOLV>
0

>  <SCORE.SYSTEM.norm>
0

>  <SCORE.heavy>
31

>  <SCORE.norm>
-0.142533

>  <RMSD>
6.029

$$$$
ligand
 OpenBabel11021811493D
libRbt.so/2013.1/901 2013/11/27
 31 33  0  0  0  0  0  0  0  0999 V2000
   20.8376  -10.5509   -1.7365 C   0  0  2  0  0  0  0  0  0  0  0  0
   22.0827  -11.2622   -1.7173 O   0  0  0  0  0  0  0  0  0  0  0  0
   23.3832  -14.9936   -3.3216 C   0  0  2  0  0  0  0  0  0  0  0  0
   23.3829  -16.3753   -3.6665 N   0  0  0  0  0  0  0  0  0  0  0  0
   22.0116  -15.6995   -6.0437 C   0  0  2  0  0  0  0  0  0  0  0  0
   21.1671   -9.0682   -2.0924 C   0  0  2  0  0  0  0  0  0  0  0  0
   21.8688   -9.0327   -3.3740 N   0  0  0  0  0  0  0  0  0  0  0  0
   23.3497  -14.8505   -1.7538 C   0  0  0  0  0  0  0  0  0  0  0  0
   22.3183  -15.3536   -7.5259 C   0  0  2  0  0  0  0  0  0  0  0  0
   23.6221  -14.8243   -7.6048 O   0  0  0  0  0  0  0  0  0  0  0  0
   22.0232   -8.4076   -0.9441 C   0  0  0  0  0  0  0  0  0  0  0  0
   23.3505  -13.3138   -1.3743 C   0  0  2  0  0  0  0  0  0  0  0  0
   23.3157  -13.1738    0.0959 N   0  0  0  0  0  0  0  0  0  0  0  0
   21.2399  -14.3089   -8.0188 C   0  0  1  0  0  0  0  0  0  0  0  0
   21.5074  -13.9285   -9.4347 N   0  0  0  0  0  0  0  0  0  0  0  0
   21.6773   -8.9752    0.4803 C   0  0  0  0  0  0  0  0  0  0  0  0
   22.0792  -12.6207   -2.0264 C   0  0  2  0  0  0  0  0  0  0  0  0
   19.7545  -14.9659   -7.9067 C   0  0  1  0  0  0  0  0  0  0  0  0
   19.5992  -16.1165   -8.7008 O   0  0  0  0  0  0  0  0  0  0  0  0
   20.8071   -9.9837    0.6384 C   0  0  1  0  0  0  0  0  0  0  0  0
   20.1493  -10.5883   -0.4575 O   0  0  0  0  0  0  0  0  0  0  0  0
   22.1269  -12.7957   -3.5877 C   0  0  2  0  0  0  0  0  0  0  0  0
   20.9759  -12.1805   -4.1635 O   0  0  0  0  0  0  0  0  0  0  0  0
   19.4902  -15.3666   -6.4223 C   0  0  0  0  0  0  0  0  0  0  0  0
   20.6123  -16.2457   -5.9075 O   0  0  0  0  0  0  0  0  0  0  0  0
   20.4552  -10.5748    2.0176 C   0  0  0  0  0  0  0  0  0  0  0  0
   19.3080   -9.8707    2.5471 N   0  0  0  0  0  0  0  0  0  0  0  0
   22.1358  -14.3306   -3.9422 C   0  0  1  0  0  0  0  0  0  0  0  0
   22.1891  -14.4558   -5.3330 O   0  0  0  0  0  0  0  0  0  0  0  0
   18.5913  -14.0685   -8.3527 C   0  0  0  0  0  0  0  0  0  0  0  0
   21.4408  -12.4919   -9.7441 C   0  0  0  0  0  0  0  0  0  0  0  0
  1  2  1  1  0  0  0
  1  6  1  0  0  0  0
  1 21  1  0  0  0  0
  3  4  1  1  0  0  0
  3  8  1  0  0  0  0
  3 28  1  0  0  0  0
  5  9  1  0  0  0  0
  5 25  1  0  0  0  0
  5 29  1  1  0  0  0
  6  7  1  6  0  0  0
  6 11  1  0  0  0  0
  8 12  1  0  0  0  0
  9 10  1  1  0  0  0
  9 14  1  0  0  0  0
 11 16  1  0  0  0  0
 12 13  1  1  0  0  0
 12 17  1  0  0  0  0
 14 15  1  6  0  0  0
 14 18  1  0  0  0  0
 15 31  1  0  0  0  0
 16 20  1  0  0  0  0
 17  2  1  6  0  0  0
 17 22  1  0  0  0  0
 18 19  1  6  0  0  0
 18 24  1  0  0  0  0
 18 30  1  0  0  0  0
 20 21  1  0  0  0  0
 20 26  1  6  0  0  0
 22 23  1  6  0  0  0
 22 28  1  0  0  0  0
 24 25  1  0  0  0  0
 26 27  1  0  0  0  0
 28 29  1  6  0  0  0
M  END
>  <CHROM.1>
-151.36972430,-173.73167040,-134.49817125,-156.24180205,91.23463349,70.61770459
21.49528275,-12.94202217,-3.89519219,1.53613622,-1.05838602,1.00633547

>  <Name>
ligand

>  <RI>
0

>  <Rbt.Current_Directory>
/home/itssahil/PROJECTS/Mol_Feturizer/New_Systems/rnas/4F8V

>  <Rbt.Executable>
rbdock ($Id: //depot/dev/client3/rdock/2013.1/src/exe/rbdock.cxx#4 $)

>  <Rbt.Library>
libRbt.so (2013.1, Build901 2013/11/27)

>  <Rbt.Parameter_File>
/export/apps/rDock/src/rDock_2013.1_src/data/scripts/dock_solv.prm

>  <Rbt.Receptor>
prm/pocket_docking_7.prm

>  <SCORE>
-4.54699

>  <SCORE.INTER>
-2.22555

>  <SCORE.INTER.CONST>
1

>  <SCORE.INTER.POLAR>
0

>  <SCORE.INTER.ROT>
6

>  <SCORE.INTER.SOLV>
14.9257

>  <SCORE.INTER.VDW>
-14.0589

>  <SCORE.INTER.norm>
-0.0717921

>  <SCORE.INTRA>
-2.32144

>  <SCORE.INTRA.DIHEDRAL>
-5.77879

>  <SCORE.INTRA.DIHEDRAL.0>
15.9129

>  <SCORE.INTRA.POLAR>
0

>  <SCORE.INTRA.POLAR.0>
0

>  <SCORE.INTRA.REPUL>
0

>  <SCORE.INTRA.REPUL.0>
0

>  <SCORE.INTRA.SOLV>
-1.15387

>  <SCORE.INTRA.SOLV.lig_0>
-75.7056

>  <SCORE.INTRA.VDW>
1.14489

>  <SCORE.INTRA.VDW.0>
-4.61812

>  <SCORE.INTRA.norm>
-0.0748851

>  <SCORE.RESTR>
0

>  <SCORE.RESTR.CAVITY>
0

>  <SCORE.RESTR.norm>
0

>  <SCORE.SYSTEM>
0

>  <SCORE.SYSTEM.CONST>
0

>  <SCORE.SYSTEM.DIHEDRAL>
0

>  <SCORE.SYSTEM.SOLV>
0

>  <SCORE.SYSTEM.norm>
0

>  <SCORE.heavy>
31

>  <SCORE.norm>
-0.146677

>  <RMSD>
6.047

$$$$
ligand
 OpenBabel11021811493D
libRbt.so/2013.1/901 2013/11/27
 31 33  0  0  0  0  0  0  0  0999 V2000
   22.8251   -6.9302   -5.2708 C   0  0  2  0  0  0  0  0  0  0  0  0
   23.2450   -7.9593   -6.1769 O   0  0  0  0  0  0  0  0  0  0  0  0
   26.5909  -10.6023   -6.0857 C   0  0  2  0  0  0  0  0  0  0  0  0
   27.9409  -11.0509   -6.0211 N   0  0  0  0  0  0  0  0  0  0  0  0
   27.7252  -11.0410   -3.2030 C   0  0  2  0  0  0  0  0  0  0  0  0
   21.3301   -6.6230   -5.5936 C   0  0  2  0  0  0  0  0  0  0  0  0
   20.5540   -7.8546   -5.4636 N   0  0  0  0  0  0  0  0  0  0  0  0
   26.3991   -9.7194   -7.3755 C   0  0  0  0  0  0  0  0  0  0  0  0
   27.3704  -12.0993   -2.1239 C   0  0  2  0  0  0  0  0  0  0  0  0
   26.5760  -13.1003   -2.7183 O   0  0  0  0  0  0  0  0  0  0  0  0
   21.1988   -6.0047   -7.0387 C   0  0  0  0  0  0  0  0  0  0  0  0
   24.8976   -9.2231   -7.4442 C   0  0  2  0  0  0  0  0  0  0  0  0
   24.7129   -8.3912   -8.6509 N   0  0  0  0  0  0  0  0  0  0  0  0
   26.5989  -11.3679   -0.9547 C   0  0  1  0  0  0  0  0  0  0  0  0
   26.2166  -12.3509    0.0982 N   0  0  0  0  0  0  0  0  0  0  0  0
   22.4439   -5.1368   -7.4480 C   0  0  0  0  0  0  0  0  0  0  0  0
   24.5720   -8.3819   -6.1372 C   0  0  2  0  0  0  0  0  0  0  0  0
   27.5558  -10.2228   -0.3039 C   0  0  1  0  0  0  0  0  0  0  0  0
   28.7384  -10.7434    0.2521 O   0  0  0  0  0  0  0  0  0  0  0  0
   23.5215   -5.0428   -6.6549 C   0  0  1  0  0  0  0  0  0  0  0  0
   23.5995   -5.7087   -5.4100 O   0  0  0  0  0  0  0  0  0  0  0  0
   24.7908   -9.2792   -4.8653 C   0  0  2  0  0  0  0  0  0  0  0  0
   24.5074   -8.5124   -3.6964 O   0  0  0  0  0  0  0  0  0  0  0  0
   27.9549   -9.2054   -1.4172 C   0  0  0  0  0  0  0  0  0  0  0  0
   28.5547   -9.9331   -2.6036 O   0  0  0  0  0  0  0  0  0  0  0  0
   24.7651   -4.2135   -7.0302 C   0  0  0  0  0  0  0  0  0  0  0  0
   25.0303   -3.2658   -5.9701 N   0  0  0  0  0  0  0  0  0  0  0  0
   26.2872   -9.7701   -4.8225 C   0  0  1  0  0  0  0  0  0  0  0  0
   26.4497  -10.5725   -3.6899 O   0  0  0  0  0  0  0  0  0  0  0  0
   26.9448   -9.4193    0.8530 C   0  0  0  0  0  0  0  0  0  0  0  0
   24.8890  -12.9685   -0.0422 C   0  0  0  0  0  0  0  0  0  0  0  0
  1  2  1  6  0  0  0
  1  6  1  0  0  0  0
  1 21  1  0  0  0  0
  3  4  1  1  0  0  0
  3  8  1  0  0  0  0
  3 28  1  0  0  0  0
  5  9  1  0  0  0  0
  5 25  1  0  0  0  0
  5 29  1  1  0  0  0
  6  7  1  6  0  0  0
  6 11  1  0  0  0  0
  8 12  1  0  0  0  0
  9 10  1  6  0  0  0
  9 14  1  0  0  0  0
 11 16  1  0  0  0  0
 12 13  1  6  0  0  0
 12 17  1  0  0  0  0
 14 15  1  1  0  0  0
 14 18  1  0  0  0  0
 15 31  1  0  0  0  0
 16 20  1  0  0  0  0
 17  2  1  6  0  0  0
 17 22  1  0  0  0  0
 18 19  1  1  0  0  0
 18 24  1  0  0  0  0
 18 30  1  0  0  0  0
 20 21  1  0  0  0  0
 20 26  1  6  0  0  0
 22 23  1  1  0  0  0
 22 28  1  0  0  0  0
 24 25  1  0  0  0  0
 26 27  1  0  0  0  0
 28 29  1  1  0  0  0
M  END
>  <CHROM.1>
177.27709890,-169.12571527,-91.66891268,-165.32791286,124.62523685,70.61477934
25.33287470,-8.94342863,-4.24639008,2.44160481,0.90531105,-1.56588214

>  <Name>
ligand

>  <RI>
0

>  <Rbt.Current_Directory>
/home/itssahil/PROJECTS/Mol_Feturizer/New_Systems/rnas/4F8V

>  <Rbt.Executable>
rbdock ($Id: //depot/dev/client3/rdock/2013.1/src/exe/rbdock.cxx#4 $)

>  <Rbt.Library>
libRbt.so (2013.1, Build901 2013/11/27)

>  <Rbt.Parameter_File>
/export/apps/rDock/src/rDock_2013.1_src/data/scripts/dock_solv.prm

>  <Rbt.Receptor>
prm/pocket_docking_7.prm

>  <SCORE>
-9.51161

>  <SCORE.INTER>
-4.41628

>  <SCORE.INTER.CONST>
1

>  <SCORE.INTER.POLAR>
0

>  <SCORE.INTER.ROT>
6

>  <SCORE.INTER.SOLV>
6.92118

>  <SCORE.INTER.VDW>
-12.8512

>  <SCORE.INTER.norm>
-0.142461

>  <SCORE.INTRA>
-5.09533

>  <SCORE.INTRA.DIHEDRAL>
-11.3918

>  <SCORE.INTRA.DIHEDRAL.0>
15.9129

>  <SCORE.INTRA.POLAR>
0

>  <SCORE.INTRA.POLAR.0>
0

>  <SCORE.INTRA.REPUL>
0

>  <SCORE.INTRA.REPUL.0>
0

>  <SCORE.INTRA.SOLV>
-1.8929

>  <SCORE.INTRA.SOLV.lig_0>
-75.7056

>  <SCORE.INTRA.VDW>
1.54702

>  <SCORE.INTRA.VDW.0>
-4.61812

>  <SCORE.INTRA.norm>
-0.164365

>  <SCORE.RESTR>
0

>  <SCORE.RESTR.CAVITY>
0

>  <SCORE.RESTR.norm>
0

>  <SCORE.SYSTEM>
0

>  <SCORE.SYSTEM.CONST>
0

>  <SCORE.SYSTEM.DIHEDRAL>
0

>  <SCORE.SYSTEM.SOLV>
0

>  <SCORE.SYSTEM.norm>
0

>  <SCORE.heavy>
31

>  <SCORE.norm>
-0.306826

>  <RMSD>
6.080

$$$$
ligand
 OpenBabel11021811493D
libRbt.so/2013.1/901 2013/11/27
 31 33  0  0  0  0  0  0  0  0999 V2000
   21.7556  -16.9228   -6.1988 C   0  0  2  0  0  0  0  0  0  0  0  0
   21.8520  -15.5122   -6.4381 O   0  0  0  0  0  0  0  0  0  0  0  0
   21.9267  -12.1378   -3.8311 C   0  0  2  0  0  0  0  0  0  0  0  0
   21.5539  -11.2454   -2.7858 N   0  0  0  0  0  0  0  0  0  0  0  0
   23.7013  -14.5669   -1.5144 C   0  0  2  0  0  0  0  0  0  0  0  0
   22.4043  -17.6368   -7.4248 C   0  0  2  0  0  0  0  0  0  0  0  0
   23.7821  -17.1716   -7.5703 N   0  0  0  0  0  0  0  0  0  0  0  0
   20.7639  -12.2102   -4.8904 C   0  0  0  0  0  0  0  0  0  0  0  0
   24.3815  -13.9186   -0.2785 C   0  0  2  0  0  0  0  0  0  0  0  0
   23.4348  -13.1138    0.3867 O   0  0  0  0  0  0  0  0  0  0  0  0
   21.5588  -17.3620   -8.7277 C   0  0  0  0  0  0  0  0  0  0  0  0
   21.1819  -13.2024   -6.0507 C   0  0  2  0  0  0  0  0  0  0  0  0
   20.0927  -13.2767   -7.0458 N   0  0  0  0  0  0  0  0  0  0  0  0
   25.6103  -13.0648   -0.7867 C   0  0  1  0  0  0  0  0  0  0  0  0
   26.2839  -12.4028    0.3662 N   0  0  0  0  0  0  0  0  0  0  0  0
   20.0216  -17.2074   -8.4381 C   0  0  0  0  0  0  0  0  0  0  0  0
   21.4609  -14.6362   -5.4277 C   0  0  2  0  0  0  0  0  0  0  0  0
   26.6714  -14.0373   -1.5476 C   0  0  1  0  0  0  0  0  0  0  0  0
   27.1920  -15.0439   -0.7143 O   0  0  0  0  0  0  0  0  0  0  0  0
   19.5418  -17.2194   -7.1855 C   0  0  1  0  0  0  0  0  0  0  0  0
   20.3824  -17.3766   -6.0595 O   0  0  0  0  0  0  0  0  0  0  0  0
   22.6101  -14.5321   -4.3604 C   0  0  2  0  0  0  0  0  0  0  0  0
   22.8457  -15.8218   -3.7982 O   0  0  0  0  0  0  0  0  0  0  0  0
   25.9522  -14.7295   -2.7465 C   0  0  0  0  0  0  0  0  0  0  0  0
   24.6876  -15.4183   -2.2741 O   0  0  0  0  0  0  0  0  0  0  0  0
   18.0434  -17.0562   -6.8635 C   0  0  0  0  0  0  0  0  0  0  0  0
   17.4014  -16.3755   -7.9666 N   0  0  0  0  0  0  0  0  0  0  0  0
   22.1777  -13.5329   -3.2218 C   0  0  1  0  0  0  0  0  0  0  0  0
   23.2202  -13.4520   -2.2947 O   0  0  0  0  0  0  0  0  0  0  0  0
   27.9283  -13.3514   -2.1017 C   0  0  0  0  0  0  0  0  0  0  0  0
   26.8057  -11.0493    0.1227 C   0  0  0  0  0  0  0  0  0  0  0  0
  1  2  1  6  0  0  0
  1  6  1  0  0  0  0
  1 21  1  0  0  0  0
  3  4  1  1  0  0  0
  3  8  1  0  0  0  0
  3 28  1  0  0  0  0
  5  9  1  0  0  0  0
  5 25  1  0  0  0  0
  5 29  1  6  0  0  0
  6  7  1  6  0  0  0
  6 11  1  0  0  0  0
  8 12  1  0  0  0  0
  9 10  1  6  0  0  0
  9 14  1  0  0  0  0
 11 16  1  0  0  0  0
 12 13  1  6  0  0  0
 12 17  1  0  0  0  0
 14 15  1  1  0  0  0
 14 18  1  0  0  0  0
 15 31  1  0  0  0  0
 16 20  1  0  0  0  0
 17  2  1  6  0  0  0
 17 22  1  0  0  0  0
 18 19  1  1  0  0  0
 18 24  1  0  0  0  0
 18 30  1  0  0  0  0
 20 21  1  0  0  0  0
 20 26  1  1  0  0  0
 22 23  1  1  0  0  0
 22 28  1  0  0  0  0
 24 25  1  0  0  0  0
 26 27  1  0  0  0  0
 28 29  1  1  0  0  0
M  END
>  <CHROM.1>
-173.78857294,-157.03887247,-143.20220143,-160.94163038,-23.06422287,178.67867612
22.84452057,-14.66946580,-4.07884003,-2.32222895,-0.46685539,0.70757771

>  <Name>
ligand

>  <RI>
0

>  <Rbt.Current_Directory>
/home/itssahil/PROJECTS/Mol_Feturizer/New_Systems/rnas/4F8V

>  <Rbt.Executable>
rbdock ($Id: //depot/dev/client3/rdock/2013.1/src/exe/rbdock.cxx#4 $)

>  <Rbt.Library>
libRbt.so (2013.1, Build901 2013/11/27)

>  <Rbt.Parameter_File>
/export/apps/rDock/src/rDock_2013.1_src/data/scripts/dock_solv.prm

>  <Rbt.Receptor>
prm/pocket_docking_7.prm

>  <SCORE>
-11.8705

>  <SCORE.INTER>
-9.70351

>  <SCORE.INTER.CONST>
1

>  <SCORE.INTER.POLAR>
0

>  <SCORE.INTER.ROT>
6

>  <SCORE.INTER.SOLV>
15.2123

>  <SCORE.INTER.VDW>
-19.1398

>  <SCORE.INTER.norm>
-0.313017

>  <SCORE.INTRA>
-2.16698

>  <SCORE.INTRA.DIHEDRAL>
-8.65487

>  <SCORE.INTRA.DIHEDRAL.0>
15.9129

>  <SCORE.INTRA.POLAR>
0

>  <SCORE.INTRA.POLAR.0>
0

>  <SCORE.INTRA.REPUL>
0

>  <SCORE.INTRA.REPUL.0>
0

>  <SCORE.INTRA.SOLV>
-2.25242

>  <SCORE.INTRA.SOLV.lig_0>
-75.7056

>  <SCORE.INTRA.VDW>
3.28667

>  <SCORE.INTRA.VDW.0>
-4.61812

>  <SCORE.INTRA.norm>
-0.0699025

>  <SCORE.RESTR>
0

>  <SCORE.RESTR.CAVITY>
0

>  <SCORE.RESTR.norm>
0

>  <SCORE.SYSTEM>
0

>  <SCORE.SYSTEM.CONST>
0

>  <SCORE.SYSTEM.DIHEDRAL>
0

>  <SCORE.SYSTEM.SOLV>
0

>  <SCORE.SYSTEM.norm>
0

>  <SCORE.heavy>
31

>  <SCORE.norm>
-0.382919

>  <RMSD>
6.087

$$$$
ligand
 OpenBabel11021811493D
libRbt.so/2013.1/901 2013/11/27
 31 33  0  0  0  0  0  0  0  0999 V2000
   22.9246   -6.8802   -5.2575 C   0  0  2  0  0  0  0  0  0  0  0  0
   23.3693   -7.8706   -6.1943 O   0  0  0  0  0  0  0  0  0  0  0  0
   26.7172  -10.5115   -6.1206 C   0  0  2  0  0  0  0  0  0  0  0  0
   28.0662  -10.9607   -6.0405 N   0  0  0  0  0  0  0  0  0  0  0  0
   27.7854  -11.0377   -3.2175 C   0  0  2  0  0  0  0  0  0  0  0  0
   21.4292   -6.5823   -5.5871 C   0  0  2  0  0  0  0  0  0  0  0  0
   20.6691   -7.8282   -5.5099 N   0  0  0  0  0  0  0  0  0  0  0  0
   26.5542   -9.5824   -7.3814 C   0  0  0  0  0  0  0  0  0  0  0  0
   27.4096  -12.0916   -2.1411 C   0  0  2  0  0  0  0  0  0  0  0  0
   26.6249  -13.0939   -2.7462 O   0  0  0  0  0  0  0  0  0  0  0  0
   21.3057   -5.9150   -7.0109 C   0  0  0  0  0  0  0  0  0  0  0  0
   25.0538   -9.0855   -7.4674 C   0  0  2  0  0  0  0  0  0  0  0  0
   24.8960   -8.2103   -8.6470 N   0  0  0  0  0  0  0  0  0  0  0  0
   26.6178  -11.3549   -0.9890 C   0  0  1  0  0  0  0  0  0  0  0  0
   26.2151  -12.3336    0.0604 N   0  0  0  0  0  0  0  0  0  0  0  0
   22.5429   -5.0162   -7.3745 C   0  0  0  0  0  0  0  0  0  0  0  0
   24.6958   -8.2930   -6.1387 C   0  0  2  0  0  0  0  0  0  0  0  0
   27.5642  -10.2086   -0.3249 C   0  0  1  0  0  0  0  0  0  0  0  0
   28.7358  -10.7286    0.2545 O   0  0  0  0  0  0  0  0  0  0  0  0
   23.6100   -4.9356   -6.5657 C   0  0  1  0  0  0  0  0  0  0  0  0
   23.6832   -5.6440   -5.3442 O   0  0  0  0  0  0  0  0  0  0  0  0
   24.8864   -9.2360   -4.8956 C   0  0  2  0  0  0  0  0  0  0  0  0
   24.5739   -8.5127   -3.7065 O   0  0  0  0  0  0  0  0  0  0  0  0
   27.9848   -9.1958   -1.4345 C   0  0  0  0  0  0  0  0  0  0  0  0
   28.6052   -9.9286   -2.6071 O   0  0  0  0  0  0  0  0  0  0  0  0
   24.8460   -4.0765   -6.8968 C   0  0  0  0  0  0  0  0  0  0  0  0
   25.0997   -3.1797   -5.7905 N   0  0  0  0  0  0  0  0  0  0  0  0
   26.3822   -9.7264   -4.8353 C   0  0  1  0  0  0  0  0  0  0  0  0
   26.5196  -10.5695   -3.7293 O   0  0  0  0  0  0  0  0  0  0  0  0
   26.9331   -9.4001    0.8176 C   0  0  0  0  0  0  0  0  0  0  0  0
   24.9043  -12.9761   -0.1204 C   0  0  0  0  0  0  0  0  0  0  0  0
  1  2  1  6  0  0  0
  1  6  1  0  0  0  0
  1 21  1  0  0  0  0
  3  4  1  1  0  0  0
  3  8  1  0  0  0  0
  3 28  1  0  0  0  0
  5  9  1  0  0  0  0
  5 25  1  0  0  0  0
  5 29  1  1  0  0  0
  6  7  1  6  0  0  0
  6 11  1  0  0  0  0
  8 12  1  0  0  0  0
  9 10  1  6  0  0  0
  9 14  1  0  0  0  0
 11 16  1  0  0  0  0
 12 13  1  6  0  0  0
 12 17  1  0  0  0  0
 14 15  1  1  0  0  0
 14 18  1  0  0  0  0
 15 31  1  0  0  0  0
 16 20  1  0  0  0  0
 17  2  1  6  0  0  0
 17 22  1  0  0  0  0
 18 19  1  1  0  0  0
 18 24  1  0  0  0  0
 18 30  1  0  0  0  0
 20 21  1  0  0  0  0
 20 26  1  6  0  0  0
 22 23  1  1  0  0  0
 22 28  1  0  0  0  0
 24 25  1  0  0  0  0
 26 27  1  0  0  0  0
 28 29  1  1  0  0  0
M  END
>  <CHROM.1>
178.36722837,-171.86319382,-90.14536157,-165.60275101,125.62066711,71.60021613
25.41006138,-8.88868001,-4.24440111,2.41591089,0.90125089,-1.52146569

>  <Name>
ligand

>  <RI>
0

>  <Rbt.Current_Directory>
/home/itssahil/PROJECTS/Mol_Feturizer/New_Systems/rnas/4F8V

>  <Rbt.Executable>
rbdock ($Id: //depot/dev/client3/rdock/2013.1/src/exe/rbdock.cxx#4 $)

>  <Rbt.Library>
libRbt.so (2013.1, Build901 2013/11/27)

>  <Rbt.Parameter_File>
/export/apps/rDock/src/rDock_2013.1_src/data/scripts/dock_solv.prm

>  <Rbt.Receptor>
prm/pocket_docking_8.prm

>  <SCORE>
-9.52159

>  <SCORE.INTER>
-4.27205

>  <SCORE.INTER.CONST>
1

>  <SCORE.INTER.POLAR>
0

>  <SCORE.INTER.ROT>
6

>  <SCORE.INTER.SOLV>
6.91359

>  <SCORE.INTER.VDW>
-12.7526

>  <SCORE.INTER.norm>
-0.137808

>  <SCORE.INTRA>
-5.24954

>  <SCORE.INTRA.DIHEDRAL>
-11.6295

>  <SCORE.INTRA.DIHEDRAL.0>
15.9129

>  <SCORE.INTRA.POLAR>
0

>  <SCORE.INTRA.POLAR.0>
0

>  <SCORE.INTRA.REPUL>
0

>  <SCORE.INTRA.REPUL.0>
0

>  <SCORE.INTRA.SOLV>
-1.95531

>  <SCORE.INTRA.SOLV.lig_0>
-75.7056

>  <SCORE.INTRA.VDW>
1.54286

>  <SCORE.INTRA.VDW.0>
-4.61812

>  <SCORE.INTRA.norm>
-0.16934

>  <SCORE.RESTR>
0

>  <SCORE.RESTR.CAVITY>
0

>  <SCORE.RESTR.norm>
0

>  <SCORE.SYSTEM>
0

>  <SCORE.SYSTEM.CONST>
0

>  <SCORE.SYSTEM.DIHEDRAL>
0

>  <SCORE.SYSTEM.SOLV>
0

>  <SCORE.SYSTEM.norm>
0

>  <SCORE.heavy>
31

>  <SCORE.norm>
-0.307148

>  <RMSD>
6.144

$$$$
ligand
 OpenBabel11021811493D
libRbt.so/2013.1/901 2013/11/27
 31 33  0  0  0  0  0  0  0  0999 V2000
   15.4222   -6.6282   -3.2520 C   0  0  2  0  0  0  0  0  0  0  0  0
   15.8802   -6.3034   -4.5715 O   0  0  0  0  0  0  0  0  0  0  0  0
   19.5801   -7.0547   -6.5551 C   0  0  2  0  0  0  0  0  0  0  0  0
   20.9808   -7.0800   -6.8107 N   0  0  0  0  0  0  0  0  0  0  0  0
   19.6248  -10.0809   -4.2621 C   0  0  2  0  0  0  0  0  0  0  0  0
   13.8630   -6.6341   -3.3011 C   0  0  2  0  0  0  0  0  0  0  0  0
   13.4240   -7.5923   -4.3136 N   0  0  0  0  0  0  0  0  0  0  0  0
   19.0964   -5.5590   -6.4649 C   0  0  0  0  0  0  0  0  0  0  0  0
   20.6144   -9.5857   -3.1732 C   0  0  2  0  0  0  0  0  0  0  0  0
   20.2530   -8.2763   -2.7975 O   0  0  0  0  0  0  0  0  0  0  0  0
   13.3200   -5.1839   -3.6009 C   0  0  0  0  0  0  0  0  0  0  0  0
   17.5393   -5.5349   -6.1812 C   0  0  2  0  0  0  0  0  0  0  0  0
   17.0807   -4.1335   -6.0922 N   0  0  0  0  0  0  0  0  0  0  0  0
   22.0732   -9.6309   -3.7793 C   0  0  1  0  0  0  0  0  0  0  0  0
   23.0590   -9.1416   -2.7745 N   0  0  0  0  0  0  0  0  0  0  0  0
   14.2350   -4.0530   -3.0054 C   0  0  0  0  0  0  0  0  0  0  0  0
   17.2512   -6.2989   -4.8192 C   0  0  2  0  0  0  0  0  0  0  0  0
   22.4415  -11.1605   -4.1981 C   0  0  1  0  0  0  0  0  0  0  0  0
   22.4259  -12.0494   -3.1080 O   0  0  0  0  0  0  0  0  0  0  0  0
   15.3959   -4.3406   -2.3982 C   0  0  1  0  0  0  0  0  0  0  0  0
   15.8601   -5.6682   -2.2530 O   0  0  0  0  0  0  0  0  0  0  0  0
   17.7616   -7.7815   -4.9289 C   0  0  2  0  0  0  0  0  0  0  0  0
   17.5093   -8.4563   -3.6977 O   0  0  0  0  0  0  0  0  0  0  0  0
   21.3982  -11.6630   -5.2435 C   0  0  0  0  0  0  0  0  0  0  0  0
   19.9907  -11.4723   -4.7149 O   0  0  0  0  0  0  0  0  0  0  0  0
   16.3247   -3.2573   -1.8159 C   0  0  0  0  0  0  0  0  0  0  0  0
   15.6876   -1.9674   -1.9665 N   0  0  0  0  0  0  0  0  0  0  0  0
   19.3096   -7.7818   -5.2214 C   0  0  1  0  0  0  0  0  0  0  0  0
   19.7328   -9.1096   -5.3243 O   0  0  0  0  0  0  0  0  0  0  0  0
   23.8359  -11.3699   -4.8056 C   0  0  0  0  0  0  0  0  0  0  0  0
   23.4310   -7.7216   -2.8687 C   0  0  0  0  0  0  0  0  0  0  0  0
  1  2  1  6  0  0  0
  1  6  1  0  0  0  0
  1 21  1  0  0  0  0
  3  4  1  1  0  0  0
  3  8  1  0  0  0  0
  3 28  1  0  0  0  0
  5  9  1  0  0  0  0
  5 25  1  0  0  0  0
  5 29  1  6  0  0  0
  6  7  1  6  0  0  0
  6 11  1  0  0  0  0
  8 12  1  0  0  0  0
  9 10  1  6  0  0  0
  9 14  1  0  0  0  0
 11 16  1  0  0  0  0
 12 13  1  1  0  0  0
 12 17  1  0  0  0  0
 14 15  1  1  0  0  0
 14 18  1  0  0  0  0
 15 31  1  0  0  0  0
 16 20  1  0  0  0  0
 17  2  1  6  0  0  0
 17 22  1  0  0  0  0
 18 19  1  1  0  0  0
 18 24  1  0  0  0  0
 18 30  1  0  0  0  0
 20 21  1  0  0  0  0
 20 26  1  6  0  0  0
 22 23  1  1  0  0  0
 22 28  1  0  0  0  0
 24 25  1  0  0  0  0
 26 27  1  0  0  0  0
 28 29  1  6  0  0  0
M  END
>  <CHROM.1>
-176.75816453,-67.62121583,-95.39092795,-164.24627096,3.65144115,-179.71524891
18.55589736,-7.53766958,-4.12026133,2.46870315,0.09148383,0.02413566

>  <Name>
ligand

>  <RI>
0

>  <Rbt.Current_Directory>
/home/itssahil/PROJECTS/Mol_Feturizer/New_Systems/rnas/4F8V

>  <Rbt.Executable>
rbdock ($Id: //depot/dev/client3/rdock/2013.1/src/exe/rbdock.cxx#4 $)

>  <Rbt.Library>
libRbt.so (2013.1, Build901 2013/11/27)

>  <Rbt.Parameter_File>
/export/apps/rDock/src/rDock_2013.1_src/data/scripts/dock_solv.prm

>  <Rbt.Receptor>
prm/pocket_docking_8.prm

>  <SCORE>
-11.8644

>  <SCORE.INTER>
-8.46132

>  <SCORE.INTER.CONST>
1

>  <SCORE.INTER.POLAR>
0

>  <SCORE.INTER.ROT>
6

>  <SCORE.INTER.SOLV>
17.8479

>  <SCORE.INTER.VDW>
-19.1902

>  <SCORE.INTER.norm>
-0.272946

>  <SCORE.INTRA>
-3.40305

>  <SCORE.INTRA.DIHEDRAL>
-11.9528

>  <SCORE.INTRA.DIHEDRAL.0>
15.9129

>  <SCORE.INTRA.POLAR>
0

>  <SCORE.INTRA.POLAR.0>
0

>  <SCORE.INTRA.REPUL>
0

>  <SCORE.INTRA.REPUL.0>
0

>  <SCORE.INTRA.SOLV>
-1.96583

>  <SCORE.INTRA.SOLV.lig_0>
-75.7056

>  <SCORE.INTRA.VDW>
3.55629

>  <SCORE.INTRA.VDW.0>
-4.61812

>  <SCORE.INTRA.norm>
-0.109776

>  <SCORE.RESTR>
0

>  <SCORE.RESTR.CAVITY>
0

>  <SCORE.RESTR.norm>
0

>  <SCORE.SYSTEM>
0

>  <SCORE.SYSTEM.CONST>
0

>  <SCORE.SYSTEM.DIHEDRAL>
0

>  <SCORE.SYSTEM.SOLV>
0

>  <SCORE.SYSTEM.norm>
0

>  <SCORE.heavy>
31

>  <SCORE.norm>
-0.382722

>  <RMSD>
6.161

$$$$
ligand
 OpenBabel11021811493D
libRbt.so/2013.1/901 2013/11/27
 31 33  0  0  0  0  0  0  0  0999 V2000
   22.5121   -6.9587   -7.7963 C   0  0  2  0  0  0  0  0  0  0  0  0
   23.0979   -7.6702   -6.6976 O   0  0  0  0  0  0  0  0  0  0  0  0
   23.0840  -11.8960   -6.1221 C   0  0  2  0  0  0  0  0  0  0  0  0
   22.6042  -13.2070   -5.8412 N   0  0  0  0  0  0  0  0  0  0  0  0
   21.7915  -11.9458   -9.6902 C   0  0  2  0  0  0  0  0  0  0  0  0
   23.2469   -5.5859   -7.8918 C   0  0  2  0  0  0  0  0  0  0  0  0
   24.6789   -5.8251   -8.0602 N   0  0  0  0  0  0  0  0  0  0  0  0
   22.8929  -10.9900   -4.8484 C   0  0  0  0  0  0  0  0  0  0  0  0
   21.8233  -13.3444  -10.3637 C   0  0  2  0  0  0  0  0  0  0  0  0
   21.2056  -14.2735   -9.5026 O   0  0  0  0  0  0  0  0  0  0  0  0
   22.9511   -4.7171   -6.6089 C   0  0  0  0  0  0  0  0  0  0  0  0
   23.4275   -9.5340   -5.1641 C   0  0  2  0  0  0  0  0  0  0  0  0
   23.2474   -8.6787   -3.9732 N   0  0  0  0  0  0  0  0  0  0  0  0
   23.3332  -13.7235  -10.6353 C   0  0  1  0  0  0  0  0  0  0  0  0
   23.4159  -15.0726  -11.2630 N   0  0  0  0  0  0  0  0  0  0  0  0
   21.5198   -4.9750   -6.0124 C   0  0  0  0  0  0  0  0  0  0  0  0
   22.6191   -8.9435   -6.3967 C   0  0  2  0  0  0  0  0  0  0  0  0
   24.0005  -12.6218  -11.6310 C   0  0  1  0  0  0  0  0  0  0  0  0
   23.3657  -12.5555  -12.8845 O   0  0  0  0  0  0  0  0  0  0  0  0
   20.7100   -5.9159   -6.5204 C   0  0  1  0  0  0  0  0  0  0  0  0
   21.0896   -6.7222   -7.6182 O   0  0  0  0  0  0  0  0  0  0  0  0
   22.8101   -9.8764   -7.6473 C   0  0  2  0  0  0  0  0  0  0  0  0
   22.0715   -9.3448   -8.7457 O   0  0  0  0  0  0  0  0  0  0  0  0
   23.9005  -11.2140  -10.9661 C   0  0  0  0  0  0  0  0  0  0  0  0
   22.4679  -10.9219  -10.5670 O   0  0  0  0  0  0  0  0  0  0  0  0
   19.3070   -6.2060   -5.9523 C   0  0  0  0  0  0  0  0  0  0  0  0
   19.2700   -7.5718   -5.4775 N   0  0  0  0  0  0  0  0  0  0  0  0
   22.2815  -11.3212   -7.3079 C   0  0  1  0  0  0  0  0  0  0  0  0
   22.4733  -12.1298   -8.4314 O   0  0  0  0  0  0  0  0  0  0  0  0
   25.4745  -12.8537  -11.9926 C   0  0  0  0  0  0  0  0  0  0  0  0
   23.9288  -16.1551  -10.4093 C   0  0  0  0  0  0  0  0  0  0  0  0
  1  2  1  1  0  0  0
  1  6  1  0  0  0  0
  1 21  1  0  0  0  0
  3  4  1  1  0  0  0
  3  8  1  0  0  0  0
  3 28  1  0  0  0  0
  5  9  1  0  0  0  0
  5 25  1  0  0  0  0
  5 29  1  1  0  0  0
  6  7  1  1  0  0  0
  6 11  1  0  0  0  0
  8 12  1  0  0  0  0
  9 10  1  1  0  0  0
  9 14  1  0  0  0  0
 11 16  1  0  0  0  0
 12 13  1  1  0  0  0
 12 17  1  0  0  0  0
 14 15  1  6  0  0  0
 14 18  1  0  0  0  0
 15 31  1  0  0  0  0
 16 20  1  0  0  0  0
 17  2  1  6  0  0  0
 17 22  1  0  0  0  0
 18 19  1  6  0  0  0
 18 24  1  0  0  0  0
 18 30  1  0  0  0  0
 20 21  1  0  0  0  0
 20 26  1  1  0  0  0
 22 23  1  6  0  0  0
 22 28  1  0  0  0  0
 24 25  1  0  0  0  0
 26 27  1  0  0  0  0
 28 29  1  6  0  0  0
M  END
>  <CHROM.1>
-179.77264059,-155.90364406,-107.87978141,179.27290768,-118.45100314,175.07529276
22.59455925,-10.11539550,-8.20296449,-2.20264774,-1.28850734,3.07691865

>  <Name>
ligand

>  <RI>
0

>  <Rbt.Current_Directory>
/home/itssahil/PROJECTS/Mol_Feturizer/New_Systems/rnas/4F8V

>  <Rbt.Executable>
rbdock ($Id: //depot/dev/client3/rdock/2013.1/src/exe/rbdock.cxx#4 $)

>  <Rbt.Library>
libRbt.so (2013.1, Build901 2013/11/27)

>  <Rbt.Parameter_File>
/export/apps/rDock/src/rDock_2013.1_src/data/scripts/dock_solv.prm

>  <Rbt.Receptor>
prm/pocket_docking_8.prm

>  <SCORE>
-10.7213

>  <SCORE.INTER>
-7.26796

>  <SCORE.INTER.CONST>
1

>  <SCORE.INTER.POLAR>
0

>  <SCORE.INTER.ROT>
6

>  <SCORE.INTER.SOLV>
10.9214

>  <SCORE.INTER.VDW>
-16.0858

>  <SCORE.INTER.norm>
-0.23445

>  <SCORE.INTRA>
-3.4533

>  <SCORE.INTRA.DIHEDRAL>
-10.5166

>  <SCORE.INTRA.DIHEDRAL.0>
15.9129

>  <SCORE.INTRA.POLAR>
0

>  <SCORE.INTRA.POLAR.0>
0

>  <SCORE.INTRA.REPUL>
0

>  <SCORE.INTRA.REPUL.0>
0

>  <SCORE.INTRA.SOLV>
-2.60034

>  <SCORE.INTRA.SOLV.lig_0>
-75.7056

>  <SCORE.INTRA.VDW>
3.10517

>  <SCORE.INTRA.VDW.0>
-4.61812

>  <SCORE.INTRA.norm>
-0.111397

>  <SCORE.RESTR>
0

>  <SCORE.RESTR.CAVITY>
0

>  <SCORE.RESTR.norm>
0

>  <SCORE.SYSTEM>
0

>  <SCORE.SYSTEM.CONST>
0

>  <SCORE.SYSTEM.DIHEDRAL>
0

>  <SCORE.SYSTEM.SOLV>
0

>  <SCORE.SYSTEM.norm>
0

>  <SCORE.heavy>
31

>  <SCORE.norm>
-0.345847

>  <RMSD>
6.287

$$$$
ligand
 OpenBabel11021811493D
libRbt.so/2013.1/901 2013/11/27
 31 33  0  0  0  0  0  0  0  0999 V2000
   25.3038  -11.6942   -9.3718 C   0  0  2  0  0  0  0  0  0  0  0  0
   24.2189  -12.6126   -9.1820 O   0  0  0  0  0  0  0  0  0  0  0  0
   22.4180  -10.7439   -5.7977 C   0  0  2  0  0  0  0  0  0  0  0  0
   21.4807  -10.4693   -4.7614 N   0  0  0  0  0  0  0  0  0  0  0  0
   22.8265  -12.5639   -3.1680 C   0  0  2  0  0  0  0  0  0  0  0  0
   26.0622  -12.1467  -10.6578 C   0  0  2  0  0  0  0  0  0  0  0  0
   25.1246  -12.1678  -11.7787 N   0  0  0  0  0  0  0  0  0  0  0  0
   21.7205  -10.5410   -7.1948 C   0  0  0  0  0  0  0  0  0  0  0  0
   23.9475  -12.7580   -2.1116 C   0  0  2  0  0  0  0  0  0  0  0  0
   24.7816  -11.6220   -2.1254 O   0  0  0  0  0  0  0  0  0  0  0  0
   26.7275  -13.5589  -10.4317 C   0  0  0  0  0  0  0  0  0  0  0  0
   22.7652  -10.8466   -8.3440 C   0  0  2  0  0  0  0  0  0  0  0  0
   22.1148  -10.6610   -9.6573 N   0  0  0  0  0  0  0  0  0  0  0  0
   24.7495  -14.0680   -2.4827 C   0  0  1  0  0  0  0  0  0  0  0  0
   25.8541  -14.2845   -1.5059 N   0  0  0  0  0  0  0  0  0  0  0  0
   27.1824  -13.7896   -8.9448 C   0  0  0  0  0  0  0  0  0  0  0  0
   23.2811  -12.3404   -8.1883 C   0  0  2  0  0  0  0  0  0  0  0  0
   23.7439  -15.3482   -2.4546 C   0  0  1  0  0  0  0  0  0  0  0  0
   23.1671  -15.5684   -1.1907 O   0  0  0  0  0  0  0  0  0  0  0  0
   26.9217  -12.8882   -7.9863 C   0  0  1  0  0  0  0  0  0  0  0  0
   26.2326  -11.6830   -8.2545 O   0  0  0  0  0  0  0  0  0  0  0  0
   23.9538  -12.5210   -6.7792 C   0  0  2  0  0  0  0  0  0  0  0  0
   24.4035  -13.8679   -6.6438 O   0  0  0  0  0  0  0  0  0  0  0  0
   22.5889  -15.1057   -3.4748 C   0  0  0  0  0  0  0  0  0  0  0  0
   21.9229  -13.7709   -3.2072 O   0  0  0  0  0  0  0  0  0  0  0  0
   27.3396  -13.0876   -6.5163 C   0  0  0  0  0  0  0  0  0  0  0  0
   28.3051  -12.0696   -6.1644 N   0  0  0  0  0  0  0  0  0  0  0  0
   22.9005  -12.2021   -5.6518 C   0  0  1  0  0  0  0  0  0  0  0  0
   23.5277  -12.3600   -4.4130 O   0  0  0  0  0  0  0  0  0  0  0  0
   24.3785  -16.7042   -2.7951 C   0  0  0  0  0  0  0  0  0  0  0  0
   27.1459  -13.6653   -1.8398 C   0  0  0  0  0  0  0  0  0  0  0  0
  1  2  1  1  0  0  0
  1  6  1  0  0  0  0
  1 21  1  0  0  0  0
  3  4  1  1  0  0  0
  3  8  1  0  0  0  0
  3 28  1  0  0  0  0
  5  9  1  0  0  0  0
  5 25  1  0  0  0  0
  5 29  1  6  0  0  0
  6  7  1  6  0  0  0
  6 11  1  0  0  0  0
  8 12  1  0  0  0  0
  9 10  1  6  0  0  0
  9 14  1  0  0  0  0
 11 16  1  0  0  0  0
 12 13  1  6  0  0  0
 12 17  1  0  0  0  0
 14 15  1  1  0  0  0
 14 18  1  0  0  0  0
 15 31  1  0  0  0  0
 16 20  1  0  0  0  0
 17  2  1  6  0  0  0
 17 22  1  0  0  0  0
 18 19  1  1  0  0  0
 18 24  1  0  0  0  0
 18 30  1  0  0  0  0
 20 21  1  0  0  0  0
 20 26  1  1  0  0  0
 22 23  1  1  0  0  0
 22 28  1  0  0  0  0
 24 25  1  0  0  0  0
 26 27  1  0  0  0  0
 28 29  1  1  0  0  0
M  END
>  <CHROM.1>
-172.34370069,177.00553040,-89.92914760,50.32190642,115.49982417,80.92080686
24.42744866,-12.85102790,-5.86345783,-1.41120252,-0.40279888,1.90554389

>  <Name>
ligand

>  <RI>
0

>  <Rbt.Current_Directory>
/home/itssahil/PROJECTS/Mol_Feturizer/New_Systems/rnas/4F8V

>  <Rbt.Executable>
rbdock ($Id: //depot/dev/client3/rdock/2013.1/src/exe/rbdock.cxx#4 $)

>  <Rbt.Library>
libRbt.so (2013.1, Build901 2013/11/27)

>  <Rbt.Parameter_File>
/export/apps/rDock/src/rDock_2013.1_src/data/scripts/dock_solv.prm

>  <Rbt.Receptor>
prm/pocket_docking_8.prm

>  <SCORE>
-4.62008

>  <SCORE.INTER>
-0.0107343

>  <SCORE.INTER.CONST>
1

>  <SCORE.INTER.POLAR>
0

>  <SCORE.INTER.ROT>
6

>  <SCORE.INTER.SOLV>
8.90218

>  <SCORE.INTER.VDW>
-10.5746

>  <SCORE.INTER.norm>
-0.000346269

>  <SCORE.INTRA>
-4.60934

>  <SCORE.INTRA.DIHEDRAL>
-10.873

>  <SCORE.INTRA.DIHEDRAL.0>
15.9129

>  <SCORE.INTRA.POLAR>
0

>  <SCORE.INTRA.POLAR.0>
0

>  <SCORE.INTRA.REPUL>
0

>  <SCORE.INTRA.REPUL.0>
0

>  <SCORE.INTRA.SOLV>
-1.03107

>  <SCORE.INTRA.SOLV.lig_0>
-75.7056

>  <SCORE.INTRA.VDW>
1.34271

>  <SCORE.INTRA.VDW.0>
-4.61812

>  <SCORE.INTRA.norm>
-0.148688

>  <SCORE.RESTR>
0

>  <SCORE.RESTR.CAVITY>
0

>  <SCORE.RESTR.norm>
0

>  <SCORE.SYSTEM>
0

>  <SCORE.SYSTEM.CONST>
0

>  <SCORE.SYSTEM.DIHEDRAL>
0

>  <SCORE.SYSTEM.SOLV>
0

>  <SCORE.SYSTEM.norm>
0

>  <SCORE.heavy>
31

>  <SCORE.norm>
-0.149035

>  <RMSD>
6.290

$$$$
ligand
 OpenBabel11021811493D
libRbt.so/2013.1/901 2013/11/27
 31 33  0  0  0  0  0  0  0  0999 V2000
   22.8209  -10.5797   -9.2623 C   0  0  2  0  0  0  0  0  0  0  0  0
   23.9996  -11.0425   -8.5894 O   0  0  0  0  0  0  0  0  0  0  0  0
   24.4842  -14.3398   -5.9283 C   0  0  2  0  0  0  0  0  0  0  0  0
   24.3237  -15.1698   -4.7823 N   0  0  0  0  0  0  0  0  0  0  0  0
   21.9500  -16.3064   -6.0894 C   0  0  2  0  0  0  0  0  0  0  0  0
   23.2965   -9.8014  -10.5279 C   0  0  2  0  0  0  0  0  0  0  0  0
   24.1163  -10.6889  -11.3503 N   0  0  0  0  0  0  0  0  0  0  0  0
   25.0892  -12.9552   -5.4851 C   0  0  0  0  0  0  0  0  0  0  0  0
   21.6087  -17.5290   -6.9835 C   0  0  2  0  0  0  0  0  0  0  0  0
   22.7987  -18.0053   -7.5693 O   0  0  0  0  0  0  0  0  0  0  0  0
   24.0893   -8.5046  -10.1064 C   0  0  0  0  0  0  0  0  0  0  0  0
   25.2666  -12.0357   -6.7612 C   0  0  2  0  0  0  0  0  0  0  0  0
   25.8309  -10.7337   -6.3504 N   0  0  0  0  0  0  0  0  0  0  0  0
   20.5723  -17.0600   -8.0804 C   0  0  1  0  0  0  0  0  0  0  0  0
   20.2303  -18.1983   -8.9795 N   0  0  0  0  0  0  0  0  0  0  0  0
   23.5679   -7.8790   -8.7619 C   0  0  0  0  0  0  0  0  0  0  0  0
   23.8510  -11.8322   -7.4513 C   0  0  2  0  0  0  0  0  0  0  0  0
   19.2192  -16.5184   -7.3548 C   0  0  1  0  0  0  0  0  0  0  0  0
   18.5766  -17.5025   -6.5819 O   0  0  0  0  0  0  0  0  0  0  0  0
   22.6112   -8.4778   -8.0371 C   0  0  1  0  0  0  0  0  0  0  0  0
   22.0144   -9.6952   -8.4387 O   0  0  0  0  0  0  0  0  0  0  0  0
   23.2611  -13.2293   -7.8649 C   0  0  2  0  0  0  0  0  0  0  0  0
   21.9851  -13.0376   -8.4731 O   0  0  0  0  0  0  0  0  0  0  0  0
   19.5919  -15.3332   -6.4113 C   0  0  0  0  0  0  0  0  0  0  0  0
   20.6986  -15.7455   -5.4616 O   0  0  0  0  0  0  0  0  0  0  0  0
   22.0862   -7.9012   -6.7078 C   0  0  0  0  0  0  0  0  0  0  0  0
   20.6591   -7.6939   -6.8213 N   0  0  0  0  0  0  0  0  0  0  0  0
   23.1027  -14.1307   -6.5827 C   0  0  1  0  0  0  0  0  0  0  0  0
   22.5877  -15.3673   -6.9809 O   0  0  0  0  0  0  0  0  0  0  0  0
   18.1091  -16.0248   -8.2935 C   0  0  0  0  0  0  0  0  0  0  0  0
   21.0320  -18.3192  -10.2069 C   0  0  0  0  0  0  0  0  0  0  0  0
  1  2  1  1  0  0  0
  1  6  1  0  0  0  0
  1 21  1  0  0  0  0
  3  4  1  1  0  0  0
  3  8  1  0  0  0  0
  3 28  1  0  0  0  0
  5  9  1  0  0  0  0
  5 25  1  0  0  0  0
  5 29  1  6  0  0  0
  6  7  1  6  0  0  0
  6 11  1  0  0  0  0
  8 12  1  0  0  0  0
  9 10  1  6  0  0  0
  9 14  1  0  0  0  0
 11 16  1  0  0  0  0
 12 13  1  1  0  0  0
 12 17  1  0  0  0  0
 14 15  1  6  0  0  0
 14 18  1  0  0  0  0
 15 31  1  0  0  0  0
 16 20  1  0  0  0  0
 17  2  1  6  0  0  0
 17 22  1  0  0  0  0
 18 19  1  1  0  0  0
 18 24  1  0  0  0  0
 18 30  1  0  0  0  0
 20 21  1  0  0  0  0
 20 26  1  1  0  0  0
 22 23  1  1  0  0  0
 22 28  1  0  0  0  0
 24 25  1  0  0  0  0
 26 27  1  0  0  0  0
 28 29  1  6  0  0  0
M  END
>  <CHROM.1>
-176.81606212,-177.81797009,-93.13973612,-171.46179996,122.10531095,79.60744678
22.33693908,-13.31713484,-7.65753112,1.18373960,-0.51053663,-0.32071465

>  <Name>
ligand

>  <RI>
0

>  <Rbt.Current_Directory>
/home/itssahil/PROJECTS/Mol_Feturizer/New_Systems/rnas/4F8V

>  <Rbt.Executable>
rbdock ($Id: //depot/dev/client3/rdock/2013.1/src/exe/rbdock.cxx#4 $)

>  <Rbt.Library>
libRbt.so (2013.1, Build901 2013/11/27)

>  <Rbt.Parameter_File>
/export/apps/rDock/src/rDock_2013.1_src/data/scripts/dock_solv.prm

>  <Rbt.Receptor>
prm/pocket_docking_8.prm

>  <SCORE>
-8.03973

>  <SCORE.INTER>
-2.66393

>  <SCORE.INTER.CONST>
1

>  <SCORE.INTER.POLAR>
0

>  <SCORE.INTER.ROT>
6

>  <SCORE.INTER.SOLV>
11.3922

>  <SCORE.INTER.VDW>
-13.1734

>  <SCORE.INTER.norm>
-0.0859333

>  <SCORE.INTRA>
-5.3758

>  <SCORE.INTRA.DIHEDRAL>
-11.3633

>  <SCORE.INTRA.DIHEDRAL.0>
15.9129

>  <SCORE.INTRA.POLAR>
0

>  <SCORE.INTRA.POLAR.0>
0

>  <SCORE.INTRA.REPUL>
0

>  <SCORE.INTRA.REPUL.0>
0

>  <SCORE.INTRA.SOLV>
-2.56378

>  <SCORE.INTRA.SOLV.lig_0>
-75.7056

>  <SCORE.INTRA.VDW>
1.58772

>  <SCORE.INTRA.VDW.0>
-4.61812

>  <SCORE.INTRA.norm>
-0.173413

>  <SCORE.RESTR>
0

>  <SCORE.RESTR.CAVITY>
0

>  <SCORE.RESTR.norm>
0

>  <SCORE.SYSTEM>
0

>  <SCORE.SYSTEM.CONST>
0

>  <SCORE.SYSTEM.DIHEDRAL>
0

>  <SCORE.SYSTEM.SOLV>
0

>  <SCORE.SYSTEM.norm>
0

>  <SCORE.heavy>
31

>  <SCORE.norm>
-0.259346

>  <RMSD>
6.364

$$$$
ligand
 OpenBabel11021811493D
libRbt.so/2013.1/901 2013/11/27
 31 33  0  0  0  0  0  0  0  0999 V2000
   25.6048   -6.8801   -6.1456 C   0  0  2  0  0  0  0  0  0  0  0  0
   24.4478   -6.0584   -6.3518 O   0  0  0  0  0  0  0  0  0  0  0  0
   20.3476   -6.8930   -5.5267 C   0  0  2  0  0  0  0  0  0  0  0  0
   19.0731   -7.5259   -5.5818 N   0  0  0  0  0  0  0  0  0  0  0  0
   20.0081   -9.3698   -3.5864 C   0  0  2  0  0  0  0  0  0  0  0  0
   26.8379   -5.9255   -6.1025 C   0  0  2  0  0  0  0  0  0  0  0  0
   26.6375   -4.9392   -5.0428 N   0  0  0  0  0  0  0  0  0  0  0  0
   20.6969   -6.3064   -6.9457 C   0  0  0  0  0  0  0  0  0  0  0  0
   19.9759   -9.5131   -2.0407 C   0  0  2  0  0  0  0  0  0  0  0  0
   19.7857   -8.2369   -1.4736 O   0  0  0  0  0  0  0  0  0  0  0  0
   27.0441   -5.2353   -7.5057 C   0  0  0  0  0  0  0  0  0  0  0  0
   22.1137   -5.6035   -6.8805 C   0  0  2  0  0  0  0  0  0  0  0  0
   22.4480   -5.0542   -8.2104 N   0  0  0  0  0  0  0  0  0  0  0  0
   21.3455  -10.1521   -1.5790 C   0  0  1  0  0  0  0  0  0  0  0  0
   21.3705  -10.2892   -0.0952 N   0  0  0  0  0  0  0  0  0  0  0  0
   26.6081   -6.1501   -8.7073 C   0  0  0  0  0  0  0  0  0  0  0  0
   23.1999   -6.6726   -6.4345 C   0  0  2  0  0  0  0  0  0  0  0  0
   21.5184  -11.6204   -2.2608 C   0  0  1  0  0  0  0  0  0  0  0  0
   20.5037  -12.5222   -1.8923 O   0  0  0  0  0  0  0  0  0  0  0  0
   26.0361   -7.3461   -8.5034 C   0  0  1  0  0  0  0  0  0  0  0  0
   25.7981   -7.8547   -7.2057 O   0  0  0  0  0  0  0  0  0  0  0  0
   22.8169   -7.2566   -5.0263 C   0  0  2  0  0  0  0  0  0  0  0  0
   23.7913   -8.2238   -4.6393 O   0  0  0  0  0  0  0  0  0  0  0  0
   21.4827  -11.4639   -3.8126 C   0  0  0  0  0  0  0  0  0  0  0  0
   20.2375  -10.7112   -4.2364 O   0  0  0  0  0  0  0  0  0  0  0  0
   25.5831   -8.2628   -9.6566 C   0  0  0  0  0  0  0  0  0  0  0  0
   26.3273   -9.5012   -9.5871 N   0  0  0  0  0  0  0  0  0  0  0  0
   21.4007   -7.9414   -5.1115 C   0  0  1  0  0  0  0  0  0  0  0  0
   21.0820   -8.4410   -3.8459 O   0  0  0  0  0  0  0  0  0  0  0  0
   22.8080  -12.3744   -1.9062 C   0  0  0  0  0  0  0  0  0  0  0  0
   21.9940   -9.1835    0.6481 C   0  0  0  0  0  0  0  0  0  0  0  0
  1  2  1  6  0  0  0
  1  6  1  0  0  0  0
  1 21  1  0  0  0  0
  3  4  1  6  0  0  0
  3  8  1  0  0  0  0
  3 28  1  0  0  0  0
  5  9  1  0  0  0  0
  5 25  1  0  0  0  0
  5 29  1  1  0  0  0
  6  7  1  1  0  0  0
  6 11  1  0  0  0  0
  8 12  1  0  0  0  0
  9 10  1  1  0  0  0
  9 14  1  0  0  0  0
 11 16  1  0  0  0  0
 12 13  1  6  0  0  0
 12 17  1  0  0  0  0
 14 15  1  1  0  0  0
 14 18  1  0  0  0  0
 15 31  1  0  0  0  0
 16 20  1  0  0  0  0
 17  2  1  1  0  0  0
 17 22  1  0  0  0  0
 18 19  1  1  0  0  0
 18 24  1  0  0  0  0
 18 30  1  0  0  0  0
 20 21  1  0  0  0  0
 20 26  1  1  0  0  0
 22 23  1  6  0  0  0
 22 28  1  0  0  0  0
 24 25  1  0  0  0  0
 26 27  1  0  0  0  0
 28 29  1  1  0  0  0
M  END
>  <CHROM.1>
179.76133005,-174.90465637,-94.07677436,-171.46321783,118.26546489,74.50694746
22.85685039,-8.21039230,-4.97160618,-0.94181154,-0.27836003,2.34908009

>  <Name>
ligand

>  <RI>
0

>  <Rbt.Current_Directory>
/home/itssahil/PROJECTS/Mol_Feturizer/New_Systems/rnas/4F8V

>  <Rbt.Executable>
rbdock ($Id: //depot/dev/client3/rdock/2013.1/src/exe/rbdock.cxx#4 $)

>  <Rbt.Library>
libRbt.so (2013.1, Build901 2013/11/27)

>  <Rbt.Parameter_File>
/export/apps/rDock/src/rDock_2013.1_src/data/scripts/dock_solv.prm

>  <Rbt.Receptor>
prm/pocket_docking_7.prm

>  <SCORE>
-6.6718

>  <SCORE.INTER>
-1.12357

>  <SCORE.INTER.CONST>
1

>  <SCORE.INTER.POLAR>
0

>  <SCORE.INTER.ROT>
6

>  <SCORE.INTER.SOLV>
14.8894

>  <SCORE.INTER.VDW>
-13.3122

>  <SCORE.INTER.norm>
-0.0362443

>  <SCORE.INTRA>
-5.54822

>  <SCORE.INTRA.DIHEDRAL>
-12.0287

>  <SCORE.INTRA.DIHEDRAL.0>
15.9129

>  <SCORE.INTRA.POLAR>
0

>  <SCORE.INTRA.POLAR.0>
0

>  <SCORE.INTRA.REPUL>
0

>  <SCORE.INTRA.REPUL.0>
0

>  <SCORE.INTRA.SOLV>
-2.48989

>  <SCORE.INTRA.SOLV.lig_0>
-75.7056

>  <SCORE.INTRA.VDW>
1.71106

>  <SCORE.INTRA.VDW.0>
-4.61812

>  <SCORE.INTRA.norm>
-0.178975

>  <SCORE.RESTR>
0

>  <SCORE.RESTR.CAVITY>
0

>  <SCORE.RESTR.norm>
0

>  <SCORE.SYSTEM>
0

>  <SCORE.SYSTEM.CONST>
0

>  <SCORE.SYSTEM.DIHEDRAL>
0

>  <SCORE.SYSTEM.SOLV>
0

>  <SCORE.SYSTEM.norm>
0

>  <SCORE.heavy>
31

>  <SCORE.norm>
-0.215219

>  <RMSD>
6.417

$$$$
ligand
 OpenBabel11021811493D
libRbt.so/2013.1/901 2013/11/27
 31 33  0  0  0  0  0  0  0  0999 V2000
   18.8611   -8.8138   -5.6490 C   0  0  2  0  0  0  0  0  0  0  0  0
   19.3483   -7.5966   -6.2299 O   0  0  0  0  0  0  0  0  0  0  0  0
   23.0781   -6.8597   -8.1624 C   0  0  2  0  0  0  0  0  0  0  0  0
   24.4825   -6.7200   -8.3526 N   0  0  0  0  0  0  0  0  0  0  0  0
   24.5986   -9.4978   -8.9160 C   0  0  2  0  0  0  0  0  0  0  0  0
   17.4050   -8.5344   -5.1636 C   0  0  2  0  0  0  0  0  0  0  0  0
   16.6055   -8.0795   -6.2994 N   0  0  0  0  0  0  0  0  0  0  0  0
   22.5915   -5.8052   -7.0990 C   0  0  0  0  0  0  0  0  0  0  0  0
   24.5580  -10.3650  -10.2032 C   0  0  2  0  0  0  0  0  0  0  0  0
   23.8921   -9.6418  -11.2131 O   0  0  0  0  0  0  0  0  0  0  0  0
   17.4119   -7.4727   -3.9972 C   0  0  0  0  0  0  0  0  0  0  0  0
   21.0304   -5.9631   -6.8905 C   0  0  2  0  0  0  0  0  0  0  0  0
   20.5691   -4.9780   -5.8909 N   0  0  0  0  0  0  0  0  0  0  0  0
   23.8036  -11.7114   -9.8637 C   0  0  1  0  0  0  0  0  0  0  0  0
   23.7199  -12.5702  -11.0788 N   0  0  0  0  0  0  0  0  0  0  0  0
   18.6992   -7.5590   -3.0992 C   0  0  0  0  0  0  0  0  0  0  0  0
   20.7229   -7.4400   -6.3947 C   0  0  2  0  0  0  0  0  0  0  0  0
   24.6093  -12.5068   -8.6937 C   0  0  1  0  0  0  0  0  0  0  0  0
   25.9194  -12.8573   -9.0671 O   0  0  0  0  0  0  0  0  0  0  0  0
   19.7021   -8.3995   -3.3943 C   0  0  1  0  0  0  0  0  0  0  0  0
   19.6596   -9.2560   -4.5185 O   0  0  0  0  0  0  0  0  0  0  0  0
   21.2363   -8.4719   -7.4634 C   0  0  2  0  0  0  0  0  0  0  0  0
   20.9665   -9.7953   -7.0045 O   0  0  0  0  0  0  0  0  0  0  0  0
   24.6967  -11.5947   -7.4311 C   0  0  0  0  0  0  0  0  0  0  0  0
   25.2805  -10.2449   -7.7972 O   0  0  0  0  0  0  0  0  0  0  0  0
   20.9844   -8.5005   -2.5453 C   0  0  0  0  0  0  0  0  0  0  0  0
   21.1606   -9.8746   -2.1293 N   0  0  0  0  0  0  0  0  0  0  0  0
   22.7885   -8.2904   -7.6626 C   0  0  1  0  0  0  0  0  0  0  0  0
   23.2146   -9.2111   -8.6236 O   0  0  0  0  0  0  0  0  0  0  0  0
   23.9977  -13.8438   -8.2513 C   0  0  0  0  0  0  0  0  0  0  0  0
   22.3670  -12.9553  -11.5092 C   0  0  0  0  0  0  0  0  0  0  0  0
  1  2  1  1  0  0  0
  1  6  1  0  0  0  0
  1 21  1  0  0  0  0
  3  4  1  1  0  0  0
  3  8  1  0  0  0  0
  3 28  1  0  0  0  0
  5  9  1  0  0  0  0
  5 25  1  0  0  0  0
  5 29  1  1  0  0  0
  6  7  1  6  0  0  0
  6 11  1  0  0  0  0
  8 12  1  0  0  0  0
  9 10  1  6  0  0  0
  9 14  1  0  0  0  0
 11 16  1  0  0  0  0
 12 13  1  1  0  0  0
 12 17  1  0  0  0  0
 14 15  1  6  0  0  0
 14 18  1  0  0  0  0
 15 31  1  0  0  0  0
 16 20  1  0  0  0  0
 17  2  1  6  0  0  0
 17 22  1  0  0  0  0
 18 19  1  6  0  0  0
 18 24  1  0  0  0  0
 18 30  1  0  0  0  0
 20 21  1  0  0  0  0
 20 26  1  6  0  0  0
 22 23  1  1  0  0  0
 22 28  1  0  0  0  0
 24 25  1  0  0  0  0
 26 27  1  0  0  0  0
 28 29  1  6  0  0  0
M  END
>  <CHROM.1>
161.83844150,-169.93982822,-122.10941569,-173.38529309,124.31580636,71.49605147
21.89308417,-9.24577697,-7.13900164,2.75087272,0.81000546,-0.12816738

>  <Name>
ligand

>  <RI>
0

>  <Rbt.Current_Directory>
/home/itssahil/PROJECTS/Mol_Feturizer/New_Systems/rnas/4F8V

>  <Rbt.Executable>
rbdock ($Id: //depot/dev/client3/rdock/2013.1/src/exe/rbdock.cxx#4 $)

>  <Rbt.Library>
libRbt.so (2013.1, Build901 2013/11/27)

>  <Rbt.Parameter_File>
/export/apps/rDock/src/rDock_2013.1_src/data/scripts/dock_solv.prm

>  <Rbt.Receptor>
prm/pocket_docking_8.prm

>  <SCORE>
-11.3554

>  <SCORE.INTER>
-6.98603

>  <SCORE.INTER.CONST>
1

>  <SCORE.INTER.POLAR>
0

>  <SCORE.INTER.ROT>
6

>  <SCORE.INTER.SOLV>
21.9079

>  <SCORE.INTER.VDW>
-19.56

>  <SCORE.INTER.norm>
-0.225356

>  <SCORE.INTRA>
-4.36938

>  <SCORE.INTRA.DIHEDRAL>
-10.1659

>  <SCORE.INTRA.DIHEDRAL.0>
15.9129

>  <SCORE.INTRA.POLAR>
0

>  <SCORE.INTRA.POLAR.0>
0

>  <SCORE.INTRA.REPUL>
0

>  <SCORE.INTRA.REPUL.0>
0

>  <SCORE.INTRA.SOLV>
-2.20994

>  <SCORE.INTRA.SOLV.lig_0>
-75.7056

>  <SCORE.INTRA.VDW>
1.81855

>  <SCORE.INTRA.VDW.0>
-4.61812

>  <SCORE.INTRA.norm>
-0.140948

>  <SCORE.RESTR>
0

>  <SCORE.RESTR.CAVITY>
0

>  <SCORE.RESTR.norm>
0

>  <SCORE.SYSTEM>
0

>  <SCORE.SYSTEM.CONST>
0

>  <SCORE.SYSTEM.DIHEDRAL>
0

>  <SCORE.SYSTEM.SOLV>
0

>  <SCORE.SYSTEM.norm>
0

>  <SCORE.heavy>
31

>  <SCORE.norm>
-0.366303

>  <RMSD>
6.536

$$$$
ligand
 OpenBabel11021811493D
libRbt.so/2013.1/901 2013/11/27
 31 33  0  0  0  0  0  0  0  0999 V2000
   24.3206   -9.8216   -8.2452 C   0  0  2  0  0  0  0  0  0  0  0  0
   23.5959  -10.9154   -8.8238 O   0  0  0  0  0  0  0  0  0  0  0  0
   23.4929  -15.0518   -7.7904 C   0  0  2  0  0  0  0  0  0  0  0  0
   23.9425  -16.3765   -7.5238 N   0  0  0  0  0  0  0  0  0  0  0  0
   24.5878  -15.4418   -4.7581 C   0  0  2  0  0  0  0  0  0  0  0  0
   23.5533   -8.5173   -8.6243 C   0  0  2  0  0  0  0  0  0  0  0  0
   22.1787   -8.6172   -8.1377 N   0  0  0  0  0  0  0  0  0  0  0  0
   23.8155  -14.6863   -9.2877 C   0  0  0  0  0  0  0  0  0  0  0  0
   23.8303  -15.4929   -3.4038 C   0  0  2  0  0  0  0  0  0  0  0  0
   22.4699  -15.7593   -3.6580 O   0  0  0  0  0  0  0  0  0  0  0  0
   23.6011   -8.2887  -10.1842 C   0  0  0  0  0  0  0  0  0  0  0  0
   23.3141  -13.2137   -9.5804 C   0  0  2  0  0  0  0  0  0  0  0  0
   23.6175  -12.8643  -10.9833 N   0  0  0  0  0  0  0  0  0  0  0  0
   24.0212  -14.0999   -2.6824 C   0  0  1  0  0  0  0  0  0  0  0  0
   23.2907  -14.0932   -1.3834 N   0  0  0  0  0  0  0  0  0  0  0  0
   24.9269   -8.8207  -10.8399 C   0  0  0  0  0  0  0  0  0  0  0  0
   24.0475  -12.2125   -8.5898 C   0  0  2  0  0  0  0  0  0  0  0  0
   25.6056  -13.8388   -2.4133 C   0  0  1  0  0  0  0  0  0  0  0  0
   26.1911  -14.8111   -1.5824 O   0  0  0  0  0  0  0  0  0  0  0  0
   25.8473   -9.4795  -10.1200 C   0  0  1  0  0  0  0  0  0  0  0  0
   25.6843   -9.7279   -8.7376 O   0  0  0  0  0  0  0  0  0  0  0  0
   23.7257  -12.6117   -7.1039 C   0  0  2  0  0  0  0  0  0  0  0  0
   24.3976  -11.7145   -6.2217 O   0  0  0  0  0  0  0  0  0  0  0  0
   26.3593  -13.8561   -3.7791 C   0  0  0  0  0  0  0  0  0  0  0  0
   26.0469  -15.1315   -4.5357 O   0  0  0  0  0  0  0  0  0  0  0  0
   27.1512  -10.0275  -10.7321 C   0  0  0  0  0  0  0  0  0  0  0  0
   28.2750   -9.3884  -10.0832 N   0  0  0  0  0  0  0  0  0  0  0  0
   24.2232  -14.0825   -6.8378 C   0  0  1  0  0  0  0  0  0  0  0  0
   23.9151  -14.4136   -5.5155 O   0  0  0  0  0  0  0  0  0  0  0  0
   25.9559  -12.5179   -1.7136 C   0  0  0  0  0  0  0  0  0  0  0  0
   21.9773  -13.4308   -1.3811 C   0  0  0  0  0  0  0  0  0  0  0  0
  1  2  1  6  0  0  0
  1  6  1  0  0  0  0
  1 21  1  0  0  0  0
  3  4  1  1  0  0  0
  3  8  1  0  0  0  0
  3 28  1  0  0  0  0
  5  9  1  0  0  0  0
  5 25  1  0  0  0  0
  5 29  1  6  0  0  0
  6  7  1  6  0  0  0
  6 11  1  0  0  0  0
  8 12  1  0  0  0  0
  9 10  1  6  0  0  0
  9 14  1  0  0  0  0
 11 16  1  0  0  0  0
 12 13  1  6  0  0  0
 12 17  1  0  0  0  0
 14 15  1  1  0  0  0
 14 18  1  0  0  0  0
 15 31  1  0  0  0  0
 16 20  1  0  0  0  0
 17  2  1  6  0  0  0
 17 22  1  0  0  0  0
 18 19  1  1  0  0  0
 18 24  1  0  0  0  0
 18 30  1  0  0  0  0
 20 21  1  0  0  0  0
 20 26  1  6  0  0  0
 22 23  1  1  0  0  0
 22 28  1  0  0  0  0
 24 25  1  0  0  0  0
 26 27  1  0  0  0  0
 28 29  1  1  0  0  0
M  END
>  <CHROM.1>
-177.60942698,-176.18791969,-99.46467959,-167.01383213,118.71805041,83.44193727
24.45724973,-12.57055913,-6.57274642,-1.38270593,1.25312894,1.98737717

>  <Name>
ligand

>  <RI>
0

>  <Rbt.Current_Directory>
/home/itssahil/PROJECTS/Mol_Feturizer/New_Systems/rnas/4F8V

>  <Rbt.Executable>
rbdock ($Id: //depot/dev/client3/rdock/2013.1/src/exe/rbdock.cxx#4 $)

>  <Rbt.Library>
libRbt.so (2013.1, Build901 2013/11/27)

>  <Rbt.Parameter_File>
/export/apps/rDock/src/rDock_2013.1_src/data/scripts/dock_solv.prm

>  <Rbt.Receptor>
prm/pocket_docking_8.prm

>  <SCORE>
-7.33333

>  <SCORE.INTER>
-2.25219

>  <SCORE.INTER.CONST>
1

>  <SCORE.INTER.POLAR>
0

>  <SCORE.INTER.ROT>
6

>  <SCORE.INTER.SOLV>
8.13091

>  <SCORE.INTER.VDW>
-11.8118

>  <SCORE.INTER.norm>
-0.0726514

>  <SCORE.INTRA>
-5.08113

>  <SCORE.INTRA.DIHEDRAL>
-10.0559

>  <SCORE.INTRA.DIHEDRAL.0>
15.9129

>  <SCORE.INTRA.POLAR>
0

>  <SCORE.INTRA.POLAR.0>
0

>  <SCORE.INTRA.REPUL>
0

>  <SCORE.INTRA.REPUL.0>
0

>  <SCORE.INTRA.SOLV>
-2.33154

>  <SCORE.INTRA.SOLV.lig_0>
-75.7056

>  <SCORE.INTRA.VDW>
1.1126

>  <SCORE.INTRA.VDW.0>
-4.61812

>  <SCORE.INTRA.norm>
-0.163908

>  <SCORE.RESTR>
0

>  <SCORE.RESTR.CAVITY>
0

>  <SCORE.RESTR.norm>
0

>  <SCORE.SYSTEM>
0

>  <SCORE.SYSTEM.CONST>
0

>  <SCORE.SYSTEM.DIHEDRAL>
0

>  <SCORE.SYSTEM.SOLV>
0

>  <SCORE.SYSTEM.norm>
0

>  <SCORE.heavy>
31

>  <SCORE.norm>
-0.236559

>  <RMSD>
6.559

$$$$
ligand
 OpenBabel11021811493D
libRbt.so/2013.1/901 2013/11/27
 31 33  0  0  0  0  0  0  0  0999 V2000
   22.6072   -8.1082   -6.7618 C   0  0  2  0  0  0  0  0  0  0  0  0
   22.3427   -8.5404   -8.1033 O   0  0  0  0  0  0  0  0  0  0  0  0
   23.8171  -11.7074  -10.5497 C   0  0  2  0  0  0  0  0  0  0  0  0
   24.7326  -12.6054  -11.1689 N   0  0  0  0  0  0  0  0  0  0  0  0
   24.3941  -14.3222   -9.0228 C   0  0  2  0  0  0  0  0  0  0  0  0
   21.3143   -7.4018   -6.2489 C   0  0  2  0  0  0  0  0  0  0  0  0
   20.1947   -8.3367   -6.3410 N   0  0  0  0  0  0  0  0  0  0  0  0
   24.1612  -10.2339  -10.9857 C   0  0  0  0  0  0  0  0  0  0  0  0
   23.5550  -15.5294   -8.5238 C   0  0  2  0  0  0  0  0  0  0  0  0
   22.2787  -15.4679   -9.1185 O   0  0  0  0  0  0  0  0  0  0  0  0
   21.0430   -6.0885   -7.0791 C   0  0  0  0  0  0  0  0  0  0  0  0
   23.1415   -9.2388  -10.2961 C   0  0  2  0  0  0  0  0  0  0  0  0
   23.4620   -7.8542  -10.6991 N   0  0  0  0  0  0  0  0  0  0  0  0
   23.4629  -15.4447   -6.9485 C   0  0  1  0  0  0  0  0  0  0  0  0
   22.6451  -16.5746   -6.4233 N   0  0  0  0  0  0  0  0  0  0  0  0
   22.3637   -5.3886   -7.5654 C   0  0  0  0  0  0  0  0  0  0  0  0
   23.2530   -9.3961   -8.7199 C   0  0  2  0  0  0  0  0  0  0  0  0
   24.9592  -15.5180   -6.3110 C   0  0  1  0  0  0  0  0  0  0  0  0
   25.6301  -16.7162   -6.6157 O   0  0  0  0  0  0  0  0  0  0  0  0
   23.5670   -5.9423   -7.3538 C   0  0  1  0  0  0  0  0  0  0  0  0
   23.7190   -7.1764   -6.6805 O   0  0  0  0  0  0  0  0  0  0  0  0
   22.9251  -10.8789   -8.3141 C   0  0  2  0  0  0  0  0  0  0  0  0
   23.0390  -11.0135   -6.8986 O   0  0  0  0  0  0  0  0  0  0  0  0
   25.8066  -14.3355   -6.8744 C   0  0  0  0  0  0  0  0  0  0  0  0
   25.7628  -14.3325   -8.3892 O   0  0  0  0  0  0  0  0  0  0  0  0
   24.8810   -5.2921   -7.8289 C   0  0  0  0  0  0  0  0  0  0  0  0
   25.6611   -4.9176   -6.6698 N   0  0  0  0  0  0  0  0  0  0  0  0
   23.9442  -11.8518   -9.0189 C   0  0  1  0  0  0  0  0  0  0  0  0
   23.6229  -13.1607   -8.6495 O   0  0  0  0  0  0  0  0  0  0  0  0
   25.0373  -15.4483   -4.7792 C   0  0  0  0  0  0  0  0  0  0  0  0
   21.6102  -16.2235   -5.4387 C   0  0  0  0  0  0  0  0  0  0  0  0
  1  2  1  6  0  0  0
  1  6  1  0  0  0  0
  1 21  1  0  0  0  0
  3  4  1  6  0  0  0
  3  8  1  0  0  0  0
  3 28  1  0  0  0  0
  5  9  1  0  0  0  0
  5 25  1  0  0  0  0
  5 29  1  1  0  0  0
  6  7  1  6  0  0  0
  6 11  1  0  0  0  0
  8 12  1  0  0  0  0
  9 10  1  6  0  0  0
  9 14  1  0  0  0  0
 11 16  1  0  0  0  0
 12 13  1  1  0  0  0
 12 17  1  0  0  0  0
 14 15  1  1  0  0  0
 14 18  1  0  0  0  0
 15 31  1  0  0  0  0
 16 20  1  0  0  0  0
 17  2  1  1  0  0  0
 17 22  1  0  0  0  0
 18 19  1  6  0  0  0
 18 24  1  0  0  0  0
 18 30  1  0  0  0  0
 20 21  1  0  0  0  0
 20 26  1  6  0  0  0
 22 23  1  1  0  0  0
 22 28  1  0  0  0  0
 24 25  1  0  0  0  0
 26 27  1  0  0  0  0
 28 29  1  6  0  0  0
M  END
>  <CHROM.1>
-169.44176789,-173.60041615,-132.52762466,-155.33432520,114.41187531,65.50817038
23.52077647,-11.17655981,-7.86263614,1.87488759,1.18332652,-0.32561200

>  <Name>
ligand

>  <RI>
0

>  <Rbt.Current_Directory>
/home/itssahil/PROJECTS/Mol_Feturizer/New_Systems/rnas/4F8V

>  <Rbt.Executable>
rbdock ($Id: //depot/dev/client3/rdock/2013.1/src/exe/rbdock.cxx#4 $)

>  <Rbt.Library>
libRbt.so (2013.1, Build901 2013/11/27)

>  <Rbt.Parameter_File>
/export/apps/rDock/src/rDock_2013.1_src/data/scripts/dock_solv.prm

>  <Rbt.Receptor>
prm/pocket_docking_7.prm

>  <SCORE>
-10.7706

>  <SCORE.INTER>
-6.65858

>  <SCORE.INTER.CONST>
1

>  <SCORE.INTER.POLAR>
0

>  <SCORE.INTER.ROT>
6

>  <SCORE.INTER.SOLV>
10.382

>  <SCORE.INTER.VDW>
-15.4997

>  <SCORE.INTER.norm>
-0.214793

>  <SCORE.INTRA>
-4.11199

>  <SCORE.INTRA.DIHEDRAL>
-9.62152

>  <SCORE.INTRA.DIHEDRAL.0>
15.9129

>  <SCORE.INTRA.POLAR>
0

>  <SCORE.INTRA.POLAR.0>
0

>  <SCORE.INTRA.REPUL>
0

>  <SCORE.INTRA.REPUL.0>
0

>  <SCORE.INTRA.SOLV>
-1.1489

>  <SCORE.INTRA.SOLV.lig_0>
-75.7056

>  <SCORE.INTRA.VDW>
1.27322

>  <SCORE.INTRA.VDW.0>
-4.61812

>  <SCORE.INTRA.norm>
-0.132645

>  <SCORE.RESTR>
0

>  <SCORE.RESTR.CAVITY>
0

>  <SCORE.RESTR.norm>
0

>  <SCORE.SYSTEM>
0

>  <SCORE.SYSTEM.CONST>
0

>  <SCORE.SYSTEM.DIHEDRAL>
0

>  <SCORE.SYSTEM.SOLV>
0

>  <SCORE.SYSTEM.norm>
0

>  <SCORE.heavy>
31

>  <SCORE.norm>
-0.347438

>  <RMSD>
6.601

$$$$
ligand
 OpenBabel11021811493D
libRbt.so/2013.1/901 2013/11/27
 31 33  0  0  0  0  0  0  0  0999 V2000
   21.1467   -8.7635   -6.3296 C   0  0  2  0  0  0  0  0  0  0  0  0
   21.0802   -9.0918   -7.7239 O   0  0  0  0  0  0  0  0  0  0  0  0
   21.2846  -12.7204   -9.9555 C   0  0  2  0  0  0  0  0  0  0  0  0
   21.7126  -14.0131  -10.3725 N   0  0  0  0  0  0  0  0  0  0  0  0
   19.1771  -14.0767   -7.1046 C   0  0  2  0  0  0  0  0  0  0  0  0
   19.9863   -7.7608   -6.0433 C   0  0  2  0  0  0  0  0  0  0  0  0
   18.7192   -8.3794   -6.4280 N   0  0  0  0  0  0  0  0  0  0  0  0
   22.4764  -11.7035  -10.1140 C   0  0  0  0  0  0  0  0  0  0  0  0
   20.1005  -15.1929   -6.5460 C   0  0  2  0  0  0  0  0  0  0  0  0
   21.4072  -14.6786   -6.4255 O   0  0  0  0  0  0  0  0  0  0  0  0
   20.2295   -6.4079   -6.8167 C   0  0  0  0  0  0  0  0  0  0  0  0
   21.9970  -10.2681   -9.6500 C   0  0  2  0  0  0  0  0  0  0  0  0
   23.1127   -9.3105   -9.7935 N   0  0  0  0  0  0  0  0  0  0  0  0
   20.0511  -16.4160   -7.5455 C   0  0  1  0  0  0  0  0  0  0  0  0
   20.9426  -17.5076   -7.0611 N   0  0  0  0  0  0  0  0  0  0  0  0
   21.7541   -6.0579   -6.9722 C   0  0  0  0  0  0  0  0  0  0  0  0
   21.5259  -10.3460   -8.1355 C   0  0  2  0  0  0  0  0  0  0  0  0
   18.5243  -16.9713   -7.6511 C   0  0  1  0  0  0  0  0  0  0  0  0
   18.0182  -17.4298   -6.4214 O   0  0  0  0  0  0  0  0  0  0  0  0
   22.7107   -6.9023   -6.5586 C   0  0  1  0  0  0  0  0  0  0  0  0
   22.4079   -8.1456   -5.9573 O   0  0  0  0  0  0  0  0  0  0  0  0
   20.3511  -11.3816   -8.0020 C   0  0  2  0  0  0  0  0  0  0  0  0
   19.9425  -11.4535   -6.6372 O   0  0  0  0  0  0  0  0  0  0  0  0
   17.6008  -15.8177   -8.1513 C   0  0  0  0  0  0  0  0  0  0  0  0
   17.7701  -14.5920   -7.2761 O   0  0  0  0  0  0  0  0  0  0  0  0
   24.2144   -6.5988   -6.7081 C   0  0  0  0  0  0  0  0  0  0  0  0
   24.3785   -5.1924   -7.0038 N   0  0  0  0  0  0  0  0  0  0  0  0
   20.8465  -12.7992   -8.4782 C   0  0  1  0  0  0  0  0  0  0  0  0
   19.7809  -13.6954   -8.3590 O   0  0  0  0  0  0  0  0  0  0  0  0
   18.3116  -18.1676   -8.5896 C   0  0  0  0  0  0  0  0  0  0  0  0
   22.2471  -17.6250   -7.7307 C   0  0  0  0  0  0  0  0  0  0  0  0
  1  2  1  6  0  0  0
  1  6  1  0  0  0  0
  1 21  1  0  0  0  0
  3  4  1  1  0  0  0
  3  8  1  0  0  0  0
  3 28  1  0  0  0  0
  5  9  1  0  0  0  0
  5 25  1  0  0  0  0
  5 29  1  6  0  0  0
  6  7  1  6  0  0  0
  6 11  1  0  0  0  0
  8 12  1  0  0  0  0
  9 10  1  6  0  0  0
  9 14  1  0  0  0  0
 11 16  1  0  0  0  0
 12 13  1  1  0  0  0
 12 17  1  0  0  0  0
 14 15  1  1  0  0  0
 14 18  1  0  0  0  0
 15 31  1  0  0  0  0
 16 20  1  0  0  0  0
 17  2  1  6  0  0  0
 17 22  1  0  0  0  0
 18 19  1  1  0  0  0
 18 24  1  0  0  0  0
 18 30  1  0  0  0  0
 20 21  1  0  0  0  0
 20 26  1  6  0  0  0
 22 23  1  1  0  0  0
 22 28  1  0  0  0  0
 24 25  1  0  0  0  0
 26 27  1  0  0  0  0
 28 29  1  6  0  0  0
M  END
>  <CHROM.1>
-150.54348653,-82.48428367,-101.68702312,-153.83258443,14.96980095,175.89339430
20.75177947,-11.95862351,-7.61085578,1.23326250,0.55794042,0.24702915

>  <Name>
ligand

>  <RI>
0

>  <Rbt.Current_Directory>
/home/itssahil/PROJECTS/Mol_Feturizer/New_Systems/rnas/4F8V

>  <Rbt.Executable>
rbdock ($Id: //depot/dev/client3/rdock/2013.1/src/exe/rbdock.cxx#4 $)

>  <Rbt.Library>
libRbt.so (2013.1, Build901 2013/11/27)

>  <Rbt.Parameter_File>
/export/apps/rDock/src/rDock_2013.1_src/data/scripts/dock_solv.prm

>  <Rbt.Receptor>
prm/pocket_docking_8.prm

>  <SCORE>
-10.527

>  <SCORE.INTER>
-10.0876

>  <SCORE.INTER.CONST>
1

>  <SCORE.INTER.POLAR>
0

>  <SCORE.INTER.ROT>
6

>  <SCORE.INTER.SOLV>
15.6253

>  <SCORE.INTER.VDW>
-19.5335

>  <SCORE.INTER.norm>
-0.325406

>  <SCORE.INTRA>
-0.439428

>  <SCORE.INTRA.DIHEDRAL>
-4.32127

>  <SCORE.INTRA.DIHEDRAL.0>
15.9129

>  <SCORE.INTRA.POLAR>
0

>  <SCORE.INTRA.POLAR.0>
0

>  <SCORE.INTRA.REPUL>
0

>  <SCORE.INTRA.REPUL.0>
0

>  <SCORE.INTRA.SOLV>
-0.778754

>  <SCORE.INTRA.SOLV.lig_0>
-75.7056

>  <SCORE.INTRA.VDW>
2.11059

>  <SCORE.INTRA.VDW.0>
-4.61812

>  <SCORE.INTRA.norm>
-0.0141751

>  <SCORE.RESTR>
0

>  <SCORE.RESTR.CAVITY>
0

>  <SCORE.RESTR.norm>
0

>  <SCORE.SYSTEM>
0

>  <SCORE.SYSTEM.CONST>
0

>  <SCORE.SYSTEM.DIHEDRAL>
0

>  <SCORE.SYSTEM.SOLV>
0

>  <SCORE.SYSTEM.norm>
0

>  <SCORE.heavy>
31

>  <SCORE.norm>
-0.339581

>  <RMSD>
6.611

$$$$
ligand
 OpenBabel11021811493D
libRbt.so/2013.1/901 2013/11/27
 31 33  0  0  0  0  0  0  0  0999 V2000
   19.5891   -7.4535   -6.4978 C   0  0  2  0  0  0  0  0  0  0  0  0
   20.4845   -6.9721   -5.4863 O   0  0  0  0  0  0  0  0  0  0  0  0
   23.6730   -5.7627   -8.0474 C   0  0  2  0  0  0  0  0  0  0  0  0
   24.9357   -5.2520   -8.4632 N   0  0  0  0  0  0  0  0  0  0  0  0
   24.9410   -9.2474   -7.2345 C   0  0  2  0  0  0  0  0  0  0  0  0
   18.1709   -7.5260   -5.8517 C   0  0  2  0  0  0  0  0  0  0  0  0
   17.8107   -6.2019   -5.3485 N   0  0  0  0  0  0  0  0  0  0  0  0
   22.8783   -4.6307   -7.2946 C   0  0  0  0  0  0  0  0  0  0  0  0
   26.2058   -9.6983   -8.0139 C   0  0  2  0  0  0  0  0  0  0  0  0
   27.2077   -8.7204   -7.8516 O   0  0  0  0  0  0  0  0  0  0  0  0
   18.1474   -8.6084   -4.7048 C   0  0  0  0  0  0  0  0  0  0  0  0
   21.4755   -5.2017   -6.8344 C   0  0  2  0  0  0  0  0  0  0  0  0
   20.7270   -4.1444   -6.1244 N   0  0  0  0  0  0  0  0  0  0  0  0
   25.8091   -9.8721   -9.5337 C   0  0  1  0  0  0  0  0  0  0  0  0
   27.0005  -10.2840  -10.3285 N   0  0  0  0  0  0  0  0  0  0  0  0
   19.1133   -9.8167   -4.9842 C   0  0  0  0  0  0  0  0  0  0  0  0
   21.7139   -6.4475   -5.8791 C   0  0  2  0  0  0  0  0  0  0  0  0
   24.6505  -11.0081   -9.6674 C   0  0  1  0  0  0  0  0  0  0  0  0
   25.0620  -12.2720   -9.2070 O   0  0  0  0  0  0  0  0  0  0  0  0
   19.9233   -9.8312   -6.0533 C   0  0  1  0  0  0  0  0  0  0  0  0
   19.9527   -8.7716   -6.9891 O   0  0  0  0  0  0  0  0  0  0  0  0
   22.5258   -7.5526   -6.6474 C   0  0  2  0  0  0  0  0  0  0  0  0
   22.7451   -8.6623   -5.7784 O   0  0  0  0  0  0  0  0  0  0  0  0
   23.4130  -10.5688   -8.8252 C   0  0  0  0  0  0  0  0  0  0  0  0
   23.8303  -10.2539   -7.4027 O   0  0  0  0  0  0  0  0  0  0  0  0
   20.8930  -10.9915   -6.3508 C   0  0  0  0  0  0  0  0  0  0  0  0
   20.7376  -12.0023   -5.3278 N   0  0  0  0  0  0  0  0  0  0  0  0
   23.9122   -6.9605   -7.1047 C   0  0  1  0  0  0  0  0  0  0  0  0
   24.6063   -7.9592   -7.7928 O   0  0  0  0  0  0  0  0  0  0  0  0
   24.1563  -11.2942  -11.0926 C   0  0  0  0  0  0  0  0  0  0  0  0
   27.8004   -9.1952  -10.9103 C   0  0  0  0  0  0  0  0  0  0  0  0
  1  2  1  1  0  0  0
  1  6  1  0  0  0  0
  1 21  1  0  0  0  0
  3  4  1  1  0  0  0
  3  8  1  0  0  0  0
  3 28  1  0  0  0  0
  5  9  1  0  0  0  0
  5 25  1  0  0  0  0
  5 29  1  6  0  0  0
  6  7  1  1  0  0  0
  6 11  1  0  0  0  0
  8 12  1  0  0  0  0
  9 10  1  6  0  0  0
  9 14  1  0  0  0  0
 11 16  1  0  0  0  0
 12 13  1  1  0  0  0
 12 17  1  0  0  0  0
 14 15  1  6  0  0  0
 14 18  1  0  0  0  0
 15 31  1  0  0  0  0
 16 20  1  0  0  0  0
 17  2  1  6  0  0  0
 17 22  1  0  0  0  0
 18 19  1  1  0  0  0
 18 24  1  0  0  0  0
 18 30  1  0  0  0  0
 20 21  1  0  0  0  0
 20 26  1  1  0  0  0
 22 23  1  1  0  0  0
 22 28  1  0  0  0  0
 24 25  1  0  0  0  0
 26 27  1  0  0  0  0
 28 29  1  6  0  0  0
M  END
>  <CHROM.1>
-161.60892552,-153.65166000,-90.77016397,60.01587652,1.18481477,-176.85457315
22.74534725,-8.52275067,-7.35209802,2.76682554,0.48751397,0.11520642

>  <Name>
ligand

>  <RI>
0

>  <Rbt.Current_Directory>
/home/itssahil/PROJECTS/Mol_Feturizer/New_Systems/rnas/4F8V

>  <Rbt.Executable>
rbdock ($Id: //depot/dev/client3/rdock/2013.1/src/exe/rbdock.cxx#4 $)

>  <Rbt.Library>
libRbt.so (2013.1, Build901 2013/11/27)

>  <Rbt.Parameter_File>
/export/apps/rDock/src/rDock_2013.1_src/data/scripts/dock_solv.prm

>  <Rbt.Receptor>
prm/pocket_docking_8.prm

>  <SCORE>
-8.18057

>  <SCORE.INTER>
-6.29906

>  <SCORE.INTER.CONST>
1

>  <SCORE.INTER.POLAR>
0

>  <SCORE.INTER.ROT>
6

>  <SCORE.INTER.SOLV>
20.3781

>  <SCORE.INTER.VDW>
-18.5921

>  <SCORE.INTER.norm>
-0.203196

>  <SCORE.INTRA>
-1.8815

>  <SCORE.INTRA.DIHEDRAL>
-9.09497

>  <SCORE.INTRA.DIHEDRAL.0>
15.9129

>  <SCORE.INTRA.POLAR>
0

>  <SCORE.INTRA.POLAR.0>
0

>  <SCORE.INTRA.REPUL>
0

>  <SCORE.INTRA.REPUL.0>
0

>  <SCORE.INTRA.SOLV>
-0.709104

>  <SCORE.INTRA.SOLV.lig_0>
-75.7056

>  <SCORE.INTRA.VDW>
3.02053

>  <SCORE.INTRA.VDW.0>
-4.61812

>  <SCORE.INTRA.norm>
-0.0606937

>  <SCORE.RESTR>
0

>  <SCORE.RESTR.CAVITY>
0

>  <SCORE.RESTR.norm>
0

>  <SCORE.SYSTEM>
0

>  <SCORE.SYSTEM.CONST>
0

>  <SCORE.SYSTEM.DIHEDRAL>
0

>  <SCORE.SYSTEM.SOLV>
0

>  <SCORE.SYSTEM.norm>
0

>  <SCORE.heavy>
31

>  <SCORE.norm>
-0.263889

>  <RMSD>
6.625

$$$$
ligand
 OpenBabel11021811493D
libRbt.so/2013.1/901 2013/11/27
 31 33  0  0  0  0  0  0  0  0999 V2000
   24.0414  -10.0780   -7.9048 C   0  0  2  0  0  0  0  0  0  0  0  0
   25.4565  -10.0339   -8.1327 O   0  0  0  0  0  0  0  0  0  0  0  0
   28.6439   -9.7745   -5.3110 C   0  0  2  0  0  0  0  0  0  0  0  0
   29.4770   -9.2616   -4.2762 N   0  0  0  0  0  0  0  0  0  0  0  0
   26.0499  -10.9651   -2.8168 C   0  0  2  0  0  0  0  0  0  0  0  0
   23.3983  -10.7314   -9.1670 C   0  0  2  0  0  0  0  0  0  0  0  0
   23.9888  -12.0528   -9.3702 N   0  0  0  0  0  0  0  0  0  0  0  0
   28.6843   -8.7943   -6.5428 C   0  0  0  0  0  0  0  0  0  0  0  0
   25.9251   -9.6309   -2.0328 C   0  0  2  0  0  0  0  0  0  0  0  0
   25.7720   -8.5777   -2.9567 O   0  0  0  0  0  0  0  0  0  0  0  0
   23.6033   -9.8047  -10.4268 C   0  0  0  0  0  0  0  0  0  0  0  0
   27.7576   -9.3677   -7.6909 C   0  0  2  0  0  0  0  0  0  0  0  0
   27.7892   -8.4499   -8.8480 N   0  0  0  0  0  0  0  0  0  0  0  0
   27.2312   -9.4500   -1.1619 C   0  0  1  0  0  0  0  0  0  0  0  0
   27.1671   -8.1674   -0.4056 N   0  0  0  0  0  0  0  0  0  0  0  0
   23.6142   -8.2749  -10.0655 C   0  0  0  0  0  0  0  0  0  0  0  0
   26.2763   -9.5082   -7.1364 C   0  0  2  0  0  0  0  0  0  0  0  0
   27.3632  -10.6894   -0.1145 C   0  0  1  0  0  0  0  0  0  0  0  0
   26.2832  -10.7698    0.7833 O   0  0  0  0  0  0  0  0  0  0  0  0
   23.5497   -7.8570   -8.7925 C   0  0  1  0  0  0  0  0  0  0  0  0
   23.4626   -8.7599   -7.7079 O   0  0  0  0  0  0  0  0  0  0  0  0
   26.2675  -10.4743   -5.8965 C   0  0  2  0  0  0  0  0  0  0  0  0
   24.9355  -10.5853   -5.3983 O   0  0  0  0  0  0  0  0  0  0  0  0
   27.4214  -12.0255   -0.9179 C   0  0  0  0  0  0  0  0  0  0  0  0
   26.2431  -12.1201   -1.8663 O   0  0  0  0  0  0  0  0  0  0  0  0
   23.5726   -6.3666   -8.4005 C   0  0  0  0  0  0  0  0  0  0  0  0
   24.6625   -6.1451   -7.4757 N   0  0  0  0  0  0  0  0  0  0  0  0
   27.2030   -9.8904   -4.7715 C   0  0  1  0  0  0  0  0  0  0  0  0
   27.1843  -10.7732   -3.6883 O   0  0  0  0  0  0  0  0  0  0  0  0
   28.5894  -10.6566    0.8089 C   0  0  0  0  0  0  0  0  0  0  0  0
   27.7075   -6.9828   -1.0902 C   0  0  0  0  0  0  0  0  0  0  0  0
  1  2  1  6  0  0  0
  1  6  1  0  0  0  0
  1 21  1  0  0  0  0
  3  4  1  1  0  0  0
  3  8  1  0  0  0  0
  3 28  1  0  0  0  0
  5  9  1  0  0  0  0
  5 25  1  0  0  0  0
  5 29  1  6  0  0  0
  6  7  1  6  0  0  0
  6 11  1  0  0  0  0
  8 12  1  0  0  0  0
  9 10  1  6  0  0  0
  9 14  1  0  0  0  0
 11 16  1  0  0  0  0
 12 13  1  6  0  0  0
 12 17  1  0  0  0  0
 14 15  1  1  0  0  0
 14 18  1  0  0  0  0
 15 31  1  0  0  0  0
 16 20  1  0  0  0  0
 17  2  1  6  0  0  0
 17 22  1  0  0  0  0
 18 19  1  1  0  0  0
 18 24  1  0  0  0  0
 18 30  1  0  0  0  0
 20 21  1  0  0  0  0
 20 26  1  1  0  0  0
 22 23  1  1  0  0  0
 22 28  1  0  0  0  0
 24 25  1  0  0  0  0
 26 27  1  0  0  0  0
 28 29  1  1  0  0  0
M  END
>  <CHROM.1>
-179.02507007,-68.49717554,-89.19766400,-171.80784414,-123.90002476,170.25155556
26.09717933,-9.58796827,-5.07598403,2.21793782,-0.97641365,-0.87793206

>  <Name>
ligand

>  <RI>
0

>  <Rbt.Current_Directory>
/home/itssahil/PROJECTS/Mol_Feturizer/New_Systems/rnas/4F8V

>  <Rbt.Executable>
rbdock ($Id: //depot/dev/client3/rdock/2013.1/src/exe/rbdock.cxx#4 $)

>  <Rbt.Library>
libRbt.so (2013.1, Build901 2013/11/27)

>  <Rbt.Parameter_File>
/export/apps/rDock/src/rDock_2013.1_src/data/scripts/dock_solv.prm

>  <Rbt.Receptor>
prm/pocket_docking_7.prm

>  <SCORE>
-6.37177

>  <SCORE.INTER>
-2.25559

>  <SCORE.INTER.CONST>
1

>  <SCORE.INTER.POLAR>
0

>  <SCORE.INTER.ROT>
6

>  <SCORE.INTER.SOLV>
3.5952

>  <SCORE.INTER.VDW>
-10.3021

>  <SCORE.INTER.norm>
-0.0727609

>  <SCORE.INTRA>
-4.11619

>  <SCORE.INTRA.DIHEDRAL>
-12.4955

>  <SCORE.INTRA.DIHEDRAL.0>
15.9129

>  <SCORE.INTRA.POLAR>
0

>  <SCORE.INTRA.POLAR.0>
0

>  <SCORE.INTRA.REPUL>
0

>  <SCORE.INTRA.REPUL.0>
0

>  <SCORE.INTRA.SOLV>
-0.558386

>  <SCORE.INTRA.SOLV.lig_0>
-75.7056

>  <SCORE.INTRA.VDW>
2.41077

>  <SCORE.INTRA.VDW.0>
-4.61812

>  <SCORE.INTRA.norm>
-0.13278

>  <SCORE.RESTR>
0

>  <SCORE.RESTR.CAVITY>
0

>  <SCORE.RESTR.norm>
0

>  <SCORE.SYSTEM>
0

>  <SCORE.SYSTEM.CONST>
0

>  <SCORE.SYSTEM.DIHEDRAL>
0

>  <SCORE.SYSTEM.SOLV>
0

>  <SCORE.SYSTEM.norm>
0

>  <SCORE.heavy>
31

>  <SCORE.norm>
-0.205541

>  <RMSD>
6.733

$$$$
ligand
 OpenBabel11021811493D
libRbt.so/2013.1/901 2013/11/27
 31 33  0  0  0  0  0  0  0  0999 V2000
   20.3294  -10.2690   -1.3110 C   0  0  2  0  0  0  0  0  0  0  0  0
   21.1394   -9.1114   -1.5566 O   0  0  0  0  0  0  0  0  0  0  0  0
   20.0553   -8.4328   -5.6251 C   0  0  2  0  0  0  0  0  0  0  0  0
   19.9435   -7.7908   -6.8913 N   0  0  0  0  0  0  0  0  0  0  0  0
   23.5757   -9.6350   -6.3621 C   0  0  2  0  0  0  0  0  0  0  0  0
   20.6047  -10.7123    0.1592 C   0  0  2  0  0  0  0  0  0  0  0  0
   20.3013   -9.5982    1.0552 N   0  0  0  0  0  0  0  0  0  0  0  0
   19.3539   -7.5449   -4.5299 C   0  0  0  0  0  0  0  0  0  0  0  0
   24.1826   -8.2335   -6.6414 C   0  0  2  0  0  0  0  0  0  0  0  0
   23.8078   -7.3638   -5.5976 O   0  0  0  0  0  0  0  0  0  0  0  0
   22.0994  -11.1912    0.3150 C   0  0  0  0  0  0  0  0  0  0  0  0
   19.4798   -8.2616   -3.1242 C   0  0  2  0  0  0  0  0  0  0  0  0
   18.8261   -7.4310   -2.0922 N   0  0  0  0  0  0  0  0  0  0  0  0
   23.6355   -7.7313   -8.0362 C   0  0  1  0  0  0  0  0  0  0  0  0
   24.1750   -6.3753   -8.3382 N   0  0  0  0  0  0  0  0  0  0  0  0
   22.6653  -11.8632   -0.9885 C   0  0  0  0  0  0  0  0  0  0  0  0
   21.0177   -8.4603   -2.7823 C   0  0  2  0  0  0  0  0  0  0  0  0
   24.0925   -8.7680   -9.2055 C   0  0  1  0  0  0  0  0  0  0  0  0
   25.4894   -8.8760   -9.3312 O   0  0  0  0  0  0  0  0  0  0  0  0
   21.9448  -11.9124   -2.1188 C   0  0  1  0  0  0  0  0  0  0  0  0
   20.6408  -11.3723   -2.2036 O   0  0  0  0  0  0  0  0  0  0  0  0
   21.6975   -9.3315   -3.9002 C   0  0  2  0  0  0  0  0  0  0  0  0
   23.0803   -9.4949   -3.5908 O   0  0  0  0  0  0  0  0  0  0  0  0
   23.5284  -10.1841   -8.8736 C   0  0  0  0  0  0  0  0  0  0  0  0
   23.9297  -10.5942   -7.4709 O   0  0  0  0  0  0  0  0  0  0  0  0
   22.4727  -12.5500   -3.4189 C   0  0  0  0  0  0  0  0  0  0  0  0
   23.5105  -13.5002   -3.0835 N   0  0  0  0  0  0  0  0  0  0  0  0
   21.5516   -8.6054   -5.2906 C   0  0  1  0  0  0  0  0  0  0  0  0
   22.1540   -9.4058   -6.2649 O   0  0  0  0  0  0  0  0  0  0  0  0
   23.6354   -8.4148  -10.6280 C   0  0  0  0  0  0  0  0  0  0  0  0
   23.2893   -5.2416   -8.0315 C   0  0  0  0  0  0  0  0  0  0  0  0
  1  2  1  6  0  0  0
  1  6  1  0  0  0  0
  1 21  1  0  0  0  0
  3  4  1  6  0  0  0
  3  8  1  0  0  0  0
  3 28  1  0  0  0  0
  5  9  1  0  0  0  0
  5 25  1  0  0  0  0
  5 29  1  6  0  0  0
  6  7  1  1  0  0  0
  6 11  1  0  0  0  0
  8 12  1  0  0  0  0
  9 10  1  1  0  0  0
  9 14  1  0  0  0  0
 11 16  1  0  0  0  0
 12 13  1  1  0  0  0
 12 17  1  0  0  0  0
 14 15  1  6  0  0  0
 14 18  1  0  0  0  0
 15 31  1  0  0  0  0
 16 20  1  0  0  0  0
 17  2  1  1  0  0  0
 17 22  1  0  0  0  0
 18 19  1  1  0  0  0
 18 24  1  0  0  0  0
 18 30  1  0  0  0  0
 20 21  1  0  0  0  0
 20 26  1  6  0  0  0
 22 23  1  1  0  0  0
 22 28  1  0  0  0  0
 24 25  1  0  0  0  0
 26 27  1  0  0  0  0
 28 29  1  6  0  0  0
M  END
>  <CHROM.1>
-176.00177205,-62.77274391,-98.05887583,46.66534298,23.22577876,171.81350545
22.16941225,-9.29645551,-4.73207978,2.08728116,-0.82393260,2.26849716

>  <Name>
ligand

>  <RI>
0

>  <Rbt.Current_Directory>
/home/itssahil/PROJECTS/Mol_Feturizer/New_Systems/rnas/4F8V

>  <Rbt.Executable>
rbdock ($Id: //depot/dev/client3/rdock/2013.1/src/exe/rbdock.cxx#4 $)

>  <Rbt.Library>
libRbt.so (2013.1, Build901 2013/11/27)

>  <Rbt.Parameter_File>
/export/apps/rDock/src/rDock_2013.1_src/data/scripts/dock_solv.prm

>  <Rbt.Receptor>
prm/pocket_docking_5.prm

>  <SCORE>
-3.82616

>  <SCORE.INTER>
-1.29524

>  <SCORE.INTER.CONST>
1

>  <SCORE.INTER.POLAR>
0

>  <SCORE.INTER.ROT>
6

>  <SCORE.INTER.SOLV>
19.4304

>  <SCORE.INTER.VDW>
-14.9403

>  <SCORE.INTER.norm>
-0.0417818

>  <SCORE.INTRA>
-2.55893

>  <SCORE.INTRA.DIHEDRAL>
-11.4713

>  <SCORE.INTRA.DIHEDRAL.0>
15.9129

>  <SCORE.INTRA.POLAR>
0

>  <SCORE.INTRA.POLAR.0>
0

>  <SCORE.INTRA.REPUL>
0

>  <SCORE.INTRA.REPUL.0>
0

>  <SCORE.INTRA.SOLV>
-0.527277

>  <SCORE.INTRA.SOLV.lig_0>
-75.7056

>  <SCORE.INTRA.VDW>
3.44034

>  <SCORE.INTRA.VDW.0>
-4.61812

>  <SCORE.INTRA.norm>
-0.0825462

>  <SCORE.RESTR>
0.0280075

>  <SCORE.RESTR.CAVITY>
0.0280075

>  <SCORE.RESTR.norm>
0.000903468

>  <SCORE.SYSTEM>
0

>  <SCORE.SYSTEM.CONST>
0

>  <SCORE.SYSTEM.DIHEDRAL>
0

>  <SCORE.SYSTEM.SOLV>
0

>  <SCORE.SYSTEM.norm>
0

>  <SCORE.heavy>
31

>  <SCORE.norm>
-0.123425

>  <RMSD>
6.911

$$$$
ligand
 OpenBabel11021811493D
libRbt.so/2013.1/901 2013/11/27
 31 33  0  0  0  0  0  0  0  0999 V2000
   24.7832  -11.1310   -7.9833 C   0  0  2  0  0  0  0  0  0  0  0  0
   24.8063  -12.5261   -8.3141 O   0  0  0  0  0  0  0  0  0  0  0  0
   25.4143  -15.9258   -5.8118 C   0  0  2  0  0  0  0  0  0  0  0  0
   26.0441  -16.8238   -4.9036 N   0  0  0  0  0  0  0  0  0  0  0  0
   24.8490  -15.4995   -2.8686 C   0  0  2  0  0  0  0  0  0  0  0  0
   23.7920  -10.4457   -8.9741 C   0  0  2  0  0  0  0  0  0  0  0  0
   22.4837  -11.0861   -8.8550 N   0  0  0  0  0  0  0  0  0  0  0  0
   26.2751  -15.8301   -7.1269 C   0  0  0  0  0  0  0  0  0  0  0  0
   23.7108  -15.2459   -1.8435 C   0  0  2  0  0  0  0  0  0  0  0  0
   22.4763  -15.5308   -2.4610 O   0  0  0  0  0  0  0  0  0  0  0  0
   24.3469  -10.5300  -10.4482 C   0  0  0  0  0  0  0  0  0  0  0  0
   25.5720  -14.8316   -8.1341 C   0  0  2  0  0  0  0  0  0  0  0  0
   26.3775  -14.7355   -9.3687 N   0  0  0  0  0  0  0  0  0  0  0  0
   23.7921  -13.7360   -1.3843 C   0  0  1  0  0  0  0  0  0  0  0  0
   22.7014  -13.4382   -0.4132 N   0  0  0  0  0  0  0  0  0  0  0  0
   25.9168  -10.4888  -10.5140 C   0  0  0  0  0  0  0  0  0  0  0  0
   25.4449  -13.4071   -7.4440 C   0  0  2  0  0  0  0  0  0  0  0  0
   25.2336  -13.4579   -0.6806 C   0  0  1  0  0  0  0  0  0  0  0  0
   25.4483  -14.2442    0.4658 O   0  0  0  0  0  0  0  0  0  0  0  0
   26.6631  -10.4805   -9.3995 C   0  0  1  0  0  0  0  0  0  0  0  0
   26.0870  -10.5021   -8.1084 O   0  0  0  0  0  0  0  0  0  0  0  0
   24.5997  -13.5345   -6.1248 C   0  0  2  0  0  0  0  0  0  0  0  0
   24.5007  -12.2530   -5.5061 O   0  0  0  0  0  0  0  0  0  0  0  0
   26.3659  -13.7806   -1.7042 C   0  0  0  0  0  0  0  0  0  0  0  0
   26.1906  -15.1805   -2.2577 O   0  0  0  0  0  0  0  0  0  0  0  0
   28.2039  -10.4549   -9.4260 C   0  0  0  0  0  0  0  0  0  0  0  0
   28.6610   -9.2478   -8.7732 N   0  0  0  0  0  0  0  0  0  0  0  0
   25.3114  -14.5395   -5.1424 C   0  0  1  0  0  0  0  0  0  0  0  0
   24.5341  -14.6412   -3.9855 O   0  0  0  0  0  0  0  0  0  0  0  0
   25.4664  -12.0264   -0.1767 C   0  0  0  0  0  0  0  0  0  0  0  0
   21.9428  -12.2002   -0.6492 C   0  0  0  0  0  0  0  0  0  0  0  0
  1  2  1  6  0  0  0
  1  6  1  0  0  0  0
  1 21  1  0  0  0  0
  3  4  1  1  0  0  0
  3  8  1  0  0  0  0
  3 28  1  0  0  0  0
  5  9  1  0  0  0  0
  5 25  1  0  0  0  0
  5 29  1  6  0  0  0
  6  7  1  6  0  0  0
  6 11  1  0  0  0  0
  8 12  1  0  0  0  0
  9 10  1  6  0  0  0
  9 14  1  0  0  0  0
 11 16  1  0  0  0  0
 12 13  1  6  0  0  0
 12 17  1  0  0  0  0
 14 15  1  1  0  0  0
 14 18  1  0  0  0  0
 15 31  1  0  0  0  0
 16 20  1  0  0  0  0
 17  2  1  6  0  0  0
 17 22  1  0  0  0  0
 18 19  1  1  0  0  0
 18 24  1  0  0  0  0
 18 30  1  0  0  0  0
 20 21  1  0  0  0  0
 20 26  1  6  0  0  0
 22 23  1  1  0  0  0
 22 28  1  0  0  0  0
 24 25  1  0  0  0  0
 26 27  1  0  0  0  0
 28 29  1  1  0  0  0
M  END
>  <CHROM.1>
-169.63867674,179.35497394,-133.44975428,-169.85950442,118.65142775,59.21734754
25.08706425,-13.15043952,-5.38033461,0.97291523,1.26242164,-0.63589026

>  <Name>
ligand

>  <RI>
0

>  <Rbt.Current_Directory>
/home/itssahil/PROJECTS/Mol_Feturizer/New_Systems/rnas/4F8V

>  <Rbt.Executable>
rbdock ($Id: //depot/dev/client3/rdock/2013.1/src/exe/rbdock.cxx#4 $)

>  <Rbt.Library>
libRbt.so (2013.1, Build901 2013/11/27)

>  <Rbt.Parameter_File>
/export/apps/rDock/src/rDock_2013.1_src/data/scripts/dock_solv.prm

>  <Rbt.Receptor>
prm/pocket_docking_8.prm

>  <SCORE>
-7.64277

>  <SCORE.INTER>
-2.89885

>  <SCORE.INTER.CONST>
1

>  <SCORE.INTER.POLAR>
0

>  <SCORE.INTER.ROT>
6

>  <SCORE.INTER.SOLV>
11.4213

>  <SCORE.INTER.VDW>
-13.3397

>  <SCORE.INTER.norm>
-0.0935112

>  <SCORE.INTRA>
-4.74392

>  <SCORE.INTRA.DIHEDRAL>
-12.1526

>  <SCORE.INTRA.DIHEDRAL.0>
15.9129

>  <SCORE.INTRA.POLAR>
0

>  <SCORE.INTRA.POLAR.0>
0

>  <SCORE.INTRA.REPUL>
0

>  <SCORE.INTRA.REPUL.0>
0

>  <SCORE.INTRA.SOLV>
-1.85397

>  <SCORE.INTRA.SOLV.lig_0>
-75.7056

>  <SCORE.INTRA.VDW>
2.25936

>  <SCORE.INTRA.VDW.0>
-4.61812

>  <SCORE.INTRA.norm>
-0.15303

>  <SCORE.RESTR>
0

>  <SCORE.RESTR.CAVITY>
0

>  <SCORE.RESTR.norm>
0

>  <SCORE.SYSTEM>
0

>  <SCORE.SYSTEM.CONST>
0

>  <SCORE.SYSTEM.DIHEDRAL>
0

>  <SCORE.SYSTEM.SOLV>
0

>  <SCORE.SYSTEM.norm>
0

>  <SCORE.heavy>
31

>  <SCORE.norm>
-0.246541

>  <RMSD>
6.953

$$$$
ligand
 OpenBabel11021811493D
libRbt.so/2013.1/901 2013/11/27
 31 33  0  0  0  0  0  0  0  0999 V2000
   14.0216   -5.0684   -5.1775 C   0  0  2  0  0  0  0  0  0  0  0  0
   14.8972   -6.1557   -5.5053 O   0  0  0  0  0  0  0  0  0  0  0  0
   19.0794   -6.3831   -6.3091 C   0  0  2  0  0  0  0  0  0  0  0  0
   20.4854   -6.2347   -6.1379 N   0  0  0  0  0  0  0  0  0  0  0  0
   18.8664   -9.4660   -4.1036 C   0  0  2  0  0  0  0  0  0  0  0  0
   12.7117   -5.6959   -4.6083 C   0  0  2  0  0  0  0  0  0  0  0  0
   13.0472   -6.5307   -3.4565 N   0  0  0  0  0  0  0  0  0  0  0  0
   18.4092   -4.9588   -6.3517 C   0  0  0  0  0  0  0  0  0  0  0  0
   19.5445   -8.9169   -2.8194 C   0  0  2  0  0  0  0  0  0  0  0  0
   18.9938   -7.6537   -2.5238 O   0  0  0  0  0  0  0  0  0  0  0  0
   11.9706   -6.5235   -5.7280 C   0  0  0  0  0  0  0  0  0  0  0  0
   16.8469   -5.1276   -6.5425 C   0  0  2  0  0  0  0  0  0  0  0  0
   16.2126   -3.7940   -6.5798 N   0  0  0  0  0  0  0  0  0  0  0  0
   21.0988   -8.8208   -3.0884 C   0  0  1  0  0  0  0  0  0  0  0  0
   21.7922   -8.2756   -1.8872 N   0  0  0  0  0  0  0  0  0  0  0  0
   12.1752   -5.9253   -7.1671 C   0  0  0  0  0  0  0  0  0  0  0  0
   16.2690   -5.9817   -5.3350 C   0  0  2  0  0  0  0  0  0  0  0  0
   21.6853  -10.3015   -3.4261 C   0  0  1  0  0  0  0  0  0  0  0  0
   21.5104  -11.2171   -2.3727 O   0  0  0  0  0  0  0  0  0  0  0  0
   12.9838   -4.8763   -7.3795 C   0  0  1  0  0  0  0  0  0  0  0  0
   13.6905   -4.2466   -6.3291 O   0  0  0  0  0  0  0  0  0  0  0  0
   16.9686   -7.3890   -5.3030 C   0  0  2  0  0  0  0  0  0  0  0  0
   16.4519   -8.1443   -4.2088 O   0  0  0  0  0  0  0  0  0  0  0  0
   20.9463  -10.8637   -4.6797 C   0  0  0  0  0  0  0  0  0  0  0  0
   19.4458  -10.8083   -4.4740 O   0  0  0  0  0  0  0  0  0  0  0  0
   13.2194   -4.2730   -8.7780 C   0  0  0  0  0  0  0  0  0  0  0  0
   12.6398   -2.9483   -8.8174 N   0  0  0  0  0  0  0  0  0  0  0  0
   18.5218   -7.1972   -5.1230 C   0  0  1  0  0  0  0  0  0  0  0  0
   19.1176   -8.4612   -5.1088 O   0  0  0  0  0  0  0  0  0  0  0  0
   23.1921  -10.3744   -3.7119 C   0  0  0  0  0  0  0  0  0  0  0  0
   22.8332   -7.2678   -2.1406 C   0  0  0  0  0  0  0  0  0  0  0  0
  1  2  1  6  0  0  0
  1  6  1  0  0  0  0
  1 21  1  0  0  0  0
  3  4  1  1  0  0  0
  3  8  1  0  0  0  0
  3 28  1  0  0  0  0
  5  9  1  0  0  0  0
  5 25  1  0  0  0  0
  5 29  1  6  0  0  0
  6  7  1  1  0  0  0
  6 11  1  0  0  0  0
  8 12  1  0  0  0  0
  9 10  1  6  0  0  0
  9 14  1  0  0  0  0
 11 16  1  0  0  0  0
 12 13  1  1  0  0  0
 12 17  1  0  0  0  0
 14 15  1  1  0  0  0
 14 18  1  0  0  0  0
 15 31  1  0  0  0  0
 16 20  1  0  0  0  0
 17  2  1  6  0  0  0
 17 22  1  0  0  0  0
 18 19  1  1  0  0  0
 18 24  1  0  0  0  0
 18 30  1  0  0  0  0
 20 21  1  0  0  0  0
 20 26  1  6  0  0  0
 22 23  1  1  0  0  0
 22 28  1  0  0  0  0
 24 25  1  0  0  0  0
 26 27  1  0  0  0  0
 28 29  1  6  0  0  0
M  END
>  <CHROM.1>
-145.59287725,-70.41251105,-136.92847143,-78.09054152,112.50070014,177.53653325
17.43432119,-7.12534925,-4.98117014,2.52050271,0.01390854,-0.65644468

>  <Name>
ligand

>  <RI>
0

>  <Rbt.Current_Directory>
/home/itssahil/PROJECTS/Mol_Feturizer/New_Systems/rnas/4F8V

>  <Rbt.Executable>
rbdock ($Id: //depot/dev/client3/rdock/2013.1/src/exe/rbdock.cxx#4 $)

>  <Rbt.Library>
libRbt.so (2013.1, Build901 2013/11/27)

>  <Rbt.Parameter_File>
/export/apps/rDock/src/rDock_2013.1_src/data/scripts/dock_solv.prm

>  <Rbt.Receptor>
prm/pocket_docking_8.prm

>  <SCORE>
-10.0745

>  <SCORE.INTER>
-9.22979

>  <SCORE.INTER.CONST>
1

>  <SCORE.INTER.POLAR>
0

>  <SCORE.INTER.ROT>
6

>  <SCORE.INTER.SOLV>
16.6021

>  <SCORE.INTER.VDW>
-19.2872

>  <SCORE.INTER.norm>
-0.297735

>  <SCORE.INTRA>
-0.844743

>  <SCORE.INTRA.DIHEDRAL>
-6.70538

>  <SCORE.INTRA.DIHEDRAL.0>
15.9129

>  <SCORE.INTRA.POLAR>
0

>  <SCORE.INTRA.POLAR.0>
0

>  <SCORE.INTRA.REPUL>
0

>  <SCORE.INTRA.REPUL.0>
0

>  <SCORE.INTRA.SOLV>
0.436656

>  <SCORE.INTRA.SOLV.lig_0>
-75.7056

>  <SCORE.INTRA.VDW>
2.28962

>  <SCORE.INTRA.VDW.0>
-4.61812

>  <SCORE.INTRA.norm>
-0.0272498

>  <SCORE.RESTR>
0

>  <SCORE.RESTR.CAVITY>
0

>  <SCORE.RESTR.norm>
0

>  <SCORE.SYSTEM>
0

>  <SCORE.SYSTEM.CONST>
0

>  <SCORE.SYSTEM.DIHEDRAL>
0

>  <SCORE.SYSTEM.SOLV>
0

>  <SCORE.SYSTEM.norm>
0

>  <SCORE.heavy>
31

>  <SCORE.norm>
-0.324985

>  <RMSD>
6.978

$$$$
ligand
 OpenBabel11021811493D
libRbt.so/2013.1/901 2013/11/27
 31 33  0  0  0  0  0  0  0  0999 V2000
   24.1801  -12.9401   -1.0022 C   0  0  2  0  0  0  0  0  0  0  0  0
   24.5375  -11.8931   -1.9147 O   0  0  0  0  0  0  0  0  0  0  0  0
   20.6994  -11.2987   -3.6766 C   0  0  2  0  0  0  0  0  0  0  0  0
   19.6738  -10.7473   -4.4964 N   0  0  0  0  0  0  0  0  0  0  0  0
   22.0451  -13.1925   -6.6534 C   0  0  2  0  0  0  0  0  0  0  0  0
   25.2997  -12.9988    0.0826 C   0  0  2  0  0  0  0  0  0  0  0  0
   25.4078  -11.6899    0.7239 N   0  0  0  0  0  0  0  0  0  0  0  0
   21.2211  -10.1927   -2.6846 C   0  0  0  0  0  0  0  0  0  0  0  0
   20.9443  -13.8895   -7.4978 C   0  0  2  0  0  0  0  0  0  0  0  0
   19.8940  -12.9747   -7.7125 O   0  0  0  0  0  0  0  0  0  0  0  0
   26.6673  -13.4412   -0.5666 C   0  0  0  0  0  0  0  0  0  0  0  0
   22.3604  -10.8092   -1.7750 C   0  0  2  0  0  0  0  0  0  0  0  0
   22.8560   -9.7744   -0.8445 N   0  0  0  0  0  0  0  0  0  0  0  0
   20.4486  -15.1620   -6.7025 C   0  0  1  0  0  0  0  0  0  0  0  0
   19.3719  -15.8539   -7.4661 N   0  0  0  0  0  0  0  0  0  0  0  0
   26.4795  -14.4294   -1.7746 C   0  0  0  0  0  0  0  0  0  0  0  0
   23.5389  -11.3275   -2.7046 C   0  0  2  0  0  0  0  0  0  0  0  0
   21.6958  -16.1843   -6.4790 C   0  0  1  0  0  0  0  0  0  0  0  0
   22.2507  -16.6488   -7.6853 O   0  0  0  0  0  0  0  0  0  0  0  0
   25.2599  -14.7550   -2.2281 C   0  0  1  0  0  0  0  0  0  0  0  0
   24.0788  -14.2378   -1.6477 O   0  0  0  0  0  0  0  0  0  0  0  0
   22.9875  -12.4142   -3.6974 C   0  0  2  0  0  0  0  0  0  0  0  0
   24.0499  -12.8652   -4.5357 O   0  0  0  0  0  0  0  0  0  0  0  0
   22.8182  -15.4459   -5.6861 C   0  0  0  0  0  0  0  0  0  0  0  0
   23.1804  -14.1458   -6.3754 O   0  0  0  0  0  0  0  0  0  0  0  0
   25.0384  -15.7085   -3.4185 C   0  0  0  0  0  0  0  0  0  0  0  0
   24.3338  -16.8820   -2.9505 N   0  0  0  0  0  0  0  0  0  0  0  0
   21.8491  -11.7827   -4.5847 C   0  0  1  0  0  0  0  0  0  0  0  0
   21.3712  -12.7720   -5.4483 O   0  0  0  0  0  0  0  0  0  0  0  0
   21.3719  -17.4774   -5.7173 C   0  0  0  0  0  0  0  0  0  0  0  0
   18.0189  -15.7773   -6.8940 C   0  0  0  0  0  0  0  0  0  0  0  0
  1  2  1  6  0  0  0
  1  6  1  0  0  0  0
  1 21  1  0  0  0  0
  3  4  1  6  0  0  0
  3  8  1  0  0  0  0
  3 28  1  0  0  0  0
  5  9  1  0  0  0  0
  5 25  1  0  0  0  0
  5 29  1  1  0  0  0
  6  7  1  6  0  0  0
  6 11  1  0  0  0  0
  8 12  1  0  0  0  0
  9 10  1  1  0  0  0
  9 14  1  0  0  0  0
 11 16  1  0  0  0  0
 12 13  1  1  0  0  0
 12 17  1  0  0  0  0
 14 15  1  6  0  0  0
 14 18  1  0  0  0  0
 15 31  1  0  0  0  0
 16 20  1  0  0  0  0
 17  2  1  1  0  0  0
 17 22  1  0  0  0  0
 18 19  1  6  0  0  0
 18 24  1  0  0  0  0
 18 30  1  0  0  0  0
 20 21  1  0  0  0  0
 20 26  1  6  0  0  0
 22 23  1  6  0  0  0
 22 28  1  0  0  0  0
 24 25  1  0  0  0  0
 26 27  1  0  0  0  0
 28 29  1  6  0  0  0
M  END
>  <CHROM.1>
-159.06909782,-160.44826403,-110.20631983,54.71945350,116.57423369,162.60662315
22.70053518,-13.56396829,-4.04108156,-0.76848145,0.70030343,-2.56837304

>  <Name>
ligand

>  <RI>
0

>  <Rbt.Current_Directory>
/home/itssahil/PROJECTS/Mol_Feturizer/New_Systems/rnas/4F8V

>  <Rbt.Executable>
rbdock ($Id: //depot/dev/client3/rdock/2013.1/src/exe/rbdock.cxx#4 $)

>  <Rbt.Library>
libRbt.so (2013.1, Build901 2013/11/27)

>  <Rbt.Parameter_File>
/export/apps/rDock/src/rDock_2013.1_src/data/scripts/dock_solv.prm

>  <Rbt.Receptor>
prm/pocket_docking_6.prm

>  <SCORE>
-5.97102

>  <SCORE.INTER>
-3.95099

>  <SCORE.INTER.CONST>
1

>  <SCORE.INTER.POLAR>
0

>  <SCORE.INTER.ROT>
6

>  <SCORE.INTER.SOLV>
15.063

>  <SCORE.INTER.VDW>
-15.255

>  <SCORE.INTER.norm>
-0.127451

>  <SCORE.INTRA>
-2.02003

>  <SCORE.INTRA.DIHEDRAL>
-7.8824

>  <SCORE.INTRA.DIHEDRAL.0>
15.9129

>  <SCORE.INTRA.POLAR>
0

>  <SCORE.INTRA.POLAR.0>
0

>  <SCORE.INTRA.REPUL>
0

>  <SCORE.INTRA.REPUL.0>
0

>  <SCORE.INTRA.SOLV>
0.486683

>  <SCORE.INTRA.SOLV.lig_0>
-75.7056

>  <SCORE.INTRA.VDW>
1.67783

>  <SCORE.INTRA.VDW.0>
-4.61812

>  <SCORE.INTRA.norm>
-0.0651624

>  <SCORE.RESTR>
0

>  <SCORE.RESTR.CAVITY>
0

>  <SCORE.RESTR.norm>
0

>  <SCORE.SYSTEM>
0

>  <SCORE.SYSTEM.CONST>
0

>  <SCORE.SYSTEM.DIHEDRAL>
0

>  <SCORE.SYSTEM.SOLV>
0

>  <SCORE.SYSTEM.norm>
0

>  <SCORE.heavy>
31

>  <SCORE.norm>
-0.192614

>  <RMSD>
7.015

$$$$
ligand
 OpenBabel11021811493D
libRbt.so/2013.1/901 2013/11/27
 31 33  0  0  0  0  0  0  0  0999 V2000
   19.4115   -7.2756   -4.8983 C   0  0  2  0  0  0  0  0  0  0  0  0
   20.0076   -7.5321   -6.1772 O   0  0  0  0  0  0  0  0  0  0  0  0
   23.2549   -5.8240   -8.3512 C   0  0  2  0  0  0  0  0  0  0  0  0
   24.5552   -5.3194   -8.6382 N   0  0  0  0  0  0  0  0  0  0  0  0
   25.3226   -7.9029   -9.3519 C   0  0  2  0  0  0  0  0  0  0  0  0
   18.5184   -8.5086   -4.5580 C   0  0  2  0  0  0  0  0  0  0  0  0
   19.3463   -9.7130   -4.5749 N   0  0  0  0  0  0  0  0  0  0  0  0
   22.5947   -4.9448   -7.2239 C   0  0  0  0  0  0  0  0  0  0  0  0
   25.4495   -8.8972  -10.5375 C   0  0  2  0  0  0  0  0  0  0  0  0
   24.4745   -8.5746  -11.5028 O   0  0  0  0  0  0  0  0  0  0  0  0
   17.3204   -8.6141   -5.5785 C   0  0  0  0  0  0  0  0  0  0  0  0
   21.1496   -5.5082   -6.9079 C   0  0  2  0  0  0  0  0  0  0  0  0
   20.5269   -4.6888   -5.8482 N   0  0  0  0  0  0  0  0  0  0  0  0
   25.2438  -10.3596   -9.9751 C   0  0  1  0  0  0  0  0  0  0  0  0
   25.3350  -11.3508  -11.0843 N   0  0  0  0  0  0  0  0  0  0  0  0
   16.8274   -7.2119   -6.0899 C   0  0  0  0  0  0  0  0  0  0  0  0
   21.2768   -7.0192   -6.4361 C   0  0  2  0  0  0  0  0  0  0  0  0
   26.3906  -10.6825   -8.8655 C   0  0  1  0  0  0  0  0  0  0  0  0
   27.6951  -10.6274   -9.3889 O   0  0  0  0  0  0  0  0  0  0  0  0
   17.4560   -6.0797   -5.7402 C   0  0  1  0  0  0  0  0  0  0  0  0
   18.5875   -6.0789   -4.8922 O   0  0  0  0  0  0  0  0  0  0  0  0
   21.9565   -7.8695   -7.5700 C   0  0  2  0  0  0  0  0  0  0  0  0
   22.0771   -9.2220   -7.1331 O   0  0  0  0  0  0  0  0  0  0  0  0
   26.2893   -9.6339   -7.7148 C   0  0  0  0  0  0  0  0  0  0  0  0
   26.3319   -8.2282   -8.2795 O   0  0  0  0  0  0  0  0  0  0  0  0
   17.0097   -4.6897   -6.2339 C   0  0  0  0  0  0  0  0  0  0  0  0
   16.2136   -4.0624   -5.2018 N   0  0  0  0  0  0  0  0  0  0  0  0
   23.3875   -7.2857   -7.8753 C   0  0  1  0  0  0  0  0  0  0  0  0
   23.9626   -8.0527   -8.8921 O   0  0  0  0  0  0  0  0  0  0  0  0
   26.3256  -12.0753   -8.2229 C   0  0  0  0  0  0  0  0  0  0  0  0
   24.0612  -11.9144  -11.5572 C   0  0  0  0  0  0  0  0  0  0  0  0
  1  2  1  6  0  0  0
  1  6  1  0  0  0  0
  1 21  1  0  0  0  0
  3  4  1  1  0  0  0
  3  8  1  0  0  0  0
  3 28  1  0  0  0  0
  5  9  1  0  0  0  0
  5 25  1  0  0  0  0
  5 29  1  1  0  0  0
  6  7  1  6  0  0  0
  6 11  1  0  0  0  0
  8 12  1  0  0  0  0
  9 10  1  6  0  0  0
  9 14  1  0  0  0  0
 11 16  1  0  0  0  0
 12 13  1  1  0  0  0
 12 17  1  0  0  0  0
 14 15  1  6  0  0  0
 14 18  1  0  0  0  0
 15 31  1  0  0  0  0
 16 20  1  0  0  0  0
 17  2  1  6  0  0  0
 17 22  1  0  0  0  0
 18 19  1  6  0  0  0
 18 24  1  0  0  0  0
 18 30  1  0  0  0  0
 20 21  1  0  0  0  0
 20 26  1  6  0  0  0
 22 23  1  1  0  0  0
 22 28  1  0  0  0  0
 24 25  1  0  0  0  0
 26 27  1  0  0  0  0
 28 29  1  6  0  0  0
M  END
>  <CHROM.1>
-148.17351035,-176.27401438,-103.84753266,-83.22732788,98.65054886,67.24756532
22.23879574,-7.95707486,-7.61231432,2.73466827,0.49235792,0.01362405

>  <Name>
ligand

>  <RI>
0

>  <Rbt.Current_Directory>
/home/itssahil/PROJECTS/Mol_Feturizer/New_Systems/rnas/4F8V

>  <Rbt.Executable>
rbdock ($Id: //depot/dev/client3/rdock/2013.1/src/exe/rbdock.cxx#4 $)

>  <Rbt.Library>
libRbt.so (2013.1, Build901 2013/11/27)

>  <Rbt.Parameter_File>
/export/apps/rDock/src/rDock_2013.1_src/data/scripts/dock_solv.prm

>  <Rbt.Receptor>
prm/pocket_docking_8.prm

>  <SCORE>
-12.3494

>  <SCORE.INTER>
-10.8768

>  <SCORE.INTER.CONST>
1

>  <SCORE.INTER.POLAR>
0

>  <SCORE.INTER.ROT>
6

>  <SCORE.INTER.SOLV>
20.9613

>  <SCORE.INTER.VDW>
-21.8383

>  <SCORE.INTER.norm>
-0.350865

>  <SCORE.INTRA>
-1.4726

>  <SCORE.INTRA.DIHEDRAL>
-6.07621

>  <SCORE.INTRA.DIHEDRAL.0>
15.9129

>  <SCORE.INTRA.POLAR>
0

>  <SCORE.INTRA.POLAR.0>
0

>  <SCORE.INTRA.REPUL>
0

>  <SCORE.INTRA.REPUL.0>
0

>  <SCORE.INTRA.SOLV>
0.705291

>  <SCORE.INTRA.SOLV.lig_0>
-75.7056

>  <SCORE.INTRA.VDW>
1.21286

>  <SCORE.INTRA.VDW.0>
-4.61812

>  <SCORE.INTRA.norm>
-0.0475031

>  <SCORE.RESTR>
0

>  <SCORE.RESTR.CAVITY>
0

>  <SCORE.RESTR.norm>
0

>  <SCORE.SYSTEM>
0

>  <SCORE.SYSTEM.CONST>
0

>  <SCORE.SYSTEM.DIHEDRAL>
0

>  <SCORE.SYSTEM.SOLV>
0

>  <SCORE.SYSTEM.norm>
0

>  <SCORE.heavy>
31

>  <SCORE.norm>
-0.398368

>  <RMSD>
7.018

$$$$
ligand
 OpenBabel11021811493D
libRbt.so/2013.1/901 2013/11/27
 31 33  0  0  0  0  0  0  0  0999 V2000
   26.6028   -9.9114   -9.8188 C   0  0  2  0  0  0  0  0  0  0  0  0
   26.0701   -9.5262   -8.5443 O   0  0  0  0  0  0  0  0  0  0  0  0
   27.9176  -12.5600   -6.1838 C   0  0  2  0  0  0  0  0  0  0  0  0
   28.2998  -13.3206   -5.0422 N   0  0  0  0  0  0  0  0  0  0  0  0
   25.8922  -14.8317   -5.3549 C   0  0  2  0  0  0  0  0  0  0  0  0
   26.3064   -8.7415  -10.8073 C   0  0  2  0  0  0  0  0  0  0  0  0
   26.9025   -7.5146  -10.2825 N   0  0  0  0  0  0  0  0  0  0  0  0
   28.4659  -11.0913   -6.0356 C   0  0  0  0  0  0  0  0  0  0  0  0
   25.3377  -16.1223   -6.0163 C   0  0  2  0  0  0  0  0  0  0  0  0
   26.1679  -16.4647   -7.1025 O   0  0  0  0  0  0  0  0  0  0  0  0
   24.7512   -8.5860  -11.0195 C   0  0  0  0  0  0  0  0  0  0  0  0
   28.0396  -10.2491   -7.3063 C   0  0  2  0  0  0  0  0  0  0  0  0
   28.5487   -8.8691   -7.1708 N   0  0  0  0  0  0  0  0  0  0  0  0
   23.8576  -15.8340   -6.4889 C   0  0  1  0  0  0  0  0  0  0  0  0
   23.2890  -17.0414   -7.1522 N   0  0  0  0  0  0  0  0  0  0  0  0
   23.9816   -9.9535  -10.9274 C   0  0  0  0  0  0  0  0  0  0  0  0
   26.4554  -10.2462   -7.4154 C   0  0  2  0  0  0  0  0  0  0  0  0
   22.9415  -15.4424   -5.2012 C   0  0  1  0  0  0  0  0  0  0  0  0
   22.8699  -16.4696   -4.2428 O   0  0  0  0  0  0  0  0  0  0  0  0
   24.6143  -11.0912  -10.6039 C   0  0  1  0  0  0  0  0  0  0  0  0
   26.0017  -11.1297  -10.3342 O   0  0  0  0  0  0  0  0  0  0  0  0
   25.9334  -11.7235   -7.5415 C   0  0  2  0  0  0  0  0  0  0  0  0
   24.5096  -11.7118   -7.6273 O   0  0  0  0  0  0  0  0  0  0  0  0
   23.5513  -14.1828   -4.5119 C   0  0  0  0  0  0  0  0  0  0  0  0
   25.0168  -14.4118   -4.2007 O   0  0  0  0  0  0  0  0  0  0  0  0
   23.8896  -12.4467  -10.4903 C   0  0  0  0  0  0  0  0  0  0  0  0
   24.4113  -13.3399  -11.5014 N   0  0  0  0  0  0  0  0  0  0  0  0
   26.3773  -12.5453   -6.2729 C   0  0  1  0  0  0  0  0  0  0  0  0
   25.9099  -13.8544   -6.4169 O   0  0  0  0  0  0  0  0  0  0  0  0
   21.4674  -15.1329   -5.4989 C   0  0  0  0  0  0  0  0  0  0  0  0
   23.4031  -17.0907   -8.6179 C   0  0  0  0  0  0  0  0  0  0  0  0
  1  2  1  1  0  0  0
  1  6  1  0  0  0  0
  1 21  1  0  0  0  0
  3  4  1  1  0  0  0
  3  8  1  0  0  0  0
  3 28  1  0  0  0  0
  5  9  1  0  0  0  0
  5 25  1  0  0  0  0
  5 29  1  6  0  0  0
  6  7  1  1  0  0  0
  6 11  1  0  0  0  0
  8 12  1  0  0  0  0
  9 10  1  6  0  0  0
  9 14  1  0  0  0  0
 11 16  1  0  0  0  0
 12 13  1  1  0  0  0
 12 17  1  0  0  0  0
 14 15  1  1  0  0  0
 14 18  1  0  0  0  0
 15 31  1  0  0  0  0
 16 20  1  0  0  0  0
 17  2  1  6  0  0  0
 17 22  1  0  0  0  0
 18 19  1  1  0  0  0
 18 24  1  0  0  0  0
 18 30  1  0  0  0  0
 20 21  1  0  0  0  0
 20 26  1  1  0  0  0
 22 23  1  1  0  0  0
 22 28  1  0  0  0  0
 24 25  1  0  0  0  0
 26 27  1  0  0  0  0
 28 29  1  6  0  0  0
M  END
>  <CHROM.1>
-165.74697835,-178.12929935,-94.63545694,55.49000341,116.15897560,73.40434493
25.38581019,-12.66517251,-7.59078030,1.16364426,-0.74250867,-0.84229650

>  <Name>
ligand

>  <RI>
0

>  <Rbt.Current_Directory>
/home/itssahil/PROJECTS/Mol_Feturizer/New_Systems/rnas/4F8V

>  <Rbt.Executable>
rbdock ($Id: //depot/dev/client3/rdock/2013.1/src/exe/rbdock.cxx#4 $)

>  <Rbt.Library>
libRbt.so (2013.1, Build901 2013/11/27)

>  <Rbt.Parameter_File>
/export/apps/rDock/src/rDock_2013.1_src/data/scripts/dock_solv.prm

>  <Rbt.Receptor>
prm/pocket_docking_7.prm

>  <SCORE>
-6.1513

>  <SCORE.INTER>
-1.51664

>  <SCORE.INTER.CONST>
1

>  <SCORE.INTER.POLAR>
0

>  <SCORE.INTER.ROT>
6

>  <SCORE.INTER.SOLV>
7.35215

>  <SCORE.INTER.VDW>
-11.0618

>  <SCORE.INTER.norm>
-0.048924

>  <SCORE.INTRA>
-4.63466

>  <SCORE.INTRA.DIHEDRAL>
-11.5424

>  <SCORE.INTRA.DIHEDRAL.0>
15.9129

>  <SCORE.INTRA.POLAR>
0

>  <SCORE.INTRA.POLAR.0>
0

>  <SCORE.INTRA.REPUL>
0

>  <SCORE.INTRA.REPUL.0>
0

>  <SCORE.INTRA.SOLV>
-0.622583

>  <SCORE.INTRA.SOLV.lig_0>
-75.7056

>  <SCORE.INTRA.VDW>
1.44783

>  <SCORE.INTRA.VDW.0>
-4.61812

>  <SCORE.INTRA.norm>
-0.149505

>  <SCORE.RESTR>
0

>  <SCORE.RESTR.CAVITY>
0

>  <SCORE.RESTR.norm>
0

>  <SCORE.SYSTEM>
0

>  <SCORE.SYSTEM.CONST>
0

>  <SCORE.SYSTEM.DIHEDRAL>
0

>  <SCORE.SYSTEM.SOLV>
0

>  <SCORE.SYSTEM.norm>
0

>  <SCORE.heavy>
31

>  <SCORE.norm>
-0.198429

>  <RMSD>
7.078

$$$$
ligand
 OpenBabel11021811493D
libRbt.so/2013.1/901 2013/11/27
 31 33  0  0  0  0  0  0  0  0999 V2000
   24.3468  -13.1214   -1.0154 C   0  0  2  0  0  0  0  0  0  0  0  0
   24.7311  -12.1418   -1.9896 O   0  0  0  0  0  0  0  0  0  0  0  0
   20.8563  -11.2508   -3.5325 C   0  0  2  0  0  0  0  0  0  0  0  0
   19.8280  -10.6067   -4.2779 N   0  0  0  0  0  0  0  0  0  0  0  0
   20.4207  -12.3392   -6.4377 C   0  0  2  0  0  0  0  0  0  0  0  0
   25.6328  -13.4948   -0.2151 C   0  0  2  0  0  0  0  0  0  0  0  0
   26.1907  -12.2816    0.3792 N   0  0  0  0  0  0  0  0  0  0  0  0
   21.4909  -10.2193   -2.5260 C   0  0  0  0  0  0  0  0  0  0  0  0
   20.0562  -13.6926   -7.1056 C   0  0  2  0  0  0  0  0  0  0  0  0
   19.5264  -14.5522   -6.1224 O   0  0  0  0  0  0  0  0  0  0  0  0
   26.6750  -14.2107   -1.1582 C   0  0  0  0  0  0  0  0  0  0  0  0
   22.6329  -10.9388   -1.6992 C   0  0  2  0  0  0  0  0  0  0  0  0
   23.2341   -9.9743   -0.7555 N   0  0  0  0  0  0  0  0  0  0  0  0
   21.3696  -14.2911   -7.7491 C   0  0  1  0  0  0  0  0  0  0  0  0
   21.0731  -15.6059   -8.3852 N   0  0  0  0  0  0  0  0  0  0  0  0
   25.9921  -15.0650   -2.2872 C   0  0  0  0  0  0  0  0  0  0  0  0
   23.7321  -11.4863   -2.7060 C   0  0  2  0  0  0  0  0  0  0  0  0
   21.9420  -13.2628   -8.8741 C   0  0  1  0  0  0  0  0  0  0  0  0
   21.0375  -13.0396   -9.9280 O   0  0  0  0  0  0  0  0  0  0  0  0
   24.6605  -15.0735   -2.4484 C   0  0  1  0  0  0  0  0  0  0  0  0
   23.7972  -14.3251   -1.6154 O   0  0  0  0  0  0  0  0  0  0  0  0
   23.0690  -12.4967   -3.7111 C   0  0  2  0  0  0  0  0  0  0  0  0
   24.0607  -12.9741   -4.6184 O   0  0  0  0  0  0  0  0  0  0  0  0
   22.2406  -11.8892   -8.1974 C   0  0  0  0  0  0  0  0  0  0  0  0
   21.0183  -11.3946   -7.4503 O   0  0  0  0  0  0  0  0  0  0  0  0
   23.9580  -15.8873   -3.5528 C   0  0  0  0  0  0  0  0  0  0  0  0
   24.8192  -15.9370   -4.7139 N   0  0  0  0  0  0  0  0  0  0  0  0
   21.9298  -11.7633   -4.5151 C   0  0  1  0  0  0  0  0  0  0  0  0
   21.3521  -12.6862   -5.3911 O   0  0  0  0  0  0  0  0  0  0  0  0
   23.2230  -13.7062   -9.5950 C   0  0  0  0  0  0  0  0  0  0  0  0
   21.2532  -16.7930   -7.5354 C   0  0  0  0  0  0  0  0  0  0  0  0
  1  2  1  6  0  0  0
  1  6  1  0  0  0  0
  1 21  1  0  0  0  0
  3  4  1  6  0  0  0
  3  8  1  0  0  0  0
  3 28  1  0  0  0  0
  5  9  1  0  0  0  0
  5 25  1  0  0  0  0
  5 29  1  1  0  0  0
  6  7  1  6  0  0  0
  6 11  1  0  0  0  0
  8 12  1  0  0  0  0
  9 10  1  1  0  0  0
  9 14  1  0  0  0  0
 11 16  1  0  0  0  0
 12 13  1  1  0  0  0
 12 17  1  0  0  0  0
 14 15  1  6  0  0  0
 14 18  1  0  0  0  0
 15 31  1  0  0  0  0
 16 20  1  0  0  0  0
 17  2  1  1  0  0  0
 17 22  1  0  0  0  0
 18 19  1  6  0  0  0
 18 24  1  0  0  0  0
 18 30  1  0  0  0  0
 20 21  1  0  0  0  0
 20 26  1  6  0  0  0
 22 23  1  6  0  0  0
 22 28  1  0  0  0  0
 24 25  1  0  0  0  0
 26 27  1  0  0  0  0
 28 29  1  6  0  0  0
M  END
>  <CHROM.1>
-170.38528496,-179.06578913,-91.42736323,49.31077595,-32.79540170,71.05797181
22.76689885,-13.12898137,-4.55075660,-0.80918203,0.81978845,-2.28315392

>  <Name>
ligand

>  <RI>
0

>  <Rbt.Current_Directory>
/home/itssahil/PROJECTS/Mol_Feturizer/New_Systems/rnas/4F8V

>  <Rbt.Executable>
rbdock ($Id: //depot/dev/client3/rdock/2013.1/src/exe/rbdock.cxx#4 $)

>  <Rbt.Library>
libRbt.so (2013.1, Build901 2013/11/27)

>  <Rbt.Parameter_File>
/export/apps/rDock/src/rDock_2013.1_src/data/scripts/dock_solv.prm

>  <Rbt.Receptor>
prm/pocket_docking_6.prm

>  <SCORE>
-5.24587

>  <SCORE.INTER>
-2.10018

>  <SCORE.INTER.CONST>
1

>  <SCORE.INTER.POLAR>
0

>  <SCORE.INTER.ROT>
6

>  <SCORE.INTER.SOLV>
11.3203

>  <SCORE.INTER.VDW>
-12.7736

>  <SCORE.INTER.norm>
-0.0677478

>  <SCORE.INTRA>
-3.14569

>  <SCORE.INTRA.DIHEDRAL>
-10.9007

>  <SCORE.INTRA.DIHEDRAL.0>
15.9129

>  <SCORE.INTRA.POLAR>
0

>  <SCORE.INTRA.POLAR.0>
0

>  <SCORE.INTRA.REPUL>
0

>  <SCORE.INTRA.REPUL.0>
0

>  <SCORE.INTRA.SOLV>
0.667415

>  <SCORE.INTRA.SOLV.lig_0>
-75.7056

>  <SCORE.INTRA.VDW>
1.97097

>  <SCORE.INTRA.VDW.0>
-4.61812

>  <SCORE.INTRA.norm>
-0.101474

>  <SCORE.RESTR>
0

>  <SCORE.RESTR.CAVITY>
0

>  <SCORE.RESTR.norm>
0

>  <SCORE.SYSTEM>
0

>  <SCORE.SYSTEM.CONST>
0

>  <SCORE.SYSTEM.DIHEDRAL>
0

>  <SCORE.SYSTEM.SOLV>
0

>  <SCORE.SYSTEM.norm>
0

>  <SCORE.heavy>
31

>  <SCORE.norm>
-0.169222

>  <RMSD>
7.122

$$$$
ligand
 OpenBabel11021811493D
libRbt.so/2013.1/901 2013/11/27
 31 33  0  0  0  0  0  0  0  0999 V2000
   21.5989  -14.5588   -5.1942 C   0  0  2  0  0  0  0  0  0  0  0  0
   22.6667  -14.0554   -6.0083 O   0  0  0  0  0  0  0  0  0  0  0  0
   23.7647  -10.0203   -6.8457 C   0  0  2  0  0  0  0  0  0  0  0  0
   23.6771   -8.6798   -7.3183 N   0  0  0  0  0  0  0  0  0  0  0  0
   21.9096   -8.2268   -4.5687 C   0  0  2  0  0  0  0  0  0  0  0  0
   21.9852  -16.0146   -4.7878 C   0  0  2  0  0  0  0  0  0  0  0  0
   23.2720  -15.9881   -4.0954 N   0  0  0  0  0  0  0  0  0  0  0  0
   23.6500  -11.0088   -8.0661 C   0  0  0  0  0  0  0  0  0  0  0  0
   22.4273   -7.5990   -3.2465 C   0  0  2  0  0  0  0  0  0  0  0  0
   23.8003   -7.3149   -3.3898 O   0  0  0  0  0  0  0  0  0  0  0  0
   22.0310  -16.9438   -6.0615 C   0  0  0  0  0  0  0  0  0  0  0  0
   23.7483  -12.4975   -7.5371 C   0  0  2  0  0  0  0  0  0  0  0  0
   23.6378  -13.4294   -8.6780 N   0  0  0  0  0  0  0  0  0  0  0  0
   22.1701   -8.6328   -2.0793 C   0  0  1  0  0  0  0  0  0  0  0  0
   22.6728   -8.0817   -0.7891 N   0  0  0  0  0  0  0  0  0  0  0  0
   20.9925  -16.5223   -7.1637 C   0  0  0  0  0  0  0  0  0  0  0  0
   22.5757  -12.7541   -6.4975 C   0  0  2  0  0  0  0  0  0  0  0  0
   20.5739   -8.9285   -1.9559 C   0  0  1  0  0  0  0  0  0  0  0  0
   19.8220   -7.7786   -1.6542 O   0  0  0  0  0  0  0  0  0  0  0  0
   20.2372  -15.4221   -7.0282 C   0  0  1  0  0  0  0  0  0  0  0  0
   20.3247  -14.5851   -5.8920 O   0  0  0  0  0  0  0  0  0  0  0  0
   22.7016  -11.7421   -5.3014 C   0  0  2  0  0  0  0  0  0  0  0  0
   21.6381  -11.9722   -4.3790 O   0  0  0  0  0  0  0  0  0  0  0  0
   20.0592   -9.4972   -3.3144 C   0  0  0  0  0  0  0  0  0  0  0  0
   20.4463   -8.5731   -4.4514 O   0  0  0  0  0  0  0  0  0  0  0  0
   19.2199  -14.9708   -8.0943 C   0  0  0  0  0  0  0  0  0  0  0  0
   17.9009  -14.9521   -7.5010 N   0  0  0  0  0  0  0  0  0  0  0  0
   22.6117  -10.2685   -5.8510 C   0  0  1  0  0  0  0  0  0  0  0  0
   22.7371   -9.3922   -4.7696 O   0  0  0  0  0  0  0  0  0  0  0  0
   20.1606   -9.9196   -0.8585 C   0  0  0  0  0  0  0  0  0  0  0  0
   23.9959   -8.5542   -0.3533 C   0  0  0  0  0  0  0  0  0  0  0  0
  1  2  1  6  0  0  0
  1  6  1  0  0  0  0
  1 21  1  0  0  0  0
  3  4  1  6  0  0  0
  3  8  1  0  0  0  0
  3 28  1  0  0  0  0
  5  9  1  0  0  0  0
  5 25  1  0  0  0  0
  5 29  1  1  0  0  0
  6  7  1  6  0  0  0
  6 11  1  0  0  0  0
  8 12  1  0  0  0  0
  9 10  1  6  0  0  0
  9 14  1  0  0  0  0
 11 16  1  0  0  0  0
 12 13  1  6  0  0  0
 12 17  1  0  0  0  0
 14 15  1  1  0  0  0
 14 18  1  0  0  0  0
 15 31  1  0  0  0  0
 16 20  1  0  0  0  0
 17  2  1  1  0  0  0
 17 22  1  0  0  0  0
 18 19  1  1  0  0  0
 18 24  1  0  0  0  0
 18 30  1  0  0  0  0
 20 21  1  0  0  0  0
 20 26  1  6  0  0  0
 22 23  1  1  0  0  0
 22 28  1  0  0  0  0
 24 25  1  0  0  0  0
 26 27  1  0  0  0  0
 28 29  1  1  0  0  0
M  END
>  <CHROM.1>
-179.36548222,179.70201448,-98.96905423,-171.55487320,119.43767513,105.01719478
21.89080652,-11.54406463,-4.92377092,1.71454735,-0.91177362,-2.47484313

>  <Name>
ligand

>  <RI>
0

>  <Rbt.Current_Directory>
/home/itssahil/PROJECTS/Mol_Feturizer/New_Systems/rnas/4F8V

>  <Rbt.Executable>
rbdock ($Id: //depot/dev/client3/rdock/2013.1/src/exe/rbdock.cxx#4 $)

>  <Rbt.Library>
libRbt.so (2013.1, Build901 2013/11/27)

>  <Rbt.Parameter_File>
/export/apps/rDock/src/rDock_2013.1_src/data/scripts/dock_solv.prm

>  <Rbt.Receptor>
prm/pocket_docking_6.prm

>  <SCORE>
-2.586

>  <SCORE.INTER>
1.20605

>  <SCORE.INTER.CONST>
1

>  <SCORE.INTER.POLAR>
0

>  <SCORE.INTER.ROT>
6

>  <SCORE.INTER.SOLV>
11.0738

>  <SCORE.INTER.VDW>
-10.4872

>  <SCORE.INTER.norm>
0.0389049

>  <SCORE.INTRA>
-3.79205

>  <SCORE.INTRA.DIHEDRAL>
-6.86602

>  <SCORE.INTRA.DIHEDRAL.0>
15.9129

>  <SCORE.INTRA.POLAR>
0

>  <SCORE.INTRA.POLAR.0>
0

>  <SCORE.INTRA.REPUL>
0

>  <SCORE.INTRA.REPUL.0>
0

>  <SCORE.INTRA.SOLV>
-2.92838

>  <SCORE.INTRA.SOLV.lig_0>
-75.7056

>  <SCORE.INTRA.VDW>
1.10514

>  <SCORE.INTRA.VDW.0>
-4.61812

>  <SCORE.INTRA.norm>
-0.122324

>  <SCORE.RESTR>
1.13583e-06

>  <SCORE.RESTR.CAVITY>
1.13583e-06

>  <SCORE.RESTR.norm>
3.66396e-08

>  <SCORE.SYSTEM>
0

>  <SCORE.SYSTEM.CONST>
0

>  <SCORE.SYSTEM.DIHEDRAL>
0

>  <SCORE.SYSTEM.SOLV>
0

>  <SCORE.SYSTEM.norm>
0

>  <SCORE.heavy>
31

>  <SCORE.norm>
-0.0834194

>  <RMSD>
7.124

$$$$
ligand
 OpenBabel11021811493D
libRbt.so/2013.1/901 2013/11/27
 31 33  0  0  0  0  0  0  0  0999 V2000
   15.9258   -4.8700   -5.6838 C   0  0  2  0  0  0  0  0  0  0  0  0
   17.2798   -5.1906   -5.3372 O   0  0  0  0  0  0  0  0  0  0  0  0
   19.6040   -8.7238   -5.8881 C   0  0  2  0  0  0  0  0  0  0  0  0
   20.2645   -9.8031   -6.5413 N   0  0  0  0  0  0  0  0  0  0  0  0
   22.5304   -8.0700   -6.9053 C   0  0  2  0  0  0  0  0  0  0  0  0
   15.7582   -3.3317   -5.4851 C   0  0  2  0  0  0  0  0  0  0  0  0
   16.7429   -2.6366   -6.3118 N   0  0  0  0  0  0  0  0  0  0  0  0
   18.0556   -8.8252   -6.1561 C   0  0  0  0  0  0  0  0  0  0  0  0
   23.8268   -7.8853   -6.0712 C   0  0  2  0  0  0  0  0  0  0  0  0
   23.5874   -8.3410   -4.7592 O   0  0  0  0  0  0  0  0  0  0  0  0
   15.9131   -2.9574   -3.9607 C   0  0  0  0  0  0  0  0  0  0  0  0
   17.3248   -7.6245   -5.4283 C   0  0  2  0  0  0  0  0  0  0  0  0
   15.8717   -7.7129   -5.6793 N   0  0  0  0  0  0  0  0  0  0  0  0
   24.2073   -6.3516   -6.0896 C   0  0  1  0  0  0  0  0  0  0  0  0
   25.4374   -6.1210   -5.2805 N   0  0  0  0  0  0  0  0  0  0  0  0
   15.3991   -4.0886   -2.9979 C   0  0  0  0  0  0  0  0  0  0  0  0
   17.9006   -6.2546   -5.9881 C   0  0  2  0  0  0  0  0  0  0  0  0
   24.4714   -5.8747   -7.6236 C   0  0  1  0  0  0  0  0  0  0  0  0
   25.5309   -6.5643   -8.2406 O   0  0  0  0  0  0  0  0  0  0  0  0
   14.9727   -5.2690   -3.4713 C   0  0  1  0  0  0  0  0  0  0  0  0
   14.9544   -5.5624   -4.8544 O   0  0  0  0  0  0  0  0  0  0  0  0
   19.4491   -6.1881   -5.7264 C   0  0  2  0  0  0  0  0  0  0  0  0
   19.9593   -4.9601   -6.2426 O   0  0  0  0  0  0  0  0  0  0  0  0
   23.1798   -6.1285   -8.4610 C   0  0  0  0  0  0  0  0  0  0  0  0
   22.7326   -7.5690   -8.3135 O   0  0  0  0  0  0  0  0  0  0  0  0
   14.4759   -6.4056   -2.5566 C   0  0  0  0  0  0  0  0  0  0  0  0
   13.0853   -6.6695   -2.8552 N   0  0  0  0  0  0  0  0  0  0  0  0
   20.1544   -7.3966   -6.4502 C   0  0  1  0  0  0  0  0  0  0  0  0
   21.5256   -7.3183   -6.1921 O   0  0  0  0  0  0  0  0  0  0  0  0
   24.8543   -4.3993   -7.8084 C   0  0  0  0  0  0  0  0  0  0  0  0
   26.5902   -6.9796   -5.5934 C   0  0  0  0  0  0  0  0  0  0  0  0
  1  2  1  1  0  0  0
  1  6  1  0  0  0  0
  1 21  1  0  0  0  0
  3  4  1  6  0  0  0
  3  8  1  0  0  0  0
  3 28  1  0  0  0  0
  5  9  1  0  0  0  0
  5 25  1  0  0  0  0
  5 29  1  1  0  0  0
  6  7  1  6  0  0  0
  6 11  1  0  0  0  0
  8 12  1  0  0  0  0
  9 10  1  1  0  0  0
  9 14  1  0  0  0  0
 11 16  1  0  0  0  0
 12 13  1  6  0  0  0
 12 17  1  0  0  0  0
 14 15  1  1  0  0  0
 14 18  1  0  0  0  0
 15 31  1  0  0  0  0
 16 20  1  0  0  0  0
 17  2  1  1  0  0  0
 17 22  1  0  0  0  0
 18 19  1  6  0  0  0
 18 24  1  0  0  0  0
 18 30  1  0  0  0  0
 20 21  1  0  0  0  0
 20 26  1  1  0  0  0
 22 23  1  6  0  0  0
 22 28  1  0  0  0  0
 24 25  1  0  0  0  0
 26 27  1  0  0  0  0
 28 29  1  1  0  0  0
M  END
>  <CHROM.1>
-149.13364734,-168.07144678,51.36580331,-74.34632630,117.26861958,74.70607456
19.78005360,-6.32406233,-5.78516763,-2.99843949,-0.27918396,3.08941011

>  <Name>
ligand

>  <RI>
0

>  <Rbt.Current_Directory>
/home/itssahil/PROJECTS/Mol_Feturizer/New_Systems/rnas/4F8V

>  <Rbt.Executable>
rbdock ($Id: //depot/dev/client3/rdock/2013.1/src/exe/rbdock.cxx#4 $)

>  <Rbt.Library>
libRbt.so (2013.1, Build901 2013/11/27)

>  <Rbt.Parameter_File>
/export/apps/rDock/src/rDock_2013.1_src/data/scripts/dock_solv.prm

>  <Rbt.Receptor>
prm/pocket_docking_6.prm

>  <SCORE>
-9.53915

>  <SCORE.INTER>
-9.97123

>  <SCORE.INTER.CONST>
1

>  <SCORE.INTER.POLAR>
0

>  <SCORE.INTER.ROT>
6

>  <SCORE.INTER.SOLV>
15.675

>  <SCORE.INTER.VDW>
-19.4725

>  <SCORE.INTER.norm>
-0.321652

>  <SCORE.INTRA>
0.431425

>  <SCORE.INTRA.DIHEDRAL>
-7.73355

>  <SCORE.INTRA.DIHEDRAL.0>
15.9129

>  <SCORE.INTRA.POLAR>
0

>  <SCORE.INTRA.POLAR.0>
0

>  <SCORE.INTRA.REPUL>
0

>  <SCORE.INTRA.REPUL.0>
0

>  <SCORE.INTRA.SOLV>
1.19773

>  <SCORE.INTRA.SOLV.lig_0>
-75.7056

>  <SCORE.INTRA.VDW>
3.69933

>  <SCORE.INTRA.VDW.0>
-4.61812

>  <SCORE.INTRA.norm>
0.0139169

>  <SCORE.RESTR>
0.000654499

>  <SCORE.RESTR.CAVITY>
0.000654499

>  <SCORE.RESTR.norm>
2.11129e-05

>  <SCORE.SYSTEM>
0

>  <SCORE.SYSTEM.CONST>
0

>  <SCORE.SYSTEM.DIHEDRAL>
0

>  <SCORE.SYSTEM.SOLV>
0

>  <SCORE.SYSTEM.norm>
0

>  <SCORE.heavy>
31

>  <SCORE.norm>
-0.307714

>  <RMSD>
7.161

$$$$
ligand
 OpenBabel11021811493D
libRbt.so/2013.1/901 2013/11/27
 31 33  0  0  0  0  0  0  0  0999 V2000
   24.3131  -14.3140   -1.7831 C   0  0  2  0  0  0  0  0  0  0  0  0
   24.5902  -12.9177   -1.9567 O   0  0  0  0  0  0  0  0  0  0  0  0
   20.8270  -11.0532   -1.2150 C   0  0  2  0  0  0  0  0  0  0  0  0
   19.8719  -10.1017   -0.7562 N   0  0  0  0  0  0  0  0  0  0  0  0
   20.1771  -10.5782   -4.0456 C   0  0  2  0  0  0  0  0  0  0  0  0
   25.5655  -15.0923   -2.2922 C   0  0  2  0  0  0  0  0  0  0  0  0
   26.7391  -14.6424   -1.5463 N   0  0  0  0  0  0  0  0  0  0  0  0
   21.5942  -11.6552    0.0213 C   0  0  0  0  0  0  0  0  0  0  0  0
   20.6921  -10.4493   -5.5046 C   0  0  2  0  0  0  0  0  0  0  0  0
   22.0125  -10.9387   -5.5614 O   0  0  0  0  0  0  0  0  0  0  0  0
   25.7480  -14.8790   -3.8443 C   0  0  0  0  0  0  0  0  0  0  0  0
   22.6544  -12.7124   -0.4923 C   0  0  2  0  0  0  0  0  0  0  0  0
   23.3796  -13.2780    0.6637 N   0  0  0  0  0  0  0  0  0  0  0  0
   20.6227   -8.9252   -5.9162 C   0  0  1  0  0  0  0  0  0  0  0  0
   21.1298   -8.7481   -7.3064 N   0  0  0  0  0  0  0  0  0  0  0  0
   24.3822  -14.7018   -4.6021 C   0  0  0  0  0  0  0  0  0  0  0  0
   23.6659  -11.9903   -1.4807 C   0  0  2  0  0  0  0  0  0  0  0  0
   19.0811   -8.4084   -5.8329 C   0  0  1  0  0  0  0  0  0  0  0  0
   18.2189   -9.1039   -6.7000 O   0  0  0  0  0  0  0  0  0  0  0  0
   23.2172  -14.6481   -3.9395 C   0  0  1  0  0  0  0  0  0  0  0  0
   23.1474  -14.7528   -2.5311 O   0  0  0  0  0  0  0  0  0  0  0  0
   22.8729  -11.3814   -2.6936 C   0  0  2  0  0  0  0  0  0  0  0  0
   23.7877  -10.7252   -3.5695 O   0  0  0  0  0  0  0  0  0  0  0  0
   18.5602   -8.6064   -4.3758 C   0  0  0  0  0  0  0  0  0  0  0  0
   18.7728  -10.0397   -3.9318 O   0  0  0  0  0  0  0  0  0  0  0  0
   21.8613  -14.4608   -4.6478 C   0  0  0  0  0  0  0  0  0  0  0  0
   21.9590  -14.9935   -5.9891 N   0  0  0  0  0  0  0  0  0  0  0  0
   21.8176  -10.3409   -2.1593 C   0  0  1  0  0  0  0  0  0  0  0  0
   21.1216   -9.8249   -3.2558 O   0  0  0  0  0  0  0  0  0  0  0  0
   18.8480   -6.9376   -6.2067 C   0  0  0  0  0  0  0  0  0  0  0  0
   22.4450   -8.1030   -7.4400 C   0  0  0  0  0  0  0  0  0  0  0  0
  1  2  1  6  0  0  0
  1  6  1  0  0  0  0
  1 21  1  0  0  0  0
  3  4  1  1  0  0  0
  3  8  1  0  0  0  0
  3 28  1  0  0  0  0
  5  9  1  0  0  0  0
  5 25  1  0  0  0  0
  5 29  1  1  0  0  0
  6  7  1  1  0  0  0
  6 11  1  0  0  0  0
  8 12  1  0  0  0  0
  9 10  1  1  0  0  0
  9 14  1  0  0  0  0
 11 16  1  0  0  0  0
 12 13  1  1  0  0  0
 12 17  1  0  0  0  0
 14 15  1  6  0  0  0
 14 18  1  0  0  0  0
 15 31  1  0  0  0  0
 16 20  1  0  0  0  0
 17  2  1  6  0  0  0
 17 22  1  0  0  0  0
 18 19  1  6  0  0  0
 18 24  1  0  0  0  0
 18 30  1  0  0  0  0
 20 21  1  0  0  0  0
 20 26  1  1  0  0  0
 22 23  1  6  0  0  0
 22 28  1  0  0  0  0
 24 25  1  0  0  0  0
 26 27  1  0  0  0  0
 28 29  1  6  0  0  0
M  END
>  <CHROM.1>
-175.09010002,-125.11347399,-107.69639800,14.85343133,27.46716141,-48.94963201
22.04002073,-11.56423854,-3.61098825,0.50569637,-0.83100294,1.63698569

>  <Name>
ligand

>  <RI>
0

>  <Rbt.Current_Directory>
/home/itssahil/PROJECTS/Mol_Feturizer/New_Systems/rnas/4F8V

>  <Rbt.Executable>
rbdock ($Id: //depot/dev/client3/rdock/2013.1/src/exe/rbdock.cxx#4 $)

>  <Rbt.Library>
libRbt.so (2013.1, Build901 2013/11/27)

>  <Rbt.Parameter_File>
/export/apps/rDock/src/rDock_2013.1_src/data/scripts/dock_solv.prm

>  <Rbt.Receptor>
prm/pocket_docking_2.prm

>  <SCORE>
4.52459

>  <SCORE.INTER>
-2.35385

>  <SCORE.INTER.CONST>
1

>  <SCORE.INTER.POLAR>
0

>  <SCORE.INTER.ROT>
6

>  <SCORE.INTER.SOLV>
19.8427

>  <SCORE.INTER.VDW>
-15.7835

>  <SCORE.INTER.norm>
-0.0759308

>  <SCORE.INTRA>
4.64016

>  <SCORE.INTRA.DIHEDRAL>
1.62551

>  <SCORE.INTRA.DIHEDRAL.0>
15.9129

>  <SCORE.INTRA.POLAR>
0

>  <SCORE.INTRA.POLAR.0>
0

>  <SCORE.INTRA.REPUL>
0

>  <SCORE.INTRA.REPUL.0>
0

>  <SCORE.INTRA.SOLV>
0.0164536

>  <SCORE.INTRA.SOLV.lig_0>
-75.7056

>  <SCORE.INTRA.VDW>
3.81918

>  <SCORE.INTRA.VDW.0>
-4.61812

>  <SCORE.INTRA.norm>
0.149683

>  <SCORE.RESTR>
2.23828

>  <SCORE.RESTR.CAVITY>
2.23828

>  <SCORE.RESTR.norm>
0.0722026

>  <SCORE.SYSTEM>
0

>  <SCORE.SYSTEM.CONST>
0

>  <SCORE.SYSTEM.DIHEDRAL>
0

>  <SCORE.SYSTEM.SOLV>
0

>  <SCORE.SYSTEM.norm>
0

>  <SCORE.heavy>
31

>  <SCORE.norm>
0.145954

>  <RMSD>
7.162

$$$$
ligand
 OpenBabel11021811493D
libRbt.so/2013.1/901 2013/11/27
 31 33  0  0  0  0  0  0  0  0999 V2000
   25.0480  -16.0122   -6.3487 C   0  0  2  0  0  0  0  0  0  0  0  0
   25.7965  -15.2042   -5.4304 O   0  0  0  0  0  0  0  0  0  0  0  0
   22.6993  -14.4736   -2.5910 C   0  0  2  0  0  0  0  0  0  0  0  0
   22.0480  -14.0276   -1.4058 N   0  0  0  0  0  0  0  0  0  0  0  0
   21.5913  -11.5823   -2.6618 C   0  0  2  0  0  0  0  0  0  0  0  0
   26.0387  -16.4682   -7.4642 C   0  0  2  0  0  0  0  0  0  0  0  0
   27.1528  -17.1838   -6.8455 N   0  0  0  0  0  0  0  0  0  0  0  0
   23.7948  -15.5389   -2.2111 C   0  0  0  0  0  0  0  0  0  0  0  0
   20.5887  -10.7642   -3.5197 C   0  0  2  0  0  0  0  0  0  0  0  0
   19.8324  -11.6581   -4.3041 O   0  0  0  0  0  0  0  0  0  0  0  0
   26.5384  -15.2233   -8.2938 C   0  0  0  0  0  0  0  0  0  0  0  0
   24.5162  -16.0325   -3.5307 C   0  0  2  0  0  0  0  0  0  0  0  0
   25.5477  -17.0300   -3.1795 N   0  0  0  0  0  0  0  0  0  0  0  0
   21.4165   -9.7636   -4.4201 C   0  0  1  0  0  0  0  0  0  0  0  0
   20.4949   -8.9691   -5.2807 N   0  0  0  0  0  0  0  0  0  0  0  0
   25.4554  -14.0897   -8.4079 C   0  0  0  0  0  0  0  0  0  0  0  0
   25.1779  -14.7838   -4.2549 C   0  0  2  0  0  0  0  0  0  0  0  0
   22.2720   -8.7561   -3.4695 C   0  0  1  0  0  0  0  0  0  0  0  0
   21.4624   -7.9718   -2.6280 O   0  0  0  0  0  0  0  0  0  0  0  0
   24.2804  -14.1787   -7.7671 C   0  0  1  0  0  0  0  0  0  0  0  0
   23.9453  -15.2914   -6.9616 O   0  0  0  0  0  0  0  0  0  0  0  0
   24.0670  -13.7281   -4.6044 C   0  0  2  0  0  0  0  0  0  0  0  0
   24.6718  -12.6056   -5.2438 O   0  0  0  0  0  0  0  0  0  0  0  0
   23.2263   -9.6000   -2.5690 C   0  0  0  0  0  0  0  0  0  0  0  0
   22.4430  -10.6619   -1.8237 O   0  0  0  0  0  0  0  0  0  0  0  0
   23.2016  -13.0807   -7.8443 C   0  0  0  0  0  0  0  0  0  0  0  0
   22.0347  -13.6201   -8.5075 N   0  0  0  0  0  0  0  0  0  0  0  0
   23.3559  -13.2588   -3.2793 C   0  0  1  0  0  0  0  0  0  0  0  0
   22.3682  -12.3309   -3.6206 O   0  0  0  0  0  0  0  0  0  0  0  0
   23.1331   -7.7167   -4.2013 C   0  0  0  0  0  0  0  0  0  0  0  0
   20.2734   -9.4828   -6.6412 C   0  0  0  0  0  0  0  0  0  0  0  0
  1  2  1  1  0  0  0
  1  6  1  0  0  0  0
  1 21  1  0  0  0  0
  3  4  1  1  0  0  0
  3  8  1  0  0  0  0
  3 28  1  0  0  0  0
  5  9  1  0  0  0  0
  5 25  1  0  0  0  0
  5 29  1  6  0  0  0
  6  7  1  1  0  0  0
  6 11  1  0  0  0  0
  8 12  1  0  0  0  0
  9 10  1  6  0  0  0
  9 14  1  0  0  0  0
 11 16  1  0  0  0  0
 12 13  1  1  0  0  0
 12 17  1  0  0  0  0
 14 15  1  1  0  0  0
 14 18  1  0  0  0  0
 15 31  1  0  0  0  0
 16 20  1  0  0  0  0
 17  2  1  6  0  0  0
 17 22  1  0  0  0  0
 18 19  1  1  0  0  0
 18 24  1  0  0  0  0
 18 30  1  0  0  0  0
 20 21  1  0  0  0  0
 20 26  1  1  0  0  0
 22 23  1  1  0  0  0
 22 28  1  0  0  0  0
 24 25  1  0  0  0  0
 26 27  1  0  0  0  0
 28 29  1  6  0  0  0
M  END
>  <CHROM.1>
-173.19347154,-176.78059027,-95.16910786,50.41959451,115.13417029,67.12988239
23.34966595,-12.89537886,-4.81457733,0.14107626,1.03261426,-1.31942350

>  <Name>
ligand

>  <RI>
0

>  <Rbt.Current_Directory>
/home/itssahil/PROJECTS/Mol_Feturizer/New_Systems/rnas/4F8V

>  <Rbt.Executable>
rbdock ($Id: //depot/dev/client3/rdock/2013.1/src/exe/rbdock.cxx#4 $)

>  <Rbt.Library>
libRbt.so (2013.1, Build901 2013/11/27)

>  <Rbt.Parameter_File>
/export/apps/rDock/src/rDock_2013.1_src/data/scripts/dock_solv.prm

>  <Rbt.Receptor>
prm/pocket_docking_5.prm

>  <SCORE>
-3.13303

>  <SCORE.INTER>
1.75136

>  <SCORE.INTER.CONST>
1

>  <SCORE.INTER.POLAR>
0

>  <SCORE.INTER.ROT>
6

>  <SCORE.INTER.SOLV>
17.4249

>  <SCORE.INTER.VDW>
-12.2407

>  <SCORE.INTER.norm>
0.0564954

>  <SCORE.INTRA>
-4.88438

>  <SCORE.INTRA.DIHEDRAL>
-12.4703

>  <SCORE.INTRA.DIHEDRAL.0>
15.9129

>  <SCORE.INTRA.POLAR>
0

>  <SCORE.INTRA.POLAR.0>
0

>  <SCORE.INTRA.REPUL>
0

>  <SCORE.INTRA.REPUL.0>
0

>  <SCORE.INTRA.SOLV>
-0.836277

>  <SCORE.INTRA.SOLV.lig_0>
-75.7056

>  <SCORE.INTRA.VDW>
1.7689

>  <SCORE.INTRA.VDW.0>
-4.61812

>  <SCORE.INTRA.norm>
-0.157561

>  <SCORE.RESTR>
0

>  <SCORE.RESTR.CAVITY>
0

>  <SCORE.RESTR.norm>
0

>  <SCORE.SYSTEM>
0

>  <SCORE.SYSTEM.CONST>
0

>  <SCORE.SYSTEM.DIHEDRAL>
0

>  <SCORE.SYSTEM.SOLV>
0

>  <SCORE.SYSTEM.norm>
0

>  <SCORE.heavy>
31

>  <SCORE.norm>
-0.101065

>  <RMSD>
7.370

$$$$
ligand
 OpenBabel11021811493D
libRbt.so/2013.1/901 2013/11/27
 31 33  0  0  0  0  0  0  0  0999 V2000
   23.3895  -13.0887   -1.0735 C   0  0  2  0  0  0  0  0  0  0  0  0
   23.9532  -11.8167   -0.7261 O   0  0  0  0  0  0  0  0  0  0  0  0
   20.5394   -9.3744   -1.4809 C   0  0  2  0  0  0  0  0  0  0  0  0
   19.6870   -8.2338   -1.4979 N   0  0  0  0  0  0  0  0  0  0  0  0
   20.9957   -9.5342   -4.4820 C   0  0  2  0  0  0  0  0  0  0  0  0
   24.5081  -14.1548   -0.8594 C   0  0  2  0  0  0  0  0  0  0  0  0
   24.9669  -14.0891    0.5267 N   0  0  0  0  0  0  0  0  0  0  0  0
   20.8159   -9.7929    0.0117 C   0  0  0  0  0  0  0  0  0  0  0  0
   21.1884   -8.8103   -5.8419 C   0  0  2  0  0  0  0  0  0  0  0  0
   22.5654   -8.5869   -6.0426 O   0  0  0  0  0  0  0  0  0  0  0  0
   25.6920  -13.9164   -1.8740 C   0  0  0  0  0  0  0  0  0  0  0  0
   21.7631  -11.0610    0.0266 C   0  0  2  0  0  0  0  0  0  0  0  0
   22.0286  -11.4558    1.4252 N   0  0  0  0  0  0  0  0  0  0  0  0
   20.3839   -7.4510   -5.7921 C   0  0  1  0  0  0  0  0  0  0  0  0
   20.5575   -6.7077   -7.0721 N   0  0  0  0  0  0  0  0  0  0  0  0
   25.2097  -13.3267   -3.2489 C   0  0  0  0  0  0  0  0  0  0  0  0
   23.1208  -10.6995   -0.7135 C   0  0  2  0  0  0  0  0  0  0  0  0
   18.8032   -7.7622   -5.5573 C   0  0  1  0  0  0  0  0  0  0  0  0
   18.2346   -8.5341   -6.5866 O   0  0  0  0  0  0  0  0  0  0  0  0
   23.9279  -12.9883   -3.4532 C   0  0  1  0  0  0  0  0  0  0  0  0
   22.9400  -13.1459   -2.4540 O   0  0  0  0  0  0  0  0  0  0  0  0
   22.8148  -10.2662   -2.1931 C   0  0  2  0  0  0  0  0  0  0  0  0
   24.0382   -9.9325   -2.8462 O   0  0  0  0  0  0  0  0  0  0  0  0
   18.6362   -8.5468   -4.2193 C   0  0  0  0  0  0  0  0  0  0  0  0
   19.5307   -9.7701   -4.2122 O   0  0  0  0  0  0  0  0  0  0  0  0
   23.4224  -12.3942   -4.7825 C   0  0  0  0  0  0  0  0  0  0  0  0
   24.2344  -12.9112   -5.8622 N   0  0  0  0  0  0  0  0  0  0  0  0
   21.8634   -9.0106   -2.1845 C   0  0  1  0  0  0  0  0  0  0  0  0
   21.6002   -8.6548   -3.5101 O   0  0  0  0  0  0  0  0  0  0  0  0
   17.8836   -6.5347   -5.4862 C   0  0  0  0  0  0  0  0  0  0  0  0
   21.6510   -5.7245   -7.1082 C   0  0  0  0  0  0  0  0  0  0  0  0
  1  2  1  6  0  0  0
  1  6  1  0  0  0  0
  1 21  1  0  0  0  0
  3  4  1  1  0  0  0
  3  8  1  0  0  0  0
  3 28  1  0  0  0  0
  5  9  1  0  0  0  0
  5 25  1  0  0  0  0
  5 29  1  1  0  0  0
  6  7  1  1  0  0  0
  6 11  1  0  0  0  0
  8 12  1  0  0  0  0
  9 10  1  1  0  0  0
  9 14  1  0  0  0  0
 11 16  1  0  0  0  0
 12 13  1  1  0  0  0
 12 17  1  0  0  0  0
 14 15  1  6  0  0  0
 14 18  1  0  0  0  0
 15 31  1  0  0  0  0
 16 20  1  0  0  0  0
 17  2  1  6  0  0  0
 17 22  1  0  0  0  0
 18 19  1  6  0  0  0
 18 24  1  0  0  0  0
 18 30  1  0  0  0  0
 20 21  1  0  0  0  0
 20 26  1  1  0  0  0
 22 23  1  1  0  0  0
 22 28  1  0  0  0  0
 24 25  1  0  0  0  0
 26 27  1  0  0  0  0
 28 29  1  6  0  0  0
M  END
>  <CHROM.1>
-174.27386488,-168.40440152,-93.03312534,45.13618722,30.23763989,-60.66679537
21.95969086,-10.24483924,-3.23704589,0.77752438,-0.74562732,1.83961380

>  <Name>
ligand

>  <RI>
0

>  <Rbt.Current_Directory>
/home/itssahil/PROJECTS/Mol_Feturizer/New_Systems/rnas/4F8V

>  <Rbt.Executable>
rbdock ($Id: //depot/dev/client3/rdock/2013.1/src/exe/rbdock.cxx#4 $)

>  <Rbt.Library>
libRbt.so (2013.1, Build901 2013/11/27)

>  <Rbt.Parameter_File>
/export/apps/rDock/src/rDock_2013.1_src/data/scripts/dock_solv.prm

>  <Rbt.Receptor>
prm/pocket_docking_3.prm

>  <SCORE>
-6.37838

>  <SCORE.INTER>
-3.38541

>  <SCORE.INTER.CONST>
1

>  <SCORE.INTER.POLAR>
0

>  <SCORE.INTER.ROT>
6

>  <SCORE.INTER.SOLV>
19.3923

>  <SCORE.INTER.VDW>
-16.321

>  <SCORE.INTER.norm>
-0.109207

>  <SCORE.INTRA>
-2.99297

>  <SCORE.INTRA.DIHEDRAL>
-10.7185

>  <SCORE.INTRA.DIHEDRAL.0>
15.9129

>  <SCORE.INTRA.POLAR>
0

>  <SCORE.INTRA.POLAR.0>
0

>  <SCORE.INTRA.REPUL>
0

>  <SCORE.INTRA.REPUL.0>
0

>  <SCORE.INTRA.SOLV>
0.472707

>  <SCORE.INTRA.SOLV.lig_0>
-75.7056

>  <SCORE.INTRA.VDW>
2.12993

>  <SCORE.INTRA.VDW.0>
-4.61812

>  <SCORE.INTRA.norm>
-0.0965474

>  <SCORE.RESTR>
0

>  <SCORE.RESTR.CAVITY>
0

>  <SCORE.RESTR.norm>
0

>  <SCORE.SYSTEM>
0

>  <SCORE.SYSTEM.CONST>
0

>  <SCORE.SYSTEM.DIHEDRAL>
0

>  <SCORE.SYSTEM.SOLV>
0

>  <SCORE.SYSTEM.norm>
0

>  <SCORE.heavy>
31

>  <SCORE.norm>
-0.205754

>  <RMSD>
7.411

$$$$
ligand
 OpenBabel11021811493D
libRbt.so/2013.1/901 2013/11/27
 31 33  0  0  0  0  0  0  0  0999 V2000
   22.9261  -15.5002   -3.9434 C   0  0  2  0  0  0  0  0  0  0  0  0
   23.2433  -14.1343   -3.6430 O   0  0  0  0  0  0  0  0  0  0  0  0
   21.1343  -10.4327   -3.8402 C   0  0  2  0  0  0  0  0  0  0  0  0
   20.0858   -9.4802   -3.6945 N   0  0  0  0  0  0  0  0  0  0  0  0
   21.0591   -8.9385   -1.0728 C   0  0  2  0  0  0  0  0  0  0  0  0
   23.8735  -16.3874   -3.0779 C   0  0  2  0  0  0  0  0  0  0  0  0
   23.6832  -16.0500   -1.6687 N   0  0  0  0  0  0  0  0  0  0  0  0
   20.6524  -11.5933   -4.7890 C   0  0  0  0  0  0  0  0  0  0  0  0
   21.9018   -8.2709    0.0473 C   0  0  2  0  0  0  0  0  0  0  0  0
   23.0920   -7.7730   -0.5200 O   0  0  0  0  0  0  0  0  0  0  0  0
   25.3723  -16.1847   -3.5255 C   0  0  0  0  0  0  0  0  0  0  0  0
   21.8204  -12.6497   -4.9488 C   0  0  2  0  0  0  0  0  0  0  0  0
   21.3722  -13.7428   -5.8356 N   0  0  0  0  0  0  0  0  0  0  0  0
   22.2002   -9.3608    1.1520 C   0  0  1  0  0  0  0  0  0  0  0  0
   23.0286   -8.7704    2.2412 N   0  0  0  0  0  0  0  0  0  0  0  0
   25.5162  -15.8800   -5.0609 C   0  0  0  0  0  0  0  0  0  0  0  0
   22.1999  -13.2199   -3.5162 C   0  0  2  0  0  0  0  0  0  0  0  0
   20.7971   -9.9043    1.7736 C   0  0  1  0  0  0  0  0  0  0  0  0
   20.0404   -8.8934    2.3932 O   0  0  0  0  0  0  0  0  0  0  0  0
   24.4401  -15.7232   -5.8462 C   0  0  1  0  0  0  0  0  0  0  0  0
   23.1219  -15.8274   -5.3454 O   0  0  0  0  0  0  0  0  0  0  0  0
   22.6573  -12.0398   -2.5840 C   0  0  2  0  0  0  0  0  0  0  0  0
   22.9849  -12.5595   -1.2966 O   0  0  0  0  0  0  0  0  0  0  0  0
   19.9368  -10.5122    0.6228 C   0  0  0  0  0  0  0  0  0  0  0  0
   19.7847   -9.5111   -0.5047 O   0  0  0  0  0  0  0  0  0  0  0  0
   24.5433  -15.4096   -7.3516 C   0  0  0  0  0  0  0  0  0  0  0  0
   23.9842  -16.5160   -8.0971 N   0  0  0  0  0  0  0  0  0  0  0  0
   21.4849  -10.9964   -2.4473 C   0  0  1  0  0  0  0  0  0  0  0  0
   21.9224   -9.9555   -1.6239 O   0  0  0  0  0  0  0  0  0  0  0  0
   20.9207  -10.9747    2.8673 C   0  0  0  0  0  0  0  0  0  0  0  0
   24.4670   -9.0752    2.2002 C   0  0  0  0  0  0  0  0  0  0  0  0
  1  2  1  6  0  0  0
  1  6  1  0  0  0  0
  1 21  1  0  0  0  0
  3  4  1  1  0  0  0
  3  8  1  0  0  0  0
  3 28  1  0  0  0  0
  5  9  1  0  0  0  0
  5 25  1  0  0  0  0
  5 29  1  1  0  0  0
  6  7  1  1  0  0  0
  6 11  1  0  0  0  0
  8 12  1  0  0  0  0
  9 10  1  6  0  0  0
  9 14  1  0  0  0  0
 11 16  1  0  0  0  0
 12 13  1  6  0  0  0
 12 17  1  0  0  0  0
 14 15  1  1  0  0  0
 14 18  1  0  0  0  0
 15 31  1  0  0  0  0
 16 20  1  0  0  0  0
 17  2  1  6  0  0  0
 17 22  1  0  0  0  0
 18 19  1  1  0  0  0
 18 24  1  0  0  0  0
 18 30  1  0  0  0  0
 20 21  1  0  0  0  0
 20 26  1  1  0  0  0
 22 23  1  1  0  0  0
 22 28  1  0  0  0  0
 24 25  1  0  0  0  0
 26 27  1  0  0  0  0
 28 29  1  1  0  0  0
M  END
>  <CHROM.1>
-139.45002700,165.02787964,-100.73271488,-85.91332917,115.92316252,72.48240783
22.39367021,-12.10955745,-2.24848079,-1.15146553,-0.91323572,1.12734001

>  <Name>
ligand

>  <RI>
0

>  <Rbt.Current_Directory>
/home/itssahil/PROJECTS/Mol_Feturizer/New_Systems/rnas/4F8V

>  <Rbt.Executable>
rbdock ($Id: //depot/dev/client3/rdock/2013.1/src/exe/rbdock.cxx#4 $)

>  <Rbt.Library>
libRbt.so (2013.1, Build901 2013/11/27)

>  <Rbt.Parameter_File>
/export/apps/rDock/src/rDock_2013.1_src/data/scripts/dock_solv.prm

>  <Rbt.Receptor>
prm/pocket_docking_6.prm

>  <SCORE>
-4.39248

>  <SCORE.INTER>
-3.86231

>  <SCORE.INTER.CONST>
1

>  <SCORE.INTER.POLAR>
0

>  <SCORE.INTER.ROT>
6

>  <SCORE.INTER.SOLV>
15.1686

>  <SCORE.INTER.VDW>
-15.2311

>  <SCORE.INTER.norm>
-0.124591

>  <SCORE.INTRA>
-0.530174

>  <SCORE.INTRA.DIHEDRAL>
-3.17233

>  <SCORE.INTRA.DIHEDRAL.0>
15.9129

>  <SCORE.INTRA.POLAR>
0

>  <SCORE.INTRA.POLAR.0>
0

>  <SCORE.INTRA.REPUL>
0

>  <SCORE.INTRA.REPUL.0>
0

>  <SCORE.INTRA.SOLV>
0.690911

>  <SCORE.INTRA.SOLV.lig_0>
-75.7056

>  <SCORE.INTRA.VDW>
0.710534

>  <SCORE.INTRA.VDW.0>
-4.61812

>  <SCORE.INTRA.norm>
-0.0171024

>  <SCORE.RESTR>
0

>  <SCORE.RESTR.CAVITY>
0

>  <SCORE.RESTR.norm>
0

>  <SCORE.SYSTEM>
0

>  <SCORE.SYSTEM.CONST>
0

>  <SCORE.SYSTEM.DIHEDRAL>
0

>  <SCORE.SYSTEM.SOLV>
0

>  <SCORE.SYSTEM.norm>
0

>  <SCORE.heavy>
31

>  <SCORE.norm>
-0.141693

>  <RMSD>
7.444

$$$$
ligand
 OpenBabel11021811493D
libRbt.so/2013.1/901 2013/11/27
 31 33  0  0  0  0  0  0  0  0999 V2000
   22.8242   -7.5138   -0.0898 C   0  0  2  0  0  0  0  0  0  0  0  0
   23.8301   -8.0570   -0.9556 O   0  0  0  0  0  0  0  0  0  0  0  0
   23.7153   -5.0414   -3.9692 C   0  0  2  0  0  0  0  0  0  0  0  0
   24.0384   -4.3196   -5.1535 N   0  0  0  0  0  0  0  0  0  0  0  0
   22.2107   -6.7188   -6.6063 C   0  0  2  0  0  0  0  0  0  0  0  0
   22.7602   -8.4362    1.1668 C   0  0  2  0  0  0  0  0  0  0  0  0
   24.0835   -8.4878    1.7851 N   0  0  0  0  0  0  0  0  0  0  0  0
   24.9723   -5.0718   -3.0213 C   0  0  0  0  0  0  0  0  0  0  0  0
   20.7153   -6.8013   -7.0157 C   0  0  2  0  0  0  0  0  0  0  0  0
   20.0892   -5.5831   -6.6835 O   0  0  0  0  0  0  0  0  0  0  0  0
   22.2518   -9.8740    0.7641 C   0  0  0  0  0  0  0  0  0  0  0  0
   24.6093   -5.8744   -1.7061 C   0  0  2  0  0  0  0  0  0  0  0  0
   25.7866   -5.9089   -0.8145 N   0  0  0  0  0  0  0  0  0  0  0  0
   20.0620   -8.0158   -6.2442 C   0  0  1  0  0  0  0  0  0  0  0  0
   18.6160   -8.1216   -6.5893 N   0  0  0  0  0  0  0  0  0  0  0  0
   21.2344   -9.8497   -0.4338 C   0  0  0  0  0  0  0  0  0  0  0  0
   24.1739   -7.3485   -2.1049 C   0  0  2  0  0  0  0  0  0  0  0  0
   20.8196   -9.3956   -6.6598 C   0  0  1  0  0  0  0  0  0  0  0  0
   20.7224   -9.6859   -8.0328 O   0  0  0  0  0  0  0  0  0  0  0  0
   20.9370   -8.7097   -1.0752 C   0  0  1  0  0  0  0  0  0  0  0  0
   21.5116   -7.4701   -0.7114 O   0  0  0  0  0  0  0  0  0  0  0  0
   22.9317   -7.2888   -3.0663 C   0  0  2  0  0  0  0  0  0  0  0  0
   22.5551   -8.6162   -3.4282 O   0  0  0  0  0  0  0  0  0  0  0  0
   22.3325   -9.2690   -6.3009 C   0  0  0  0  0  0  0  0  0  0  0  0
   22.9162   -8.0146   -6.9195 O   0  0  0  0  0  0  0  0  0  0  0  0
   19.9558   -8.6507   -2.2623 C   0  0  0  0  0  0  0  0  0  0  0  0
   19.0498   -7.5408   -2.0630 N   0  0  0  0  0  0  0  0  0  0  0  0
   23.3116   -6.4778   -4.3623 C   0  0  1  0  0  0  0  0  0  0  0  0
   22.1880   -6.4318   -5.1919 O   0  0  0  0  0  0  0  0  0  0  0  0
   20.2955  -10.6739   -5.9899 C   0  0  0  0  0  0  0  0  0  0  0  0
   17.6833   -7.4117   -5.7005 C   0  0  0  0  0  0  0  0  0  0  0  0
  1  2  1  6  0  0  0
  1  6  1  0  0  0  0
  1 21  1  0  0  0  0
  3  4  1  6  0  0  0
  3  8  1  0  0  0  0
  3 28  1  0  0  0  0
  5  9  1  0  0  0  0
  5 25  1  0  0  0  0
  5 29  1  1  0  0  0
  6  7  1  6  0  0  0
  6 11  1  0  0  0  0
  8 12  1  0  0  0  0
  9 10  1  1  0  0  0
  9 14  1  0  0  0  0
 11 16  1  0  0  0  0
 12 13  1  1  0  0  0
 12 17  1  0  0  0  0
 14 15  1  6  0  0  0
 14 18  1  0  0  0  0
 15 31  1  0  0  0  0
 16 20  1  0  0  0  0
 17  2  1  1  0  0  0
 17 22  1  0  0  0  0
 18 19  1  6  0  0  0
 18 24  1  0  0  0  0
 18 30  1  0  0  0  0
 20 21  1  0  0  0  0
 20 26  1  6  0  0  0
 22 23  1  6  0  0  0
 22 28  1  0  0  0  0
 24 25  1  0  0  0  0
 26 27  1  0  0  0  0
 28 29  1  6  0  0  0
M  END
>  <CHROM.1>
-174.32117465,169.55010144,-92.38506453,55.42040322,133.78462756,108.26291609
22.01418381,-7.64788852,-3.56783542,1.03372830,0.65321918,1.88585553

>  <Name>
ligand

>  <RI>
0

>  <Rbt.Current_Directory>
/home/itssahil/PROJECTS/Mol_Feturizer/New_Systems/rnas/4F8V

>  <Rbt.Executable>
rbdock ($Id: //depot/dev/client3/rdock/2013.1/src/exe/rbdock.cxx#4 $)

>  <Rbt.Library>
libRbt.so (2013.1, Build901 2013/11/27)

>  <Rbt.Parameter_File>
/export/apps/rDock/src/rDock_2013.1_src/data/scripts/dock_solv.prm

>  <Rbt.Receptor>
prm/pocket_docking_7.prm

>  <SCORE>
-7.11054

>  <SCORE.INTER>
-5.24971

>  <SCORE.INTER.CONST>
1

>  <SCORE.INTER.POLAR>
0

>  <SCORE.INTER.ROT>
6

>  <SCORE.INTER.SOLV>
20.103

>  <SCORE.INTER.VDW>
-17.8008

>  <SCORE.INTER.norm>
-0.169345

>  <SCORE.INTRA>
-1.86083

>  <SCORE.INTRA.DIHEDRAL>
-5.99144

>  <SCORE.INTRA.DIHEDRAL.0>
15.9129

>  <SCORE.INTRA.POLAR>
0

>  <SCORE.INTRA.POLAR.0>
0

>  <SCORE.INTRA.REPUL>
0

>  <SCORE.INTRA.REPUL.0>
0

>  <SCORE.INTRA.SOLV>
0.029447

>  <SCORE.INTRA.SOLV.lig_0>
-75.7056

>  <SCORE.INTRA.VDW>
1.12016

>  <SCORE.INTRA.VDW.0>
-4.61812

>  <SCORE.INTRA.norm>
-0.0600269

>  <SCORE.RESTR>
0

>  <SCORE.RESTR.CAVITY>
0

>  <SCORE.RESTR.norm>
0

>  <SCORE.SYSTEM>
0

>  <SCORE.SYSTEM.CONST>
0

>  <SCORE.SYSTEM.DIHEDRAL>
0

>  <SCORE.SYSTEM.SOLV>
0

>  <SCORE.SYSTEM.norm>
0

>  <SCORE.heavy>
31

>  <SCORE.norm>
-0.229372

>  <RMSD>
7.454

$$$$
ligand
 OpenBabel11021811493D
libRbt.so/2013.1/901 2013/11/27
 31 33  0  0  0  0  0  0  0  0999 V2000
   15.2005   -3.5342   -5.1604 C   0  0  2  0  0  0  0  0  0  0  0  0
   16.5340   -4.0583   -5.2205 O   0  0  0  0  0  0  0  0  0  0  0  0
   17.9658   -7.9400   -4.1856 C   0  0  2  0  0  0  0  0  0  0  0  0
   18.1709   -9.3483   -4.2357 N   0  0  0  0  0  0  0  0  0  0  0  0
   20.4706   -7.5154   -6.9743 C   0  0  2  0  0  0  0  0  0  0  0  0
   15.1867   -2.2289   -6.0147 C   0  0  2  0  0  0  0  0  0  0  0  0
   15.6180   -2.5473   -7.3743 N   0  0  0  0  0  0  0  0  0  0  0  0
   16.4357   -7.6467   -3.9570 C   0  0  0  0  0  0  0  0  0  0  0  0
   21.7888   -8.3076   -6.7613 C   0  0  2  0  0  0  0  0  0  0  0  0
   21.4667   -9.6164   -6.3497 O   0  0  0  0  0  0  0  0  0  0  0  0
   16.1103   -1.1338   -5.3548 C   0  0  0  0  0  0  0  0  0  0  0  0
   16.2116   -6.0807   -3.9014 C   0  0  2  0  0  0  0  0  0  0  0  0
   14.7768   -5.7998   -3.6905 N   0  0  0  0  0  0  0  0  0  0  0  0
   22.6437   -7.5520   -5.6679 C   0  0  1  0  0  0  0  0  0  0  0  0
   23.9131   -8.2899   -5.4125 N   0  0  0  0  0  0  0  0  0  0  0  0
   16.1447   -1.2273   -3.7860 C   0  0  0  0  0  0  0  0  0  0  0  0
   16.7058   -5.4401   -5.2678 C   0  0  2  0  0  0  0  0  0  0  0  0
   22.9874   -6.0484   -6.1888 C   0  0  1  0  0  0  0  0  0  0  0  0
   23.7419   -6.0353   -7.3759 O   0  0  0  0  0  0  0  0  0  0  0  0
   15.5145   -2.2134   -3.1307 C   0  0  1  0  0  0  0  0  0  0  0  0
   14.7820   -3.2170   -3.8057 O   0  0  0  0  0  0  0  0  0  0  0  0
   18.2289   -5.7647   -5.4813 C   0  0  2  0  0  0  0  0  0  0  0  0
   18.6608   -5.1955   -6.7159 O   0  0  0  0  0  0  0  0  0  0  0  0
   21.6513   -5.2900   -6.4597 C   0  0  0  0  0  0  0  0  0  0  0  0
   20.7685   -6.0967   -7.3906 O   0  0  0  0  0  0  0  0  0  0  0  0
   15.5387   -2.3447   -1.5952 C   0  0  0  0  0  0  0  0  0  0  0  0
   15.8886   -3.7050   -1.2495 N   0  0  0  0  0  0  0  0  0  0  0  0
   18.4301   -7.3266   -5.5230 C   0  0  1  0  0  0  0  0  0  0  0  0
   19.7917   -7.5853   -5.7025 O   0  0  0  0  0  0  0  0  0  0  0  0
   23.8191   -5.1830   -5.2313 C   0  0  0  0  0  0  0  0  0  0  0  0
   23.9741   -9.0628   -4.1624 C   0  0  0  0  0  0  0  0  0  0  0  0
  1  2  1  1  0  0  0
  1  6  1  0  0  0  0
  1 21  1  0  0  0  0
  3  4  1  6  0  0  0
  3  8  1  0  0  0  0
  3 28  1  0  0  0  0
  5  9  1  0  0  0  0
  5 25  1  0  0  0  0
  5 29  1  1  0  0  0
  6  7  1  6  0  0  0
  6 11  1  0  0  0  0
  8 12  1  0  0  0  0
  9 10  1  1  0  0  0
  9 14  1  0  0  0  0
 11 16  1  0  0  0  0
 12 13  1  6  0  0  0
 12 17  1  0  0  0  0
 14 15  1  6  0  0  0
 14 18  1  0  0  0  0
 15 31  1  0  0  0  0
 16 20  1  0  0  0  0
 17  2  1  1  0  0  0
 17 22  1  0  0  0  0
 18 19  1  6  0  0  0
 18 24  1  0  0  0  0
 18 30  1  0  0  0  0
 20 21  1  0  0  0  0
 20 26  1  6  0  0  0
 22 23  1  6  0  0  0
 22 28  1  0  0  0  0
 24 25  1  0  0  0  0
 26 27  1  0  0  0  0
 28 29  1  1  0  0  0
M  END
>  <CHROM.1>
-143.24121563,-162.15986868,-104.29293188,-65.97728957,-130.80701297,161.16803303
18.72466671,-5.60281256,-5.15903858,-2.67474063,-0.41145406,2.86656033

>  <Name>
ligand

>  <RI>
0

>  <Rbt.Current_Directory>
/home/itssahil/PROJECTS/Mol_Feturizer/New_Systems/rnas/4F8V

>  <Rbt.Executable>
rbdock ($Id: //depot/dev/client3/rdock/2013.1/src/exe/rbdock.cxx#4 $)

>  <Rbt.Library>
libRbt.so (2013.1, Build901 2013/11/27)

>  <Rbt.Parameter_File>
/export/apps/rDock/src/rDock_2013.1_src/data/scripts/dock_solv.prm

>  <Rbt.Receptor>
prm/pocket_docking_8.prm

>  <SCORE>
-9.85775

>  <SCORE.INTER>
-10.9241

>  <SCORE.INTER.CONST>
1

>  <SCORE.INTER.POLAR>
0

>  <SCORE.INTER.ROT>
6

>  <SCORE.INTER.SOLV>
14.7615

>  <SCORE.INTER.VDW>
-19.8033

>  <SCORE.INTER.norm>
-0.352391

>  <SCORE.INTRA>
1.06637

>  <SCORE.INTRA.DIHEDRAL>
-4.97953

>  <SCORE.INTRA.DIHEDRAL.0>
15.9129

>  <SCORE.INTRA.POLAR>
0

>  <SCORE.INTRA.POLAR.0>
0

>  <SCORE.INTRA.REPUL>
0

>  <SCORE.INTRA.REPUL.0>
0

>  <SCORE.INTRA.SOLV>
1.94373

>  <SCORE.INTRA.SOLV.lig_0>
-75.7056

>  <SCORE.INTRA.VDW>
2.58427

>  <SCORE.INTRA.VDW.0>
-4.61812

>  <SCORE.INTRA.norm>
0.0343989

>  <SCORE.RESTR>
0

>  <SCORE.RESTR.CAVITY>
0

>  <SCORE.RESTR.norm>
0

>  <SCORE.SYSTEM>
0

>  <SCORE.SYSTEM.CONST>
0

>  <SCORE.SYSTEM.DIHEDRAL>
0

>  <SCORE.SYSTEM.SOLV>
0

>  <SCORE.SYSTEM.norm>
0

>  <SCORE.heavy>
31

>  <SCORE.norm>
-0.317992

>  <RMSD>
7.506

$$$$
ligand
 OpenBabel11021811493D
libRbt.so/2013.1/901 2013/11/27
 31 33  0  0  0  0  0  0  0  0999 V2000
   16.2427   -3.5761   -6.5056 C   0  0  2  0  0  0  0  0  0  0  0  0
   16.1659   -4.3277   -5.2867 O   0  0  0  0  0  0  0  0  0  0  0  0
   18.0767   -7.9870   -4.2160 C   0  0  2  0  0  0  0  0  0  0  0  0
   18.4504   -9.3608   -4.2466 N   0  0  0  0  0  0  0  0  0  0  0  0
   20.4720   -7.2039   -7.0395 C   0  0  2  0  0  0  0  0  0  0  0  0
   15.9844   -2.0828   -6.1354 C   0  0  2  0  0  0  0  0  0  0  0  0
   16.9685   -1.6640   -5.1392 N   0  0  0  0  0  0  0  0  0  0  0  0
   16.5266   -7.8769   -3.9617 C   0  0  0  0  0  0  0  0  0  0  0  0
   21.8318   -7.9448   -6.9266 C   0  0  2  0  0  0  0  0  0  0  0  0
   21.5828   -9.3047   -6.6529 O   0  0  0  0  0  0  0  0  0  0  0  0
   14.5098   -1.8977   -5.6072 C   0  0  0  0  0  0  0  0  0  0  0  0
   16.1151   -6.3488   -3.9278 C   0  0  2  0  0  0  0  0  0  0  0  0
   14.6607   -6.2398   -3.6929 N   0  0  0  0  0  0  0  0  0  0  0  0
   22.6654   -7.2657   -5.7686 C   0  0  1  0  0  0  0  0  0  0  0  0
   23.9745   -7.9596   -5.6072 N   0  0  0  0  0  0  0  0  0  0  0  0
   13.4903   -2.8866   -6.2808 C   0  0  0  0  0  0  0  0  0  0  0  0
   16.5033   -5.6791   -5.3144 C   0  0  2  0  0  0  0  0  0  0  0  0
   22.9244   -5.6996   -6.1305 C   0  0  1  0  0  0  0  0  0  0  0  0
   23.6576   -5.5222   -7.3178 O   0  0  0  0  0  0  0  0  0  0  0  0
   13.8982   -3.8346   -7.1375 C   0  0  1  0  0  0  0  0  0  0  0  0
   15.2584   -3.9966   -7.4881 O   0  0  0  0  0  0  0  0  0  0  0  0
   18.0504   -5.8209   -5.5528 C   0  0  2  0  0  0  0  0  0  0  0  0
   18.3879   -5.2272   -6.8052 O   0  0  0  0  0  0  0  0  0  0  0  0
   21.5475   -4.9871   -6.3044 C   0  0  0  0  0  0  0  0  0  0  0  0
   20.6912   -5.7357   -7.3060 O   0  0  0  0  0  0  0  0  0  0  0  0
   12.9293   -4.8300   -7.8051 C   0  0  0  0  0  0  0  0  0  0  0  0
   11.5899   -4.5693   -7.3251 N   0  0  0  0  0  0  0  0  0  0  0  0
   18.4391   -7.3475   -5.5725 C   0  0  1  0  0  0  0  0  0  0  0  0
   19.8186   -7.4428   -5.7749 O   0  0  0  0  0  0  0  0  0  0  0  0
   23.7272   -4.8983   -5.0958 C   0  0  0  0  0  0  0  0  0  0  0  0
   24.0616   -8.9329   -4.5077 C   0  0  0  0  0  0  0  0  0  0  0  0
  1  2  1  1  0  0  0
  1  6  1  0  0  0  0
  1 21  1  0  0  0  0
  3  4  1  6  0  0  0
  3  8  1  0  0  0  0
  3 28  1  0  0  0  0
  5  9  1  0  0  0  0
  5 25  1  0  0  0  0
  5 29  1  1  0  0  0
  6  7  1  1  0  0  0
  6 11  1  0  0  0  0
  8 12  1  0  0  0  0
  9 10  1  1  0  0  0
  9 14  1  0  0  0  0
 11 16  1  0  0  0  0
 12 13  1  6  0  0  0
 12 17  1  0  0  0  0
 14 15  1  6  0  0  0
 14 18  1  0  0  0  0
 15 31  1  0  0  0  0
 16 20  1  0  0  0  0
 17  2  1  1  0  0  0
 17 22  1  0  0  0  0
 18 19  1  6  0  0  0
 18 24  1  0  0  0  0
 18 30  1  0  0  0  0
 20 21  1  0  0  0  0
 20 26  1  1  0  0  0
 22 23  1  6  0  0  0
 22 28  1  0  0  0  0
 24 25  1  0  0  0  0
 26 27  1  0  0  0  0
 28 29  1  1  0  0  0
M  END
>  <CHROM.1>
-173.14737506,-158.43357505,-99.80195619,-170.67079808,-1.30333642,166.64520934
18.40634681,-5.76364143,-5.90494375,-2.76508859,-0.09659410,2.81020364

>  <Name>
ligand

>  <RI>
0

>  <Rbt.Current_Directory>
/home/itssahil/PROJECTS/Mol_Feturizer/New_Systems/rnas/4F8V

>  <Rbt.Executable>
rbdock ($Id: //depot/dev/client3/rdock/2013.1/src/exe/rbdock.cxx#4 $)

>  <Rbt.Library>
libRbt.so (2013.1, Build901 2013/11/27)

>  <Rbt.Parameter_File>
/export/apps/rDock/src/rDock_2013.1_src/data/scripts/dock_solv.prm

>  <Rbt.Receptor>
prm/pocket_docking_7.prm

>  <SCORE>
-13.8605

>  <SCORE.INTER>
-10.9329

>  <SCORE.INTER.CONST>
1

>  <SCORE.INTER.POLAR>
0

>  <SCORE.INTER.ROT>
6

>  <SCORE.INTER.SOLV>
14.4401

>  <SCORE.INTER.VDW>
-19.702

>  <SCORE.INTER.norm>
-0.352676

>  <SCORE.INTRA>
-2.92758

>  <SCORE.INTRA.DIHEDRAL>
-9.77707

>  <SCORE.INTRA.DIHEDRAL.0>
15.9129

>  <SCORE.INTRA.POLAR>
0

>  <SCORE.INTRA.POLAR.0>
0

>  <SCORE.INTRA.REPUL>
0

>  <SCORE.INTRA.REPUL.0>
0

>  <SCORE.INTRA.SOLV>
-2.87655

>  <SCORE.INTRA.SOLV.lig_0>
-75.7056

>  <SCORE.INTRA.VDW>
3.39923

>  <SCORE.INTRA.VDW.0>
-4.61812

>  <SCORE.INTRA.norm>
-0.094438

>  <SCORE.RESTR>
0

>  <SCORE.RESTR.CAVITY>
0

>  <SCORE.RESTR.norm>
0

>  <SCORE.SYSTEM>
0

>  <SCORE.SYSTEM.CONST>
0

>  <SCORE.SYSTEM.DIHEDRAL>
0

>  <SCORE.SYSTEM.SOLV>
0

>  <SCORE.SYSTEM.norm>
0

>  <SCORE.heavy>
31

>  <SCORE.norm>
-0.447114

>  <RMSD>
7.559

$$$$
ligand
 OpenBabel11021811493D
libRbt.so/2013.1/901 2013/11/27
 31 33  0  0  0  0  0  0  0  0999 V2000
   15.8143   -4.8737   -5.2283 C   0  0  2  0  0  0  0  0  0  0  0  0
   17.1451   -5.3308   -4.9514 O   0  0  0  0  0  0  0  0  0  0  0  0
   19.6087   -8.5761   -6.2113 C   0  0  2  0  0  0  0  0  0  0  0  0
   20.2103   -9.5492   -7.0593 N   0  0  0  0  0  0  0  0  0  0  0  0
   21.9270   -5.8288   -7.4221 C   0  0  2  0  0  0  0  0  0  0  0  0
   15.6655   -3.4743   -4.5550 C   0  0  2  0  0  0  0  0  0  0  0  0
   16.6994   -2.5837   -5.0785 N   0  0  0  0  0  0  0  0  0  0  0  0
   18.0543   -8.8229   -6.1602 C   0  0  0  0  0  0  0  0  0  0  0  0
   23.3064   -6.3601   -7.8967 C   0  0  2  0  0  0  0  0  0  0  0  0
   23.0951   -7.4448   -8.7714 O   0  0  0  0  0  0  0  0  0  0  0  0
   15.7570   -3.6100   -2.9862 C   0  0  0  0  0  0  0  0  0  0  0  0
   17.3892   -7.7400   -5.2166 C   0  0  2  0  0  0  0  0  0  0  0  0
   15.9300   -7.9649   -5.1677 N   0  0  0  0  0  0  0  0  0  0  0  0
   24.1284   -6.7988   -6.6204 C   0  0  1  0  0  0  0  0  0  0  0  0
   25.4562   -7.3385   -7.0287 N   0  0  0  0  0  0  0  0  0  0  0  0
   15.1791   -4.9721   -2.4554 C   0  0  0  0  0  0  0  0  0  0  0  0
   17.7071   -6.2929   -5.7879 C   0  0  2  0  0  0  0  0  0  0  0  0
   24.3438   -5.5143   -5.6435 C   0  0  1  0  0  0  0  0  0  0  0  0
   25.0653   -4.4724   -6.2539 O   0  0  0  0  0  0  0  0  0  0  0  0
   14.7537   -5.9261   -3.2969 C   0  0  1  0  0  0  0  0  0  0  0  0
   14.7936   -5.7630   -4.7008 O   0  0  0  0  0  0  0  0  0  0  0  0
   19.2634   -6.0804   -5.8476 C   0  0  2  0  0  0  0  0  0  0  0  0
   19.5395   -4.7831   -6.3725 O   0  0  0  0  0  0  0  0  0  0  0  0
   22.9475   -4.9546   -5.2300 C   0  0  0  0  0  0  0  0  0  0  0  0
   22.1057   -4.6810   -6.4601 O   0  0  0  0  0  0  0  0  0  0  0  0
   14.1951   -7.2784   -2.8127 C   0  0  0  0  0  0  0  0  0  0  0  0
   12.7965   -7.3603   -3.1728 N   0  0  0  0  0  0  0  0  0  0  0  0
   19.9053   -7.1738   -6.7826 C   0  0  1  0  0  0  0  0  0  0  0  0
   21.2872   -6.9677   -6.8082 O   0  0  0  0  0  0  0  0  0  0  0  0
   25.1309   -5.7808   -4.3525 C   0  0  0  0  0  0  0  0  0  0  0  0
   26.2448   -6.4980   -7.9428 C   0  0  0  0  0  0  0  0  0  0  0  0
  1  2  1  1  0  0  0
  1  6  1  0  0  0  0
  1 21  1  0  0  0  0
  3  4  1  6  0  0  0
  3  8  1  0  0  0  0
  3 28  1  0  0  0  0
  5  9  1  0  0  0  0
  5 25  1  0  0  0  0
  5 29  1  1  0  0  0
  6  7  1  6  0  0  0
  6 11  1  0  0  0  0
  8 12  1  0  0  0  0
  9 10  1  6  0  0  0
  9 14  1  0  0  0  0
 11 16  1  0  0  0  0
 12 13  1  6  0  0  0
 12 17  1  0  0  0  0
 14 15  1  6  0  0  0
 14 18  1  0  0  0  0
 15 31  1  0  0  0  0
 16 20  1  0  0  0  0
 17  2  1  1  0  0  0
 17 22  1  0  0  0  0
 18 19  1  6  0  0  0
 18 24  1  0  0  0  0
 18 30  1  0  0  0  0
 20 21  1  0  0  0  0
 20 26  1  6  0  0  0
 22 23  1  6  0  0  0
 22 28  1  0  0  0  0
 24 25  1  0  0  0  0
 26 27  1  0  0  0  0
 28 29  1  1  0  0  0
M  END
>  <CHROM.1>
-157.78729638,-149.77497373,50.80933519,-91.03915210,114.39284380,172.56975908
19.57784848,-6.13769476,-5.63951767,-2.98599758,-0.26972965,-2.76922489

>  <Name>
ligand

>  <RI>
0

>  <Rbt.Current_Directory>
/home/itssahil/PROJECTS/Mol_Feturizer/New_Systems/rnas/4F8V

>  <Rbt.Executable>
rbdock ($Id: //depot/dev/client3/rdock/2013.1/src/exe/rbdock.cxx#4 $)

>  <Rbt.Library>
libRbt.so (2013.1, Build901 2013/11/27)

>  <Rbt.Parameter_File>
/export/apps/rDock/src/rDock_2013.1_src/data/scripts/dock_solv.prm

>  <Rbt.Receptor>
prm/pocket_docking_6.prm

>  <SCORE>
-11.6354

>  <SCORE.INTER>
-13.8894

>  <SCORE.INTER.CONST>
1

>  <SCORE.INTER.POLAR>
0

>  <SCORE.INTER.ROT>
6

>  <SCORE.INTER.SOLV>
16.9402

>  <SCORE.INTER.VDW>
-22.5064

>  <SCORE.INTER.norm>
-0.448046

>  <SCORE.INTRA>
2.25404

>  <SCORE.INTRA.DIHEDRAL>
-4.24162

>  <SCORE.INTRA.DIHEDRAL.0>
15.9129

>  <SCORE.INTRA.POLAR>
0

>  <SCORE.INTRA.POLAR.0>
0

>  <SCORE.INTRA.REPUL>
0

>  <SCORE.INTRA.REPUL.0>
0

>  <SCORE.INTRA.SOLV>
1.46836

>  <SCORE.INTRA.SOLV.lig_0>
-75.7056

>  <SCORE.INTRA.VDW>
3.64067

>  <SCORE.INTRA.VDW.0>
-4.61812

>  <SCORE.INTRA.norm>
0.072711

>  <SCORE.RESTR>
0

>  <SCORE.RESTR.CAVITY>
0

>  <SCORE.RESTR.norm>
0

>  <SCORE.SYSTEM>
0

>  <SCORE.SYSTEM.CONST>
0

>  <SCORE.SYSTEM.DIHEDRAL>
0

>  <SCORE.SYSTEM.SOLV>
0

>  <SCORE.SYSTEM.norm>
0

>  <SCORE.heavy>
31

>  <SCORE.norm>
-0.375335

>  <RMSD>
7.648

$$$$
ligand
 OpenBabel11021811493D
libRbt.so/2013.1/901 2013/11/27
 31 33  0  0  0  0  0  0  0  0999 V2000
   23.8703  -14.2025   -1.6823 C   0  0  2  0  0  0  0  0  0  0  0  0
   23.8725  -12.9929   -2.4526 O   0  0  0  0  0  0  0  0  0  0  0  0
   20.4987  -10.4347   -1.9414 C   0  0  2  0  0  0  0  0  0  0  0  0
   19.7102   -9.3285   -1.5141 N   0  0  0  0  0  0  0  0  0  0  0  0
   20.5475   -9.8307   -4.9786 C   0  0  2  0  0  0  0  0  0  0  0  0
   25.3178  -14.7813   -1.7416 C   0  0  2  0  0  0  0  0  0  0  0  0
   26.2510  -13.7780   -1.2331 N   0  0  0  0  0  0  0  0  0  0  0  0
   21.0039  -11.2295   -0.6794 C   0  0  0  0  0  0  0  0  0  0  0  0
   20.6539   -8.8000   -6.1349 C   0  0  2  0  0  0  0  0  0  0  0  0
   22.0164   -8.5319   -6.3759 O   0  0  0  0  0  0  0  0  0  0  0  0
   25.6749  -15.2104   -3.2168 C   0  0  0  0  0  0  0  0  0  0  0  0
   21.8794  -12.4583   -1.1582 C   0  0  2  0  0  0  0  0  0  0  0  0
   22.3589  -13.2057    0.0224 N   0  0  0  0  0  0  0  0  0  0  0  0
   19.8763   -7.4945   -5.7010 C   0  0  1  0  0  0  0  0  0  0  0  0
   19.9696   -6.4643   -6.7739 N   0  0  0  0  0  0  0  0  0  0  0  0
   24.4268  -15.7219   -4.0240 C   0  0  0  0  0  0  0  0  0  0  0  0
   23.1076  -11.9172   -2.0068 C   0  0  2  0  0  0  0  0  0  0  0  0
   18.3117   -7.8564   -5.4333 C   0  0  1  0  0  0  0  0  0  0  0  0
   17.6592   -8.3588   -6.5738 O   0  0  0  0  0  0  0  0  0  0  0  0
   23.1927  -15.6859   -3.4997 C   0  0  1  0  0  0  0  0  0  0  0  0
   22.9428  -15.1951   -2.1974 O   0  0  0  0  0  0  0  0  0  0  0  0
   22.5762  -11.1114   -3.2474 C   0  0  2  0  0  0  0  0  0  0  0  0
   23.6858  -10.6196   -3.9970 O   0  0  0  0  0  0  0  0  0  0  0  0
   18.2284   -8.9407   -4.3147 C   0  0  0  0  0  0  0  0  0  0  0  0
   19.1019  -10.1278   -4.6674 O   0  0  0  0  0  0  0  0  0  0  0  0
   21.9449  -16.1650   -4.2670 C   0  0  0  0  0  0  0  0  0  0  0  0
   21.4448  -15.0720   -5.0717 N   0  0  0  0  0  0  0  0  0  0  0  0
   21.7001   -9.9007   -2.7488 C   0  0  1  0  0  0  0  0  0  0  0  0
   21.2334   -9.2102   -3.8705 O   0  0  0  0  0  0  0  0  0  0  0  0
   17.4187   -6.6842   -5.0022 C   0  0  0  0  0  0  0  0  0  0  0  0
   20.9885   -5.4204   -6.5841 C   0  0  0  0  0  0  0  0  0  0  0  0
  1  2  1  6  0  0  0
  1  6  1  0  0  0  0
  1 21  1  0  0  0  0
  3  4  1  1  0  0  0
  3  8  1  0  0  0  0
  3 28  1  0  0  0  0
  5  9  1  0  0  0  0
  5 25  1  0  0  0  0
  5 29  1  1  0  0  0
  6  7  1  6  0  0  0
  6 11  1  0  0  0  0
  8 12  1  0  0  0  0
  9 10  1  1  0  0  0
  9 14  1  0  0  0  0
 11 16  1  0  0  0  0
 12 13  1  1  0  0  0
 12 17  1  0  0  0  0
 14 15  1  6  0  0  0
 14 18  1  0  0  0  0
 15 31  1  0  0  0  0
 16 20  1  0  0  0  0
 17  2  1  6  0  0  0
 17 22  1  0  0  0  0
 18 19  1  6  0  0  0
 18 24  1  0  0  0  0
 18 30  1  0  0  0  0
 20 21  1  0  0  0  0
 20 26  1  6  0  0  0
 22 23  1  1  0  0  0
 22 28  1  0  0  0  0
 24 25  1  0  0  0  0
 26 27  1  0  0  0  0
 28 29  1  6  0  0  0
M  END
>  <CHROM.1>
-142.75775080,-161.90046126,-98.84742424,-27.45419785,-86.14194038,-67.12908171
21.64776041,-11.15350507,-3.68209012,0.47724114,-0.95045320,1.71316229

>  <Name>
ligand

>  <RI>
0

>  <Rbt.Current_Directory>
/home/itssahil/PROJECTS/Mol_Feturizer/New_Systems/rnas/4F8V

>  <Rbt.Executable>
rbdock ($Id: //depot/dev/client3/rdock/2013.1/src/exe/rbdock.cxx#4 $)

>  <Rbt.Library>
libRbt.so (2013.1, Build901 2013/11/27)

>  <Rbt.Parameter_File>
/export/apps/rDock/src/rDock_2013.1_src/data/scripts/dock_solv.prm

>  <Rbt.Receptor>
prm/pocket_docking_2.prm

>  <SCORE>
-2.41686

>  <SCORE.INTER>
-8.48611

>  <SCORE.INTER.CONST>
1

>  <SCORE.INTER.POLAR>
0

>  <SCORE.INTER.ROT>
6

>  <SCORE.INTER.SOLV>
21.1341

>  <SCORE.INTER.VDW>
-20.3021

>  <SCORE.INTER.norm>
-0.273745

>  <SCORE.INTRA>
5.09931

>  <SCORE.INTRA.DIHEDRAL>
-1.44949

>  <SCORE.INTRA.DIHEDRAL.0>
15.9129

>  <SCORE.INTRA.POLAR>
0

>  <SCORE.INTRA.POLAR.0>
0

>  <SCORE.INTRA.REPUL>
0

>  <SCORE.INTRA.REPUL.0>
0

>  <SCORE.INTRA.SOLV>
0.847745

>  <SCORE.INTRA.SOLV.lig_0>
-75.7056

>  <SCORE.INTRA.VDW>
5.40019

>  <SCORE.INTRA.VDW.0>
-4.61812

>  <SCORE.INTRA.norm>
0.164494

>  <SCORE.RESTR>
0.969933

>  <SCORE.RESTR.CAVITY>
0.969933

>  <SCORE.RESTR.norm>
0.0312882

>  <SCORE.SYSTEM>
0

>  <SCORE.SYSTEM.CONST>
0

>  <SCORE.SYSTEM.DIHEDRAL>
0

>  <SCORE.SYSTEM.SOLV>
0

>  <SCORE.SYSTEM.norm>
0

>  <SCORE.heavy>
31

>  <SCORE.norm>
-0.0779632

>  <RMSD>
7.719

$$$$
ligand
 OpenBabel11021811493D
libRbt.so/2013.1/901 2013/11/27
 31 33  0  0  0  0  0  0  0  0999 V2000
   23.1969  -14.2221   -3.9148 C   0  0  2  0  0  0  0  0  0  0  0  0
   22.5568  -14.0645   -2.6413 O   0  0  0  0  0  0  0  0  0  0  0  0
   20.9876  -10.5826   -0.7434 C   0  0  2  0  0  0  0  0  0  0  0  0
   20.9326   -9.2793   -0.1721 N   0  0  0  0  0  0  0  0  0  0  0  0
   20.5305   -8.2386   -2.9060 C   0  0  2  0  0  0  0  0  0  0  0  0
   23.2821  -15.7546   -4.1938 C   0  0  2  0  0  0  0  0  0  0  0  0
   21.9347  -16.3195   -4.1543 N   0  0  0  0  0  0  0  0  0  0  0  0
   21.9914  -11.4696    0.0844 C   0  0  0  0  0  0  0  0  0  0  0  0
   19.3574   -7.8542   -3.8475 C   0  0  2  0  0  0  0  0  0  0  0  0
   18.1786   -8.4617   -3.3702 O   0  0  0  0  0  0  0  0  0  0  0  0
   24.2331  -16.4492   -3.1446 C   0  0  0  0  0  0  0  0  0  0  0  0
   22.0496  -12.9173   -0.5531 C   0  0  2  0  0  0  0  0  0  0  0  0
   22.9928  -13.7528    0.2179 N   0  0  0  0  0  0  0  0  0  0  0  0
   19.7146   -8.3517   -5.3043 C   0  0  1  0  0  0  0  0  0  0  0  0
   18.6041   -8.0238   -6.2426 N   0  0  0  0  0  0  0  0  0  0  0  0
   25.4057  -15.5160   -2.6702 C   0  0  0  0  0  0  0  0  0  0  0  0
   22.5242  -12.7971   -2.0637 C   0  0  2  0  0  0  0  0  0  0  0  0
   21.0811   -7.6241   -5.8082 C   0  0  1  0  0  0  0  0  0  0  0  0
   20.9684   -6.2235   -5.8727 O   0  0  0  0  0  0  0  0  0  0  0  0
   25.4885  -14.2388   -3.0716 C   0  0  1  0  0  0  0  0  0  0  0  0
   24.5370  -13.6612   -3.9434 O   0  0  0  0  0  0  0  0  0  0  0  0
   21.5174  -11.8912   -2.8615 C   0  0  2  0  0  0  0  0  0  0  0  0
   21.9578  -11.7796   -4.2137 O   0  0  0  0  0  0  0  0  0  0  0  0
   22.2329   -7.9688   -4.8140 C   0  0  0  0  0  0  0  0  0  0  0  0
   21.8212   -7.6306   -3.3952 O   0  0  0  0  0  0  0  0  0  0  0  0
   26.6153  -13.2914   -2.6155 C   0  0  0  0  0  0  0  0  0  0  0  0
   26.0236  -12.1448   -1.9616 N   0  0  0  0  0  0  0  0  0  0  0  0
   21.4675  -10.4602   -2.2046 C   0  0  1  0  0  0  0  0  0  0  0  0
   20.5587   -9.6815   -2.9262 O   0  0  0  0  0  0  0  0  0  0  0  0
   21.5617   -8.0057   -7.2156 C   0  0  0  0  0  0  0  0  0  0  0  0
   17.3744   -8.8174   -6.0950 C   0  0  0  0  0  0  0  0  0  0  0  0
  1  2  1  1  0  0  0
  1  6  1  0  0  0  0
  1 21  1  0  0  0  0
  3  4  1  1  0  0  0
  3  8  1  0  0  0  0
  3 28  1  0  0  0  0
  5  9  1  0  0  0  0
  5 25  1  0  0  0  0
  5 29  1  6  0  0  0
  6  7  1  1  0  0  0
  6 11  1  0  0  0  0
  8 12  1  0  0  0  0
  9 10  1  1  0  0  0
  9 14  1  0  0  0  0
 11 16  1  0  0  0  0
 12 13  1  1  0  0  0
 12 17  1  0  0  0  0
 14 15  1  6  0  0  0
 14 18  1  0  0  0  0
 15 31  1  0  0  0  0
 16 20  1  0  0  0  0
 17  2  1  6  0  0  0
 17 22  1  0  0  0  0
 18 19  1  1  0  0  0
 18 24  1  0  0  0  0
 18 30  1  0  0  0  0
 20 21  1  0  0  0  0
 20 26  1  1  0  0  0
 22 23  1  6  0  0  0
 22 28  1  0  0  0  0
 24 25  1  0  0  0  0
 26 27  1  0  0  0  0
 28 29  1  6  0  0  0
M  END
>  <CHROM.1>
171.04312206,-179.74420862,-71.84777461,-168.26416201,-121.83514934,80.68908743
21.97113407,-11.17165482,-3.33969183,-0.36981671,0.98157652,-1.46096085

>  <Name>
ligand

>  <RI>
0

>  <Rbt.Current_Directory>
/home/itssahil/PROJECTS/Mol_Feturizer/New_Systems/rnas/4F8V

>  <Rbt.Executable>
rbdock ($Id: //depot/dev/client3/rdock/2013.1/src/exe/rbdock.cxx#4 $)

>  <Rbt.Library>
libRbt.so (2013.1, Build901 2013/11/27)

>  <Rbt.Parameter_File>
/export/apps/rDock/src/rDock_2013.1_src/data/scripts/dock_solv.prm

>  <Rbt.Receptor>
prm/pocket_docking_3.prm

>  <SCORE>
-8.70163

>  <SCORE.INTER>
-4.88303

>  <SCORE.INTER.CONST>
1

>  <SCORE.INTER.POLAR>
0

>  <SCORE.INTER.ROT>
6

>  <SCORE.INTER.SOLV>
19.3145

>  <SCORE.INTER.VDW>
-17.2935

>  <SCORE.INTER.norm>
-0.157517

>  <SCORE.INTRA>
-3.8186

>  <SCORE.INTRA.DIHEDRAL>
-11.1539

>  <SCORE.INTRA.DIHEDRAL.0>
15.9129

>  <SCORE.INTRA.POLAR>
0

>  <SCORE.INTRA.POLAR.0>
0

>  <SCORE.INTRA.REPUL>
0

>  <SCORE.INTRA.REPUL.0>
0

>  <SCORE.INTRA.SOLV>
-0.403156

>  <SCORE.INTRA.SOLV.lig_0>
-75.7056

>  <SCORE.INTRA.VDW>
1.95991

>  <SCORE.INTRA.VDW.0>
-4.61812

>  <SCORE.INTRA.norm>
-0.123181

>  <SCORE.RESTR>
0

>  <SCORE.RESTR.CAVITY>
0

>  <SCORE.RESTR.norm>
0

>  <SCORE.SYSTEM>
0

>  <SCORE.SYSTEM.CONST>
0

>  <SCORE.SYSTEM.DIHEDRAL>
0

>  <SCORE.SYSTEM.SOLV>
0

>  <SCORE.SYSTEM.norm>
0

>  <SCORE.heavy>
31

>  <SCORE.norm>
-0.280698

>  <RMSD>
7.732

$$$$
ligand
 OpenBabel11021811493D
libRbt.so/2013.1/901 2013/11/27
 31 33  0  0  0  0  0  0  0  0999 V2000
   24.1225  -14.3248   -1.8738 C   0  0  2  0  0  0  0  0  0  0  0  0
   23.3148  -13.4037   -2.6192 O   0  0  0  0  0  0  0  0  0  0  0  0
   20.4701  -10.5706   -1.1803 C   0  0  2  0  0  0  0  0  0  0  0  0
   19.9376   -9.4164   -0.5383 N   0  0  0  0  0  0  0  0  0  0  0  0
   19.5717   -9.7361   -3.8767 C   0  0  2  0  0  0  0  0  0  0  0  0
   25.3546  -13.5255   -1.3476 C   0  0  2  0  0  0  0  0  0  0  0  0
   24.8817  -12.3979   -0.5470 N   0  0  0  0  0  0  0  0  0  0  0  0
   21.2078  -11.4635   -0.1134 C   0  0  0  0  0  0  0  0  0  0  0  0
   19.9458   -9.7991   -5.3822 C   0  0  2  0  0  0  0  0  0  0  0  0
   21.0159  -10.7021   -5.5434 O   0  0  0  0  0  0  0  0  0  0  0  0
   26.2503  -13.0451   -2.5538 C   0  0  0  0  0  0  0  0  0  0  0  0
   21.7979  -12.7454   -0.8304 C   0  0  2  0  0  0  0  0  0  0  0  0
   22.4941  -13.5851    0.1657 N   0  0  0  0  0  0  0  0  0  0  0  0
   20.3433   -8.3429   -5.8500 C   0  0  1  0  0  0  0  0  0  0  0  0
   20.7331   -8.3572   -7.2883 N   0  0  0  0  0  0  0  0  0  0  0  0
   26.2295  -14.0444   -3.7669 C   0  0  0  0  0  0  0  0  0  0  0  0
   22.8067  -12.2828   -1.9661 C   0  0  2  0  0  0  0  0  0  0  0  0
   19.0777   -7.3400   -5.6425 C   0  0  1  0  0  0  0  0  0  0  0  0
   17.9487   -7.7147   -6.3932 O   0  0  0  0  0  0  0  0  0  0  0  0
   25.4406  -15.1292   -3.7654 C   0  0  1  0  0  0  0  0  0  0  0  0
   24.5912  -15.4400   -2.6786 O   0  0  0  0  0  0  0  0  0  0  0  0
   22.0507  -11.3775   -3.0053 C   0  0  2  0  0  0  0  0  0  0  0  0
   22.9668  -10.9575   -4.0147 O   0  0  0  0  0  0  0  0  0  0  0  0
   18.6750   -7.3403   -4.1353 C   0  0  0  0  0  0  0  0  0  0  0  0
   18.4453   -8.7585   -3.6529 O   0  0  0  0  0  0  0  0  0  0  0  0
   25.3837  -16.1223   -4.9427 C   0  0  0  0  0  0  0  0  0  0  0  0
   25.6969  -15.4145   -6.1646 N   0  0  0  0  0  0  0  0  0  0  0  0
   21.4634  -10.1145   -2.2693 C   0  0  1  0  0  0  0  0  0  0  0  0
   20.7892   -9.3351   -3.2131 O   0  0  0  0  0  0  0  0  0  0  0  0
   19.3079   -5.8791   -6.0547 C   0  0  0  0  0  0  0  0  0  0  0  0
   22.1746   -8.4418   -7.5691 C   0  0  0  0  0  0  0  0  0  0  0  0
  1  2  1  6  0  0  0
  1  6  1  0  0  0  0
  1 21  1  0  0  0  0
  3  4  1  1  0  0  0
  3  8  1  0  0  0  0
  3 28  1  0  0  0  0
  5  9  1  0  0  0  0
  5 25  1  0  0  0  0
  5 29  1  1  0  0  0
  6  7  1  6  0  0  0
  6 11  1  0  0  0  0
  8 12  1  0  0  0  0
  9 10  1  1  0  0  0
  9 14  1  0  0  0  0
 11 16  1  0  0  0  0
 12 13  1  1  0  0  0
 12 17  1  0  0  0  0
 14 15  1  6  0  0  0
 14 18  1  0  0  0  0
 15 31  1  0  0  0  0
 16 20  1  0  0  0  0
 17  2  1  6  0  0  0
 17 22  1  0  0  0  0
 18 19  1  6  0  0  0
 18 24  1  0  0  0  0
 18 30  1  0  0  0  0
 20 21  1  0  0  0  0
 20 26  1  6  0  0  0
 22 23  1  6  0  0  0
 22 28  1  0  0  0  0
 24 25  1  0  0  0  0
 26 27  1  0  0  0  0
 28 29  1  6  0  0  0
M  END
>  <CHROM.1>
-59.87391105,-117.82532931,-96.73296061,-64.22092506,-28.60035899,-51.38852542
22.06193214,-11.17570458,-3.54195018,0.49570834,-0.78243725,1.84299658

>  <Name>
ligand

>  <RI>
0

>  <Rbt.Current_Directory>
/home/itssahil/PROJECTS/Mol_Feturizer/New_Systems/rnas/4F8V

>  <Rbt.Executable>
rbdock ($Id: //depot/dev/client3/rdock/2013.1/src/exe/rbdock.cxx#4 $)

>  <Rbt.Library>
libRbt.so (2013.1, Build901 2013/11/27)

>  <Rbt.Parameter_File>
/export/apps/rDock/src/rDock_2013.1_src/data/scripts/dock_solv.prm

>  <Rbt.Receptor>
prm/pocket_docking_2.prm

>  <SCORE>
-0.136271

>  <SCORE.INTER>
-5.76189

>  <SCORE.INTER.CONST>
1

>  <SCORE.INTER.POLAR>
0

>  <SCORE.INTER.ROT>
6

>  <SCORE.INTER.SOLV>
17.6215

>  <SCORE.INTER.VDW>
-17.3151

>  <SCORE.INTER.norm>
-0.185867

>  <SCORE.INTRA>
5.39453

>  <SCORE.INTRA.DIHEDRAL>
-4.9113

>  <SCORE.INTRA.DIHEDRAL.0>
15.9129

>  <SCORE.INTRA.POLAR>
0

>  <SCORE.INTRA.POLAR.0>
0

>  <SCORE.INTRA.REPUL>
0

>  <SCORE.INTRA.REPUL.0>
0

>  <SCORE.INTRA.SOLV>
4.0452

>  <SCORE.INTRA.SOLV.lig_0>
-75.7056

>  <SCORE.INTRA.VDW>
5.82758

>  <SCORE.INTRA.VDW.0>
-4.61812

>  <SCORE.INTRA.norm>
0.174017

>  <SCORE.RESTR>
0.231083

>  <SCORE.RESTR.CAVITY>
0.231083

>  <SCORE.RESTR.norm>
0.0074543

>  <SCORE.SYSTEM>
0

>  <SCORE.SYSTEM.CONST>
0

>  <SCORE.SYSTEM.DIHEDRAL>
0

>  <SCORE.SYSTEM.SOLV>
0

>  <SCORE.SYSTEM.norm>
0

>  <SCORE.heavy>
31

>  <SCORE.norm>
-0.00439583

>  <RMSD>
7.736

$$$$
ligand
 OpenBabel11021811493D
libRbt.so/2013.1/901 2013/11/27
 31 33  0  0  0  0  0  0  0  0999 V2000
   23.9551  -14.1595   -1.6372 C   0  0  2  0  0  0  0  0  0  0  0  0
   23.9458  -12.9581   -2.4201 O   0  0  0  0  0  0  0  0  0  0  0  0
   20.5120  -10.4749   -1.9392 C   0  0  2  0  0  0  0  0  0  0  0  0
   19.6995   -9.3784   -1.5325 N   0  0  0  0  0  0  0  0  0  0  0  0
   20.4302   -9.9336   -4.9453 C   0  0  2  0  0  0  0  0  0  0  0  0
   25.3843  -14.7723   -1.7627 C   0  0  2  0  0  0  0  0  0  0  0  0
   26.3645  -13.7859   -1.3130 N   0  0  0  0  0  0  0  0  0  0  0  0
   21.0507  -11.2227   -0.6624 C   0  0  0  0  0  0  0  0  0  0  0  0
   20.4195   -8.9196   -6.1209 C   0  0  2  0  0  0  0  0  0  0  0  0
   21.7516   -8.6311   -6.4796 O   0  0  0  0  0  0  0  0  0  0  0  0
   25.6566  -15.2244   -3.2491 C   0  0  0  0  0  0  0  0  0  0  0  0
   21.9529  -12.4408   -1.1183 C   0  0  2  0  0  0  0  0  0  0  0  0
   22.4639  -13.1440    0.0761 N   0  0  0  0  0  0  0  0  0  0  0  0
   19.6563   -7.6214   -5.6418 C   0  0  1  0  0  0  0  0  0  0  0  0
   19.6396   -6.6068   -6.7333 N   0  0  0  0  0  0  0  0  0  0  0  0
   24.3581  -15.7148   -3.9869 C   0  0  0  0  0  0  0  0  0  0  0  0
   23.1578  -11.8909   -1.9943 C   0  0  2  0  0  0  0  0  0  0  0  0
   18.1268   -8.0069   -5.2383 C   0  0  1  0  0  0  0  0  0  0  0  0
   17.3907   -8.5388   -6.3125 O   0  0  0  0  0  0  0  0  0  0  0  0
   23.1531  -15.6449   -3.4016 C   0  0  1  0  0  0  0  0  0  0  0  0
   22.9805  -15.1355   -2.0940 O   0  0  0  0  0  0  0  0  0  0  0  0
   22.5929  -11.1323   -3.2498 C   0  0  2  0  0  0  0  0  0  0  0  0
   23.6815  -10.6322   -4.0241 O   0  0  0  0  0  0  0  0  0  0  0  0
   18.1584   -9.0747   -4.1013 C   0  0  0  0  0  0  0  0  0  0  0  0
   19.0218  -10.2515   -4.5093 O   0  0  0  0  0  0  0  0  0  0  0  0
   21.8576  -16.1026   -4.0999 C   0  0  0  0  0  0  0  0  0  0  0  0
   21.4987  -15.1244   -5.1032 N   0  0  0  0  0  0  0  0  0  0  0  0
   21.6908   -9.9318   -2.7735 C   0  0  1  0  0  0  0  0  0  0  0  0
   21.1946   -9.2836   -3.9078 O   0  0  0  0  0  0  0  0  0  0  0  0
   17.2509   -6.8442   -4.7503 C   0  0  0  0  0  0  0  0  0  0  0  0
   20.1178   -5.2622   -6.3765 C   0  0  0  0  0  0  0  0  0  0  0  0
  1  2  1  6  0  0  0
  1  6  1  0  0  0  0
  1 21  1  0  0  0  0
  3  4  1  1  0  0  0
  3  8  1  0  0  0  0
  3 28  1  0  0  0  0
  5  9  1  0  0  0  0
  5 25  1  0  0  0  0
  5 29  1  1  0  0  0
  6  7  1  6  0  0  0
  6 11  1  0  0  0  0
  8 12  1  0  0  0  0
  9 10  1  1  0  0  0
  9 14  1  0  0  0  0
 11 16  1  0  0  0  0
 12 13  1  1  0  0  0
 12 17  1  0  0  0  0
 14 15  1  6  0  0  0
 14 18  1  0  0  0  0
 15 31  1  0  0  0  0
 16 20  1  0  0  0  0
 17  2  1  6  0  0  0
 17 22  1  0  0  0  0
 18 19  1  6  0  0  0
 18 24  1  0  0  0  0
 18 30  1  0  0  0  0
 20 21  1  0  0  0  0
 20 26  1  6  0  0  0
 22 23  1  1  0  0  0
 22 28  1  0  0  0  0
 24 25  1  0  0  0  0
 26 27  1  0  0  0  0
 28 29  1  6  0  0  0
M  END
>  <CHROM.1>
-146.97282457,-166.38824060,-127.75296138,-25.80774131,-74.02371528,-62.46890245
21.56914158,-11.18961100,-3.62738746,0.26196295,-0.96675237,1.46694678

>  <Name>
ligand

>  <RI>
0

>  <Rbt.Current_Directory>
/home/itssahil/PROJECTS/Mol_Feturizer/New_Systems/rnas/4F8V

>  <Rbt.Executable>
rbdock ($Id: //depot/dev/client3/rdock/2013.1/src/exe/rbdock.cxx#4 $)

>  <Rbt.Library>
libRbt.so (2013.1, Build901 2013/11/27)

>  <Rbt.Parameter_File>
/export/apps/rDock/src/rDock_2013.1_src/data/scripts/dock_solv.prm

>  <Rbt.Receptor>
prm/pocket_docking_2.prm

>  <SCORE>
-1.86763

>  <SCORE.INTER>
-8.19686

>  <SCORE.INTER.CONST>
1

>  <SCORE.INTER.POLAR>
0

>  <SCORE.INTER.ROT>
6

>  <SCORE.INTER.SOLV>
21.3097

>  <SCORE.INTER.VDW>
-20.1678

>  <SCORE.INTER.norm>
-0.264415

>  <SCORE.INTRA>
5.08974

>  <SCORE.INTRA.DIHEDRAL>
-1.94676

>  <SCORE.INTRA.DIHEDRAL.0>
15.9129

>  <SCORE.INTRA.POLAR>
0

>  <SCORE.INTRA.POLAR.0>
0

>  <SCORE.INTRA.REPUL>
0

>  <SCORE.INTRA.REPUL.0>
0

>  <SCORE.INTRA.SOLV>
0.958419

>  <SCORE.INTRA.SOLV.lig_0>
-75.7056

>  <SCORE.INTRA.VDW>
5.58391

>  <SCORE.INTRA.VDW.0>
-4.61812

>  <SCORE.INTRA.norm>
0.164185

>  <SCORE.RESTR>
1.23949

>  <SCORE.RESTR.CAVITY>
1.23949

>  <SCORE.RESTR.norm>
0.0399837

>  <SCORE.SYSTEM>
0

>  <SCORE.SYSTEM.CONST>
0

>  <SCORE.SYSTEM.DIHEDRAL>
0

>  <SCORE.SYSTEM.SOLV>
0

>  <SCORE.SYSTEM.norm>
0

>  <SCORE.heavy>
31

>  <SCORE.norm>
-0.0602461

>  <RMSD>
7.745

$$$$
ligand
 OpenBabel11021811493D
libRbt.so/2013.1/901 2013/11/27
 31 33  0  0  0  0  0  0  0  0999 V2000
   23.8115  -11.1184   -1.2752 C   0  0  2  0  0  0  0  0  0  0  0  0
   23.7629   -9.7157   -0.9810 O   0  0  0  0  0  0  0  0  0  0  0  0
   20.2971   -8.7331   -3.2639 C   0  0  2  0  0  0  0  0  0  0  0  0
   19.2202   -7.9726   -3.8021 N   0  0  0  0  0  0  0  0  0  0  0  0
   20.9680   -7.1046   -5.8566 C   0  0  2  0  0  0  0  0  0  0  0  0
   24.9143  -11.7362   -0.3608 C   0  0  2  0  0  0  0  0  0  0  0  0
   24.5865  -11.4530    1.0350 N   0  0  0  0  0  0  0  0  0  0  0  0
   20.1321   -8.8315   -1.7010 C   0  0  0  0  0  0  0  0  0  0  0  0
   21.3733   -7.5051   -7.3009 C   0  0  2  0  0  0  0  0  0  0  0  0
   21.1250   -8.8816   -7.4735 O   0  0  0  0  0  0  0  0  0  0  0  0
   26.3315  -11.1646   -0.7512 C   0  0  0  0  0  0  0  0  0  0  0  0
   21.3304   -9.6777   -1.1064 C   0  0  2  0  0  0  0  0  0  0  0  0
   21.1823   -9.7703    0.3605 N   0  0  0  0  0  0  0  0  0  0  0  0
   22.9049   -7.1659   -7.4921 C   0  0  1  0  0  0  0  0  0  0  0  0
   23.3469   -7.5548   -8.8612 N   0  0  0  0  0  0  0  0  0  0  0  0
   26.4586  -10.8384   -2.2836 C   0  0  0  0  0  0  0  0  0  0  0  0
   22.6999   -8.9662   -1.4804 C   0  0  2  0  0  0  0  0  0  0  0  0
   23.1392   -5.5687   -7.2813 C   0  0  1  0  0  0  0  0  0  0  0  0
   22.4294   -4.7807   -8.2055 O   0  0  0  0  0  0  0  0  0  0  0  0
   25.4114  -10.9596   -3.1131 C   0  0  1  0  0  0  0  0  0  0  0  0
   24.1418  -11.3903   -2.6638 O   0  0  0  0  0  0  0  0  0  0  0  0
   22.8298   -8.8626   -3.0435 C   0  0  2  0  0  0  0  0  0  0  0  0
   24.0567   -8.2122   -3.3697 O   0  0  0  0  0  0  0  0  0  0  0  0
   22.6656   -5.1735   -5.8484 C   0  0  0  0  0  0  0  0  0  0  0  0
   21.2425   -5.6410   -5.6177 O   0  0  0  0  0  0  0  0  0  0  0  0
   25.4955  -10.6349   -4.6174 C   0  0  0  0  0  0  0  0  0  0  0  0
   25.2834  -11.8524   -5.3691 N   0  0  0  0  0  0  0  0  0  0  0  0
   21.6230   -8.0263   -3.6145 C   0  0  1  0  0  0  0  0  0  0  0  0
   21.7583   -7.9598   -5.0038 O   0  0  0  0  0  0  0  0  0  0  0  0
   24.5861   -5.0791   -7.4366 C   0  0  0  0  0  0  0  0  0  0  0  0
   23.8865   -8.9155   -9.0067 C   0  0  0  0  0  0  0  0  0  0  0  0
  1  2  1  6  0  0  0
  1  6  1  0  0  0  0
  1 21  1  0  0  0  0
  3  4  1  1  0  0  0
  3  8  1  0  0  0  0
  3 28  1  0  0  0  0
  5  9  1  0  0  0  0
  5 25  1  0  0  0  0
  5 29  1  1  0  0  0
  6  7  1  1  0  0  0
  6 11  1  0  0  0  0
  8 12  1  0  0  0  0
  9 10  1  1  0  0  0
  9 14  1  0  0  0  0
 11 16  1  0  0  0  0
 12 13  1  1  0  0  0
 12 17  1  0  0  0  0
 14 15  1  6  0  0  0
 14 18  1  0  0  0  0
 15 31  1  0  0  0  0
 16 20  1  0  0  0  0
 17  2  1  6  0  0  0
 17 22  1  0  0  0  0
 18 19  1  6  0  0  0
 18 24  1  0  0  0  0
 18 30  1  0  0  0  0
 20 21  1  0  0  0  0
 20 26  1  1  0  0  0
 22 23  1  1  0  0  0
 22 28  1  0  0  0  0
 24 25  1  0  0  0  0
 26 27  1  0  0  0  0
 28 29  1  6  0  0  0
M  END
>  <CHROM.1>
-168.48576769,-173.80200014,-91.21306014,51.11887525,115.09171090,71.22800508
23.00489044,-8.72688246,-4.13180383,-1.31953301,0.51732035,-1.10695421

>  <Name>
ligand

>  <RI>
0

>  <Rbt.Current_Directory>
/home/itssahil/PROJECTS/Mol_Feturizer/New_Systems/rnas/4F8V

>  <Rbt.Executable>
rbdock ($Id: //depot/dev/client3/rdock/2013.1/src/exe/rbdock.cxx#4 $)

>  <Rbt.Library>
libRbt.so (2013.1, Build901 2013/11/27)

>  <Rbt.Parameter_File>
/export/apps/rDock/src/rDock_2013.1_src/data/scripts/dock_solv.prm

>  <Rbt.Receptor>
prm/pocket_docking_5.prm

>  <SCORE>
-7.6181

>  <SCORE.INTER>
-2.93029

>  <SCORE.INTER.CONST>
1

>  <SCORE.INTER.POLAR>
0

>  <SCORE.INTER.ROT>
6

>  <SCORE.INTER.SOLV>
11.0163

>  <SCORE.INTER.VDW>
-13.2256

>  <SCORE.INTER.norm>
-0.0945255

>  <SCORE.INTRA>
-4.68781

>  <SCORE.INTRA.DIHEDRAL>
-11.7518

>  <SCORE.INTRA.DIHEDRAL.0>
15.9129

>  <SCORE.INTRA.POLAR>
0

>  <SCORE.INTRA.POLAR.0>
0

>  <SCORE.INTRA.REPUL>
0

>  <SCORE.INTRA.REPUL.0>
0

>  <SCORE.INTRA.SOLV>
-0.738439

>  <SCORE.INTRA.SOLV.lig_0>
-75.7056

>  <SCORE.INTRA.VDW>
1.55732

>  <SCORE.INTRA.VDW.0>
-4.61812

>  <SCORE.INTRA.norm>
-0.15122

>  <SCORE.RESTR>
0

>  <SCORE.RESTR.CAVITY>
0

>  <SCORE.RESTR.norm>
0

>  <SCORE.SYSTEM>
0

>  <SCORE.SYSTEM.CONST>
0

>  <SCORE.SYSTEM.DIHEDRAL>
0

>  <SCORE.SYSTEM.SOLV>
0

>  <SCORE.SYSTEM.norm>
0

>  <SCORE.heavy>
31

>  <SCORE.norm>
-0.245745

>  <RMSD>
7.758

$$$$
ligand
 OpenBabel11021811493D
libRbt.so/2013.1/901 2013/11/27
 31 33  0  0  0  0  0  0  0  0999 V2000
   22.9880  -13.7220   -2.3948 C   0  0  2  0  0  0  0  0  0  0  0  0
   23.8718  -13.0056   -3.2677 O   0  0  0  0  0  0  0  0  0  0  0  0
   22.5856   -9.0428   -2.3562 C   0  0  2  0  0  0  0  0  0  0  0  0
   22.4054   -7.6347   -2.4693 N   0  0  0  0  0  0  0  0  0  0  0  0
   19.8049   -9.9504   -4.7766 C   0  0  2  0  0  0  0  0  0  0  0  0
   23.8750  -14.6658   -1.5252 C   0  0  2  0  0  0  0  0  0  0  0  0
   24.8628  -13.8614   -0.8088 N   0  0  0  0  0  0  0  0  0  0  0  0
   24.1211   -9.3589   -2.2085 C   0  0  0  0  0  0  0  0  0  0  0  0
   20.0870   -9.0416   -6.0034 C   0  0  2  0  0  0  0  0  0  0  0  0
   21.4629   -9.1021   -6.3024 O   0  0  0  0  0  0  0  0  0  0  0  0
   24.5636  -15.7575   -2.4319 C   0  0  0  0  0  0  0  0  0  0  0  0
   24.3174  -10.9245   -2.0826 C   0  0  2  0  0  0  0  0  0  0  0  0
   25.7570  -11.2269   -1.9471 N   0  0  0  0  0  0  0  0  0  0  0  0
   19.6395   -7.5709   -5.6373 C   0  0  1  0  0  0  0  0  0  0  0  0
   19.9124   -6.6546   -6.7805 N   0  0  0  0  0  0  0  0  0  0  0  0
   23.6821  -16.1725   -3.6655 C   0  0  0  0  0  0  0  0  0  0  0  0
   23.7246  -11.6246   -3.3788 C   0  0  2  0  0  0  0  0  0  0  0  0
   18.0470   -7.5546   -5.2992 C   0  0  1  0  0  0  0  0  0  0  0  0
   17.2493   -7.9649   -6.3827 O   0  0  0  0  0  0  0  0  0  0  0  0
   22.5169  -15.5625   -3.9288 C   0  0  1  0  0  0  0  0  0  0  0  0
   22.0123  -14.5216   -3.1156 O   0  0  0  0  0  0  0  0  0  0  0  0
   22.1977  -11.2767   -3.5135 C   0  0  2  0  0  0  0  0  0  0  0  0
   21.6767  -11.8999   -4.6861 O   0  0  0  0  0  0  0  0  0  0  0  0
   17.7739   -8.5229   -4.1069 C   0  0  0  0  0  0  0  0  0  0  0  0
   18.3447   -9.8952   -4.4031 O   0  0  0  0  0  0  0  0  0  0  0  0
   21.6342  -15.9332   -5.1366 C   0  0  0  0  0  0  0  0  0  0  0  0
   21.7801  -14.9121   -6.1508 N   0  0  0  0  0  0  0  0  0  0  0  0
   22.0249   -9.7149   -3.6268 C   0  0  1  0  0  0  0  0  0  0  0  0
   20.6600   -9.4347   -3.7344 O   0  0  0  0  0  0  0  0  0  0  0  0
   17.4574   -6.1877   -4.9233 C   0  0  0  0  0  0  0  0  0  0  0  0
   21.0410   -5.7262   -6.6127 C   0  0  0  0  0  0  0  0  0  0  0  0
  1  2  1  6  0  0  0
  1  6  1  0  0  0  0
  1 21  1  0  0  0  0
  3  4  1  6  0  0  0
  3  8  1  0  0  0  0
  3 28  1  0  0  0  0
  5  9  1  0  0  0  0
  5 25  1  0  0  0  0
  5 29  1  1  0  0  0
  6  7  1  6  0  0  0
  6 11  1  0  0  0  0
  8 12  1  0  0  0  0
  9 10  1  1  0  0  0
  9 14  1  0  0  0  0
 11 16  1  0  0  0  0
 12 13  1  6  0  0  0
 12 17  1  0  0  0  0
 14 15  1  6  0  0  0
 14 18  1  0  0  0  0
 15 31  1  0  0  0  0
 16 20  1  0  0  0  0
 17  2  1  1  0  0  0
 17 22  1  0  0  0  0
 18 19  1  6  0  0  0
 18 24  1  0  0  0  0
 18 30  1  0  0  0  0
 20 21  1  0  0  0  0
 20 26  1  6  0  0  0
 22 23  1  6  0  0  0
 22 28  1  0  0  0  0
 24 25  1  0  0  0  0
 26 27  1  0  0  0  0
 28 29  1  1  0  0  0
M  END
>  <CHROM.1>
-132.25616556,-79.77072463,-106.92785805,75.61775240,-104.29943045,-177.41057916
21.64376750,-10.89993237,-4.01980789,0.86981686,0.61547003,-3.04607952

>  <Name>
ligand

>  <RI>
0

>  <Rbt.Current_Directory>
/home/itssahil/PROJECTS/Mol_Feturizer/New_Systems/rnas/4F8V

>  <Rbt.Executable>
rbdock ($Id: //depot/dev/client3/rdock/2013.1/src/exe/rbdock.cxx#4 $)

>  <Rbt.Library>
libRbt.so (2013.1, Build901 2013/11/27)

>  <Rbt.Parameter_File>
/export/apps/rDock/src/rDock_2013.1_src/data/scripts/dock_solv.prm

>  <Rbt.Receptor>
prm/pocket_docking_4.prm

>  <SCORE>
-8.21013

>  <SCORE.INTER>
-9.47292

>  <SCORE.INTER.CONST>
1

>  <SCORE.INTER.POLAR>
0

>  <SCORE.INTER.ROT>
6

>  <SCORE.INTER.SOLV>
13.9524

>  <SCORE.INTER.VDW>
-18.5661

>  <SCORE.INTER.norm>
-0.305578

>  <SCORE.INTRA>
1.2628

>  <SCORE.INTRA.DIHEDRAL>
-3.43959

>  <SCORE.INTRA.DIHEDRAL.0>
15.9129

>  <SCORE.INTRA.POLAR>
0

>  <SCORE.INTRA.POLAR.0>
0

>  <SCORE.INTRA.REPUL>
0

>  <SCORE.INTRA.REPUL.0>
0

>  <SCORE.INTRA.SOLV>
1.28451

>  <SCORE.INTRA.SOLV.lig_0>
-75.7056

>  <SCORE.INTRA.VDW>
2.34034

>  <SCORE.INTRA.VDW.0>
-4.61812

>  <SCORE.INTRA.norm>
0.0407354

>  <SCORE.RESTR>
0

>  <SCORE.RESTR.CAVITY>
0

>  <SCORE.RESTR.norm>
0

>  <SCORE.SYSTEM>
0

>  <SCORE.SYSTEM.CONST>
0

>  <SCORE.SYSTEM.DIHEDRAL>
0

>  <SCORE.SYSTEM.SOLV>
0

>  <SCORE.SYSTEM.norm>
0

>  <SCORE.heavy>
31

>  <SCORE.norm>
-0.264843

>  <RMSD>
7.761

$$$$
ligand
 OpenBabel11021811493D
libRbt.so/2013.1/901 2013/11/27
 31 33  0  0  0  0  0  0  0  0999 V2000
   20.3814  -14.6591   -6.1446 C   0  0  2  0  0  0  0  0  0  0  0  0
   21.1705  -14.2739   -7.2783 O   0  0  0  0  0  0  0  0  0  0  0  0
   22.3707  -10.2727   -8.1376 C   0  0  2  0  0  0  0  0  0  0  0  0
   22.3003   -8.9178   -8.5705 N   0  0  0  0  0  0  0  0  0  0  0  0
   21.4581   -8.2152   -5.9912 C   0  0  2  0  0  0  0  0  0  0  0  0
   20.7291  -16.1479   -5.8340 C   0  0  2  0  0  0  0  0  0  0  0  0
   22.1670  -16.2598   -5.5977 N   0  0  0  0  0  0  0  0  0  0  0  0
   22.0869  -11.2232   -9.3606 C   0  0  0  0  0  0  0  0  0  0  0  0
   21.4041   -7.7869   -4.4998 C   0  0  2  0  0  0  0  0  0  0  0  0
   22.5712   -8.2456   -3.8565 O   0  0  0  0  0  0  0  0  0  0  0  0
   20.2622  -17.0771   -7.0199 C   0  0  0  0  0  0  0  0  0  0  0  0
   22.1664  -12.7279   -8.8758 C   0  0  2  0  0  0  0  0  0  0  0  0
   21.8975  -13.6241  -10.0189 N   0  0  0  0  0  0  0  0  0  0  0  0
   20.1048   -8.4152   -3.8561 C   0  0  1  0  0  0  0  0  0  0  0  0
   20.0210   -8.0488   -2.4139 N   0  0  0  0  0  0  0  0  0  0  0  0
   18.9695  -16.5468   -7.7400 C   0  0  0  0  0  0  0  0  0  0  0  0
   21.0932  -12.9576   -7.7282 C   0  0  2  0  0  0  0  0  0  0  0  0
   18.7876   -7.8570   -4.6334 C   0  0  1  0  0  0  0  0  0  0  0  0
   18.6488   -6.4597   -4.5492 O   0  0  0  0  0  0  0  0  0  0  0  0
   18.4157  -15.3716   -7.4060 C   0  0  1  0  0  0  0  0  0  0  0  0
   18.9536  -14.5484   -6.3900 O   0  0  0  0  0  0  0  0  0  0  0  0
   21.3868  -11.9836   -6.5300 C   0  0  2  0  0  0  0  0  0  0  0  0
   20.4115  -12.1888   -5.5095 O   0  0  0  0  0  0  0  0  0  0  0  0
   18.8914   -8.2400   -6.1421 C   0  0  0  0  0  0  0  0  0  0  0  0
   20.2127   -7.7675   -6.7146 O   0  0  0  0  0  0  0  0  0  0  0  0
   17.1576  -14.8139   -8.0999 C   0  0  0  0  0  0  0  0  0  0  0  0
   17.4773  -14.5236   -9.4805 N   0  0  0  0  0  0  0  0  0  0  0  0
   21.3128  -10.4937   -7.0365 C   0  0  1  0  0  0  0  0  0  0  0  0
   21.5879   -9.6522   -5.9552 O   0  0  0  0  0  0  0  0  0  0  0  0
   17.4377   -8.3783   -4.1204 C   0  0  0  0  0  0  0  0  0  0  0  0
   20.3578   -9.1112   -1.4540 C   0  0  0  0  0  0  0  0  0  0  0  0
  1  2  1  6  0  0  0
  1  6  1  0  0  0  0
  1 21  1  0  0  0  0
  3  4  1  6  0  0  0
  3  8  1  0  0  0  0
  3 28  1  0  0  0  0
  5  9  1  0  0  0  0
  5 25  1  0  0  0  0
  5 29  1  1  0  0  0
  6  7  1  6  0  0  0
  6 11  1  0  0  0  0
  8 12  1  0  0  0  0
  9 10  1  1  0  0  0
  9 14  1  0  0  0  0
 11 16  1  0  0  0  0
 12 13  1  6  0  0  0
 12 17  1  0  0  0  0
 14 15  1  1  0  0  0
 14 18  1  0  0  0  0
 15 31  1  0  0  0  0
 16 20  1  0  0  0  0
 17  2  1  1  0  0  0
 17 22  1  0  0  0  0
 18 19  1  1  0  0  0
 18 24  1  0  0  0  0
 18 30  1  0  0  0  0
 20 21  1  0  0  0  0
 20 26  1  6  0  0  0
 22 23  1  1  0  0  0
 22 28  1  0  0  0  0
 24 25  1  0  0  0  0
 26 27  1  0  0  0  0
 28 29  1  1  0  0  0
M  END
>  <CHROM.1>
-177.12621170,161.79981658,-104.67715406,173.64181186,-65.68888648,68.57727114
20.38239092,-11.47414134,-6.32036182,1.61714037,-0.91459546,-2.70293832

>  <Name>
ligand

>  <RI>
0

>  <Rbt.Current_Directory>
/home/itssahil/PROJECTS/Mol_Feturizer/New_Systems/rnas/4F8V

>  <Rbt.Executable>
rbdock ($Id: //depot/dev/client3/rdock/2013.1/src/exe/rbdock.cxx#4 $)

>  <Rbt.Library>
libRbt.so (2013.1, Build901 2013/11/27)

>  <Rbt.Parameter_File>
/export/apps/rDock/src/rDock_2013.1_src/data/scripts/dock_solv.prm

>  <Rbt.Receptor>
prm/pocket_docking_7.prm

>  <SCORE>
-8.52199

>  <SCORE.INTER>
-6.14884

>  <SCORE.INTER.CONST>
1

>  <SCORE.INTER.POLAR>
0

>  <SCORE.INTER.ROT>
6

>  <SCORE.INTER.SOLV>
16.2701

>  <SCORE.INTER.VDW>
-17.1226

>  <SCORE.INTER.norm>
-0.19835

>  <SCORE.INTRA>
-2.37315

>  <SCORE.INTRA.DIHEDRAL>
-9.2252

>  <SCORE.INTRA.DIHEDRAL.0>
15.9129

>  <SCORE.INTRA.POLAR>
0

>  <SCORE.INTRA.POLAR.0>
0

>  <SCORE.INTRA.REPUL>
0

>  <SCORE.INTRA.REPUL.0>
0

>  <SCORE.INTRA.SOLV>
-2.04218

>  <SCORE.INTRA.SOLV.lig_0>
-75.7056

>  <SCORE.INTRA.VDW>
3.26054

>  <SCORE.INTRA.VDW.0>
-4.61812

>  <SCORE.INTRA.norm>
-0.0765532

>  <SCORE.RESTR>
0

>  <SCORE.RESTR.CAVITY>
0

>  <SCORE.RESTR.norm>
0

>  <SCORE.SYSTEM>
0

>  <SCORE.SYSTEM.CONST>
0

>  <SCORE.SYSTEM.DIHEDRAL>
0

>  <SCORE.SYSTEM.SOLV>
0

>  <SCORE.SYSTEM.norm>
0

>  <SCORE.heavy>
31

>  <SCORE.norm>
-0.274903

>  <RMSD>
7.801

$$$$
ligand
 OpenBabel11021811493D
libRbt.so/2013.1/901 2013/11/27
 31 33  0  0  0  0  0  0  0  0999 V2000
   23.7190  -14.0077   -3.9776 C   0  0  2  0  0  0  0  0  0  0  0  0
   22.9119  -13.9600   -2.7933 O   0  0  0  0  0  0  0  0  0  0  0  0
   20.9928  -10.7073   -0.8119 C   0  0  2  0  0  0  0  0  0  0  0  0
   20.8153   -9.4515   -0.1644 N   0  0  0  0  0  0  0  0  0  0  0  0
   20.5976   -8.2437   -2.8780 C   0  0  2  0  0  0  0  0  0  0  0  0
   23.7861  -15.5017   -4.4217 C   0  0  2  0  0  0  0  0  0  0  0  0
   22.4267  -15.9954   -4.6325 N   0  0  0  0  0  0  0  0  0  0  0  0
   21.9787  -11.5939    0.0376 C   0  0  0  0  0  0  0  0  0  0  0  0
   19.4101   -7.8682   -3.8050 C   0  0  2  0  0  0  0  0  0  0  0  0
   18.2573   -8.5442   -3.3572 O   0  0  0  0  0  0  0  0  0  0  0  0
   24.5533  -16.3588   -3.3425 C   0  0  0  0  0  0  0  0  0  0  0  0
   22.1732  -12.9889   -0.6849 C   0  0  2  0  0  0  0  0  0  0  0  0
   23.1002  -13.8236    0.1064 N   0  0  0  0  0  0  0  0  0  0  0  0
   19.7887   -8.2872   -5.2809 C   0  0  1  0  0  0  0  0  0  0  0  0
   18.6661   -7.9656   -6.2069 N   0  0  0  0  0  0  0  0  0  0  0  0
   25.6809  -15.5479   -2.6063 C   0  0  0  0  0  0  0  0  0  0  0  0
   22.7583  -12.7391   -2.1399 C   0  0  2  0  0  0  0  0  0  0  0  0
   21.1240   -7.4825   -5.7497 C   0  0  1  0  0  0  0  0  0  0  0  0
   20.9531   -6.0862   -5.7542 O   0  0  0  0  0  0  0  0  0  0  0  0
   25.8666  -14.2400   -2.8390 C   0  0  1  0  0  0  0  0  0  0  0  0
   25.0694  -13.5189   -3.7575 O   0  0  0  0  0  0  0  0  0  0  0  0
   21.7660  -11.8359   -2.9586 C   0  0  2  0  0  0  0  0  0  0  0  0
   22.3049  -11.6075   -4.2594 O   0  0  0  0  0  0  0  0  0  0  0  0
   22.2885   -7.8214   -4.7685 C   0  0  0  0  0  0  0  0  0  0  0  0
   21.8622   -7.5621   -3.3375 O   0  0  0  0  0  0  0  0  0  0  0  0
   26.9520  -13.4105   -2.1254 C   0  0  0  0  0  0  0  0  0  0  0  0
   26.3258  -12.2708   -1.4919 N   0  0  0  0  0  0  0  0  0  0  0  0
   21.5791  -10.4585   -2.2172 C   0  0  1  0  0  0  0  0  0  0  0  0
   20.6859   -9.6820   -2.9602 O   0  0  0  0  0  0  0  0  0  0  0  0
   21.6209   -7.7827   -7.1711 C   0  0  0  0  0  0  0  0  0  0  0  0
   17.4579   -8.7941   -6.0741 C   0  0  0  0  0  0  0  0  0  0  0  0
  1  2  1  1  0  0  0
  1  6  1  0  0  0  0
  1 21  1  0  0  0  0
  3  4  1  1  0  0  0
  3  8  1  0  0  0  0
  3 28  1  0  0  0  0
  5  9  1  0  0  0  0
  5 25  1  0  0  0  0
  5 29  1  6  0  0  0
  6  7  1  1  0  0  0
  6 11  1  0  0  0  0
  8 12  1  0  0  0  0
  9 10  1  1  0  0  0
  9 14  1  0  0  0  0
 11 16  1  0  0  0  0
 12 13  1  1  0  0  0
 12 17  1  0  0  0  0
 14 15  1  6  0  0  0
 14 18  1  0  0  0  0
 15 31  1  0  0  0  0
 16 20  1  0  0  0  0
 17  2  1  6  0  0  0
 17 22  1  0  0  0  0
 18 19  1  1  0  0  0
 18 24  1  0  0  0  0
 18 30  1  0  0  0  0
 20 21  1  0  0  0  0
 20 26  1  1  0  0  0
 22 23  1  6  0  0  0
 22 28  1  0  0  0  0
 24 25  1  0  0  0  0
 26 27  1  0  0  0  0
 28 29  1  6  0  0  0
M  END
>  <CHROM.1>
176.13236865,-176.21709290,-70.39877483,-164.96690751,-125.13333469,82.59229675
22.15827523,-11.12747685,-3.33210959,-0.38489669,0.93176322,-1.43040902

>  <Name>
ligand

>  <RI>
0

>  <Rbt.Current_Directory>
/home/itssahil/PROJECTS/Mol_Feturizer/New_Systems/rnas/4F8V

>  <Rbt.Executable>
rbdock ($Id: //depot/dev/client3/rdock/2013.1/src/exe/rbdock.cxx#4 $)

>  <Rbt.Library>
libRbt.so (2013.1, Build901 2013/11/27)

>  <Rbt.Parameter_File>
/export/apps/rDock/src/rDock_2013.1_src/data/scripts/dock_solv.prm

>  <Rbt.Receptor>
prm/pocket_docking_4.prm

>  <SCORE>
-8.87471

>  <SCORE.INTER>
-5.37955

>  <SCORE.INTER.CONST>
1

>  <SCORE.INTER.POLAR>
0

>  <SCORE.INTER.ROT>
6

>  <SCORE.INTER.SOLV>
17.1819

>  <SCORE.INTER.VDW>
-16.9137

>  <SCORE.INTER.norm>
-0.173534

>  <SCORE.INTRA>
-3.49517

>  <SCORE.INTRA.DIHEDRAL>
-10.6694

>  <SCORE.INTRA.DIHEDRAL.0>
15.9129

>  <SCORE.INTRA.POLAR>
0

>  <SCORE.INTRA.POLAR.0>
0

>  <SCORE.INTRA.REPUL>
0

>  <SCORE.INTRA.REPUL.0>
0

>  <SCORE.INTRA.SOLV>
-0.145138

>  <SCORE.INTRA.SOLV.lig_0>
-75.7056

>  <SCORE.INTRA.VDW>
1.91213

>  <SCORE.INTRA.VDW.0>
-4.61812

>  <SCORE.INTRA.norm>
-0.112747

>  <SCORE.RESTR>
0

>  <SCORE.RESTR.CAVITY>
0

>  <SCORE.RESTR.norm>
0

>  <SCORE.SYSTEM>
0

>  <SCORE.SYSTEM.CONST>
0

>  <SCORE.SYSTEM.DIHEDRAL>
0

>  <SCORE.SYSTEM.SOLV>
0

>  <SCORE.SYSTEM.norm>
0

>  <SCORE.heavy>
31

>  <SCORE.norm>
-0.286281

>  <RMSD>
7.802

$$$$
ligand
 OpenBabel11021811493D
libRbt.so/2013.1/901 2013/11/27
 31 33  0  0  0  0  0  0  0  0999 V2000
   23.5383  -14.0750   -4.2458 C   0  0  2  0  0  0  0  0  0  0  0  0
   22.5981  -13.8793   -3.1809 O   0  0  0  0  0  0  0  0  0  0  0  0
   20.6450  -10.2555   -2.0664 C   0  0  2  0  0  0  0  0  0  0  0  0
   20.4575   -8.9336   -1.5711 N   0  0  0  0  0  0  0  0  0  0  0  0
   20.2276   -9.8585   -5.2615 C   0  0  2  0  0  0  0  0  0  0  0  0
   23.5912  -15.6082   -4.5290 C   0  0  2  0  0  0  0  0  0  0  0  0
   22.2461  -16.0766   -4.8568 N   0  0  0  0  0  0  0  0  0  0  0  0
   21.1914  -11.1708   -0.9075 C   0  0  0  0  0  0  0  0  0  0  0  0
   20.2954   -8.7786   -6.3750 C   0  0  2  0  0  0  0  0  0  0  0  0
   21.6289   -8.6715   -6.8185 O   0  0  0  0  0  0  0  0  0  0  0  0
   24.1845  -16.3738   -3.2842 C   0  0  0  0  0  0  0  0  0  0  0  0
   21.3982  -12.6391   -1.4615 C   0  0  2  0  0  0  0  0  0  0  0  0
   21.9142  -13.5015   -0.3788 N   0  0  0  0  0  0  0  0  0  0  0  0
   19.7774   -7.4148   -5.7675 C   0  0  1  0  0  0  0  0  0  0  0  0
   19.8451   -6.3390   -6.7966 N   0  0  0  0  0  0  0  0  0  0  0  0
   25.2509  -15.5283   -2.4975 C   0  0  0  0  0  0  0  0  0  0  0  0
   22.4264  -12.5942   -2.6708 C   0  0  2  0  0  0  0  0  0  0  0  0
   18.2374   -7.5908   -5.2694 C   0  0  1  0  0  0  0  0  0  0  0  0
   17.3567   -7.9328   -6.3115 O   0  0  0  0  0  0  0  0  0  0  0  0
   25.5215  -14.2581   -2.8329 C   0  0  1  0  0  0  0  0  0  0  0  0
   24.8731  -13.6100   -3.9095 O   0  0  0  0  0  0  0  0  0  0  0  0
   21.8669  -11.6589   -3.8034 C   0  0  2  0  0  0  0  0  0  0  0  0
   22.8019  -11.6155   -4.8798 O   0  0  0  0  0  0  0  0  0  0  0  0
   18.1793   -8.7243   -4.1990 C   0  0  0  0  0  0  0  0  0  0  0  0
   18.8196   -9.9883   -4.7367 O   0  0  0  0  0  0  0  0  0  0  0  0
   26.5495  -13.3950   -2.0756 C   0  0  0  0  0  0  0  0  0  0  0  0
   26.0296  -12.0507   -1.9541 N   0  0  0  0  0  0  0  0  0  0  0  0
   21.6592  -10.2071   -3.2281 C   0  0  1  0  0  0  0  0  0  0  0  0
   21.1522   -9.4019   -4.2515 O   0  0  0  0  0  0  0  0  0  0  0  0
   17.5880   -6.3442   -4.6519 C   0  0  0  0  0  0  0  0  0  0  0  0
   21.0107   -5.4447   -6.7245 C   0  0  0  0  0  0  0  0  0  0  0  0
  1  2  1  1  0  0  0
  1  6  1  0  0  0  0
  1 21  1  0  0  0  0
  3  4  1  1  0  0  0
  3  8  1  0  0  0  0
  3 28  1  0  0  0  0
  5  9  1  0  0  0  0
  5 25  1  0  0  0  0
  5 29  1  1  0  0  0
  6  7  1  1  0  0  0
  6 11  1  0  0  0  0
  8 12  1  0  0  0  0
  9 10  1  1  0  0  0
  9 14  1  0  0  0  0
 11 16  1  0  0  0  0
 12 13  1  1  0  0  0
 12 17  1  0  0  0  0
 14 15  1  6  0  0  0
 14 18  1  0  0  0  0
 15 31  1  0  0  0  0
 16 20  1  0  0  0  0
 17  2  1  6  0  0  0
 17 22  1  0  0  0  0
 18 19  1  6  0  0  0
 18 24  1  0  0  0  0
 18 30  1  0  0  0  0
 20 21  1  0  0  0  0
 20 26  1  1  0  0  0
 22 23  1  6  0  0  0
 22 28  1  0  0  0  0
 24 25  1  0  0  0  0
 26 27  1  0  0  0  0
 28 29  1  6  0  0  0
M  END
>  <CHROM.1>
175.84952312,-163.65530337,-99.05290871,-177.18250035,-140.29447827,-83.35400259
21.69277449,-11.06254366,-3.95339733,-0.70783816,0.73065550,-1.02648878

>  <Name>
ligand

>  <RI>
0

>  <Rbt.Current_Directory>
/home/itssahil/PROJECTS/Mol_Feturizer/New_Systems/rnas/4F8V

>  <Rbt.Executable>
rbdock ($Id: //depot/dev/client3/rdock/2013.1/src/exe/rbdock.cxx#4 $)

>  <Rbt.Library>
libRbt.so (2013.1, Build901 2013/11/27)

>  <Rbt.Parameter_File>
/export/apps/rDock/src/rDock_2013.1_src/data/scripts/dock_solv.prm

>  <Rbt.Receptor>
prm/pocket_docking_2.prm

>  <SCORE>
-11.8964

>  <SCORE.INTER>
-9.28482

>  <SCORE.INTER.CONST>
1

>  <SCORE.INTER.POLAR>
0

>  <SCORE.INTER.ROT>
6

>  <SCORE.INTER.SOLV>
18.4827

>  <SCORE.INTER.VDW>
-19.9508

>  <SCORE.INTER.norm>
-0.29951

>  <SCORE.INTRA>
-2.95864

>  <SCORE.INTRA.DIHEDRAL>
-9.13078

>  <SCORE.INTRA.DIHEDRAL.0>
15.9129

>  <SCORE.INTRA.POLAR>
0

>  <SCORE.INTRA.POLAR.0>
0

>  <SCORE.INTRA.REPUL>
0

>  <SCORE.INTRA.REPUL.0>
0

>  <SCORE.INTRA.SOLV>
-1.30593

>  <SCORE.INTRA.SOLV.lig_0>
-75.7056

>  <SCORE.INTRA.VDW>
2.25972

>  <SCORE.INTRA.VDW.0>
-4.61812

>  <SCORE.INTRA.norm>
-0.0954398

>  <SCORE.RESTR>
0.347092

>  <SCORE.RESTR.CAVITY>
0.347092

>  <SCORE.RESTR.norm>
0.0111965

>  <SCORE.SYSTEM>
0

>  <SCORE.SYSTEM.CONST>
0

>  <SCORE.SYSTEM.DIHEDRAL>
0

>  <SCORE.SYSTEM.SOLV>
0

>  <SCORE.SYSTEM.norm>
0

>  <SCORE.heavy>
31

>  <SCORE.norm>
-0.383754

>  <RMSD>
7.909

$$$$
ligand
 OpenBabel11021811493D
libRbt.so/2013.1/901 2013/11/27
 31 33  0  0  0  0  0  0  0  0999 V2000
   26.1291  -12.6815   -2.8647 C   0  0  2  0  0  0  0  0  0  0  0  0
   25.7271  -13.9025   -3.5003 O   0  0  0  0  0  0  0  0  0  0  0  0
   22.1830  -14.7195   -5.7275 C   0  0  2  0  0  0  0  0  0  0  0  0
   20.8026  -14.8986   -6.0284 N   0  0  0  0  0  0  0  0  0  0  0  0
   20.6467  -11.9502   -6.4029 C   0  0  2  0  0  0  0  0  0  0  0  0
   27.5767  -12.9043   -2.3276 C   0  0  2  0  0  0  0  0  0  0  0  0
   28.4428  -13.2841   -3.4418 N   0  0  0  0  0  0  0  0  0  0  0  0
   22.6191  -15.7767   -4.6452 C   0  0  0  0  0  0  0  0  0  0  0  0
   20.7705  -10.7076   -7.3255 C   0  0  2  0  0  0  0  0  0  0  0  0
   21.4745  -11.0783   -8.4888 O   0  0  0  0  0  0  0  0  0  0  0  0
   27.5762  -14.0006   -1.1936 C   0  0  0  0  0  0  0  0  0  0  0  0
   24.1537  -15.5749   -4.3136 C   0  0  2  0  0  0  0  0  0  0  0  0
   24.5675  -16.5624   -3.2958 N   0  0  0  0  0  0  0  0  0  0  0  0
   21.5312   -9.5769   -6.5256 C   0  0  1  0  0  0  0  0  0  0  0  0
   21.6942   -8.3676   -7.3812 N   0  0  0  0  0  0  0  0  0  0  0  0
   26.2512  -14.0051   -0.3478 C   0  0  0  0  0  0  0  0  0  0  0  0
   24.3750  -14.0980   -3.7737 C   0  0  2  0  0  0  0  0  0  0  0  0
   20.6807   -9.1863   -5.1934 C   0  0  1  0  0  0  0  0  0  0  0  0
   19.3986   -8.6863   -5.4849 O   0  0  0  0  0  0  0  0  0  0  0  0
   25.2202  -13.2059   -0.6598 C   0  0  1  0  0  0  0  0  0  0  0  0
   25.2648  -12.3140   -1.7561 O   0  0  0  0  0  0  0  0  0  0  0  0
   23.9132  -13.0641   -4.8639 C   0  0  2  0  0  0  0  0  0  0  0  0
   24.1047  -11.7412   -4.3660 O   0  0  0  0  0  0  0  0  0  0  0  0
   20.5106  -10.4615   -4.3109 C   0  0  0  0  0  0  0  0  0  0  0  0
   19.9215  -11.5925   -5.1297 O   0  0  0  0  0  0  0  0  0  0  0  0
   23.9014  -13.1941    0.1377 C   0  0  0  0  0  0  0  0  0  0  0  0
   23.6221  -11.8378    0.5558 N   0  0  0  0  0  0  0  0  0  0  0  0
   22.3876  -13.2894   -5.1857 C   0  0  1  0  0  0  0  0  0  0  0  0
   22.0081  -12.3657   -6.1633 O   0  0  0  0  0  0  0  0  0  0  0  0
   21.2933   -8.0935   -4.3058 C   0  0  0  0  0  0  0  0  0  0  0  0
   23.0655   -8.0604   -7.8159 C   0  0  0  0  0  0  0  0  0  0  0  0
  1  2  1  1  0  0  0
  1  6  1  0  0  0  0
  1 21  1  0  0  0  0
  3  4  1  1  0  0  0
  3  8  1  0  0  0  0
  3 28  1  0  0  0  0
  5  9  1  0  0  0  0
  5 25  1  0  0  0  0
  5 29  1  1  0  0  0
  6  7  1  6  0  0  0
  6 11  1  0  0  0  0
  8 12  1  0  0  0  0
  9 10  1  6  0  0  0
  9 14  1  0  0  0  0
 11 16  1  0  0  0  0
 12 13  1  1  0  0  0
 12 17  1  0  0  0  0
 14 15  1  6  0  0  0
 14 18  1  0  0  0  0
 15 31  1  0  0  0  0
 16 20  1  0  0  0  0
 17  2  1  6  0  0  0
 17 22  1  0  0  0  0
 18 19  1  6  0  0  0
 18 24  1  0  0  0  0
 18 30  1  0  0  0  0
 20 21  1  0  0  0  0
 20 26  1  6  0  0  0
 22 23  1  1  0  0  0
 22 28  1  0  0  0  0
 24 25  1  0  0  0  0
 26 27  1  0  0  0  0
 28 29  1  6  0  0  0
M  END
>  <CHROM.1>
164.30526613,167.33758973,-110.66019008,-173.34661934,125.79026153,82.43278319
23.26176395,-12.25608085,-4.28189775,-0.33660419,-0.83391715,0.26223986

>  <Name>
ligand

>  <RI>
0

>  <Rbt.Current_Directory>
/home/itssahil/PROJECTS/Mol_Feturizer/New_Systems/rnas/4F8V

>  <Rbt.Executable>
rbdock ($Id: //depot/dev/client3/rdock/2013.1/src/exe/rbdock.cxx#4 $)

>  <Rbt.Library>
libRbt.so (2013.1, Build901 2013/11/27)

>  <Rbt.Parameter_File>
/export/apps/rDock/src/rDock_2013.1_src/data/scripts/dock_solv.prm

>  <Rbt.Receptor>
prm/pocket_docking_3.prm

>  <SCORE>
-5.47749

>  <SCORE.INTER>
-1.48254

>  <SCORE.INTER.CONST>
1

>  <SCORE.INTER.POLAR>
0

>  <SCORE.INTER.ROT>
6

>  <SCORE.INTER.SOLV>
16.5279

>  <SCORE.INTER.VDW>
-14.0977

>  <SCORE.INTER.norm>
-0.047824

>  <SCORE.INTRA>
-4.25972

>  <SCORE.INTRA.DIHEDRAL>
-8.71918

>  <SCORE.INTRA.DIHEDRAL.0>
15.9129

>  <SCORE.INTRA.POLAR>
0

>  <SCORE.INTRA.POLAR.0>
0

>  <SCORE.INTRA.REPUL>
0

>  <SCORE.INTRA.REPUL.0>
0

>  <SCORE.INTRA.SOLV>
-2.41282

>  <SCORE.INTRA.SOLV.lig_0>
-75.7056

>  <SCORE.INTRA.VDW>
1.30628

>  <SCORE.INTRA.VDW.0>
-4.61812

>  <SCORE.INTRA.norm>
-0.13741

>  <SCORE.RESTR>
0.264777

>  <SCORE.RESTR.CAVITY>
0.264777

>  <SCORE.RESTR.norm>
0.00854121

>  <SCORE.SYSTEM>
0

>  <SCORE.SYSTEM.CONST>
0

>  <SCORE.SYSTEM.DIHEDRAL>
0

>  <SCORE.SYSTEM.SOLV>
0

>  <SCORE.SYSTEM.norm>
0

>  <SCORE.heavy>
31

>  <SCORE.norm>
-0.176693

>  <RMSD>
7.914

$$$$
ligand
 OpenBabel11021811493D
libRbt.so/2013.1/901 2013/11/27
 31 33  0  0  0  0  0  0  0  0999 V2000
   23.3786  -14.2109   -3.8260 C   0  0  2  0  0  0  0  0  0  0  0  0
   24.2229  -13.3387   -3.0626 O   0  0  0  0  0  0  0  0  0  0  0  0
   21.3901  -10.2412   -2.3080 C   0  0  2  0  0  0  0  0  0  0  0  0
   20.8600   -8.9769   -1.9225 N   0  0  0  0  0  0  0  0  0  0  0  0
   20.9110  -10.1261   -5.4247 C   0  0  2  0  0  0  0  0  0  0  0  0
   23.1185  -15.4741   -2.9483 C   0  0  2  0  0  0  0  0  0  0  0  0
   22.5187  -15.0569   -1.6825 N   0  0  0  0  0  0  0  0  0  0  0  0
   22.0727  -10.9191   -1.0613 C   0  0  0  0  0  0  0  0  0  0  0  0
   20.5406   -9.0761   -6.5068 C   0  0  2  0  0  0  0  0  0  0  0  0
   21.7268   -8.6170   -7.1140 O   0  0  0  0  0  0  0  0  0  0  0  0
   24.4627  -16.2670   -2.7196 C   0  0  0  0  0  0  0  0  0  0  0  0
   22.6602  -12.3240   -1.4934 C   0  0  2  0  0  0  0  0  0  0  0  0
   23.3050  -12.9629   -0.3279 N   0  0  0  0  0  0  0  0  0  0  0  0
   19.7601   -7.8979   -5.7998 C   0  0  1  0  0  0  0  0  0  0  0  0
   19.4018   -6.8512   -6.7984 N   0  0  0  0  0  0  0  0  0  0  0  0
   25.4515  -16.1583   -3.9367 C   0  0  0  0  0  0  0  0  0  0  0  0
   23.7162  -12.1052   -2.6590 C   0  0  2  0  0  0  0  0  0  0  0  0
   18.4025   -8.4786   -5.1141 C   0  0  1  0  0  0  0  0  0  0  0  0
   17.5172   -9.0528   -6.0443 O   0  0  0  0  0  0  0  0  0  0  0  0
   25.1752  -15.3811   -4.9944 C   0  0  1  0  0  0  0  0  0  0  0  0
   23.9846  -14.6234   -5.0805 O   0  0  0  0  0  0  0  0  0  0  0  0
   23.0145  -11.4096   -3.8815 C   0  0  2  0  0  0  0  0  0  0  0  0
   23.9727  -11.2067   -4.9185 O   0  0  0  0  0  0  0  0  0  0  0  0
   18.7907   -9.5779   -4.0774 C   0  0  0  0  0  0  0  0  0  0  0  0
   19.6704  -10.6265   -4.7280 O   0  0  0  0  0  0  0  0  0  0  0  0
   26.1273  -15.2392   -6.1981 C   0  0  0  0  0  0  0  0  0  0  0  0
   26.5407  -13.8571   -6.3045 N   0  0  0  0  0  0  0  0  0  0  0  0
   22.4288  -10.0195   -3.4271 C   0  0  1  0  0  0  0  0  0  0  0  0
   21.8031   -9.4298   -4.5287 O   0  0  0  0  0  0  0  0  0  0  0  0
   17.5292   -7.4484   -4.3837 C   0  0  0  0  0  0  0  0  0  0  0  0
   19.4803   -5.4576   -6.3342 C   0  0  0  0  0  0  0  0  0  0  0  0
  1  2  1  1  0  0  0
  1  6  1  0  0  0  0
  1 21  1  0  0  0  0
  3  4  1  1  0  0  0
  3  8  1  0  0  0  0
  3 28  1  0  0  0  0
  5  9  1  0  0  0  0
  5 25  1  0  0  0  0
  5 29  1  1  0  0  0
  6  7  1  1  0  0  0
  6 11  1  0  0  0  0
  8 12  1  0  0  0  0
  9 10  1  1  0  0  0
  9 14  1  0  0  0  0
 11 16  1  0  0  0  0
 12 13  1  1  0  0  0
 12 17  1  0  0  0  0
 14 15  1  6  0  0  0
 14 18  1  0  0  0  0
 15 31  1  0  0  0  0
 16 20  1  0  0  0  0
 17  2  1  6  0  0  0
 17 22  1  0  0  0  0
 18 19  1  6  0  0  0
 18 24  1  0  0  0  0
 18 30  1  0  0  0  0
 20 21  1  0  0  0  0
 20 26  1  1  0  0  0
 22 23  1  6  0  0  0
 22 28  1  0  0  0  0
 24 25  1  0  0  0  0
 26 27  1  0  0  0  0
 28 29  1  6  0  0  0
M  END
>  <CHROM.1>
-114.92173274,-177.30416238,-142.62782441,72.88964389,-118.38588496,-73.51751901
22.04798195,-11.33924050,-4.21644125,-0.51152696,0.80901385,-1.15989417

>  <Name>
ligand

>  <RI>
0

>  <Rbt.Current_Directory>
/home/itssahil/PROJECTS/Mol_Feturizer/New_Systems/rnas/4F8V

>  <Rbt.Executable>
rbdock ($Id: //depot/dev/client3/rdock/2013.1/src/exe/rbdock.cxx#4 $)

>  <Rbt.Library>
libRbt.so (2013.1, Build901 2013/11/27)

>  <Rbt.Parameter_File>
/export/apps/rDock/src/rDock_2013.1_src/data/scripts/dock_solv.prm

>  <Rbt.Receptor>
prm/pocket_docking_3.prm

>  <SCORE>
-7.13475

>  <SCORE.INTER>
-9.80602

>  <SCORE.INTER.CONST>
1

>  <SCORE.INTER.POLAR>
0

>  <SCORE.INTER.ROT>
6

>  <SCORE.INTER.SOLV>
15.6223

>  <SCORE.INTER.VDW>
-19.3448

>  <SCORE.INTER.norm>
-0.316323

>  <SCORE.INTRA>
2.67128

>  <SCORE.INTRA.DIHEDRAL>
-4.638

>  <SCORE.INTRA.DIHEDRAL.0>
15.9129

>  <SCORE.INTRA.POLAR>
0

>  <SCORE.INTRA.POLAR.0>
0

>  <SCORE.INTRA.REPUL>
0

>  <SCORE.INTRA.REPUL.0>
0

>  <SCORE.INTRA.SOLV>
4.18096

>  <SCORE.INTRA.SOLV.lig_0>
-75.7056

>  <SCORE.INTRA.VDW>
2.8998

>  <SCORE.INTRA.VDW.0>
-4.61812

>  <SCORE.INTRA.norm>
0.0861702

>  <SCORE.RESTR>
0

>  <SCORE.RESTR.CAVITY>
0

>  <SCORE.RESTR.norm>
0

>  <SCORE.SYSTEM>
0

>  <SCORE.SYSTEM.CONST>
0

>  <SCORE.SYSTEM.DIHEDRAL>
0

>  <SCORE.SYSTEM.SOLV>
0

>  <SCORE.SYSTEM.norm>
0

>  <SCORE.heavy>
31

>  <SCORE.norm>
-0.230153

>  <RMSD>
7.918

$$$$
ligand
 OpenBabel11021811493D
libRbt.so/2013.1/901 2013/11/27
 31 33  0  0  0  0  0  0  0  0999 V2000
   23.5237  -13.9851   -4.2214 C   0  0  2  0  0  0  0  0  0  0  0  0
   22.5270  -13.7838   -3.2102 O   0  0  0  0  0  0  0  0  0  0  0  0
   20.6219  -10.1812   -1.9530 C   0  0  2  0  0  0  0  0  0  0  0  0
   20.4547   -8.8698   -1.4235 N   0  0  0  0  0  0  0  0  0  0  0  0
   20.2097   -9.7444   -5.2086 C   0  0  2  0  0  0  0  0  0  0  0  0
   23.5147  -15.5053   -4.5716 C   0  0  2  0  0  0  0  0  0  0  0  0
   22.1714  -15.8842   -5.0054 N   0  0  0  0  0  0  0  0  0  0  0  0
   21.2051  -11.1221   -0.8331 C   0  0  0  0  0  0  0  0  0  0  0  0
   20.2909   -8.6274   -6.2840 C   0  0  2  0  0  0  0  0  0  0  0  0
   21.6407   -8.4502   -6.6488 O   0  0  0  0  0  0  0  0  0  0  0  0
   23.9840  -16.3554   -3.3286 C   0  0  0  0  0  0  0  0  0  0  0  0
   21.3892  -12.5785   -1.4250 C   0  0  2  0  0  0  0  0  0  0  0  0
   21.9395  -13.4648   -0.3791 N   0  0  0  0  0  0  0  0  0  0  0  0
   19.6813   -7.3068   -5.6661 C   0  0  1  0  0  0  0  0  0  0  0  0
   19.7579   -6.1966   -6.6575 N   0  0  0  0  0  0  0  0  0  0  0  0
   25.0392  -15.6047   -2.4376 C   0  0  0  0  0  0  0  0  0  0  0  0
   22.3760  -12.5096   -2.6673 C   0  0  2  0  0  0  0  0  0  0  0  0
   18.1256   -7.5633   -5.2605 C   0  0  1  0  0  0  0  0  0  0  0  0
   17.3189   -7.9084   -6.3600 O   0  0  0  0  0  0  0  0  0  0  0  0
   25.3973  -14.3381   -2.6958 C   0  0  1  0  0  0  0  0  0  0  0  0
   24.8560  -13.6095   -3.7799 O   0  0  0  0  0  0  0  0  0  0  0  0
   21.7807  -11.5493   -3.7600 C   0  0  2  0  0  0  0  0  0  0  0  0
   22.6787  -11.4846   -4.8664 O   0  0  0  0  0  0  0  0  0  0  0  0
   18.0587   -8.7320   -4.2292 C   0  0  0  0  0  0  0  0  0  0  0  0
   18.7822   -9.9500   -4.7675 O   0  0  0  0  0  0  0  0  0  0  0  0
   26.4172  -13.5665   -1.8356 C   0  0  0  0  0  0  0  0  0  0  0  0
   25.7648  -12.4072   -1.2675 N   0  0  0  0  0  0  0  0  0  0  0  0
   21.5963  -10.1098   -3.1472 C   0  0  1  0  0  0  0  0  0  0  0  0
   21.0568   -9.2819   -4.1354 O   0  0  0  0  0  0  0  0  0  0  0  0
   17.3895   -6.3655   -4.6435 C   0  0  0  0  0  0  0  0  0  0  0  0
   20.9936   -5.3986   -6.6436 C   0  0  0  0  0  0  0  0  0  0  0  0
  1  2  1  1  0  0  0
  1  6  1  0  0  0  0
  1 21  1  0  0  0  0
  3  4  1  1  0  0  0
  3  8  1  0  0  0  0
  3 28  1  0  0  0  0
  5  9  1  0  0  0  0
  5 25  1  0  0  0  0
  5 29  1  1  0  0  0
  6  7  1  1  0  0  0
  6 11  1  0  0  0  0
  8 12  1  0  0  0  0
  9 10  1  1  0  0  0
  9 14  1  0  0  0  0
 11 16  1  0  0  0  0
 12 13  1  1  0  0  0
 12 17  1  0  0  0  0
 14 15  1  6  0  0  0
 14 18  1  0  0  0  0
 15 31  1  0  0  0  0
 16 20  1  0  0  0  0
 17  2  1  6  0  0  0
 17 22  1  0  0  0  0
 18 19  1  6  0  0  0
 18 24  1  0  0  0  0
 18 30  1  0  0  0  0
 20 21  1  0  0  0  0
 20 26  1  1  0  0  0
 22 23  1  6  0  0  0
 22 28  1  0  0  0  0
 24 25  1  0  0  0  0
 26 27  1  0  0  0  0
 28 29  1  6  0  0  0
M  END
>  <CHROM.1>
176.80839443,-160.32199087,-88.76876551,-171.17588438,-119.04816185,-90.28603683
21.61809437,-11.01422229,-3.88325217,-0.53215430,0.86264104,-1.28359645

>  <Name>
ligand

>  <RI>
0

>  <Rbt.Current_Directory>
/home/itssahil/PROJECTS/Mol_Feturizer/New_Systems/rnas/4F8V

>  <Rbt.Executable>
rbdock ($Id: //depot/dev/client3/rdock/2013.1/src/exe/rbdock.cxx#4 $)

>  <Rbt.Library>
libRbt.so (2013.1, Build901 2013/11/27)

>  <Rbt.Parameter_File>
/export/apps/rDock/src/rDock_2013.1_src/data/scripts/dock_solv.prm

>  <Rbt.Receptor>
prm/pocket_docking_2.prm

>  <SCORE>
-11.4185

>  <SCORE.INTER>
-9.51547

>  <SCORE.INTER.CONST>
1

>  <SCORE.INTER.POLAR>
0

>  <SCORE.INTER.ROT>
6

>  <SCORE.INTER.SOLV>
18.1829

>  <SCORE.INTER.VDW>
-20.0046

>  <SCORE.INTER.norm>
-0.306951

>  <SCORE.INTRA>
-2.11371

>  <SCORE.INTRA.DIHEDRAL>
-7.84061

>  <SCORE.INTRA.DIHEDRAL.0>
15.9129

>  <SCORE.INTRA.POLAR>
0

>  <SCORE.INTRA.POLAR.0>
0

>  <SCORE.INTRA.REPUL>
0

>  <SCORE.INTRA.REPUL.0>
0

>  <SCORE.INTRA.SOLV>
-0.83027

>  <SCORE.INTRA.SOLV.lig_0>
-75.7056

>  <SCORE.INTRA.VDW>
2.22173

>  <SCORE.INTRA.VDW.0>
-4.61812

>  <SCORE.INTRA.norm>
-0.0681842

>  <SCORE.RESTR>
0.210645

>  <SCORE.RESTR.CAVITY>
0.210645

>  <SCORE.RESTR.norm>
0.00679501

>  <SCORE.SYSTEM>
0

>  <SCORE.SYSTEM.CONST>
0

>  <SCORE.SYSTEM.DIHEDRAL>
0

>  <SCORE.SYSTEM.SOLV>
0

>  <SCORE.SYSTEM.norm>
0

>  <SCORE.heavy>
31

>  <SCORE.norm>
-0.36834

>  <RMSD>
7.920

$$$$
ligand
 OpenBabel11021811493D
libRbt.so/2013.1/901 2013/11/27
 31 33  0  0  0  0  0  0  0  0999 V2000
   20.9235  -10.0408    0.4410 C   0  0  2  0  0  0  0  0  0  0  0  0
   21.5078   -8.7679    0.7489 O   0  0  0  0  0  0  0  0  0  0  0  0
   23.5278   -6.0392   -1.8323 C   0  0  2  0  0  0  0  0  0  0  0  0
   24.5074   -5.5151   -2.7231 N   0  0  0  0  0  0  0  0  0  0  0  0
   22.9858   -7.0878   -4.9509 C   0  0  2  0  0  0  0  0  0  0  0  0
   20.0143  -10.4272    1.6484 C   0  0  2  0  0  0  0  0  0  0  0  0
   19.0219   -9.3735    1.8511 N   0  0  0  0  0  0  0  0  0  0  0  0
   24.2069   -6.3679   -0.4501 C   0  0  0  0  0  0  0  0  0  0  0  0
   21.9905   -6.4342   -5.9472 C   0  0  2  0  0  0  0  0  0  0  0  0
   21.7195   -5.1198   -5.5166 O   0  0  0  0  0  0  0  0  0  0  0  0
   20.8894  -10.6560    2.9405 C   0  0  0  0  0  0  0  0  0  0  0  0
   23.1152   -6.9498    0.5374 C   0  0  2  0  0  0  0  0  0  0  0  0
   23.7478   -7.2632    1.8350 N   0  0  0  0  0  0  0  0  0  0  0  0
   20.6784   -7.3142   -5.9778 C   0  0  1  0  0  0  0  0  0  0  0  0
   19.6811   -6.7118   -6.9071 N   0  0  0  0  0  0  0  0  0  0  0  0
   22.3159  -11.2325    2.6187 C   0  0  0  0  0  0  0  0  0  0  0  0
   22.4867   -8.2602   -0.1025 C   0  0  2  0  0  0  0  0  0  0  0  0
   21.0441   -8.8196   -6.4786 C   0  0  1  0  0  0  0  0  0  0  0  0
   21.5865   -8.8523   -7.7761 O   0  0  0  0  0  0  0  0  0  0  0  0
   22.7321  -11.4031    1.3550 C   0  0  1  0  0  0  0  0  0  0  0  0
   21.9171  -11.0826    0.2450 O   0  0  0  0  0  0  0  0  0  0  0  0
   21.8345   -7.9086   -1.4888 C   0  0  2  0  0  0  0  0  0  0  0  0
   21.2831   -9.0931   -2.0611 O   0  0  0  0  0  0  0  0  0  0  0  0
   22.0939   -9.4354   -5.5027 C   0  0  0  0  0  0  0  0  0  0  0  0
   23.2845   -8.5089   -5.3586 O   0  0  0  0  0  0  0  0  0  0  0  0
   24.1285  -11.9519    1.0023 C   0  0  0  0  0  0  0  0  0  0  0  0
   24.7982  -11.0022    0.1409 N   0  0  0  0  0  0  0  0  0  0  0  0
   22.9352   -7.3223   -2.4513 C   0  0  1  0  0  0  0  0  0  0  0  0
   22.3261   -7.0094   -3.6695 O   0  0  0  0  0  0  0  0  0  0  0  0
   19.8661   -9.8007   -6.5626 C   0  0  0  0  0  0  0  0  0  0  0  0
   18.6707   -5.8352   -6.2950 C   0  0  0  0  0  0  0  0  0  0  0  0
  1  2  1  1  0  0  0
  1  6  1  0  0  0  0
  1 21  1  0  0  0  0
  3  4  1  6  0  0  0
  3  8  1  0  0  0  0
  3 28  1  0  0  0  0
  5  9  1  0  0  0  0
  5 25  1  0  0  0  0
  5 29  1  1  0  0  0
  6  7  1  1  0  0  0
  6 11  1  0  0  0  0
  8 12  1  0  0  0  0
  9 10  1  1  0  0  0
  9 14  1  0  0  0  0
 11 16  1  0  0  0  0
 12 13  1  1  0  0  0
 12 17  1  0  0  0  0
 14 15  1  6  0  0  0
 14 18  1  0  0  0  0
 15 31  1  0  0  0  0
 16 20  1  0  0  0  0
 17  2  1  1  0  0  0
 17 22  1  0  0  0  0
 18 19  1  6  0  0  0
 18 24  1  0  0  0  0
 18 30  1  0  0  0  0
 20 21  1  0  0  0  0
 20 26  1  6  0  0  0
 22 23  1  6  0  0  0
 22 28  1  0  0  0  0
 24 25  1  0  0  0  0
 26 27  1  0  0  0  0
 28 29  1  6  0  0  0
M  END
>  <CHROM.1>
172.81248328,-171.19683296,-95.39598814,-172.56479328,-124.16018739,92.91207297
21.98146533,-8.43927327,-2.20005759,1.38385779,0.87400349,2.06120969

>  <Name>
ligand

>  <RI>
0

>  <Rbt.Current_Directory>
/home/itssahil/PROJECTS/Mol_Feturizer/New_Systems/rnas/4F8V

>  <Rbt.Executable>
rbdock ($Id: //depot/dev/client3/rdock/2013.1/src/exe/rbdock.cxx#4 $)

>  <Rbt.Library>
libRbt.so (2013.1, Build901 2013/11/27)

>  <Rbt.Parameter_File>
/export/apps/rDock/src/rDock_2013.1_src/data/scripts/dock_solv.prm

>  <Rbt.Receptor>
prm/pocket_docking_8.prm

>  <SCORE>
-9.15597

>  <SCORE.INTER>
-5.4372

>  <SCORE.INTER.CONST>
1

>  <SCORE.INTER.POLAR>
0

>  <SCORE.INTER.ROT>
6

>  <SCORE.INTER.SOLV>
17.6787

>  <SCORE.INTER.VDW>
-17.1177

>  <SCORE.INTER.norm>
-0.175394

>  <SCORE.INTRA>
-3.71877

>  <SCORE.INTRA.DIHEDRAL>
-8.39959

>  <SCORE.INTRA.DIHEDRAL.0>
15.9129

>  <SCORE.INTRA.POLAR>
0

>  <SCORE.INTRA.POLAR.0>
0

>  <SCORE.INTRA.REPUL>
0

>  <SCORE.INTRA.REPUL.0>
0

>  <SCORE.INTRA.SOLV>
-1.13179

>  <SCORE.INTRA.SOLV.lig_0>
-75.7056

>  <SCORE.INTRA.VDW>
1.04692

>  <SCORE.INTRA.VDW.0>
-4.61812

>  <SCORE.INTRA.norm>
-0.11996

>  <SCORE.RESTR>
0

>  <SCORE.RESTR.CAVITY>
0

>  <SCORE.RESTR.norm>
0

>  <SCORE.SYSTEM>
0

>  <SCORE.SYSTEM.CONST>
0

>  <SCORE.SYSTEM.DIHEDRAL>
0

>  <SCORE.SYSTEM.SOLV>
0

>  <SCORE.SYSTEM.norm>
0

>  <SCORE.heavy>
31

>  <SCORE.norm>
-0.295354

>  <RMSD>
7.923

$$$$
ligand
 OpenBabel11021811493D
libRbt.so/2013.1/901 2013/11/27
 31 33  0  0  0  0  0  0  0  0999 V2000
   24.4077  -14.0367   -4.5338 C   0  0  2  0  0  0  0  0  0  0  0  0
   23.1420  -13.4653   -4.1761 O   0  0  0  0  0  0  0  0  0  0  0  0
   21.9534   -9.3710   -4.0641 C   0  0  2  0  0  0  0  0  0  0  0  0
   21.9163   -7.9978   -3.6888 N   0  0  0  0  0  0  0  0  0  0  0  0
   24.9733   -8.7272   -6.2465 C   0  0  2  0  0  0  0  0  0  0  0  0
   24.1615  -15.5537   -4.8022 C   0  0  2  0  0  0  0  0  0  0  0  0
   23.1520  -15.6922   -5.8500 N   0  0  0  0  0  0  0  0  0  0  0  0
   21.6098  -10.2604   -2.8109 C   0  0  0  0  0  0  0  0  0  0  0  0
   24.9299   -7.3234   -6.9084 C   0  0  2  0  0  0  0  0  0  0  0  0
   24.5710   -6.3746   -5.9299 O   0  0  0  0  0  0  0  0  0  0  0  0
   23.7210  -16.2796   -3.4730 C   0  0  0  0  0  0  0  0  0  0  0  0
   21.6516  -11.7857   -3.2318 C   0  0  2  0  0  0  0  0  0  0  0  0
   21.3332  -12.6250   -2.0586 N   0  0  0  0  0  0  0  0  0  0  0  0
   23.8748   -7.3682   -8.0840 C   0  0  1  0  0  0  0  0  0  0  0  0
   23.7815   -6.0320   -8.7375 N   0  0  0  0  0  0  0  0  0  0  0  0
   24.3690  -15.6480   -2.1877 C   0  0  0  0  0  0  0  0  0  0  0  0
   23.1012  -12.1298   -3.7813 C   0  0  2  0  0  0  0  0  0  0  0  0
   24.3325   -8.4776   -9.1842 C   0  0  1  0  0  0  0  0  0  0  0  0
   25.5804   -8.1930   -9.7678 O   0  0  0  0  0  0  0  0  0  0  0  0
   25.1326  -14.5475   -2.2586 C   0  0  1  0  0  0  0  0  0  0  0  0
   25.4035  -13.8978   -3.4849 O   0  0  0  0  0  0  0  0  0  0  0  0
   23.4267  -11.2150   -5.0174 C   0  0  2  0  0  0  0  0  0  0  0  0
   24.7344  -11.5229   -5.4967 O   0  0  0  0  0  0  0  0  0  0  0  0
   24.4339   -9.8691   -8.4862 C   0  0  0  0  0  0  0  0  0  0  0  0
   25.3280   -9.7808   -7.2657 O   0  0  0  0  0  0  0  0  0  0  0  0
   25.7718  -13.8929   -1.0183 C   0  0  0  0  0  0  0  0  0  0  0  0
   27.1658  -13.6270   -1.2983 N   0  0  0  0  0  0  0  0  0  0  0  0
   23.3695   -9.7030   -4.5789 C   0  0  1  0  0  0  0  0  0  0  0  0
   23.6516   -8.9145   -5.6976 O   0  0  0  0  0  0  0  0  0  0  0  0
   23.4039   -8.6398  -10.3961 C   0  0  0  0  0  0  0  0  0  0  0  0
   22.9313   -5.0384   -8.0640 C   0  0  0  0  0  0  0  0  0  0  0  0
  1  2  1  1  0  0  0
  1  6  1  0  0  0  0
  1 21  1  0  0  0  0
  3  4  1  1  0  0  0
  3  8  1  0  0  0  0
  3 28  1  0  0  0  0
  5  9  1  0  0  0  0
  5 25  1  0  0  0  0
  5 29  1  6  0  0  0
  6  7  1  6  0  0  0
  6 11  1  0  0  0  0
  8 12  1  0  0  0  0
  9 10  1  1  0  0  0
  9 14  1  0  0  0  0
 11 16  1  0  0  0  0
 12 13  1  1  0  0  0
 12 17  1  0  0  0  0
 14 15  1  6  0  0  0
 14 18  1  0  0  0  0
 15 31  1  0  0  0  0
 16 20  1  0  0  0  0
 17  2  1  6  0  0  0
 17 22  1  0  0  0  0
 18 19  1  6  0  0  0
 18 24  1  0  0  0  0
 18 30  1  0  0  0  0
 20 21  1  0  0  0  0
 20 26  1  1  0  0  0
 22 23  1  1  0  0  0
 22 28  1  0  0  0  0
 24 25  1  0  0  0  0
 26 27  1  0  0  0  0
 28 29  1  6  0  0  0
M  END
>  <CHROM.1>
175.03749960,-151.53625286,-81.47514782,-171.60119122,132.27069900,164.89924379
23.93550990,-10.87225065,-5.27758386,-1.52062201,1.09238487,-0.67189437

>  <Name>
ligand

>  <RI>
0

>  <Rbt.Current_Directory>
/home/itssahil/PROJECTS/Mol_Feturizer/New_Systems/rnas/4F8V

>  <Rbt.Executable>
rbdock ($Id: //depot/dev/client3/rdock/2013.1/src/exe/rbdock.cxx#4 $)

>  <Rbt.Library>
libRbt.so (2013.1, Build901 2013/11/27)

>  <Rbt.Parameter_File>
/export/apps/rDock/src/rDock_2013.1_src/data/scripts/dock_solv.prm

>  <Rbt.Receptor>
prm/pocket_docking_5.prm

>  <SCORE>
-7.13095

>  <SCORE.INTER>
-3.5211

>  <SCORE.INTER.CONST>
1

>  <SCORE.INTER.POLAR>
0

>  <SCORE.INTER.ROT>
6

>  <SCORE.INTER.SOLV>
11.0945

>  <SCORE.INTER.VDW>
-13.6456

>  <SCORE.INTER.norm>
-0.113584

>  <SCORE.INTRA>
-3.60985

>  <SCORE.INTRA.DIHEDRAL>
-8.85484

>  <SCORE.INTRA.DIHEDRAL.0>
15.9129

>  <SCORE.INTRA.POLAR>
0

>  <SCORE.INTRA.POLAR.0>
0

>  <SCORE.INTRA.REPUL>
0

>  <SCORE.INTRA.REPUL.0>
0

>  <SCORE.INTRA.SOLV>
-2.90096

>  <SCORE.INTRA.SOLV.lig_0>
-75.7056

>  <SCORE.INTRA.VDW>
2.26805

>  <SCORE.INTRA.VDW.0>
-4.61812

>  <SCORE.INTRA.norm>
-0.116447

>  <SCORE.RESTR>
0

>  <SCORE.RESTR.CAVITY>
0

>  <SCORE.RESTR.norm>
0

>  <SCORE.SYSTEM>
0

>  <SCORE.SYSTEM.CONST>
0

>  <SCORE.SYSTEM.DIHEDRAL>
0

>  <SCORE.SYSTEM.SOLV>
0

>  <SCORE.SYSTEM.norm>
0

>  <SCORE.heavy>
31

>  <SCORE.norm>
-0.230031

>  <RMSD>
7.924

$$$$
ligand
 OpenBabel11021811493D
libRbt.so/2013.1/901 2013/11/27
 31 33  0  0  0  0  0  0  0  0999 V2000
   23.8842  -13.9257   -4.0017 C   0  0  2  0  0  0  0  0  0  0  0  0
   22.9899  -13.7895   -2.8891 O   0  0  0  0  0  0  0  0  0  0  0  0
   20.8357  -10.2718   -1.8056 C   0  0  2  0  0  0  0  0  0  0  0  0
   20.5729   -8.9612   -1.3145 N   0  0  0  0  0  0  0  0  0  0  0  0
   20.3552   -9.8700   -4.9400 C   0  0  2  0  0  0  0  0  0  0  0  0
   23.8770  -15.4318   -4.4085 C   0  0  2  0  0  0  0  0  0  0  0  0
   22.5064  -15.8321   -4.7207 N   0  0  0  0  0  0  0  0  0  0  0  0
   21.4135  -11.1567   -0.6382 C   0  0  0  0  0  0  0  0  0  0  0  0
   20.2898   -8.7588   -6.0224 C   0  0  2  0  0  0  0  0  0  0  0  0
   21.5809   -8.5726   -6.5559 O   0  0  0  0  0  0  0  0  0  0  0  0
   24.4896  -16.3131   -3.2528 C   0  0  0  0  0  0  0  0  0  0  0  0
   21.7039  -12.6125   -1.1876 C   0  0  2  0  0  0  0  0  0  0  0  0
   22.2496  -13.4462   -0.0969 N   0  0  0  0  0  0  0  0  0  0  0  0
   19.7514   -7.4397   -5.3389 C   0  0  1  0  0  0  0  0  0  0  0  0
   19.6921   -6.3348   -6.3373 N   0  0  0  0  0  0  0  0  0  0  0  0
   25.6106  -15.5661   -2.4427 C   0  0  0  0  0  0  0  0  0  0  0  0
   22.7446  -12.5148   -2.3830 C   0  0  2  0  0  0  0  0  0  0  0  0
   18.2618   -7.7066   -4.7384 C   0  0  1  0  0  0  0  0  0  0  0  0
   17.3257   -8.0649   -5.7254 O   0  0  0  0  0  0  0  0  0  0  0  0
   25.9100  -14.2813   -2.6856 C   0  0  1  0  0  0  0  0  0  0  0  0
   25.2447  -13.5292   -3.6810 O   0  0  0  0  0  0  0  0  0  0  0  0
   22.1524  -11.6106   -3.5242 C   0  0  2  0  0  0  0  0  0  0  0  0
   23.0982  -11.5192   -4.5880 O   0  0  0  0  0  0  0  0  0  0  0  0
   18.3363   -8.8697   -3.7013 C   0  0  0  0  0  0  0  0  0  0  0  0
   18.9968  -10.0848   -4.3209 O   0  0  0  0  0  0  0  0  0  0  0  0
   26.9923  -13.5133   -1.9019 C   0  0  0  0  0  0  0  0  0  0  0  0
   26.3703  -12.4020   -1.2161 N   0  0  0  0  0  0  0  0  0  0  0  0
   21.8616  -10.1713   -2.9536 C   0  0  1  0  0  0  0  0  0  0  0  0
   21.3270   -9.3942   -3.9848 O   0  0  0  0  0  0  0  0  0  0  0  0
   17.5989   -6.5113   -4.0392 C   0  0  0  0  0  0  0  0  0  0  0  0
   20.8838   -5.4772   -6.4273 C   0  0  0  0  0  0  0  0  0  0  0  0
  1  2  1  1  0  0  0
  1  6  1  0  0  0  0
  1 21  1  0  0  0  0
  3  4  1  1  0  0  0
  3  8  1  0  0  0  0
  3 28  1  0  0  0  0
  5  9  1  0  0  0  0
  5 25  1  0  0  0  0
  5 29  1  1  0  0  0
  6  7  1  1  0  0  0
  6 11  1  0  0  0  0
  8 12  1  0  0  0  0
  9 10  1  1  0  0  0
  9 14  1  0  0  0  0
 11 16  1  0  0  0  0
 12 13  1  1  0  0  0
 12 17  1  0  0  0  0
 14 15  1  6  0  0  0
 14 18  1  0  0  0  0
 15 31  1  0  0  0  0
 16 20  1  0  0  0  0
 17  2  1  6  0  0  0
 17 22  1  0  0  0  0
 18 19  1  6  0  0  0
 18 24  1  0  0  0  0
 18 30  1  0  0  0  0
 20 21  1  0  0  0  0
 20 26  1  1  0  0  0
 22 23  1  6  0  0  0
 22 28  1  0  0  0  0
 24 25  1  0  0  0  0
 26 27  1  0  0  0  0
 28 29  1  6  0  0  0
M  END
>  <CHROM.1>
-175.85413047,-169.27955628,-92.24937784,178.60565747,-118.49291973,-77.95106011
21.88664286,-11.06327003,-3.63996950,-0.58488488,0.75708006,-1.14532128

>  <Name>
ligand

>  <RI>
0

>  <Rbt.Current_Directory>
/home/itssahil/PROJECTS/Mol_Feturizer/New_Systems/rnas/4F8V

>  <Rbt.Executable>
rbdock ($Id: //depot/dev/client3/rdock/2013.1/src/exe/rbdock.cxx#4 $)

>  <Rbt.Library>
libRbt.so (2013.1, Build901 2013/11/27)

>  <Rbt.Parameter_File>
/export/apps/rDock/src/rDock_2013.1_src/data/scripts/dock_solv.prm

>  <Rbt.Receptor>
prm/pocket_docking_2.prm

>  <SCORE>
-12.0887

>  <SCORE.INTER>
-8.76307

>  <SCORE.INTER.CONST>
1

>  <SCORE.INTER.POLAR>
0

>  <SCORE.INTER.ROT>
6

>  <SCORE.INTER.SOLV>
17.4039

>  <SCORE.INTER.VDW>
-19.2434

>  <SCORE.INTER.norm>
-0.28268

>  <SCORE.INTRA>
-3.61508

>  <SCORE.INTRA.DIHEDRAL>
-11.4341

>  <SCORE.INTRA.DIHEDRAL.0>
15.9129

>  <SCORE.INTRA.POLAR>
0

>  <SCORE.INTRA.POLAR.0>
0

>  <SCORE.INTRA.REPUL>
0

>  <SCORE.INTRA.REPUL.0>
0

>  <SCORE.INTRA.SOLV>
-1.10512

>  <SCORE.INTRA.SOLV.lig_0>
-75.7056

>  <SCORE.INTRA.VDW>
2.65455

>  <SCORE.INTRA.VDW.0>
-4.61812

>  <SCORE.INTRA.norm>
-0.116615

>  <SCORE.RESTR>
0.289468

>  <SCORE.RESTR.CAVITY>
0.289468

>  <SCORE.RESTR.norm>
0.00933768

>  <SCORE.SYSTEM>
0

>  <SCORE.SYSTEM.CONST>
0

>  <SCORE.SYSTEM.DIHEDRAL>
0

>  <SCORE.SYSTEM.SOLV>
0

>  <SCORE.SYSTEM.norm>
0

>  <SCORE.heavy>
31

>  <SCORE.norm>
-0.389957

>  <RMSD>
7.943

$$$$
ligand
 OpenBabel11021811493D
libRbt.so/2013.1/901 2013/11/27
 31 33  0  0  0  0  0  0  0  0999 V2000
   23.4914  -14.1072   -4.3213 C   0  0  2  0  0  0  0  0  0  0  0  0
   22.5526  -13.7054   -3.3145 O   0  0  0  0  0  0  0  0  0  0  0  0
   21.1004   -9.8261   -2.2990 C   0  0  2  0  0  0  0  0  0  0  0  0
   21.0986   -8.4640   -1.8835 N   0  0  0  0  0  0  0  0  0  0  0  0
   20.5457   -9.6270   -5.5560 C   0  0  2  0  0  0  0  0  0  0  0  0
   23.3018  -15.6412   -4.5327 C   0  0  2  0  0  0  0  0  0  0  0  0
   21.9128  -15.9004   -4.9062 N   0  0  0  0  0  0  0  0  0  0  0  0
   21.6487  -10.7247   -1.1279 C   0  0  0  0  0  0  0  0  0  0  0  0
   20.2132   -8.3675   -6.4007 C   0  0  2  0  0  0  0  0  0  0  0  0
   21.4101   -7.8623   -6.9471 O   0  0  0  0  0  0  0  0  0  0  0  0
   23.7075  -16.4272   -3.2268 C   0  0  0  0  0  0  0  0  0  0  0  0
   21.6489  -12.2377   -1.5931 C   0  0  2  0  0  0  0  0  0  0  0  0
   22.1657  -13.0850   -0.4989 N   0  0  0  0  0  0  0  0  0  0  0  0
   19.5197   -7.3104   -5.4526 C   0  0  1  0  0  0  0  0  0  0  0  0
   19.2010   -6.0710   -6.2165 N   0  0  0  0  0  0  0  0  0  0  0  0
   24.8650  -15.7271   -2.4263 C   0  0  0  0  0  0  0  0  0  0  0  0
   22.5638  -12.3807   -2.8831 C   0  0  2  0  0  0  0  0  0  0  0  0
   18.1463   -7.9408   -4.8470 C   0  0  1  0  0  0  0  0  0  0  0  0
   17.2078   -8.2740   -5.8404 O   0  0  0  0  0  0  0  0  0  0  0  0
   25.3558  -14.5373   -2.8041 C   0  0  1  0  0  0  0  0  0  0  0  0
   24.8694  -13.8493   -3.9396 O   0  0  0  0  0  0  0  0  0  0  0  0
   22.0071  -11.4592   -4.0284 C   0  0  2  0  0  0  0  0  0  0  0  0
   22.8414  -11.5853   -5.1785 O   0  0  0  0  0  0  0  0  0  0  0  0
   18.4926   -9.2407   -4.0570 C   0  0  0  0  0  0  0  0  0  0  0  0
   19.2941  -10.1872   -4.9280 O   0  0  0  0  0  0  0  0  0  0  0  0
   26.4797  -13.8151   -2.0355 C   0  0  0  0  0  0  0  0  0  0  0  0
   26.0260  -12.4868   -1.6863 N   0  0  0  0  0  0  0  0  0  0  0  0
   22.0061   -9.9612   -3.5408 C   0  0  1  0  0  0  0  0  0  0  0  0
   21.4974   -9.1680   -4.5727 O   0  0  0  0  0  0  0  0  0  0  0  0
   17.3520   -7.0283   -3.9015 C   0  0  0  0  0  0  0  0  0  0  0  0
   20.2622   -5.0542   -6.2754 C   0  0  0  0  0  0  0  0  0  0  0  0
  1  2  1  1  0  0  0
  1  6  1  0  0  0  0
  1 21  1  0  0  0  0
  3  4  1  1  0  0  0
  3  8  1  0  0  0  0
  3 28  1  0  0  0  0
  5  9  1  0  0  0  0
  5 25  1  0  0  0  0
  5 29  1  1  0  0  0
  6  7  1  1  0  0  0
  6 11  1  0  0  0  0
  8 12  1  0  0  0  0
  9 10  1  1  0  0  0
  9 14  1  0  0  0  0
 11 16  1  0  0  0  0
 12 13  1  1  0  0  0
 12 17  1  0  0  0  0
 14 15  1  6  0  0  0
 14 18  1  0  0  0  0
 15 31  1  0  0  0  0
 16 20  1  0  0  0  0
 17  2  1  6  0  0  0
 17 22  1  0  0  0  0
 18 19  1  6  0  0  0
 18 24  1  0  0  0  0
 18 30  1  0  0  0  0
 20 21  1  0  0  0  0
 20 26  1  1  0  0  0
 22 23  1  6  0  0  0
 22 28  1  0  0  0  0
 24 25  1  0  0  0  0
 26 27  1  0  0  0  0
 28 29  1  6  0  0  0
M  END
>  <CHROM.1>
176.60837161,175.67372236,-88.00708735,-169.27283640,-125.08514735,-90.21169117
21.68860546,-11.00399184,-3.94389810,0.21229189,0.95990307,-2.15672367

>  <Name>
ligand

>  <RI>
0

>  <Rbt.Current_Directory>
/home/itssahil/PROJECTS/Mol_Feturizer/New_Systems/rnas/4F8V

>  <Rbt.Executable>
rbdock ($Id: //depot/dev/client3/rdock/2013.1/src/exe/rbdock.cxx#4 $)

>  <Rbt.Library>
libRbt.so (2013.1, Build901 2013/11/27)

>  <Rbt.Parameter_File>
/export/apps/rDock/src/rDock_2013.1_src/data/scripts/dock_solv.prm

>  <Rbt.Receptor>
prm/pocket_docking_4.prm

>  <SCORE>
-11.3144

>  <SCORE.INTER>
-8.72759

>  <SCORE.INTER.CONST>
1

>  <SCORE.INTER.POLAR>
0

>  <SCORE.INTER.ROT>
6

>  <SCORE.INTER.SOLV>
15.7059

>  <SCORE.INTER.VDW>
-18.6537

>  <SCORE.INTER.norm>
-0.281535

>  <SCORE.INTRA>
-2.5868

>  <SCORE.INTRA.DIHEDRAL>
-9.32012

>  <SCORE.INTRA.DIHEDRAL.0>
15.9129

>  <SCORE.INTRA.POLAR>
0

>  <SCORE.INTRA.POLAR.0>
0

>  <SCORE.INTRA.REPUL>
0

>  <SCORE.INTRA.REPUL.0>
0

>  <SCORE.INTRA.SOLV>
0.0120725

>  <SCORE.INTRA.SOLV.lig_0>
-75.7056

>  <SCORE.INTRA.VDW>
2.06722

>  <SCORE.INTRA.VDW.0>
-4.61812

>  <SCORE.INTRA.norm>
-0.0834452

>  <SCORE.RESTR>
0

>  <SCORE.RESTR.CAVITY>
0

>  <SCORE.RESTR.norm>
0

>  <SCORE.SYSTEM>
0

>  <SCORE.SYSTEM.CONST>
0

>  <SCORE.SYSTEM.DIHEDRAL>
0

>  <SCORE.SYSTEM.SOLV>
0

>  <SCORE.SYSTEM.norm>
0

>  <SCORE.heavy>
31

>  <SCORE.norm>
-0.36498

>  <RMSD>
7.945

$$$$
ligand
 OpenBabel11021811493D
libRbt.so/2013.1/901 2013/11/27
 31 33  0  0  0  0  0  0  0  0999 V2000
   24.2361  -13.8009   -4.2515 C   0  0  2  0  0  0  0  0  0  0  0  0
   23.1427  -13.7961   -3.3236 O   0  0  0  0  0  0  0  0  0  0  0  0
   20.6412  -10.5215   -2.2247 C   0  0  2  0  0  0  0  0  0  0  0  0
   20.2359   -9.2738   -1.6706 N   0  0  0  0  0  0  0  0  0  0  0  0
   20.3512   -9.8696   -5.2799 C   0  0  2  0  0  0  0  0  0  0  0  0
   24.4403  -15.2795   -4.7052 C   0  0  2  0  0  0  0  0  0  0  0  0
   23.1931  -15.7744   -5.2845 N   0  0  0  0  0  0  0  0  0  0  0  0
   21.1588  -11.4581   -1.0696 C   0  0  0  0  0  0  0  0  0  0  0  0
   20.3375   -8.7146   -6.3174 C   0  0  2  0  0  0  0  0  0  0  0  0
   21.6502   -8.5195   -6.7920 O   0  0  0  0  0  0  0  0  0  0  0  0
   24.9055  -16.1660   -3.4864 C   0  0  0  0  0  0  0  0  0  0  0  0
   21.6080  -12.8438   -1.6891 C   0  0  2  0  0  0  0  0  0  0  0  0
   22.0978  -13.7255   -0.6098 N   0  0  0  0  0  0  0  0  0  0  0  0
   19.7835   -7.4192   -5.6017 C   0  0  1  0  0  0  0  0  0  0  0  0
   19.7726   -6.2741   -6.5555 N   0  0  0  0  0  0  0  0  0  0  0  0
   25.7851  -15.3723   -2.4533 C   0  0  0  0  0  0  0  0  0  0  0  0
   22.7558  -12.5843   -2.7553 C   0  0  2  0  0  0  0  0  0  0  0  0
   18.2692   -7.6958   -5.0714 C   0  0  1  0  0  0  0  0  0  0  0  0
   17.3698   -8.0044   -6.1080 O   0  0  0  0  0  0  0  0  0  0  0  0
   26.0070  -14.0565   -2.5897 C   0  0  1  0  0  0  0  0  0  0  0  0
   25.4723  -13.3111   -3.6657 O   0  0  0  0  0  0  0  0  0  0  0  0
   22.2198  -11.6315   -3.8848 C   0  0  2  0  0  0  0  0  0  0  0  0
   23.2605  -11.3949   -4.8312 O   0  0  0  0  0  0  0  0  0  0  0  0
   18.2933   -8.9008   -4.0808 C   0  0  0  0  0  0  0  0  0  0  0  0
   18.9677  -10.0961   -4.7236 O   0  0  0  0  0  0  0  0  0  0  0  0
   26.8516  -13.2437   -1.5891 C   0  0  0  0  0  0  0  0  0  0  0  0
   26.0730  -12.1133   -1.1326 N   0  0  0  0  0  0  0  0  0  0  0  0
   21.7693  -10.2640   -3.2454 C   0  0  1  0  0  0  0  0  0  0  0  0
   21.2885   -9.4426   -4.2687 O   0  0  0  0  0  0  0  0  0  0  0  0
   17.5891   -6.5235   -4.3500 C   0  0  0  0  0  0  0  0  0  0  0  0
   20.9570   -5.4020   -6.5356 C   0  0  0  0  0  0  0  0  0  0  0  0
  1  2  1  1  0  0  0
  1  6  1  0  0  0  0
  1 21  1  0  0  0  0
  3  4  1  1  0  0  0
  3  8  1  0  0  0  0
  3 28  1  0  0  0  0
  5  9  1  0  0  0  0
  5 25  1  0  0  0  0
  5 29  1  1  0  0  0
  6  7  1  1  0  0  0
  6 11  1  0  0  0  0
  8 12  1  0  0  0  0
  9 10  1  1  0  0  0
  9 14  1  0  0  0  0
 11 16  1  0  0  0  0
 12 13  1  1  0  0  0
 12 17  1  0  0  0  0
 14 15  1  6  0  0  0
 14 18  1  0  0  0  0
 15 31  1  0  0  0  0
 16 20  1  0  0  0  0
 17  2  1  6  0  0  0
 17 22  1  0  0  0  0
 18 19  1  6  0  0  0
 18 24  1  0  0  0  0
 18 30  1  0  0  0  0
 20 21  1  0  0  0  0
 20 26  1  1  0  0  0
 22 23  1  6  0  0  0
 22 28  1  0  0  0  0
 24 25  1  0  0  0  0
 26 27  1  0  0  0  0
 28 29  1  6  0  0  0
M  END
>  <CHROM.1>
179.63639206,-169.69186650,-93.99119036,-175.82070996,-126.28739242,-71.55459252
21.93814424,-11.04644539,-3.90749289,-0.66164902,0.66848353,-1.03540672

>  <Name>
ligand

>  <RI>
0

>  <Rbt.Current_Directory>
/home/itssahil/PROJECTS/Mol_Feturizer/New_Systems/rnas/4F8V

>  <Rbt.Executable>
rbdock ($Id: //depot/dev/client3/rdock/2013.1/src/exe/rbdock.cxx#4 $)

>  <Rbt.Library>
libRbt.so (2013.1, Build901 2013/11/27)

>  <Rbt.Parameter_File>
/export/apps/rDock/src/rDock_2013.1_src/data/scripts/dock_solv.prm

>  <Rbt.Receptor>
prm/pocket_docking_5.prm

>  <SCORE>
-14.3565

>  <SCORE.INTER>
-10.0123

>  <SCORE.INTER.CONST>
1

>  <SCORE.INTER.POLAR>
0

>  <SCORE.INTER.ROT>
6

>  <SCORE.INTER.SOLV>
17.0897

>  <SCORE.INTER.VDW>
-19.9714

>  <SCORE.INTER.norm>
-0.322976

>  <SCORE.INTRA>
-4.34422

>  <SCORE.INTRA.DIHEDRAL>
-12.2176

>  <SCORE.INTRA.DIHEDRAL.0>
15.9129

>  <SCORE.INTRA.POLAR>
0

>  <SCORE.INTRA.POLAR.0>
0

>  <SCORE.INTRA.REPUL>
0

>  <SCORE.INTRA.REPUL.0>
0

>  <SCORE.INTRA.SOLV>
-0.422499

>  <SCORE.INTRA.SOLV.lig_0>
-75.7056

>  <SCORE.INTRA.VDW>
1.97582

>  <SCORE.INTRA.VDW.0>
-4.61812

>  <SCORE.INTRA.norm>
-0.140136

>  <SCORE.RESTR>
0

>  <SCORE.RESTR.CAVITY>
0

>  <SCORE.RESTR.norm>
0

>  <SCORE.SYSTEM>
0

>  <SCORE.SYSTEM.CONST>
0

>  <SCORE.SYSTEM.DIHEDRAL>
0

>  <SCORE.SYSTEM.SOLV>
0

>  <SCORE.SYSTEM.norm>
0

>  <SCORE.heavy>
31

>  <SCORE.norm>
-0.463112

>  <RMSD>
7.952

$$$$
ligand
 OpenBabel11021811493D
libRbt.so/2013.1/901 2013/11/27
 31 33  0  0  0  0  0  0  0  0999 V2000
   24.2393  -13.8188   -4.2294 C   0  0  2  0  0  0  0  0  0  0  0  0
   23.1464  -13.8065   -3.3010 O   0  0  0  0  0  0  0  0  0  0  0  0
   20.6424  -10.5220   -2.2379 C   0  0  2  0  0  0  0  0  0  0  0  0
   20.2356   -9.2695   -1.6959 N   0  0  0  0  0  0  0  0  0  0  0  0
   20.3364   -9.8870   -5.2803 C   0  0  2  0  0  0  0  0  0  0  0  0
   24.4394  -15.3003   -4.6756 C   0  0  2  0  0  0  0  0  0  0  0  0
   23.1906  -15.7949   -5.2518 N   0  0  0  0  0  0  0  0  0  0  0  0
   21.1565  -11.4486   -1.0732 C   0  0  0  0  0  0  0  0  0  0  0  0
   20.2933   -8.7268   -6.3111 C   0  0  2  0  0  0  0  0  0  0  0  0
   21.5935   -8.5236   -6.8157 O   0  0  0  0  0  0  0  0  0  0  0  0
   24.9030  -16.1817   -3.4525 C   0  0  0  0  0  0  0  0  0  0  0  0
   21.6072  -12.8397   -1.6793 C   0  0  2  0  0  0  0  0  0  0  0  0
   22.0938  -13.7120   -0.5908 N   0  0  0  0  0  0  0  0  0  0  0  0
   19.7510   -7.4375   -5.5758 C   0  0  1  0  0  0  0  0  0  0  0  0
   19.7128   -6.2875   -6.5230 N   0  0  0  0  0  0  0  0  0  0  0  0
   25.7851  -15.3850   -2.4240 C   0  0  0  0  0  0  0  0  0  0  0  0
   22.7581  -12.5898   -2.7444 C   0  0  2  0  0  0  0  0  0  0  0  0
   18.2510   -7.7232   -5.0111 C   0  0  1  0  0  0  0  0  0  0  0  0
   17.3285   -8.0303   -6.0277 O   0  0  0  0  0  0  0  0  0  0  0  0
   26.0104  -14.0705   -2.5673 C   0  0  1  0  0  0  0  0  0  0  0  0
   25.4771  -13.3293   -3.6468 O   0  0  0  0  0  0  0  0  0  0  0  0
   22.2255  -11.6467   -3.8836 C   0  0  2  0  0  0  0  0  0  0  0  0
   23.2689  -11.4186   -4.8291 O   0  0  0  0  0  0  0  0  0  0  0  0
   18.3035   -8.9332   -4.0277 C   0  0  0  0  0  0  0  0  0  0  0  0
   18.9675  -10.1223   -4.6925 O   0  0  0  0  0  0  0  0  0  0  0  0
   26.8577  -13.2548   -1.5712 C   0  0  0  0  0  0  0  0  0  0  0  0
   26.0824  -12.1198   -1.1206 N   0  0  0  0  0  0  0  0  0  0  0  0
   21.7733  -10.2736   -3.2576 C   0  0  1  0  0  0  0  0  0  0  0  0
   21.2956   -9.4612   -4.2894 O   0  0  0  0  0  0  0  0  0  0  0  0
   17.5833   -6.5576   -4.2677 C   0  0  0  0  0  0  0  0  0  0  0  0
   20.8878   -5.4026   -6.5169 C   0  0  0  0  0  0  0  0  0  0  0  0
  1  2  1  1  0  0  0
  1  6  1  0  0  0  0
  1 21  1  0  0  0  0
  3  4  1  1  0  0  0
  3  8  1  0  0  0  0
  3 28  1  0  0  0  0
  5  9  1  0  0  0  0
  5 25  1  0  0  0  0
  5 29  1  1  0  0  0
  6  7  1  1  0  0  0
  6 11  1  0  0  0  0
  8 12  1  0  0  0  0
  9 10  1  1  0  0  0
  9 14  1  0  0  0  0
 11 16  1  0  0  0  0
 12 13  1  1  0  0  0
 12 17  1  0  0  0  0
 14 15  1  6  0  0  0
 14 18  1  0  0  0  0
 15 31  1  0  0  0  0
 16 20  1  0  0  0  0
 17  2  1  6  0  0  0
 17 22  1  0  0  0  0
 18 19  1  6  0  0  0
 18 24  1  0  0  0  0
 18 30  1  0  0  0  0
 20 21  1  0  0  0  0
 20 26  1  1  0  0  0
 22 23  1  6  0  0  0
 22 28  1  0  0  0  0
 24 25  1  0  0  0  0
 26 27  1  0  0  0  0
 28 29  1  6  0  0  0
M  END
>  <CHROM.1>
179.99114103,-171.72624309,-94.59536026,-176.04556316,-126.31533563,-69.97739465
21.92869032,-11.05955600,-3.88882029,-0.65354176,0.67104539,-1.04333286

>  <Name>
ligand

>  <RI>
0

>  <Rbt.Current_Directory>
/home/itssahil/PROJECTS/Mol_Feturizer/New_Systems/rnas/4F8V

>  <Rbt.Executable>
rbdock ($Id: //depot/dev/client3/rdock/2013.1/src/exe/rbdock.cxx#4 $)

>  <Rbt.Library>
libRbt.so (2013.1, Build901 2013/11/27)

>  <Rbt.Parameter_File>
/export/apps/rDock/src/rDock_2013.1_src/data/scripts/dock_solv.prm

>  <Rbt.Receptor>
prm/pocket_docking_3.prm

>  <SCORE>
-14.3713

>  <SCORE.INTER>
-9.99004

>  <SCORE.INTER.CONST>
1

>  <SCORE.INTER.POLAR>
0

>  <SCORE.INTER.ROT>
6

>  <SCORE.INTER.SOLV>
17.1525

>  <SCORE.INTER.VDW>
-19.9775

>  <SCORE.INTER.norm>
-0.322259

>  <SCORE.INTRA>
-4.38124

>  <SCORE.INTRA.DIHEDRAL>
-12.5461

>  <SCORE.INTRA.DIHEDRAL.0>
15.9129

>  <SCORE.INTRA.POLAR>
0

>  <SCORE.INTRA.POLAR.0>
0

>  <SCORE.INTRA.REPUL>
0

>  <SCORE.INTRA.REPUL.0>
0

>  <SCORE.INTRA.SOLV>
-0.271273

>  <SCORE.INTRA.SOLV.lig_0>
-75.7056

>  <SCORE.INTRA.VDW>
2.02745

>  <SCORE.INTRA.VDW.0>
-4.61812

>  <SCORE.INTRA.norm>
-0.14133

>  <SCORE.RESTR>
0

>  <SCORE.RESTR.CAVITY>
0

>  <SCORE.RESTR.norm>
0

>  <SCORE.SYSTEM>
0

>  <SCORE.SYSTEM.CONST>
0

>  <SCORE.SYSTEM.DIHEDRAL>
0

>  <SCORE.SYSTEM.SOLV>
0

>  <SCORE.SYSTEM.norm>
0

>  <SCORE.heavy>
31

>  <SCORE.norm>
-0.46359

>  <RMSD>
7.959

$$$$
ligand
 OpenBabel11021811493D
libRbt.so/2013.1/901 2013/11/27
 31 33  0  0  0  0  0  0  0  0999 V2000
   24.3090  -13.8436   -4.2397 C   0  0  2  0  0  0  0  0  0  0  0  0
   23.2131  -13.8325   -3.3149 O   0  0  0  0  0  0  0  0  0  0  0  0
   20.7256  -10.5720   -2.1443 C   0  0  2  0  0  0  0  0  0  0  0  0
   20.3304   -9.3238   -1.5842 N   0  0  0  0  0  0  0  0  0  0  0  0
   20.3025   -9.9428   -5.1829 C   0  0  2  0  0  0  0  0  0  0  0  0
   24.5085  -15.3239   -4.6897 C   0  0  2  0  0  0  0  0  0  0  0  0
   23.2610  -15.8150   -5.2715 N   0  0  0  0  0  0  0  0  0  0  0  0
   21.2960  -11.4950   -1.0032 C   0  0  0  0  0  0  0  0  0  0  0  0
   20.2213   -8.7882   -6.2177 C   0  0  2  0  0  0  0  0  0  0  0  0
   21.5058   -8.5755   -6.7574 O   0  0  0  0  0  0  0  0  0  0  0  0
   24.9668  -16.2097   -3.4678 C   0  0  0  0  0  0  0  0  0  0  0  0
   21.7338  -12.8813   -1.6293 C   0  0  2  0  0  0  0  0  0  0  0  0
   22.2730  -13.7502   -0.5632 N   0  0  0  0  0  0  0  0  0  0  0  0
   19.6866   -7.5002   -5.4743 C   0  0  1  0  0  0  0  0  0  0  0  0
   19.6126   -6.3554   -6.4256 N   0  0  0  0  0  0  0  0  0  0  0  0
   25.8467  -15.4174   -2.4339 C   0  0  0  0  0  0  0  0  0  0  0  0
   22.8371  -12.6199   -2.7410 C   0  0  2  0  0  0  0  0  0  0  0  0
   18.2047   -7.7970   -4.8689 C   0  0  1  0  0  0  0  0  0  0  0  0
   17.2587   -8.1176   -5.8593 O   0  0  0  0  0  0  0  0  0  0  0  0
   26.0742  -14.1027   -2.5725 C   0  0  1  0  0  0  0  0  0  0  0  0
   25.5455  -13.3575   -3.6515 O   0  0  0  0  0  0  0  0  0  0  0  0
   22.2492  -11.6806   -3.8559 C   0  0  2  0  0  0  0  0  0  0  0  0
   23.2504  -11.4421   -4.8436 O   0  0  0  0  0  0  0  0  0  0  0  0
   18.2945   -9.0015   -3.8815 C   0  0  0  0  0  0  0  0  0  0  0  0
   18.9518  -10.1877   -4.5580 O   0  0  0  0  0  0  0  0  0  0  0  0
   26.9194  -13.2912   -1.5712 C   0  0  0  0  0  0  0  0  0  0  0  0
   26.1276  -12.1828   -1.0844 N   0  0  0  0  0  0  0  0  0  0  0  0
   21.8110  -10.3123   -3.2097 C   0  0  1  0  0  0  0  0  0  0  0  0
   21.2835   -9.5032   -4.2197 O   0  0  0  0  0  0  0  0  0  0  0  0
   17.5460   -6.6339   -4.1135 C   0  0  0  0  0  0  0  0  0  0  0  0
   20.7777   -5.4577   -6.4523 C   0  0  0  0  0  0  0  0  0  0  0  0
  1  2  1  1  0  0  0
  1  6  1  0  0  0  0
  1 21  1  0  0  0  0
  3  4  1  1  0  0  0
  3  8  1  0  0  0  0
  3 28  1  0  0  0  0
  5  9  1  0  0  0  0
  5 25  1  0  0  0  0
  5 29  1  1  0  0  0
  6  7  1  1  0  0  0
  6 11  1  0  0  0  0
  8 12  1  0  0  0  0
  9 10  1  1  0  0  0
  9 14  1  0  0  0  0
 11 16  1  0  0  0  0
 12 13  1  1  0  0  0
 12 17  1  0  0  0  0
 14 15  1  6  0  0  0
 14 18  1  0  0  0  0
 15 31  1  0  0  0  0
 16 20  1  0  0  0  0
 17  2  1  6  0  0  0
 17 22  1  0  0  0  0
 18 19  1  6  0  0  0
 18 24  1  0  0  0  0
 18 30  1  0  0  0  0
 20 21  1  0  0  0  0
 20 26  1  1  0  0  0
 22 23  1  6  0  0  0
 22 28  1  0  0  0  0
 24 25  1  0  0  0  0
 26 27  1  0  0  0  0
 28 29  1  6  0  0  0
M  END
>  <CHROM.1>
179.06746513,-170.70226176,-94.74037682,-173.09101442,-124.34082519,-70.93970417
21.95068455,-11.10607589,-3.83417234,-0.58553310,0.70567039,-1.12245480

>  <Name>
ligand

>  <RI>
0

>  <Rbt.Current_Directory>
/home/itssahil/PROJECTS/Mol_Feturizer/New_Systems/rnas/4F8V

>  <Rbt.Executable>
rbdock ($Id: //depot/dev/client3/rdock/2013.1/src/exe/rbdock.cxx#4 $)

>  <Rbt.Library>
libRbt.so (2013.1, Build901 2013/11/27)

>  <Rbt.Parameter_File>
/export/apps/rDock/src/rDock_2013.1_src/data/scripts/dock_solv.prm

>  <Rbt.Receptor>
prm/pocket_docking_4.prm

>  <SCORE>
-14.3391

>  <SCORE.INTER>
-9.95487

>  <SCORE.INTER.CONST>
1

>  <SCORE.INTER.POLAR>
0

>  <SCORE.INTER.ROT>
6

>  <SCORE.INTER.SOLV>
16.8621

>  <SCORE.INTER.VDW>
-19.8573

>  <SCORE.INTER.norm>
-0.321125

>  <SCORE.INTRA>
-4.38421

>  <SCORE.INTRA.DIHEDRAL>
-12.2284

>  <SCORE.INTRA.DIHEDRAL.0>
15.9129

>  <SCORE.INTRA.POLAR>
0

>  <SCORE.INTRA.POLAR.0>
0

>  <SCORE.INTRA.REPUL>
0

>  <SCORE.INTRA.REPUL.0>
0

>  <SCORE.INTRA.SOLV>
-0.0265697

>  <SCORE.INTRA.SOLV.lig_0>
-75.7056

>  <SCORE.INTRA.VDW>
1.74325

>  <SCORE.INTRA.VDW.0>
-4.61812

>  <SCORE.INTRA.norm>
-0.141426

>  <SCORE.RESTR>
0

>  <SCORE.RESTR.CAVITY>
0

>  <SCORE.RESTR.norm>
0

>  <SCORE.SYSTEM>
0

>  <SCORE.SYSTEM.CONST>
0

>  <SCORE.SYSTEM.DIHEDRAL>
0

>  <SCORE.SYSTEM.SOLV>
0

>  <SCORE.SYSTEM.norm>
0

>  <SCORE.heavy>
31

>  <SCORE.norm>
-0.462551

>  <RMSD>
7.966

$$$$
ligand
 OpenBabel11021811493D
libRbt.so/2013.1/901 2013/11/27
 31 33  0  0  0  0  0  0  0  0999 V2000
   24.2774  -13.7903   -4.2261 C   0  0  2  0  0  0  0  0  0  0  0  0
   23.2026  -13.7522   -3.2776 O   0  0  0  0  0  0  0  0  0  0  0  0
   20.7572  -10.4483   -2.1404 C   0  0  2  0  0  0  0  0  0  0  0  0
   20.3798   -9.1853   -1.6018 N   0  0  0  0  0  0  0  0  0  0  0  0
   20.3097   -9.8901   -5.2009 C   0  0  2  0  0  0  0  0  0  0  0  0
   24.4318  -15.2754   -4.6782 C   0  0  2  0  0  0  0  0  0  0  0  0
   23.1604  -15.7373   -5.2317 N   0  0  0  0  0  0  0  0  0  0  0  0
   21.3388  -11.3505   -0.9883 C   0  0  0  0  0  0  0  0  0  0  0  0
   20.1725   -8.7258   -6.2188 C   0  0  2  0  0  0  0  0  0  0  0  0
   21.4402   -8.4619   -6.7753 O   0  0  0  0  0  0  0  0  0  0  0  0
   24.8956  -16.1706   -3.4652 C   0  0  0  0  0  0  0  0  0  0  0  0
   21.7567  -12.7534   -1.5906 C   0  0  2  0  0  0  0  0  0  0  0  0
   22.3063  -13.6028   -0.5142 N   0  0  0  0  0  0  0  0  0  0  0  0
   19.6058   -7.4668   -5.4501 C   0  0  1  0  0  0  0  0  0  0  0  0
   19.4774   -6.3130   -6.3846 N   0  0  0  0  0  0  0  0  0  0  0  0
   25.8165  -15.3983   -2.4521 C   0  0  0  0  0  0  0  0  0  0  0  0
   22.8444  -12.5246   -2.7247 C   0  0  2  0  0  0  0  0  0  0  0  0
   18.1447   -7.8223   -4.8258 C   0  0  1  0  0  0  0  0  0  0  0  0
   17.1946   -8.1626   -5.8057 O   0  0  0  0  0  0  0  0  0  0  0  0
   26.0721  -14.0896   -2.5977 C   0  0  1  0  0  0  0  0  0  0  0  0
   25.5377  -13.3332   -3.6660 O   0  0  0  0  0  0  0  0  0  0  0  0
   22.2458  -11.6055   -3.8507 C   0  0  2  0  0  0  0  0  0  0  0  0
   23.2331  -11.3961   -4.8587 O   0  0  0  0  0  0  0  0  0  0  0  0
   18.2915   -9.0356   -3.8562 C   0  0  0  0  0  0  0  0  0  0  0  0
   18.9783  -10.1896   -4.5586 O   0  0  0  0  0  0  0  0  0  0  0  0
   26.9580  -13.2974   -1.6164 C   0  0  0  0  0  0  0  0  0  0  0  0
   26.1887  -12.1967   -1.0790 N   0  0  0  0  0  0  0  0  0  0  0  0
   21.8276  -10.2202   -3.2280 C   0  0  1  0  0  0  0  0  0  0  0  0
   21.2902   -9.4294   -4.2472 O   0  0  0  0  0  0  0  0  0  0  0  0
   17.4586   -6.6925   -4.0449 C   0  0  0  0  0  0  0  0  0  0  0  0
   20.5754   -5.3344   -6.3618 C   0  0  0  0  0  0  0  0  0  0  0  0
  1  2  1  1  0  0  0
  1  6  1  0  0  0  0
  1 21  1  0  0  0  0
  3  4  1  1  0  0  0
  3  8  1  0  0  0  0
  3 28  1  0  0  0  0
  5  9  1  0  0  0  0
  5 25  1  0  0  0  0
  5 29  1  1  0  0  0
  6  7  1  1  0  0  0
  6 11  1  0  0  0  0
  8 12  1  0  0  0  0
  9 10  1  1  0  0  0
  9 14  1  0  0  0  0
 11 16  1  0  0  0  0
 12 13  1  1  0  0  0
 12 17  1  0  0  0  0
 14 15  1  6  0  0  0
 14 18  1  0  0  0  0
 15 31  1  0  0  0  0
 16 20  1  0  0  0  0
 17  2  1  6  0  0  0
 17 22  1  0  0  0  0
 18 19  1  6  0  0  0
 18 24  1  0  0  0  0
 18 30  1  0  0  0  0
 20 21  1  0  0  0  0
 20 26  1  1  0  0  0
 22 23  1  6  0  0  0
 22 28  1  0  0  0  0
 24 25  1  0  0  0  0
 26 27  1  0  0  0  0
 28 29  1  6  0  0  0
M  END
>  <CHROM.1>
-179.21476067,-172.96790383,-98.09417635,-173.54123296,-122.39831400,-72.16647514
21.92586502,-11.05299089,-3.82234413,-0.53813829,0.73088998,-1.18744046

>  <Name>
ligand

>  <RI>
0

>  <Rbt.Current_Directory>
/home/itssahil/PROJECTS/Mol_Feturizer/New_Systems/rnas/4F8V

>  <Rbt.Executable>
rbdock ($Id: //depot/dev/client3/rdock/2013.1/src/exe/rbdock.cxx#4 $)

>  <Rbt.Library>
libRbt.so (2013.1, Build901 2013/11/27)

>  <Rbt.Parameter_File>
/export/apps/rDock/src/rDock_2013.1_src/data/scripts/dock_solv.prm

>  <Rbt.Receptor>
prm/pocket_docking_4.prm

>  <SCORE>
-14.3208

>  <SCORE.INTER>
-9.96883

>  <SCORE.INTER.CONST>
1

>  <SCORE.INTER.POLAR>
0

>  <SCORE.INTER.ROT>
6

>  <SCORE.INTER.SOLV>
16.3998

>  <SCORE.INTER.VDW>
-19.7125

>  <SCORE.INTER.norm>
-0.321575

>  <SCORE.INTRA>
-4.35192

>  <SCORE.INTRA.DIHEDRAL>
-12.2219

>  <SCORE.INTRA.DIHEDRAL.0>
15.9129

>  <SCORE.INTRA.POLAR>
0

>  <SCORE.INTRA.POLAR.0>
0

>  <SCORE.INTRA.REPUL>
0

>  <SCORE.INTRA.REPUL.0>
0

>  <SCORE.INTRA.SOLV>
-0.00925804

>  <SCORE.INTRA.SOLV.lig_0>
-75.7056

>  <SCORE.INTRA.VDW>
1.76364

>  <SCORE.INTRA.VDW.0>
-4.61812

>  <SCORE.INTRA.norm>
-0.140385

>  <SCORE.RESTR>
0

>  <SCORE.RESTR.CAVITY>
0

>  <SCORE.RESTR.norm>
0

>  <SCORE.SYSTEM>
0

>  <SCORE.SYSTEM.CONST>
0

>  <SCORE.SYSTEM.DIHEDRAL>
0

>  <SCORE.SYSTEM.SOLV>
0

>  <SCORE.SYSTEM.norm>
0

>  <SCORE.heavy>
31

>  <SCORE.norm>
-0.46196

>  <RMSD>
7.975

$$$$
ligand
 OpenBabel11021811493D
libRbt.so/2013.1/901 2013/11/27
 31 33  0  0  0  0  0  0  0  0999 V2000
   23.7928  -13.9267   -4.0080 C   0  0  2  0  0  0  0  0  0  0  0  0
   22.8849  -13.7689   -2.9093 O   0  0  0  0  0  0  0  0  0  0  0  0
   20.7928  -10.2202   -1.8053 C   0  0  2  0  0  0  0  0  0  0  0  0
   20.5546   -8.9042   -1.3162 N   0  0  0  0  0  0  0  0  0  0  0  0
   20.2809   -9.8358   -4.9492 C   0  0  2  0  0  0  0  0  0  0  0  0
   23.8377  -15.4492   -4.3451 C   0  0  2  0  0  0  0  0  0  0  0  0
   22.4836  -15.9079   -4.6484 N   0  0  0  0  0  0  0  0  0  0  0  0
   21.3808  -11.1064   -0.6440 C   0  0  0  0  0  0  0  0  0  0  0  0
   20.2469   -8.7481   -6.0566 C   0  0  2  0  0  0  0  0  0  0  0  0
   21.5455   -8.6011   -6.5841 O   0  0  0  0  0  0  0  0  0  0  0  0
   24.4683  -16.2563   -3.1456 C   0  0  0  0  0  0  0  0  0  0  0  0
   21.6438  -12.5683   -1.1911 C   0  0  2  0  0  0  0  0  0  0  0  0
   22.1988  -13.4032   -0.1061 N   0  0  0  0  0  0  0  0  0  0  0  0
   19.7317   -7.4029   -5.4068 C   0  0  1  0  0  0  0  0  0  0  0  0
   19.7031   -6.3197   -6.4301 N   0  0  0  0  0  0  0  0  0  0  0  0
   25.5575  -15.4368   -2.3626 C   0  0  0  0  0  0  0  0  0  0  0  0
   22.6640  -12.4889   -2.4053 C   0  0  2  0  0  0  0  0  0  0  0  0
   18.2324   -7.6248   -4.8121 C   0  0  1  0  0  0  0  0  0  0  0  0
   17.2961   -7.9854   -5.7980 O   0  0  0  0  0  0  0  0  0  0  0  0
   25.8174  -14.1555   -2.6621 C   0  0  1  0  0  0  0  0  0  0  0  0
   25.1370  -13.4717   -3.6959 O   0  0  0  0  0  0  0  0  0  0  0  0
   22.0624  -11.5832   -3.5404 C   0  0  2  0  0  0  0  0  0  0  0  0
   22.9901  -11.5083   -4.6213 O   0  0  0  0  0  0  0  0  0  0  0  0
   18.2747   -8.7655   -3.7487 C   0  0  0  0  0  0  0  0  0  0  0  0
   18.9138  -10.0080   -4.3359 O   0  0  0  0  0  0  0  0  0  0  0  0
   26.8675  -13.3175   -1.9067 C   0  0  0  0  0  0  0  0  0  0  0  0
   27.8591  -12.8520   -2.8513 N   0  0  0  0  0  0  0  0  0  0  0  0
   21.7991  -10.1377   -2.9720 C   0  0  1  0  0  0  0  0  0  0  0  0
   21.2556   -9.3591   -3.9973 O   0  0  0  0  0  0  0  0  0  0  0  0
   17.5900   -6.4004   -4.1448 C   0  0  0  0  0  0  0  0  0  0  0  0
   20.9322   -5.5232   -6.5662 C   0  0  0  0  0  0  0  0  0  0  0  0
  1  2  1  1  0  0  0
  1  6  1  0  0  0  0
  1 21  1  0  0  0  0
  3  4  1  1  0  0  0
  3  8  1  0  0  0  0
  3 28  1  0  0  0  0
  5  9  1  0  0  0  0
  5 25  1  0  0  0  0
  5 29  1  1  0  0  0
  6  7  1  1  0  0  0
  6 11  1  0  0  0  0
  8 12  1  0  0  0  0
  9 10  1  1  0  0  0
  9 14  1  0  0  0  0
 11 16  1  0  0  0  0
 12 13  1  1  0  0  0
 12 17  1  0  0  0  0
 14 15  1  6  0  0  0
 14 18  1  0  0  0  0
 15 31  1  0  0  0  0
 16 20  1  0  0  0  0
 17  2  1  6  0  0  0
 17 22  1  0  0  0  0
 18 19  1  6  0  0  0
 18 24  1  0  0  0  0
 18 30  1  0  0  0  0
 20 21  1  0  0  0  0
 20 26  1  1  0  0  0
 22 23  1  6  0  0  0
 22 28  1  0  0  0  0
 24 25  1  0  0  0  0
 26 27  1  0  0  0  0
 28 29  1  6  0  0  0
M  END
>  <CHROM.1>
179.85151019,-167.05551716,-89.95639453,-179.29582002,121.15362688,-79.24094452
21.88236694,-11.03447291,-3.70950578,-0.74270815,0.57526656,-0.86596192

>  <Name>
ligand

>  <RI>
0

>  <Rbt.Current_Directory>
/home/itssahil/PROJECTS/Mol_Feturizer/New_Systems/rnas/4F8V

>  <Rbt.Executable>
rbdock ($Id: //depot/dev/client3/rdock/2013.1/src/exe/rbdock.cxx#4 $)

>  <Rbt.Library>
libRbt.so (2013.1, Build901 2013/11/27)

>  <Rbt.Parameter_File>
/export/apps/rDock/src/rDock_2013.1_src/data/scripts/dock_solv.prm

>  <Rbt.Receptor>
prm/pocket_docking_2.prm

>  <SCORE>
-12.2878

>  <SCORE.INTER>
-8.56894

>  <SCORE.INTER.CONST>
1

>  <SCORE.INTER.POLAR>
0

>  <SCORE.INTER.ROT>
6

>  <SCORE.INTER.SOLV>
19.336

>  <SCORE.INTER.VDW>
-19.7579

>  <SCORE.INTER.norm>
-0.276418

>  <SCORE.INTRA>
-4.00588

>  <SCORE.INTRA.DIHEDRAL>
-11.1546

>  <SCORE.INTRA.DIHEDRAL.0>
15.9129

>  <SCORE.INTRA.POLAR>
0

>  <SCORE.INTRA.POLAR.0>
0

>  <SCORE.INTRA.REPUL>
0

>  <SCORE.INTRA.REPUL.0>
0

>  <SCORE.INTRA.SOLV>
-2.22036

>  <SCORE.INTRA.SOLV.lig_0>
-75.7056

>  <SCORE.INTRA.VDW>
2.68162

>  <SCORE.INTRA.VDW.0>
-4.61812

>  <SCORE.INTRA.norm>
-0.129222

>  <SCORE.RESTR>
0.287059

>  <SCORE.RESTR.CAVITY>
0.287059

>  <SCORE.RESTR.norm>
0.00925998

>  <SCORE.SYSTEM>
0

>  <SCORE.SYSTEM.CONST>
0

>  <SCORE.SYSTEM.DIHEDRAL>
0

>  <SCORE.SYSTEM.SOLV>
0

>  <SCORE.SYSTEM.norm>
0

>  <SCORE.heavy>
31

>  <SCORE.norm>
-0.39638

>  <RMSD>
7.991

$$$$
ligand
 OpenBabel11021811493D
libRbt.so/2013.1/901 2013/11/27
 31 33  0  0  0  0  0  0  0  0999 V2000
   24.5987  -13.8565   -4.4589 C   0  0  2  0  0  0  0  0  0  0  0  0
   23.3291  -13.9163   -3.7948 O   0  0  0  0  0  0  0  0  0  0  0  0
   20.6199  -10.8895   -2.4958 C   0  0  2  0  0  0  0  0  0  0  0  0
   20.1329   -9.7135   -1.8573 N   0  0  0  0  0  0  0  0  0  0  0  0
   20.2642  -10.0128   -5.4512 C   0  0  2  0  0  0  0  0  0  0  0  0
   24.9116  -15.2965   -4.9710 C   0  0  2  0  0  0  0  0  0  0  0  0
   23.8259  -15.7354   -5.8454 N   0  0  0  0  0  0  0  0  0  0  0  0
   21.1811  -11.8770   -1.4052 C   0  0  0  0  0  0  0  0  0  0  0  0
   20.3502   -8.8979   -6.5283 C   0  0  2  0  0  0  0  0  0  0  0  0
   21.6784   -8.8219   -6.9934 O   0  0  0  0  0  0  0  0  0  0  0  0
   25.1083  -16.2791   -3.7529 C   0  0  0  0  0  0  0  0  0  0  0  0
   21.7211  -13.1829   -2.1184 C   0  0  2  0  0  0  0  0  0  0  0  0
   22.2521  -14.1117   -1.0997 N   0  0  0  0  0  0  0  0  0  0  0  0
   19.8918   -7.5389   -5.8648 C   0  0  1  0  0  0  0  0  0  0  0  0
   19.9791   -6.4310   -6.8578 N   0  0  0  0  0  0  0  0  0  0  0  0
   25.7333  -15.5752   -2.4940 C   0  0  0  0  0  0  0  0  0  0  0  0
   22.8625  -12.7759   -3.1446 C   0  0  2  0  0  0  0  0  0  0  0  0
   18.3558   -7.6784   -5.3436 C   0  0  1  0  0  0  0  0  0  0  0  0
   17.4449   -7.9531   -6.3797 O   0  0  0  0  0  0  0  0  0  0  0  0
   25.9666  -14.2544   -2.4757 C   0  0  1  0  0  0  0  0  0  0  0  0
   25.6723  -13.4232   -3.5811 O   0  0  0  0  0  0  0  0  0  0  0  0
   22.2817  -11.7753   -4.2086 C   0  0  2  0  0  0  0  0  0  0  0  0
   23.3163  -11.4064   -5.1187 O   0  0  0  0  0  0  0  0  0  0  0  0
   18.2767   -8.8456   -4.3116 C   0  0  0  0  0  0  0  0  0  0  0  0
   18.8622  -10.1116   -4.9042 O   0  0  0  0  0  0  0  0  0  0  0  0
   26.5644  -13.5286   -1.2545 C   0  0  0  0  0  0  0  0  0  0  0  0
   25.6288  -12.5197   -0.8084 N   0  0  0  0  0  0  0  0  0  0  0  0
   21.7412  -10.4890   -3.4770 C   0  0  1  0  0  0  0  0  0  0  0  0
   21.2223   -9.6239   -4.4442 O   0  0  0  0  0  0  0  0  0  0  0  0
   17.7621   -6.4320   -4.6717 C   0  0  0  0  0  0  0  0  0  0  0  0
   21.0622   -5.4575   -6.6504 C   0  0  0  0  0  0  0  0  0  0  0  0
  1  2  1  1  0  0  0
  1  6  1  0  0  0  0
  1 21  1  0  0  0  0
  3  4  1  1  0  0  0
  3  8  1  0  0  0  0
  3 28  1  0  0  0  0
  5  9  1  0  0  0  0
  5 25  1  0  0  0  0
  5 29  1  1  0  0  0
  6  7  1  6  0  0  0
  6 11  1  0  0  0  0
  8 12  1  0  0  0  0
  9 10  1  1  0  0  0
  9 14  1  0  0  0  0
 11 16  1  0  0  0  0
 12 13  1  1  0  0  0
 12 17  1  0  0  0  0
 14 15  1  6  0  0  0
 14 18  1  0  0  0  0
 15 31  1  0  0  0  0
 16 20  1  0  0  0  0
 17  2  1  6  0  0  0
 17 22  1  0  0  0  0
 18 19  1  6  0  0  0
 18 24  1  0  0  0  0
 18 30  1  0  0  0  0
 20 21  1  0  0  0  0
 20 26  1  1  0  0  0
 22 23  1  6  0  0  0
 22 28  1  0  0  0  0
 24 25  1  0  0  0  0
 26 27  1  0  0  0  0
 28 29  1  6  0  0  0
M  END
>  <CHROM.1>
174.82785912,-162.17131684,-108.21972506,-161.91943432,-120.51596607,-67.79704128
22.00539949,-11.20324214,-4.12000692,-0.61806282,0.71732767,-1.12130934

>  <Name>
ligand

>  <RI>
0

>  <Rbt.Current_Directory>
/home/itssahil/PROJECTS/Mol_Feturizer/New_Systems/rnas/4F8V

>  <Rbt.Executable>
rbdock ($Id: //depot/dev/client3/rdock/2013.1/src/exe/rbdock.cxx#4 $)

>  <Rbt.Library>
libRbt.so (2013.1, Build901 2013/11/27)

>  <Rbt.Parameter_File>
/export/apps/rDock/src/rDock_2013.1_src/data/scripts/dock_solv.prm

>  <Rbt.Receptor>
prm/pocket_docking_2.prm

>  <SCORE>
-11.4476

>  <SCORE.INTER>
-8.85612

>  <SCORE.INTER.CONST>
1

>  <SCORE.INTER.POLAR>
0

>  <SCORE.INTER.ROT>
6

>  <SCORE.INTER.SOLV>
17.8709

>  <SCORE.INTER.VDW>
-19.461

>  <SCORE.INTER.norm>
-0.285681

>  <SCORE.INTRA>
-3.47034

>  <SCORE.INTRA.DIHEDRAL>
-9.75894

>  <SCORE.INTRA.DIHEDRAL.0>
15.9129

>  <SCORE.INTRA.POLAR>
0

>  <SCORE.INTRA.POLAR.0>
0

>  <SCORE.INTRA.REPUL>
0

>  <SCORE.INTRA.REPUL.0>
0

>  <SCORE.INTRA.SOLV>
1.28633

>  <SCORE.INTRA.SOLV.lig_0>
-75.7056

>  <SCORE.INTRA.VDW>
0.765962

>  <SCORE.INTRA.VDW.0>
-4.61812

>  <SCORE.INTRA.norm>
-0.111947

>  <SCORE.RESTR>
0.878842

>  <SCORE.RESTR.CAVITY>
0.878842

>  <SCORE.RESTR.norm>
0.0283498

>  <SCORE.SYSTEM>
0

>  <SCORE.SYSTEM.CONST>
0

>  <SCORE.SYSTEM.DIHEDRAL>
0

>  <SCORE.SYSTEM.SOLV>
0

>  <SCORE.SYSTEM.norm>
0

>  <SCORE.heavy>
31

>  <SCORE.norm>
-0.369278

>  <RMSD>
8.001

$$$$
ligand
 OpenBabel11021811493D
libRbt.so/2013.1/901 2013/11/27
 31 33  0  0  0  0  0  0  0  0999 V2000
   24.5718  -13.5624   -3.9199 C   0  0  2  0  0  0  0  0  0  0  0  0
   23.5086  -13.4302   -2.9667 O   0  0  0  0  0  0  0  0  0  0  0  0
   20.9525  -10.0948   -2.2389 C   0  0  2  0  0  0  0  0  0  0  0  0
   20.5346   -8.7831   -1.8745 N   0  0  0  0  0  0  0  0  0  0  0  0
   20.4524  -10.0186   -5.3676 C   0  0  2  0  0  0  0  0  0  0  0  0
   24.7458  -15.0877   -4.1975 C   0  0  2  0  0  0  0  0  0  0  0  0
   23.4756  -15.6309   -4.6746 N   0  0  0  0  0  0  0  0  0  0  0  0
   21.5996  -10.7991   -0.9880 C   0  0  0  0  0  0  0  0  0  0  0  0
   20.1502   -8.9641   -6.4663 C   0  0  2  0  0  0  0  0  0  0  0  0
   21.3628   -8.5947   -7.0823 O   0  0  0  0  0  0  0  0  0  0  0  0
   25.2403  -15.8274   -2.8951 C   0  0  0  0  0  0  0  0  0  0  0  0
   22.0624  -12.2566   -1.3967 C   0  0  2  0  0  0  0  0  0  0  0  0
   22.6735  -12.9208   -0.2272 N   0  0  0  0  0  0  0  0  0  0  0  0
   19.4512   -7.7253   -5.7779 C   0  0  1  0  0  0  0  0  0  0  0  0
   19.1609   -6.6736   -6.7931 N   0  0  0  0  0  0  0  0  0  0  0  0
   26.1606  -14.9276   -1.9928 C   0  0  0  0  0  0  0  0  0  0  0  0
   23.1118  -12.1508   -2.5838 C   0  0  2  0  0  0  0  0  0  0  0  0
   18.0595   -8.2034   -5.0812 C   0  0  1  0  0  0  0  0  0  0  0  0
   17.1360   -8.7327   -6.0009 O   0  0  0  0  0  0  0  0  0  0  0  0
   26.3920  -13.6411   -2.2941 C   0  0  1  0  0  0  0  0  0  0  0  0
   25.8311  -13.0233   -3.4356 O   0  0  0  0  0  0  0  0  0  0  0  0
   22.4476  -11.4267   -3.8107 C   0  0  2  0  0  0  0  0  0  0  0  0
   23.4006  -11.3258   -4.8674 O   0  0  0  0  0  0  0  0  0  0  0  0
   18.3762   -9.3090   -4.0272 C   0  0  0  0  0  0  0  0  0  0  0  0
   19.1829  -10.4242   -4.6614 O   0  0  0  0  0  0  0  0  0  0  0  0
   27.2766  -12.7258   -1.4251 C   0  0  0  0  0  0  0  0  0  0  0  0
   26.4942  -11.5838   -1.0056 N   0  0  0  0  0  0  0  0  0  0  0  0
   21.9857   -9.9836   -3.3793 C   0  0  1  0  0  0  0  0  0  0  0  0
   21.3907   -9.3687   -4.4842 O   0  0  0  0  0  0  0  0  0  0  0  0
   17.2581   -7.1058   -4.3669 C   0  0  0  0  0  0  0  0  0  0  0  0
   19.3667   -5.2821   -6.3628 C   0  0  0  0  0  0  0  0  0  0  0  0
  1  2  1  1  0  0  0
  1  6  1  0  0  0  0
  1 21  1  0  0  0  0
  3  4  1  1  0  0  0
  3  8  1  0  0  0  0
  3 28  1  0  0  0  0
  5  9  1  0  0  0  0
  5 25  1  0  0  0  0
  5 29  1  1  0  0  0
  6  7  1  1  0  0  0
  6 11  1  0  0  0  0
  8 12  1  0  0  0  0
  9 10  1  1  0  0  0
  9 14  1  0  0  0  0
 11 16  1  0  0  0  0
 12 13  1  1  0  0  0
 12 17  1  0  0  0  0
 14 15  1  6  0  0  0
 14 18  1  0  0  0  0
 15 31  1  0  0  0  0
 16 20  1  0  0  0  0
 17  2  1  6  0  0  0
 17 22  1  0  0  0  0
 18 19  1  6  0  0  0
 18 24  1  0  0  0  0
 18 30  1  0  0  0  0
 20 21  1  0  0  0  0
 20 26  1  1  0  0  0
 22 23  1  6  0  0  0
 22 28  1  0  0  0  0
 24 25  1  0  0  0  0
 26 27  1  0  0  0  0
 28 29  1  6  0  0  0
M  END
>  <CHROM.1>
-177.46887485,-176.82426379,-141.07679019,-172.80727683,-122.22515473,-75.02694791
22.03935593,-10.92681538,-3.79644624,-0.30734773,0.76168197,-1.60244512

>  <Name>
ligand

>  <RI>
0

>  <Rbt.Current_Directory>
/home/itssahil/PROJECTS/Mol_Feturizer/New_Systems/rnas/4F8V

>  <Rbt.Executable>
rbdock ($Id: //depot/dev/client3/rdock/2013.1/src/exe/rbdock.cxx#4 $)

>  <Rbt.Library>
libRbt.so (2013.1, Build901 2013/11/27)

>  <Rbt.Parameter_File>
/export/apps/rDock/src/rDock_2013.1_src/data/scripts/dock_solv.prm

>  <Rbt.Receptor>
prm/pocket_docking_3.prm

>  <SCORE>
-13.9053

>  <SCORE.INTER>
-9.88998

>  <SCORE.INTER.CONST>
1

>  <SCORE.INTER.POLAR>
0

>  <SCORE.INTER.ROT>
6

>  <SCORE.INTER.SOLV>
14.9538

>  <SCORE.INTER.VDW>
-19.1779

>  <SCORE.INTER.norm>
-0.319032

>  <SCORE.INTRA>
-4.01535

>  <SCORE.INTRA.DIHEDRAL>
-11.9625

>  <SCORE.INTRA.DIHEDRAL.0>
15.9129

>  <SCORE.INTRA.POLAR>
0

>  <SCORE.INTRA.POLAR.0>
0

>  <SCORE.INTRA.REPUL>
0

>  <SCORE.INTRA.REPUL.0>
0

>  <SCORE.INTRA.SOLV>
0.0271252

>  <SCORE.INTRA.SOLV.lig_0>
-75.7056

>  <SCORE.INTRA.VDW>
1.95232

>  <SCORE.INTRA.VDW.0>
-4.61812

>  <SCORE.INTRA.norm>
-0.129527

>  <SCORE.RESTR>
0

>  <SCORE.RESTR.CAVITY>
0

>  <SCORE.RESTR.norm>
0

>  <SCORE.SYSTEM>
0

>  <SCORE.SYSTEM.CONST>
0

>  <SCORE.SYSTEM.DIHEDRAL>
0

>  <SCORE.SYSTEM.SOLV>
0

>  <SCORE.SYSTEM.norm>
0

>  <SCORE.heavy>
31

>  <SCORE.norm>
-0.448559

>  <RMSD>
8.004

$$$$
ligand
 OpenBabel11021811493D
libRbt.so/2013.1/901 2013/11/27
 31 33  0  0  0  0  0  0  0  0999 V2000
   23.8202  -13.4966   -0.8944 C   0  0  2  0  0  0  0  0  0  0  0  0
   23.2729  -12.7774   -2.0078 O   0  0  0  0  0  0  0  0  0  0  0  0
   20.4645   -9.5687   -1.9329 C   0  0  2  0  0  0  0  0  0  0  0  0
   19.9273   -8.2644   -1.7377 N   0  0  0  0  0  0  0  0  0  0  0  0
   20.4606   -9.7399   -5.1017 C   0  0  2  0  0  0  0  0  0  0  0  0
   25.2583  -12.9404   -0.6572 C   0  0  2  0  0  0  0  0  0  0  0  0
   25.1776  -11.4994   -0.4267 N   0  0  0  0  0  0  0  0  0  0  0  0
   20.9454  -10.1440   -0.5482 C   0  0  0  0  0  0  0  0  0  0  0  0
   20.1763   -8.7471   -6.2610 C   0  0  2  0  0  0  0  0  0  0  0  0
   21.4050   -8.2520   -6.7420 O   0  0  0  0  0  0  0  0  0  0  0  0
   26.1855  -13.2798   -1.8872 C   0  0  0  0  0  0  0  0  0  0  0  0
   21.5414  -11.5937   -0.7690 C   0  0  2  0  0  0  0  0  0  0  0  0
   21.9973  -12.1369    0.5269 N   0  0  0  0  0  0  0  0  0  0  0  0
   19.2655   -7.5846   -5.6986 C   0  0  1  0  0  0  0  0  0  0  0  0
   18.9832   -6.5916   -6.7735 N   0  0  0  0  0  0  0  0  0  0  0  0
   25.8085  -14.6393   -2.5804 C   0  0  0  0  0  0  0  0  0  0  0  0
   22.7553  -11.5026   -1.7887 C   0  0  2  0  0  0  0  0  0  0  0  0
   17.8626   -8.2067   -5.1549 C   0  0  1  0  0  0  0  0  0  0  0  0
   17.1212   -8.8550   -6.1592 O   0  0  0  0  0  0  0  0  0  0  0  0
   24.7409  -15.3509   -2.1892 C   0  0  1  0  0  0  0  0  0  0  0  0
   23.9003  -14.9274   -1.1341 O   0  0  0  0  0  0  0  0  0  0  0  0
   22.2528  -10.9071   -3.1538 C   0  0  2  0  0  0  0  0  0  0  0  0
   23.3516  -10.8182   -4.0591 O   0  0  0  0  0  0  0  0  0  0  0  0
   18.1723   -9.2494   -4.0366 C   0  0  0  0  0  0  0  0  0  0  0  0
   19.1690  -10.2758   -4.5366 O   0  0  0  0  0  0  0  0  0  0  0  0
   24.3332  -16.6798   -2.8549 C   0  0  0  0  0  0  0  0  0  0  0  0
   23.1410  -16.4589   -3.6438 N   0  0  0  0  0  0  0  0  0  0  0  0
   21.6550   -9.4702   -2.9094 C   0  0  1  0  0  0  0  0  0  0  0  0
   21.2075   -8.9707   -4.1354 O   0  0  0  0  0  0  0  0  0  0  0  0
   16.8636   -7.1957   -4.5743 C   0  0  0  0  0  0  0  0  0  0  0  0
   18.8545   -5.1904   -6.3448 C   0  0  0  0  0  0  0  0  0  0  0  0
  1  2  1  6  0  0  0
  1  6  1  0  0  0  0
  1 21  1  0  0  0  0
  3  4  1  1  0  0  0
  3  8  1  0  0  0  0
  3 28  1  0  0  0  0
  5  9  1  0  0  0  0
  5 25  1  0  0  0  0
  5 29  1  1  0  0  0
  6  7  1  6  0  0  0
  6 11  1  0  0  0  0
  8 12  1  0  0  0  0
  9 10  1  1  0  0  0
  9 14  1  0  0  0  0
 11 16  1  0  0  0  0
 12 13  1  1  0  0  0
 12 17  1  0  0  0  0
 14 15  1  6  0  0  0
 14 18  1  0  0  0  0
 15 31  1  0  0  0  0
 16 20  1  0  0  0  0
 17  2  1  6  0  0  0
 17 22  1  0  0  0  0
 18 19  1  6  0  0  0
 18 24  1  0  0  0  0
 18 30  1  0  0  0  0
 20 21  1  0  0  0  0
 20 26  1  6  0  0  0
 22 23  1  6  0  0  0
 22 28  1  0  0  0  0
 24 25  1  0  0  0  0
 26 27  1  0  0  0  0
 28 29  1  6  0  0  0
M  END
>  <CHROM.1>
-79.92466749,178.77418932,-146.58395518,-61.53495899,-107.66342830,-75.46397552
21.59597433,-10.79906612,-3.27016765,0.24533201,-0.89915734,1.35111893

>  <Name>
ligand

>  <RI>
0

>  <Rbt.Current_Directory>
/home/itssahil/PROJECTS/Mol_Feturizer/New_Systems/rnas/4F8V

>  <Rbt.Executable>
rbdock ($Id: //depot/dev/client3/rdock/2013.1/src/exe/rbdock.cxx#4 $)

>  <Rbt.Library>
libRbt.so (2013.1, Build901 2013/11/27)

>  <Rbt.Parameter_File>
/export/apps/rDock/src/rDock_2013.1_src/data/scripts/dock_solv.prm

>  <Rbt.Receptor>
prm/pocket_docking_3.prm

>  <SCORE>
-12.0641

>  <SCORE.INTER>
-11.7735

>  <SCORE.INTER.CONST>
1

>  <SCORE.INTER.POLAR>
0

>  <SCORE.INTER.ROT>
6

>  <SCORE.INTER.SOLV>
20.7059

>  <SCORE.INTER.VDW>
-22.3509

>  <SCORE.INTER.norm>
-0.379789

>  <SCORE.INTRA>
-0.290655

>  <SCORE.INTRA.DIHEDRAL>
-10.4055

>  <SCORE.INTRA.DIHEDRAL.0>
15.9129

>  <SCORE.INTRA.POLAR>
0

>  <SCORE.INTRA.POLAR.0>
0

>  <SCORE.INTRA.REPUL>
0

>  <SCORE.INTRA.REPUL.0>
0

>  <SCORE.INTRA.SOLV>
3.41413

>  <SCORE.INTRA.SOLV.lig_0>
-75.7056

>  <SCORE.INTRA.VDW>
3.20503

>  <SCORE.INTRA.VDW.0>
-4.61812

>  <SCORE.INTRA.norm>
-0.00937597

>  <SCORE.RESTR>
0

>  <SCORE.RESTR.CAVITY>
0

>  <SCORE.RESTR.norm>
0

>  <SCORE.SYSTEM>
0

>  <SCORE.SYSTEM.CONST>
0

>  <SCORE.SYSTEM.DIHEDRAL>
0

>  <SCORE.SYSTEM.SOLV>
0

>  <SCORE.SYSTEM.norm>
0

>  <SCORE.heavy>
31

>  <SCORE.norm>
-0.389165

>  <RMSD>
8.008

$$$$
ligand
 OpenBabel11021811493D
libRbt.so/2013.1/901 2013/11/27
 31 33  0  0  0  0  0  0  0  0999 V2000
   26.4478  -13.7232   -2.7141 C   0  0  2  0  0  0  0  0  0  0  0  0
   25.0859  -13.3763   -2.4292 O   0  0  0  0  0  0  0  0  0  0  0  0
   23.2481  -15.5257   -5.6215 C   0  0  2  0  0  0  0  0  0  0  0  0
   22.2389  -16.0168   -6.4981 N   0  0  0  0  0  0  0  0  0  0  0  0
   22.6398  -13.7225   -8.1123 C   0  0  2  0  0  0  0  0  0  0  0  0
   27.2300  -13.6363   -1.3672 C   0  0  2  0  0  0  0  0  0  0  0  0
   26.6012  -14.5284   -0.3951 N   0  0  0  0  0  0  0  0  0  0  0  0
   22.9352  -16.0003   -4.1531 C   0  0  0  0  0  0  0  0  0  0  0  0
   23.1239  -12.6725   -9.1485 C   0  0  2  0  0  0  0  0  0  0  0  0
   24.4719  -12.9377   -9.4629 O   0  0  0  0  0  0  0  0  0  0  0  0
   27.2639  -12.1466   -0.8499 C   0  0  0  0  0  0  0  0  0  0  0  0
   24.0590  -15.4530   -3.1819 C   0  0  2  0  0  0  0  0  0  0  0  0
   23.7683  -15.8927   -1.8018 N   0  0  0  0  0  0  0  0  0  0  0  0
   22.9513  -11.2375   -8.5096 C   0  0  1  0  0  0  0  0  0  0  0  0
   23.4253  -10.1940   -9.4622 N   0  0  0  0  0  0  0  0  0  0  0  0
   27.2873  -11.0942   -2.0173 C   0  0  0  0  0  0  0  0  0  0  0  0
   24.0841  -13.8674   -3.2637 C   0  0  2  0  0  0  0  0  0  0  0  0
   21.3812  -10.9809   -8.1636 C   0  0  1  0  0  0  0  0  0  0  0  0
   20.5524  -11.0231   -9.2994 O   0  0  0  0  0  0  0  0  0  0  0  0
   27.1891  -11.4718   -3.3007 C   0  0  1  0  0  0  0  0  0  0  0  0
   27.0656  -12.8288   -3.6782 O   0  0  0  0  0  0  0  0  0  0  0  0
   24.3777  -13.4209   -4.7419 C   0  0  2  0  0  0  0  0  0  0  0  0
   24.3869  -11.9960   -4.8080 O   0  0  0  0  0  0  0  0  0  0  0  0
   20.8957  -12.0836   -7.1726 C   0  0  0  0  0  0  0  0  0  0  0  0
   21.2059  -13.4602   -7.7250 O   0  0  0  0  0  0  0  0  0  0  0  0
   27.1940  -10.4673   -4.4696 C   0  0  0  0  0  0  0  0  0  0  0  0
   28.5086  -10.4611   -5.0729 N   0  0  0  0  0  0  0  0  0  0  0  0
   23.2541  -13.9844   -5.6916 C   0  0  1  0  0  0  0  0  0  0  0  0
   23.5460  -13.5819   -6.9976 O   0  0  0  0  0  0  0  0  0  0  0  0
   21.0492   -9.6207   -7.5336 C   0  0  0  0  0  0  0  0  0  0  0  0
   24.2331   -9.1081   -8.8858 C   0  0  0  0  0  0  0  0  0  0  0  0
  1  2  1  1  0  0  0
  1  6  1  0  0  0  0
  1 21  1  0  0  0  0
  3  4  1  6  0  0  0
  3  8  1  0  0  0  0
  3 28  1  0  0  0  0
  5  9  1  0  0  0  0
  5 25  1  0  0  0  0
  5 29  1  1  0  0  0
  6  7  1  1  0  0  0
  6 11  1  0  0  0  0
  8 12  1  0  0  0  0
  9 10  1  1  0  0  0
  9 14  1  0  0  0  0
 11 16  1  0  0  0  0
 12 13  1  1  0  0  0
 12 17  1  0  0  0  0
 14 15  1  6  0  0  0
 14 18  1  0  0  0  0
 15 31  1  0  0  0  0
 16 20  1  0  0  0  0
 17  2  1  1  0  0  0
 17 22  1  0  0  0  0
 18 19  1  6  0  0  0
 18 24  1  0  0  0  0
 18 30  1  0  0  0  0
 20 21  1  0  0  0  0
 20 26  1  1  0  0  0
 22 23  1  1  0  0  0
 22 28  1  0  0  0  0
 24 25  1  0  0  0  0
 26 27  1  0  0  0  0
 28 29  1  6  0  0  0
M  END
>  <CHROM.1>
-154.46818640,157.88241773,-137.10141256,63.03941582,101.37045537,71.24477079
24.23432991,-12.76321407,-5.41085159,0.78540663,0.69985064,2.38559215

>  <Name>
ligand

>  <RI>
0

>  <Rbt.Current_Directory>
/home/itssahil/PROJECTS/Mol_Feturizer/New_Systems/rnas/4F8V

>  <Rbt.Executable>
rbdock ($Id: //depot/dev/client3/rdock/2013.1/src/exe/rbdock.cxx#4 $)

>  <Rbt.Library>
libRbt.so (2013.1, Build901 2013/11/27)

>  <Rbt.Parameter_File>
/export/apps/rDock/src/rDock_2013.1_src/data/scripts/dock_solv.prm

>  <Rbt.Receptor>
prm/pocket_docking_5.prm

>  <SCORE>
-2.36497

>  <SCORE.INTER>
-0.261845

>  <SCORE.INTER.CONST>
1

>  <SCORE.INTER.POLAR>
0

>  <SCORE.INTER.ROT>
6

>  <SCORE.INTER.SOLV>
14.4714

>  <SCORE.INTER.VDW>
-12.5983

>  <SCORE.INTER.norm>
-0.00844661

>  <SCORE.INTRA>
-2.10312

>  <SCORE.INTRA.DIHEDRAL>
-7.26232

>  <SCORE.INTRA.DIHEDRAL.0>
15.9129

>  <SCORE.INTRA.POLAR>
0

>  <SCORE.INTRA.POLAR.0>
0

>  <SCORE.INTRA.REPUL>
0

>  <SCORE.INTRA.REPUL.0>
0

>  <SCORE.INTRA.SOLV>
0.195425

>  <SCORE.INTRA.SOLV.lig_0>
-75.7056

>  <SCORE.INTRA.VDW>
1.43033

>  <SCORE.INTRA.VDW.0>
-4.61812

>  <SCORE.INTRA.norm>
-0.0678427

>  <SCORE.RESTR>
0

>  <SCORE.RESTR.CAVITY>
0

>  <SCORE.RESTR.norm>
0

>  <SCORE.SYSTEM>
0

>  <SCORE.SYSTEM.CONST>
0

>  <SCORE.SYSTEM.DIHEDRAL>
0

>  <SCORE.SYSTEM.SOLV>
0

>  <SCORE.SYSTEM.norm>
0

>  <SCORE.heavy>
31

>  <SCORE.norm>
-0.0762893

>  <RMSD>
8.023

$$$$
ligand
 OpenBabel11021811493D
libRbt.so/2013.1/901 2013/11/27
 31 33  0  0  0  0  0  0  0  0999 V2000
   24.5503  -13.6031   -4.0432 C   0  0  2  0  0  0  0  0  0  0  0  0
   23.4978  -13.4717   -3.0782 O   0  0  0  0  0  0  0  0  0  0  0  0
   20.9707  -10.1358   -2.2573 C   0  0  2  0  0  0  0  0  0  0  0  0
   20.5664   -8.8247   -1.8757 N   0  0  0  0  0  0  0  0  0  0  0  0
   20.3463  -10.0411   -5.3498 C   0  0  2  0  0  0  0  0  0  0  0  0
   24.6919  -15.1248   -4.3565 C   0  0  2  0  0  0  0  0  0  0  0  0
   23.4074  -15.6321   -4.8348 N   0  0  0  0  0  0  0  0  0  0  0  0
   21.6579  -10.8442   -1.0303 C   0  0  0  0  0  0  0  0  0  0  0  0
   20.0404   -9.0010   -6.4611 C   0  0  2  0  0  0  0  0  0  0  0  0
   21.2421   -8.6854   -7.1263 O   0  0  0  0  0  0  0  0  0  0  0  0
   25.1822  -15.9033   -3.0754 C   0  0  0  0  0  0  0  0  0  0  0  0
   22.1054  -12.3011   -1.4581 C   0  0  2  0  0  0  0  0  0  0  0  0
   22.7540  -12.9692   -0.3112 N   0  0  0  0  0  0  0  0  0  0  0  0
   19.4063   -7.7251   -5.7774 C   0  0  1  0  0  0  0  0  0  0  0  0
   19.1152   -6.6863   -6.8056 N   0  0  0  0  0  0  0  0  0  0  0  0
   26.1275  -15.0424   -2.1610 C   0  0  0  0  0  0  0  0  0  0  0  0
   23.1151  -12.1930   -2.6789 C   0  0  2  0  0  0  0  0  0  0  0  0
   18.0250   -8.1415   -5.0230 C   0  0  1  0  0  0  0  0  0  0  0  0
   17.0534   -8.6594   -5.8984 O   0  0  0  0  0  0  0  0  0  0  0  0
   26.3818  -13.7542   -2.4352 C   0  0  1  0  0  0  0  0  0  0  0  0
   25.8239  -13.0999   -3.5577 O   0  0  0  0  0  0  0  0  0  0  0  0
   22.4117  -11.4648   -3.8812 C   0  0  2  0  0  0  0  0  0  0  0  0
   23.3294  -11.3619   -4.9684 O   0  0  0  0  0  0  0  0  0  0  0  0
   18.3422   -9.2342   -3.9556 C   0  0  0  0  0  0  0  0  0  0  0  0
   19.0897  -10.3889   -4.5916 O   0  0  0  0  0  0  0  0  0  0  0  0
   27.2913  -12.8762   -1.5536 C   0  0  0  0  0  0  0  0  0  0  0  0
   26.5540  -11.6984   -1.1517 N   0  0  0  0  0  0  0  0  0  0  0  0
   21.9659  -10.0225   -3.4309 C   0  0  1  0  0  0  0  0  0  0  0  0
   21.3354   -9.4038   -4.5138 O   0  0  0  0  0  0  0  0  0  0  0  0
   17.2851   -7.0028   -4.3067 C   0  0  0  0  0  0  0  0  0  0  0  0
   19.2848   -5.2881   -6.3814 C   0  0  0  0  0  0  0  0  0  0  0  0
  1  2  1  1  0  0  0
  1  6  1  0  0  0  0
  1 21  1  0  0  0  0
  3  4  1  1  0  0  0
  3  8  1  0  0  0  0
  3 28  1  0  0  0  0
  5  9  1  0  0  0  0
  5 25  1  0  0  0  0
  5 29  1  1  0  0  0
  6  7  1  1  0  0  0
  6 11  1  0  0  0  0
  8 12  1  0  0  0  0
  9 10  1  1  0  0  0
  9 14  1  0  0  0  0
 11 16  1  0  0  0  0
 12 13  1  1  0  0  0
 12 17  1  0  0  0  0
 14 15  1  6  0  0  0
 14 18  1  0  0  0  0
 15 31  1  0  0  0  0
 16 20  1  0  0  0  0
 17  2  1  6  0  0  0
 17 22  1  0  0  0  0
 18 19  1  6  0  0  0
 18 24  1  0  0  0  0
 18 30  1  0  0  0  0
 20 21  1  0  0  0  0
 20 26  1  1  0  0  0
 22 23  1  6  0  0  0
 22 28  1  0  0  0  0
 24 25  1  0  0  0  0
 26 27  1  0  0  0  0
 28 29  1  6  0  0  0
M  END
>  <CHROM.1>
-176.47750268,-175.62262839,-145.49635548,-171.37104212,-124.79775525,-73.61133007
22.01053233,-10.95856858,-3.85007354,-0.26225489,0.77174121,-1.63779733

>  <Name>
ligand

>  <RI>
0

>  <Rbt.Current_Directory>
/home/itssahil/PROJECTS/Mol_Feturizer/New_Systems/rnas/4F8V

>  <Rbt.Executable>
rbdock ($Id: //depot/dev/client3/rdock/2013.1/src/exe/rbdock.cxx#4 $)

>  <Rbt.Library>
libRbt.so (2013.1, Build901 2013/11/27)

>  <Rbt.Parameter_File>
/export/apps/rDock/src/rDock_2013.1_src/data/scripts/dock_solv.prm

>  <Rbt.Receptor>
prm/pocket_docking_6.prm

>  <SCORE>
-13.9145

>  <SCORE.INTER>
-9.94818

>  <SCORE.INTER.CONST>
1

>  <SCORE.INTER.POLAR>
0

>  <SCORE.INTER.ROT>
6

>  <SCORE.INTER.SOLV>
14.934

>  <SCORE.INTER.VDW>
-19.2101

>  <SCORE.INTER.norm>
-0.320909

>  <SCORE.INTRA>
-3.96637

>  <SCORE.INTRA.DIHEDRAL>
-12.0679

>  <SCORE.INTRA.DIHEDRAL.0>
15.9129

>  <SCORE.INTRA.POLAR>
0

>  <SCORE.INTRA.POLAR.0>
0

>  <SCORE.INTRA.REPUL>
0

>  <SCORE.INTRA.REPUL.0>
0

>  <SCORE.INTRA.SOLV>
0.14831

>  <SCORE.INTRA.SOLV.lig_0>
-75.7056

>  <SCORE.INTRA.VDW>
1.99344

>  <SCORE.INTRA.VDW.0>
-4.61812

>  <SCORE.INTRA.norm>
-0.127947

>  <SCORE.RESTR>
0

>  <SCORE.RESTR.CAVITY>
0

>  <SCORE.RESTR.norm>
0

>  <SCORE.SYSTEM>
0

>  <SCORE.SYSTEM.CONST>
0

>  <SCORE.SYSTEM.DIHEDRAL>
0

>  <SCORE.SYSTEM.SOLV>
0

>  <SCORE.SYSTEM.norm>
0

>  <SCORE.heavy>
31

>  <SCORE.norm>
-0.448856

>  <RMSD>
8.025

$$$$
ligand
 OpenBabel11021811493D
libRbt.so/2013.1/901 2013/11/27
 31 33  0  0  0  0  0  0  0  0999 V2000
   26.9491   -9.7269   -1.5324 C   0  0  2  0  0  0  0  0  0  0  0  0
   27.3076  -11.0080   -2.0676 O   0  0  0  0  0  0  0  0  0  0  0  0
   25.2407  -13.5877   -4.7624 C   0  0  2  0  0  0  0  0  0  0  0  0
   24.2097  -14.4046   -5.3079 N   0  0  0  0  0  0  0  0  0  0  0  0
   23.1810  -12.1547   -6.5552 C   0  0  2  0  0  0  0  0  0  0  0  0
   28.2734   -9.0358   -1.0826 C   0  0  2  0  0  0  0  0  0  0  0  0
   29.1754   -8.9474   -2.2292 N   0  0  0  0  0  0  0  0  0  0  0  0
   25.7194  -14.2020   -3.3938 C   0  0  0  0  0  0  0  0  0  0  0  0
   23.2294  -11.3419   -7.8772 C   0  0  2  0  0  0  0  0  0  0  0  0
   24.4997  -11.5105   -8.4638 O   0  0  0  0  0  0  0  0  0  0  0  0
   28.9283   -9.8333    0.1103 C   0  0  0  0  0  0  0  0  0  0  0  0
   26.8655  -13.2918   -2.7907 C   0  0  2  0  0  0  0  0  0  0  0  0
   27.3160  -13.8620   -1.5046 N   0  0  0  0  0  0  0  0  0  0  0  0
   22.9497   -9.8256   -7.5309 C   0  0  1  0  0  0  0  0  0  0  0  0
   23.0081   -8.9996   -8.7700 N   0  0  0  0  0  0  0  0  0  0  0  0
   27.8658  -10.5206    1.0428 C   0  0  0  0  0  0  0  0  0  0  0  0
   26.2995  -11.8236   -2.5771 C   0  0  2  0  0  0  0  0  0  0  0  0
   21.4749   -9.6844   -6.8558 C   0  0  1  0  0  0  0  0  0  0  0  0
   20.4368  -10.1059   -7.7062 O   0  0  0  0  0  0  0  0  0  0  0  0
   26.5560  -10.4838    0.7557 C   0  0  1  0  0  0  0  0  0  0  0  0
   26.0556   -9.8248   -0.3908 O   0  0  0  0  0  0  0  0  0  0  0  0
   25.8103  -11.2423   -3.9532 C   0  0  2  0  0  0  0  0  0  0  0  0
   25.2932   -9.9286   -3.7497 O   0  0  0  0  0  0  0  0  0  0  0  0
   21.4245  -10.5592   -5.5650 C   0  0  0  0  0  0  0  0  0  0  0  0
   21.8449  -11.9813   -5.8773 O   0  0  0  0  0  0  0  0  0  0  0  0
   25.4881  -11.1584    1.6387 C   0  0  0  0  0  0  0  0  0  0  0  0
   24.5530  -10.1513    2.0900 N   0  0  0  0  0  0  0  0  0  0  0  0
   24.6786  -12.1682   -4.5396 C   0  0  1  0  0  0  0  0  0  0  0  0
   24.2713  -11.6344   -5.7652 O   0  0  0  0  0  0  0  0  0  0  0  0
   21.0537   -8.2616   -6.4614 C   0  0  0  0  0  0  0  0  0  0  0  0
   23.8486   -7.7940   -8.7071 C   0  0  0  0  0  0  0  0  0  0  0  0
  1  2  1  1  0  0  0
  1  6  1  0  0  0  0
  1 21  1  0  0  0  0
  3  4  1  1  0  0  0
  3  8  1  0  0  0  0
  3 28  1  0  0  0  0
  5  9  1  0  0  0  0
  5 25  1  0  0  0  0
  5 29  1  1  0  0  0
  6  7  1  6  0  0  0
  6 11  1  0  0  0  0
  8 12  1  0  0  0  0
  9 10  1  1  0  0  0
  9 14  1  0  0  0  0
 11 16  1  0  0  0  0
 12 13  1  1  0  0  0
 12 17  1  0  0  0  0
 14 15  1  6  0  0  0
 14 18  1  0  0  0  0
 15 31  1  0  0  0  0
 16 20  1  0  0  0  0
 17  2  1  6  0  0  0
 17 22  1  0  0  0  0
 18 19  1  6  0  0  0
 18 24  1  0  0  0  0
 18 30  1  0  0  0  0
 20 21  1  0  0  0  0
 20 26  1  6  0  0  0
 22 23  1  1  0  0  0
 22 28  1  0  0  0  0
 24 25  1  0  0  0  0
 26 27  1  0  0  0  0
 28 29  1  6  0  0  0
M  END
>  <CHROM.1>
-178.40146269,-173.67099537,-130.13984901,-166.80767787,120.93560435,65.65408261
24.93066006,-10.91689053,-3.91818254,0.21282966,-0.98502753,0.30483999

>  <Name>
ligand

>  <RI>
0

>  <Rbt.Current_Directory>
/home/itssahil/PROJECTS/Mol_Feturizer/New_Systems/rnas/4F8V

>  <Rbt.Executable>
rbdock ($Id: //depot/dev/client3/rdock/2013.1/src/exe/rbdock.cxx#4 $)

>  <Rbt.Library>
libRbt.so (2013.1, Build901 2013/11/27)

>  <Rbt.Parameter_File>
/export/apps/rDock/src/rDock_2013.1_src/data/scripts/dock_solv.prm

>  <Rbt.Receptor>
prm/pocket_docking_6.prm

>  <SCORE>
-6.79736

>  <SCORE.INTER>
-1.47573

>  <SCORE.INTER.CONST>
1

>  <SCORE.INTER.POLAR>
0

>  <SCORE.INTER.ROT>
6

>  <SCORE.INTER.SOLV>
9.04619

>  <SCORE.INTER.VDW>
-11.5992

>  <SCORE.INTER.norm>
-0.0476043

>  <SCORE.INTRA>
-5.32163

>  <SCORE.INTRA.DIHEDRAL>
-11.9209

>  <SCORE.INTRA.DIHEDRAL.0>
15.9129

>  <SCORE.INTRA.POLAR>
0

>  <SCORE.INTRA.POLAR.0>
0

>  <SCORE.INTRA.REPUL>
0

>  <SCORE.INTRA.REPUL.0>
0

>  <SCORE.INTRA.SOLV>
-2.0923

>  <SCORE.INTRA.SOLV.lig_0>
-75.7056

>  <SCORE.INTRA.VDW>
1.68496

>  <SCORE.INTRA.VDW.0>
-4.61812

>  <SCORE.INTRA.norm>
-0.171665

>  <SCORE.RESTR>
0

>  <SCORE.RESTR.CAVITY>
0

>  <SCORE.RESTR.norm>
0

>  <SCORE.SYSTEM>
0

>  <SCORE.SYSTEM.CONST>
0

>  <SCORE.SYSTEM.DIHEDRAL>
0

>  <SCORE.SYSTEM.SOLV>
0

>  <SCORE.SYSTEM.norm>
0

>  <SCORE.heavy>
31

>  <SCORE.norm>
-0.21927

>  <RMSD>
8.033

$$$$
ligand
 OpenBabel11021811493D
libRbt.so/2013.1/901 2013/11/27
 31 33  0  0  0  0  0  0  0  0999 V2000
   26.0328  -12.3018   -3.4249 C   0  0  2  0  0  0  0  0  0  0  0  0
   24.6520  -12.2042   -3.0505 O   0  0  0  0  0  0  0  0  0  0  0  0
   21.4433  -10.1897   -5.0087 C   0  0  2  0  0  0  0  0  0  0  0  0
   20.6672   -9.1336   -5.5658 N   0  0  0  0  0  0  0  0  0  0  0  0
   21.9096   -9.5668   -7.9520 C   0  0  2  0  0  0  0  0  0  0  0  0
   26.5276  -13.7105   -2.9724 C   0  0  2  0  0  0  0  0  0  0  0  0
   25.6891  -14.7312   -3.5979 N   0  0  0  0  0  0  0  0  0  0  0  0
   21.6166   -9.9460   -3.4627 C   0  0  0  0  0  0  0  0  0  0  0  0
   21.9262  -10.2920   -9.3247 C   0  0  2  0  0  0  0  0  0  0  0  0
   21.3579  -11.5718   -9.1653 O   0  0  0  0  0  0  0  0  0  0  0  0
   26.4988  -13.8206   -1.3993 C   0  0  0  0  0  0  0  0  0  0  0  0
   22.4792  -11.1218   -2.8470 C   0  0  2  0  0  0  0  0  0  0  0  0
   22.6478  -10.8962   -1.3969 N   0  0  0  0  0  0  0  0  0  0  0  0
   23.4263  -10.3828   -9.8131 C   0  0  1  0  0  0  0  0  0  0  0  0
   23.4953  -11.0935  -11.1213 N   0  0  0  0  0  0  0  0  0  0  0  0
   26.7891  -12.4508   -0.6849 C   0  0  0  0  0  0  0  0  0  0  0  0
   23.8928  -11.1575   -3.5695 C   0  0  2  0  0  0  0  0  0  0  0  0
   24.0364   -8.8826   -9.9798 C   0  0  1  0  0  0  0  0  0  0  0  0
   23.3452   -8.1089  -10.9297 O   0  0  0  0  0  0  0  0  0  0  0  0
   26.9425  -11.3165   -1.3843 C   0  0  1  0  0  0  0  0  0  0  0  0
   26.8590  -11.2859   -2.7954 O   0  0  0  0  0  0  0  0  0  0  0  0
   23.6904  -11.3812   -5.1121 C   0  0  2  0  0  0  0  0  0  0  0  0
   24.9641  -11.4004   -5.7540 O   0  0  0  0  0  0  0  0  0  0  0  0
   23.9511   -8.1473   -8.6065 C   0  0  0  0  0  0  0  0  0  0  0  0
   22.5349   -8.1993   -8.0695 O   0  0  0  0  0  0  0  0  0  0  0  0
   27.2135   -9.9539   -0.7170 C   0  0  0  0  0  0  0  0  0  0  0  0
   28.3519   -9.3375   -1.3623 N   0  0  0  0  0  0  0  0  0  0  0  0
   22.8218  -10.2066   -5.7016 C   0  0  1  0  0  0  0  0  0  0  0  0
   22.6493  -10.4368   -7.0691 O   0  0  0  0  0  0  0  0  0  0  0  0
   25.4951   -8.8028  -10.4522 C   0  0  0  0  0  0  0  0  0  0  0  0
   23.8399  -12.5225  -11.0659 C   0  0  0  0  0  0  0  0  0  0  0  0
  1  2  1  1  0  0  0
  1  6  1  0  0  0  0
  1 21  1  0  0  0  0
  3  4  1  6  0  0  0
  3  8  1  0  0  0  0
  3 28  1  0  0  0  0
  5  9  1  0  0  0  0
  5 25  1  0  0  0  0
  5 29  1  1  0  0  0
  6  7  1  6  0  0  0
  6 11  1  0  0  0  0
  8 12  1  0  0  0  0
  9 10  1  1  0  0  0
  9 14  1  0  0  0  0
 11 16  1  0  0  0  0
 12 13  1  1  0  0  0
 12 17  1  0  0  0  0
 14 15  1  6  0  0  0
 14 18  1  0  0  0  0
 15 31  1  0  0  0  0
 16 20  1  0  0  0  0
 17  2  1  1  0  0  0
 17 22  1  0  0  0  0
 18 19  1  6  0  0  0
 18 24  1  0  0  0  0
 18 30  1  0  0  0  0
 20 21  1  0  0  0  0
 20 26  1  1  0  0  0
 22 23  1  6  0  0  0
 22 28  1  0  0  0  0
 24 25  1  0  0  0  0
 26 27  1  0  0  0  0
 28 29  1  6  0  0  0
M  END
>  <CHROM.1>
-167.41302351,-176.32991166,-97.87438288,-171.22920025,129.72542276,61.19236253
24.12232020,-10.78292447,-5.64077377,-1.18336196,0.36502373,-1.45723598

>  <Name>
ligand

>  <RI>
0

>  <Rbt.Current_Directory>
/home/itssahil/PROJECTS/Mol_Feturizer/New_Systems/rnas/4F8V

>  <Rbt.Executable>
rbdock ($Id: //depot/dev/client3/rdock/2013.1/src/exe/rbdock.cxx#4 $)

>  <Rbt.Library>
libRbt.so (2013.1, Build901 2013/11/27)

>  <Rbt.Parameter_File>
/export/apps/rDock/src/rDock_2013.1_src/data/scripts/dock_solv.prm

>  <Rbt.Receptor>
prm/pocket_docking_6.prm

>  <SCORE>
-9.67927

>  <SCORE.INTER>
-4.98814

>  <SCORE.INTER.CONST>
1

>  <SCORE.INTER.POLAR>
0

>  <SCORE.INTER.ROT>
6

>  <SCORE.INTER.SOLV>
6.35998

>  <SCORE.INTER.VDW>
-13.0454

>  <SCORE.INTER.norm>
-0.160908

>  <SCORE.INTRA>
-4.69113

>  <SCORE.INTRA.DIHEDRAL>
-12.0663

>  <SCORE.INTRA.DIHEDRAL.0>
15.9129

>  <SCORE.INTRA.POLAR>
0

>  <SCORE.INTRA.POLAR.0>
0

>  <SCORE.INTRA.REPUL>
0

>  <SCORE.INTRA.REPUL.0>
0

>  <SCORE.INTRA.SOLV>
-1.89643

>  <SCORE.INTRA.SOLV.lig_0>
-75.7056

>  <SCORE.INTRA.VDW>
2.29022

>  <SCORE.INTRA.VDW.0>
-4.61812

>  <SCORE.INTRA.norm>
-0.151327

>  <SCORE.RESTR>
0

>  <SCORE.RESTR.CAVITY>
0

>  <SCORE.RESTR.norm>
0

>  <SCORE.SYSTEM>
0

>  <SCORE.SYSTEM.CONST>
0

>  <SCORE.SYSTEM.DIHEDRAL>
0

>  <SCORE.SYSTEM.SOLV>
0

>  <SCORE.SYSTEM.norm>
0

>  <SCORE.heavy>
31

>  <SCORE.norm>
-0.312235

>  <RMSD>
8.036

$$$$
ligand
 OpenBabel11021811493D
libRbt.so/2013.1/901 2013/11/27
 31 33  0  0  0  0  0  0  0  0999 V2000
   24.1541  -13.8878   -4.3147 C   0  0  2  0  0  0  0  0  0  0  0  0
   23.0576  -13.8299   -3.3924 O   0  0  0  0  0  0  0  0  0  0  0  0
   20.6917  -10.4891   -2.1965 C   0  0  2  0  0  0  0  0  0  0  0  0
   20.3454   -9.2248   -1.6402 N   0  0  0  0  0  0  0  0  0  0  0  0
   20.2299   -9.8862   -5.2463 C   0  0  2  0  0  0  0  0  0  0  0  0
   24.2862  -15.3740   -4.7705 C   0  0  2  0  0  0  0  0  0  0  0  0
   23.0187  -15.8046   -5.3572 N   0  0  0  0  0  0  0  0  0  0  0  0
   21.2639  -11.4165   -1.0598 C   0  0  0  0  0  0  0  0  0  0  0  0
   20.1108   -8.7088   -6.2513 C   0  0  2  0  0  0  0  0  0  0  0  0
   21.3796   -8.4678   -6.8156 O   0  0  0  0  0  0  0  0  0  0  0  0
   24.7000  -16.2850   -3.5512 C   0  0  0  0  0  0  0  0  0  0  0  0
   21.6473  -12.8208   -1.6817 C   0  0  2  0  0  0  0  0  0  0  0  0
   22.1880  -13.6938   -0.6198 N   0  0  0  0  0  0  0  0  0  0  0  0
   19.5786   -7.4453   -5.4656 C   0  0  1  0  0  0  0  0  0  0  0  0
   19.4687   -6.2796   -6.3875 N   0  0  0  0  0  0  0  0  0  0  0  0
   25.6129  -15.5383   -2.5120 C   0  0  0  0  0  0  0  0  0  0  0  0
   22.7299  -12.6015   -2.8225 C   0  0  2  0  0  0  0  0  0  0  0  0
   18.1150   -7.7744   -4.8329 C   0  0  1  0  0  0  0  0  0  0  0  0
   17.1497   -8.0835   -5.8084 O   0  0  0  0  0  0  0  0  0  0  0  0
   25.9013  -14.2351   -2.6446 C   0  0  1  0  0  0  0  0  0  0  0  0
   25.4103  -13.4618   -3.7217 O   0  0  0  0  0  0  0  0  0  0  0  0
   22.1412  -11.6572   -3.9327 C   0  0  2  0  0  0  0  0  0  0  0  0
   23.1241  -11.4568   -4.9468 O   0  0  0  0  0  0  0  0  0  0  0  0
   18.2422   -9.0005   -3.8767 C   0  0  0  0  0  0  0  0  0  0  0  0
   18.8973  -10.1624   -4.5961 O   0  0  0  0  0  0  0  0  0  0  0  0
   26.7805  -13.4675   -1.6379 C   0  0  0  0  0  0  0  0  0  0  0  0
   27.8224  -12.7743   -2.3634 N   0  0  0  0  0  0  0  0  0  0  0  0
   21.7574  -10.2707   -3.2907 C   0  0  1  0  0  0  0  0  0  0  0  0
   21.2281   -9.4572   -4.2961 O   0  0  0  0  0  0  0  0  0  0  0  0
   17.4605   -6.6375   -4.0352 C   0  0  0  0  0  0  0  0  0  0  0  0
   20.6117   -5.3538   -6.4019 C   0  0  0  0  0  0  0  0  0  0  0  0
  1  2  1  1  0  0  0
  1  6  1  0  0  0  0
  1 21  1  0  0  0  0
  3  4  1  1  0  0  0
  3  8  1  0  0  0  0
  3 28  1  0  0  0  0
  5  9  1  0  0  0  0
  5 25  1  0  0  0  0
  5 29  1  1  0  0  0
  6  7  1  1  0  0  0
  6 11  1  0  0  0  0
  8 12  1  0  0  0  0
  9 10  1  1  0  0  0
  9 14  1  0  0  0  0
 11 16  1  0  0  0  0
 12 13  1  1  0  0  0
 12 17  1  0  0  0  0
 14 15  1  6  0  0  0
 14 18  1  0  0  0  0
 15 31  1  0  0  0  0
 16 20  1  0  0  0  0
 17  2  1  6  0  0  0
 17 22  1  0  0  0  0
 18 19  1  6  0  0  0
 18 24  1  0  0  0  0
 18 30  1  0  0  0  0
 20 21  1  0  0  0  0
 20 26  1  1  0  0  0
 22 23  1  6  0  0  0
 22 28  1  0  0  0  0
 24 25  1  0  0  0  0
 26 27  1  0  0  0  0
 28 29  1  6  0  0  0
M  END
>  <CHROM.1>
179.57149341,-172.85284246,-95.82207666,-171.35091060,128.52261018,-72.15353088
21.89153275,-11.11337965,-3.91710140,-0.69891626,0.57632487,-0.89236571

>  <Name>
ligand

>  <RI>
0

>  <Rbt.Current_Directory>
/home/itssahil/PROJECTS/Mol_Feturizer/New_Systems/rnas/4F8V

>  <Rbt.Executable>
rbdock ($Id: //depot/dev/client3/rdock/2013.1/src/exe/rbdock.cxx#4 $)

>  <Rbt.Library>
libRbt.so (2013.1, Build901 2013/11/27)

>  <Rbt.Parameter_File>
/export/apps/rDock/src/rDock_2013.1_src/data/scripts/dock_solv.prm

>  <Rbt.Receptor>
prm/pocket_docking_3.prm

>  <SCORE>
-14.1932

>  <SCORE.INTER>
-9.39902

>  <SCORE.INTER.CONST>
1

>  <SCORE.INTER.POLAR>
0

>  <SCORE.INTER.ROT>
6

>  <SCORE.INTER.SOLV>
19.1964

>  <SCORE.INTER.VDW>
-20.2648

>  <SCORE.INTER.norm>
-0.303194

>  <SCORE.INTRA>
-4.79414

>  <SCORE.INTRA.DIHEDRAL>
-12.0376

>  <SCORE.INTRA.DIHEDRAL.0>
15.9129

>  <SCORE.INTRA.POLAR>
0

>  <SCORE.INTRA.POLAR.0>
0

>  <SCORE.INTRA.REPUL>
0

>  <SCORE.INTRA.REPUL.0>
0

>  <SCORE.INTRA.SOLV>
-1.27274

>  <SCORE.INTRA.SOLV.lig_0>
-75.7056

>  <SCORE.INTRA.VDW>
1.86106

>  <SCORE.INTRA.VDW.0>
-4.61812

>  <SCORE.INTRA.norm>
-0.15465

>  <SCORE.RESTR>
0

>  <SCORE.RESTR.CAVITY>
0

>  <SCORE.RESTR.norm>
0

>  <SCORE.SYSTEM>
0

>  <SCORE.SYSTEM.CONST>
0

>  <SCORE.SYSTEM.DIHEDRAL>
0

>  <SCORE.SYSTEM.SOLV>
0

>  <SCORE.SYSTEM.norm>
0

>  <SCORE.heavy>
31

>  <SCORE.norm>
-0.457844

>  <RMSD>
8.047

$$$$
ligand
 OpenBabel11021811493D
libRbt.so/2013.1/901 2013/11/27
 31 33  0  0  0  0  0  0  0  0999 V2000
   23.9589  -14.0137   -4.3327 C   0  0  2  0  0  0  0  0  0  0  0  0
   22.9584  -13.8887   -3.3129 O   0  0  0  0  0  0  0  0  0  0  0  0
   20.7882  -10.4034   -2.1589 C   0  0  2  0  0  0  0  0  0  0  0  0
   20.5188   -9.1060   -1.6373 N   0  0  0  0  0  0  0  0  0  0  0  0
   20.2866   -9.9063   -5.2484 C   0  0  2  0  0  0  0  0  0  0  0  0
   24.1427  -15.5389   -4.6040 C   0  0  2  0  0  0  0  0  0  0  0  0
   22.8542  -16.1106   -4.9901 N   0  0  0  0  0  0  0  0  0  0  0  0
   21.3589  -11.3160   -1.0095 C   0  0  0  0  0  0  0  0  0  0  0  0
   20.1615   -8.7386   -6.2640 C   0  0  2  0  0  0  0  0  0  0  0  0
   21.4258   -8.5066   -6.8421 O   0  0  0  0  0  0  0  0  0  0  0  0
   24.7353  -16.2535   -3.3288 C   0  0  0  0  0  0  0  0  0  0  0  0
   21.6567  -12.7571   -1.5927 C   0  0  2  0  0  0  0  0  0  0  0  0
   22.1958  -13.6167   -0.5189 N   0  0  0  0  0  0  0  0  0  0  0  0
   19.6399   -7.4659   -5.4859 C   0  0  1  0  0  0  0  0  0  0  0  0
   19.5248   -6.3090   -6.4184 N   0  0  0  0  0  0  0  0  0  0  0  0
   25.6961  -15.3263   -2.4993 C   0  0  0  0  0  0  0  0  0  0  0  0
   22.7064  -12.6275   -2.7771 C   0  0  2  0  0  0  0  0  0  0  0  0
   18.1812   -7.7846   -4.8368 C   0  0  1  0  0  0  0  0  0  0  0  0
   17.2063   -8.1006   -5.8003 O   0  0  0  0  0  0  0  0  0  0  0  0
   25.8831  -14.0397   -2.8296 C   0  0  1  0  0  0  0  0  0  0  0  0
   25.2370  -13.4463   -3.9385 O   0  0  0  0  0  0  0  0  0  0  0  0
   22.1211  -11.6963   -3.9001 C   0  0  2  0  0  0  0  0  0  0  0  0
   23.0750  -11.5765   -4.9539 O   0  0  0  0  0  0  0  0  0  0  0  0
   18.3138   -9.0015   -3.8697 C   0  0  0  0  0  0  0  0  0  0  0  0
   18.9592  -10.1723   -4.5835 O   0  0  0  0  0  0  0  0  0  0  0  0
   26.8058  -13.0980   -2.0312 C   0  0  0  0  0  0  0  0  0  0  0  0
   27.7894  -13.8939   -1.3302 N   0  0  0  0  0  0  0  0  0  0  0  0
   21.8227  -10.2723   -3.2960 C   0  0  1  0  0  0  0  0  0  0  0  0
   21.2945   -9.4707   -4.3116 O   0  0  0  0  0  0  0  0  0  0  0  0
   17.5372   -6.6380   -4.0445 C   0  0  0  0  0  0  0  0  0  0  0  0
   20.6148   -5.3225   -6.3660 C   0  0  0  0  0  0  0  0  0  0  0  0
  1  2  1  1  0  0  0
  1  6  1  0  0  0  0
  1 21  1  0  0  0  0
  3  4  1  1  0  0  0
  3  8  1  0  0  0  0
  3 28  1  0  0  0  0
  5  9  1  0  0  0  0
  5 25  1  0  0  0  0
  5 29  1  1  0  0  0
  6  7  1  1  0  0  0
  6 11  1  0  0  0  0
  8 12  1  0  0  0  0
  9 10  1  1  0  0  0
  9 14  1  0  0  0  0
 11 16  1  0  0  0  0
 12 13  1  1  0  0  0
 12 17  1  0  0  0  0
 14 15  1  6  0  0  0
 14 18  1  0  0  0  0
 15 31  1  0  0  0  0
 16 20  1  0  0  0  0
 17  2  1  6  0  0  0
 17 22  1  0  0  0  0
 18 19  1  6  0  0  0
 18 24  1  0  0  0  0
 18 30  1  0  0  0  0
 20 21  1  0  0  0  0
 20 26  1  1  0  0  0
 22 23  1  6  0  0  0
 22 28  1  0  0  0  0
 24 25  1  0  0  0  0
 26 27  1  0  0  0  0
 28 29  1  6  0  0  0
M  END
>  <CHROM.1>
173.06832973,-173.41001395,-101.07118515,-175.33411695,24.02693461,-75.01725118
21.90220753,-11.14140780,-3.87461091,-0.64993497,0.65941174,-1.01067093

>  <Name>
ligand

>  <RI>
0

>  <Rbt.Current_Directory>
/home/itssahil/PROJECTS/Mol_Feturizer/New_Systems/rnas/4F8V

>  <Rbt.Executable>
rbdock ($Id: //depot/dev/client3/rdock/2013.1/src/exe/rbdock.cxx#4 $)

>  <Rbt.Library>
libRbt.so (2013.1, Build901 2013/11/27)

>  <Rbt.Parameter_File>
/export/apps/rDock/src/rDock_2013.1_src/data/scripts/dock_solv.prm

>  <Rbt.Receptor>
prm/pocket_docking_3.prm

>  <SCORE>
-12.5299

>  <SCORE.INTER>
-9.06412

>  <SCORE.INTER.CONST>
1

>  <SCORE.INTER.POLAR>
0

>  <SCORE.INTER.ROT>
6

>  <SCORE.INTER.SOLV>
22.3131

>  <SCORE.INTER.VDW>
-21.0804

>  <SCORE.INTER.norm>
-0.292391

>  <SCORE.INTRA>
-3.46582

>  <SCORE.INTRA.DIHEDRAL>
-11.0251

>  <SCORE.INTRA.DIHEDRAL.0>
15.9129

>  <SCORE.INTRA.POLAR>
0

>  <SCORE.INTRA.POLAR.0>
0

>  <SCORE.INTRA.REPUL>
0

>  <SCORE.INTRA.REPUL.0>
0

>  <SCORE.INTRA.SOLV>
-1.45643

>  <SCORE.INTRA.SOLV.lig_0>
-75.7056

>  <SCORE.INTRA.VDW>
2.77494

>  <SCORE.INTRA.VDW.0>
-4.61812

>  <SCORE.INTRA.norm>
-0.111801

>  <SCORE.RESTR>
0

>  <SCORE.RESTR.CAVITY>
0

>  <SCORE.RESTR.norm>
0

>  <SCORE.SYSTEM>
0

>  <SCORE.SYSTEM.CONST>
0

>  <SCORE.SYSTEM.DIHEDRAL>
0

>  <SCORE.SYSTEM.SOLV>
0

>  <SCORE.SYSTEM.norm>
0

>  <SCORE.heavy>
31

>  <SCORE.norm>
-0.404192

>  <RMSD>
8.053

$$$$
ligand
 OpenBabel11021811493D
libRbt.so/2013.1/901 2013/11/27
 31 33  0  0  0  0  0  0  0  0999 V2000
   23.4150  -13.9297   -4.3107 C   0  0  2  0  0  0  0  0  0  0  0  0
   22.3350  -13.5876   -3.4315 O   0  0  0  0  0  0  0  0  0  0  0  0
   20.6780   -9.8540   -2.2056 C   0  0  2  0  0  0  0  0  0  0  0  0
   20.6029   -8.5211   -1.7099 N   0  0  0  0  0  0  0  0  0  0  0  0
   20.2732   -9.5139   -5.5432 C   0  0  2  0  0  0  0  0  0  0  0  0
   23.3341  -15.4688   -4.5520 C   0  0  2  0  0  0  0  0  0  0  0  0
   22.0199  -15.7942   -5.1027 N   0  0  0  0  0  0  0  0  0  0  0  0
   21.2599  -10.7926   -1.0831 C   0  0  0  0  0  0  0  0  0  0  0  0
   20.0427   -8.2568   -6.4248 C   0  0  2  0  0  0  0  0  0  0  0  0
   21.2963   -7.7265   -6.7903 O   0  0  0  0  0  0  0  0  0  0  0  0
   23.6089  -16.2480   -3.2084 C   0  0  0  0  0  0  0  0  0  0  0  0
   21.3414  -12.2730   -1.6374 C   0  0  2  0  0  0  0  0  0  0  0  0
   21.8902  -13.1575   -0.5891 N   0  0  0  0  0  0  0  0  0  0  0  0
   19.1983   -7.2176   -5.5856 C   0  0  1  0  0  0  0  0  0  0  0  0
   18.9699   -5.9809   -6.3853 N   0  0  0  0  0  0  0  0  0  0  0  0
   24.6161  -15.4989   -2.2621 C   0  0  0  0  0  0  0  0  0  0  0  0
   22.2748  -12.2923   -2.9220 C   0  0  2  0  0  0  0  0  0  0  0  0
   17.7639   -7.8768   -5.1875 C   0  0  1  0  0  0  0  0  0  0  0  0
   16.9865   -8.2231   -6.3075 O   0  0  0  0  0  0  0  0  0  0  0  0
   25.0888  -14.2815   -2.5680 C   0  0  1  0  0  0  0  0  0  0  0  0
   24.7173  -13.6063   -3.7535 O   0  0  0  0  0  0  0  0  0  0  0  0
   21.6830  -11.3329   -4.0174 C   0  0  2  0  0  0  0  0  0  0  0  0
   22.5336  -11.3477   -5.1624 O   0  0  0  0  0  0  0  0  0  0  0  0
   18.0169   -9.1737   -4.3581 C   0  0  0  0  0  0  0  0  0  0  0  0
   18.9547  -10.1007   -5.1051 O   0  0  0  0  0  0  0  0  0  0  0  0
   26.0656  -13.5118   -1.6576 C   0  0  0  0  0  0  0  0  0  0  0  0
   27.2652  -14.3021   -1.4881 N   0  0  0  0  0  0  0  0  0  0  0  0
   21.6012   -9.8687   -3.4417 C   0  0  1  0  0  0  0  0  0  0  0  0
   21.0628   -9.0415   -4.4310 O   0  0  0  0  0  0  0  0  0  0  0  0
   16.8230   -6.9841   -4.3659 C   0  0  0  0  0  0  0  0  0  0  0  0
   20.0592   -4.9924   -6.3768 C   0  0  0  0  0  0  0  0  0  0  0  0
  1  2  1  1  0  0  0
  1  6  1  0  0  0  0
  1 21  1  0  0  0  0
  3  4  1  1  0  0  0
  3  8  1  0  0  0  0
  3 28  1  0  0  0  0
  5  9  1  0  0  0  0
  5 25  1  0  0  0  0
  5 29  1  1  0  0  0
  6  7  1  1  0  0  0
  6 11  1  0  0  0  0
  8 12  1  0  0  0  0
  9 10  1  1  0  0  0
  9 14  1  0  0  0  0
 11 16  1  0  0  0  0
 12 13  1  1  0  0  0
 12 17  1  0  0  0  0
 14 15  1  6  0  0  0
 14 18  1  0  0  0  0
 15 31  1  0  0  0  0
 16 20  1  0  0  0  0
 17  2  1  6  0  0  0
 17 22  1  0  0  0  0
 18 19  1  6  0  0  0
 18 24  1  0  0  0  0
 18 30  1  0  0  0  0
 20 21  1  0  0  0  0
 20 26  1  1  0  0  0
 22 23  1  6  0  0  0
 22 28  1  0  0  0  0
 24 25  1  0  0  0  0
 26 27  1  0  0  0  0
 28 29  1  6  0  0  0
M  END
>  <CHROM.1>
172.21025977,-174.24738376,-83.06389664,-160.87851702,59.41329898,-97.87941288
21.46244538,-10.96061162,-3.96910248,-0.03409302,0.94612970,-1.90050044

>  <Name>
ligand

>  <RI>
0

>  <Rbt.Current_Directory>
/home/itssahil/PROJECTS/Mol_Feturizer/New_Systems/rnas/4F8V

>  <Rbt.Executable>
rbdock ($Id: //depot/dev/client3/rdock/2013.1/src/exe/rbdock.cxx#4 $)

>  <Rbt.Library>
libRbt.so (2013.1, Build901 2013/11/27)

>  <Rbt.Parameter_File>
/export/apps/rDock/src/rDock_2013.1_src/data/scripts/dock_solv.prm

>  <Rbt.Receptor>
prm/pocket_docking_2.prm

>  <SCORE>
-6.98437

>  <SCORE.INTER>
-6.27803

>  <SCORE.INTER.CONST>
1

>  <SCORE.INTER.POLAR>
0

>  <SCORE.INTER.ROT>
6

>  <SCORE.INTER.SOLV>
22.2789

>  <SCORE.INTER.VDW>
-19.2117

>  <SCORE.INTER.norm>
-0.202517

>  <SCORE.INTRA>
-0.829798

>  <SCORE.INTRA.DIHEDRAL>
-4.76825

>  <SCORE.INTRA.DIHEDRAL.0>
15.9129

>  <SCORE.INTRA.POLAR>
0

>  <SCORE.INTRA.POLAR.0>
0

>  <SCORE.INTRA.REPUL>
0

>  <SCORE.INTRA.REPUL.0>
0

>  <SCORE.INTRA.SOLV>
-1.82643

>  <SCORE.INTRA.SOLV.lig_0>
-75.7056

>  <SCORE.INTRA.VDW>
2.46754

>  <SCORE.INTRA.VDW.0>
-4.61812

>  <SCORE.INTRA.norm>
-0.0267677

>  <SCORE.RESTR>
0.12346

>  <SCORE.RESTR.CAVITY>
0.12346

>  <SCORE.RESTR.norm>
0.00398257

>  <SCORE.SYSTEM>
0

>  <SCORE.SYSTEM.CONST>
0

>  <SCORE.SYSTEM.DIHEDRAL>
0

>  <SCORE.SYSTEM.SOLV>
0

>  <SCORE.SYSTEM.norm>
0

>  <SCORE.heavy>
31

>  <SCORE.norm>
-0.225302

>  <RMSD>
8.060

$$$$
ligand
 OpenBabel11021811493D
libRbt.so/2013.1/901 2013/11/27
 31 33  0  0  0  0  0  0  0  0999 V2000
   24.0626  -14.1146   -4.0993 C   0  0  2  0  0  0  0  0  0  0  0  0
   23.1375  -14.0811   -3.0041 O   0  0  0  0  0  0  0  0  0  0  0  0
   20.4947  -10.9862   -1.7292 C   0  0  2  0  0  0  0  0  0  0  0  0
   20.0444   -9.7175   -1.2650 N   0  0  0  0  0  0  0  0  0  0  0  0
   20.8533   -9.3073   -5.0352 C   0  0  2  0  0  0  0  0  0  0  0  0
   24.2348  -15.6117   -4.5028 C   0  0  2  0  0  0  0  0  0  0  0  0
   22.9250  -16.1657   -4.8399 N   0  0  0  0  0  0  0  0  0  0  0  0
   21.4314  -11.6336   -0.6416 C   0  0  0  0  0  0  0  0  0  0  0  0
   20.4547   -7.9012   -4.5113 C   0  0  2  0  0  0  0  0  0  0  0  0
   21.0739   -7.6932   -3.2624 O   0  0  0  0  0  0  0  0  0  0  0  0
   24.9218  -16.4174   -3.3337 C   0  0  0  0  0  0  0  0  0  0  0  0
   21.9295  -13.0436   -1.1607 C   0  0  2  0  0  0  0  0  0  0  0  0
   22.8117  -13.6541   -0.1452 N   0  0  0  0  0  0  0  0  0  0  0  0
   18.8798   -7.8514   -4.3907 C   0  0  1  0  0  0  0  0  0  0  0  0
   18.4494   -6.5235   -3.8685 N   0  0  0  0  0  0  0  0  0  0  0  0
   25.9347  -15.5474   -2.5042 C   0  0  0  0  0  0  0  0  0  0  0  0
   22.7142  -12.8427   -2.5265 C   0  0  2  0  0  0  0  0  0  0  0  0
   18.2135   -8.0983   -5.8555 C   0  0  1  0  0  0  0  0  0  0  0  0
   18.5805   -7.1223   -6.7996 O   0  0  0  0  0  0  0  0  0  0  0  0
   26.0903  -14.2369   -2.7443 C   0  0  1  0  0  0  0  0  0  0  0  0
   25.3627  -13.5655   -3.7538 O   0  0  0  0  0  0  0  0  0  0  0  0
   21.7638  -12.1771   -3.5869 C   0  0  2  0  0  0  0  0  0  0  0  0
   22.4802  -11.9900   -4.8061 O   0  0  0  0  0  0  0  0  0  0  0  0
   18.6778   -9.4870   -6.3939 C   0  0  0  0  0  0  0  0  0  0  0  0
   20.1898   -9.5846   -6.3609 O   0  0  0  0  0  0  0  0  0  0  0  0
   27.0628  -13.3504   -1.9419 C   0  0  0  0  0  0  0  0  0  0  0  0
   27.9332  -12.6583   -2.8670 N   0  0  0  0  0  0  0  0  0  0  0  0
   21.2723  -10.7815   -3.0460 C   0  0  1  0  0  0  0  0  0  0  0  0
   20.4227  -10.2188   -4.0022 O   0  0  0  0  0  0  0  0  0  0  0  0
   16.6791   -8.0782   -5.9039 C   0  0  0  0  0  0  0  0  0  0  0  0
   17.1081   -6.4665   -3.2673 C   0  0  0  0  0  0  0  0  0  0  0  0
  1  2  1  1  0  0  0
  1  6  1  0  0  0  0
  1 21  1  0  0  0  0
  3  4  1  1  0  0  0
  3  8  1  0  0  0  0
  3 28  1  0  0  0  0
  5  9  1  0  0  0  0
  5 25  1  0  0  0  0
  5 29  1  1  0  0  0
  6  7  1  1  0  0  0
  6 11  1  0  0  0  0
  8 12  1  0  0  0  0
  9 10  1  1  0  0  0
  9 14  1  0  0  0  0
 11 16  1  0  0  0  0
 12 13  1  1  0  0  0
 12 17  1  0  0  0  0
 14 15  1  6  0  0  0
 14 18  1  0  0  0  0
 15 31  1  0  0  0  0
 16 20  1  0  0  0  0
 17  2  1  6  0  0  0
 17 22  1  0  0  0  0
 18 19  1  6  0  0  0
 18 24  1  0  0  0  0
 18 30  1  0  0  0  0
 20 21  1  0  0  0  0
 20 26  1  1  0  0  0
 22 23  1  6  0  0  0
 22 28  1  0  0  0  0
 24 25  1  0  0  0  0
 26 27  1  0  0  0  0
 28 29  1  6  0  0  0
M  END
>  <CHROM.1>
-174.33611430,-100.59901321,-159.55182615,-169.27047059,126.85524771,147.60699088
21.79338307,-11.28322910,-3.64784207,-0.02910480,0.82110518,-1.81413810

>  <Name>
ligand

>  <RI>
0

>  <Rbt.Current_Directory>
/home/itssahil/PROJECTS/Mol_Feturizer/New_Systems/rnas/4F8V

>  <Rbt.Executable>
rbdock ($Id: //depot/dev/client3/rdock/2013.1/src/exe/rbdock.cxx#4 $)

>  <Rbt.Library>
libRbt.so (2013.1, Build901 2013/11/27)

>  <Rbt.Parameter_File>
/export/apps/rDock/src/rDock_2013.1_src/data/scripts/dock_solv.prm

>  <Rbt.Receptor>
prm/pocket_docking_2.prm

>  <SCORE>
-3.3526

>  <SCORE.INTER>
-4.48595

>  <SCORE.INTER.CONST>
1

>  <SCORE.INTER.POLAR>
0

>  <SCORE.INTER.ROT>
6

>  <SCORE.INTER.SOLV>
22.2724

>  <SCORE.INTER.VDW>
-18.0148

>  <SCORE.INTER.norm>
-0.144708

>  <SCORE.INTRA>
-0.158808

>  <SCORE.INTRA.DIHEDRAL>
-3.60133

>  <SCORE.INTRA.DIHEDRAL.0>
15.9129

>  <SCORE.INTRA.POLAR>
0

>  <SCORE.INTRA.POLAR.0>
0

>  <SCORE.INTRA.REPUL>
0

>  <SCORE.INTRA.REPUL.0>
0

>  <SCORE.INTRA.SOLV>
-1.57832

>  <SCORE.INTRA.SOLV.lig_0>
-75.7056

>  <SCORE.INTRA.VDW>
2.43102

>  <SCORE.INTRA.VDW.0>
-4.61812

>  <SCORE.INTRA.norm>
-0.00512285

>  <SCORE.RESTR>
1.29215

>  <SCORE.RESTR.CAVITY>
1.29215

>  <SCORE.RESTR.norm>
0.0416824

>  <SCORE.SYSTEM>
0

>  <SCORE.SYSTEM.CONST>
0

>  <SCORE.SYSTEM.DIHEDRAL>
0

>  <SCORE.SYSTEM.SOLV>
0

>  <SCORE.SYSTEM.norm>
0

>  <SCORE.heavy>
31

>  <SCORE.norm>
-0.108148

>  <RMSD>
8.074

$$$$
ligand
 OpenBabel11021811493D
libRbt.so/2013.1/901 2013/11/27
 31 33  0  0  0  0  0  0  0  0999 V2000
   24.0827  -13.9006   -4.2242 C   0  0  2  0  0  0  0  0  0  0  0  0
   23.0959  -13.7309   -3.1977 O   0  0  0  0  0  0  0  0  0  0  0  0
   20.8198  -10.2540   -2.2388 C   0  0  2  0  0  0  0  0  0  0  0  0
   20.5136   -8.9301   -1.8127 N   0  0  0  0  0  0  0  0  0  0  0  0
   20.1826  -10.0348   -5.3376 C   0  0  2  0  0  0  0  0  0  0  0  0
   24.1452  -15.4258   -4.5463 C   0  0  2  0  0  0  0  0  0  0  0  0
   22.8153  -15.8808   -4.9470 N   0  0  0  0  0  0  0  0  0  0  0  0
   21.4735  -11.0450   -1.0444 C   0  0  0  0  0  0  0  0  0  0  0  0
   19.9641   -8.9578   -6.4344 C   0  0  2  0  0  0  0  0  0  0  0  0
   21.1935   -8.7154   -7.0794 O   0  0  0  0  0  0  0  0  0  0  0  0
   24.6803  -16.2268   -3.2974 C   0  0  0  0  0  0  0  0  0  0  0  0
   21.8121  -12.5158   -1.5215 C   0  0  2  0  0  0  0  0  0  0  0  0
   22.4289  -13.2615   -0.4054 N   0  0  0  0  0  0  0  0  0  0  0  0
   19.4107   -7.6526   -5.7364 C   0  0  1  0  0  0  0  0  0  0  0  0
   19.2056   -6.5793   -6.7499 N   0  0  0  0  0  0  0  0  0  0  0  0
   25.7118  -15.4064   -2.4408 C   0  0  0  0  0  0  0  0  0  0  0  0
   22.8092  -12.4413   -2.7551 C   0  0  2  0  0  0  0  0  0  0  0  0
   17.9940   -7.9847   -5.0061 C   0  0  1  0  0  0  0  0  0  0  0  0
   17.0006   -8.4195   -5.9020 O   0  0  0  0  0  0  0  0  0  0  0  0
   25.9998  -14.1284   -2.7290 C   0  0  1  0  0  0  0  0  0  0  0  0
   25.4020  -13.4493   -3.8156 O   0  0  0  0  0  0  0  0  0  0  0  0
   22.1411  -11.6302   -3.9241 C   0  0  2  0  0  0  0  0  0  0  0  0
   23.0479  -11.5586   -5.0228 O   0  0  0  0  0  0  0  0  0  0  0  0
   18.2207   -9.1141   -3.9540 C   0  0  0  0  0  0  0  0  0  0  0  0
   18.8950  -10.3072   -4.6009 O   0  0  0  0  0  0  0  0  0  0  0  0
   26.9944  -13.2896   -1.9030 C   0  0  0  0  0  0  0  0  0  0  0  0
   27.9727  -12.7121   -2.7984 N   0  0  0  0  0  0  0  0  0  0  0  0
   21.8035  -10.1746   -3.4248 C   0  0  1  0  0  0  0  0  0  0  0  0
   21.2022   -9.4815   -4.4788 O   0  0  0  0  0  0  0  0  0  0  0  0
   17.3250   -6.8093   -4.2791 C   0  0  0  0  0  0  0  0  0  0  0  0
   19.5306   -5.2105   -6.3202 C   0  0  0  0  0  0  0  0  0  0  0  0
  1  2  1  1  0  0  0
  1  6  1  0  0  0  0
  1 21  1  0  0  0  0
  3  4  1  1  0  0  0
  3  8  1  0  0  0  0
  3 28  1  0  0  0  0
  5  9  1  0  0  0  0
  5 25  1  0  0  0  0
  5 29  1  1  0  0  0
  6  7  1  1  0  0  0
  6 11  1  0  0  0  0
  8 12  1  0  0  0  0
  9 10  1  1  0  0  0
  9 14  1  0  0  0  0
 11 16  1  0  0  0  0
 12 13  1  1  0  0  0
 12 17  1  0  0  0  0
 14 15  1  6  0  0  0
 14 18  1  0  0  0  0
 15 31  1  0  0  0  0
 16 20  1  0  0  0  0
 17  2  1  6  0  0  0
 17 22  1  0  0  0  0
 18 19  1  6  0  0  0
 18 24  1  0  0  0  0
 18 30  1  0  0  0  0
 20 21  1  0  0  0  0
 20 26  1  1  0  0  0
 22 23  1  6  0  0  0
 22 28  1  0  0  0  0
 24 25  1  0  0  0  0
 26 27  1  0  0  0  0
 28 29  1  6  0  0  0
M  END
>  <CHROM.1>
-177.83295861,-173.55418561,-142.52577985,-173.98203700,127.46903742,-75.22966461
21.84810180,-11.10625153,-3.96515119,-0.56691451,0.65931831,-1.12049897

>  <Name>
ligand

>  <RI>
0

>  <Rbt.Current_Directory>
/home/itssahil/PROJECTS/Mol_Feturizer/New_Systems/rnas/4F8V

>  <Rbt.Executable>
rbdock ($Id: //depot/dev/client3/rdock/2013.1/src/exe/rbdock.cxx#4 $)

>  <Rbt.Library>
libRbt.so (2013.1, Build901 2013/11/27)

>  <Rbt.Parameter_File>
/export/apps/rDock/src/rDock_2013.1_src/data/scripts/dock_solv.prm

>  <Rbt.Receptor>
prm/pocket_docking_3.prm

>  <SCORE>
-13.6683

>  <SCORE.INTER>
-9.19147

>  <SCORE.INTER.CONST>
1

>  <SCORE.INTER.POLAR>
0

>  <SCORE.INTER.ROT>
6

>  <SCORE.INTER.SOLV>
19.084

>  <SCORE.INTER.VDW>
-20.089

>  <SCORE.INTER.norm>
-0.296499

>  <SCORE.INTRA>
-4.47682

>  <SCORE.INTRA.DIHEDRAL>
-11.8397

>  <SCORE.INTRA.DIHEDRAL.0>
15.9129

>  <SCORE.INTRA.POLAR>
0

>  <SCORE.INTRA.POLAR.0>
0

>  <SCORE.INTRA.REPUL>
0

>  <SCORE.INTRA.REPUL.0>
0

>  <SCORE.INTRA.SOLV>
-1.5855

>  <SCORE.INTRA.SOLV.lig_0>
-75.7056

>  <SCORE.INTRA.VDW>
2.23578

>  <SCORE.INTRA.VDW.0>
-4.61812

>  <SCORE.INTRA.norm>
-0.144414

>  <SCORE.RESTR>
0

>  <SCORE.RESTR.CAVITY>
0

>  <SCORE.RESTR.norm>
0

>  <SCORE.SYSTEM>
0

>  <SCORE.SYSTEM.CONST>
0

>  <SCORE.SYSTEM.DIHEDRAL>
0

>  <SCORE.SYSTEM.SOLV>
0

>  <SCORE.SYSTEM.norm>
0

>  <SCORE.heavy>
31

>  <SCORE.norm>
-0.440912

>  <RMSD>
8.079

$$$$
ligand
 OpenBabel11021811493D
libRbt.so/2013.1/901 2013/11/27
 31 33  0  0  0  0  0  0  0  0999 V2000
   26.2933  -12.1419   -3.5724 C   0  0  2  0  0  0  0  0  0  0  0  0
   24.9332  -12.0100   -3.1373 O   0  0  0  0  0  0  0  0  0  0  0  0
   21.6482  -10.0184   -4.9894 C   0  0  2  0  0  0  0  0  0  0  0  0
   20.8597   -8.9726   -5.5485 N   0  0  0  0  0  0  0  0  0  0  0  0
   21.9414   -9.5474   -7.9835 C   0  0  2  0  0  0  0  0  0  0  0  0
   26.8251  -13.4914   -2.9982 C   0  0  2  0  0  0  0  0  0  0  0  0
   25.9649  -14.5771   -3.4645 N   0  0  0  0  0  0  0  0  0  0  0  0
   21.9236   -9.7049   -3.4710 C   0  0  0  0  0  0  0  0  0  0  0  0
   21.9499  -10.2854   -9.3494 C   0  0  2  0  0  0  0  0  0  0  0  0
   21.4139  -11.5762   -9.1677 O   0  0  0  0  0  0  0  0  0  0  0  0
   26.8804  -13.4312   -1.4230 C   0  0  0  0  0  0  0  0  0  0  0  0
   22.7997  -10.8694   -2.8529 C   0  0  2  0  0  0  0  0  0  0  0  0
   23.0640  -10.5785   -1.4289 N   0  0  0  0  0  0  0  0  0  0  0  0
   23.4428  -10.3471   -9.8640 C   0  0  1  0  0  0  0  0  0  0  0  0
   23.5045  -11.0689  -11.1665 N   0  0  0  0  0  0  0  0  0  0  0  0
   27.1944  -11.9911   -0.8767 C   0  0  0  0  0  0  0  0  0  0  0  0
   24.1639  -10.9723   -3.6591 C   0  0  2  0  0  0  0  0  0  0  0  0
   24.0153   -8.8352  -10.0559 C   0  0  1  0  0  0  0  0  0  0  0  0
   23.2898   -8.0867  -11.0004 O   0  0  0  0  0  0  0  0  0  0  0  0
   27.2996  -10.9383   -1.7012 C   0  0  1  0  0  0  0  0  0  0  0  0
   27.1415  -11.0605   -3.1010 O   0  0  0  0  0  0  0  0  0  0  0  0
   23.8600  -11.2650   -5.1733 C   0  0  2  0  0  0  0  0  0  0  0  0
   25.0900  -11.3442   -5.8913 O   0  0  0  0  0  0  0  0  0  0  0  0
   23.9380   -8.0885   -8.6883 C   0  0  0  0  0  0  0  0  0  0  0  0
   22.5331   -8.1673   -8.1252 O   0  0  0  0  0  0  0  0  0  0  0  0
   27.5920   -9.5106   -1.1998 C   0  0  0  0  0  0  0  0  0  0  0  0
   28.6906   -8.9639   -1.9657 N   0  0  0  0  0  0  0  0  0  0  0  0
   22.9795  -10.1002   -5.7649 C   0  0  1  0  0  0  0  0  0  0  0  0
   22.7164  -10.3916   -7.1060 O   0  0  0  0  0  0  0  0  0  0  0  0
   25.4631   -8.7270  -10.5553 C   0  0  0  0  0  0  0  0  0  0  0  0
   23.8096  -12.5062  -11.0978 C   0  0  0  0  0  0  0  0  0  0  0  0
  1  2  1  1  0  0  0
  1  6  1  0  0  0  0
  1 21  1  0  0  0  0
  3  4  1  6  0  0  0
  3  8  1  0  0  0  0
  3 28  1  0  0  0  0
  5  9  1  0  0  0  0
  5 25  1  0  0  0  0
  5 29  1  1  0  0  0
  6  7  1  1  0  0  0
  6 11  1  0  0  0  0
  8 12  1  0  0  0  0
  9 10  1  1  0  0  0
  9 14  1  0  0  0  0
 11 16  1  0  0  0  0
 12 13  1  1  0  0  0
 12 17  1  0  0  0  0
 14 15  1  6  0  0  0
 14 18  1  0  0  0  0
 15 31  1  0  0  0  0
 16 20  1  0  0  0  0
 17  2  1  1  0  0  0
 17 22  1  0  0  0  0
 18 19  1  6  0  0  0
 18 24  1  0  0  0  0
 18 30  1  0  0  0  0
 20 21  1  0  0  0  0
 20 26  1  1  0  0  0
 22 23  1  6  0  0  0
 22 28  1  0  0  0  0
 24 25  1  0  0  0  0
 26 27  1  0  0  0  0
 28 29  1  6  0  0  0
M  END
>  <CHROM.1>
-171.64441405,179.38351361,-94.61120952,-170.05525815,129.59687741,61.27353924
24.29630746,-10.62439541,-5.73893377,-1.13795131,0.34646528,-1.49412127

>  <Name>
ligand

>  <RI>
0

>  <Rbt.Current_Directory>
/home/itssahil/PROJECTS/Mol_Feturizer/New_Systems/rnas/4F8V

>  <Rbt.Executable>
rbdock ($Id: //depot/dev/client3/rdock/2013.1/src/exe/rbdock.cxx#4 $)

>  <Rbt.Library>
libRbt.so (2013.1, Build901 2013/11/27)

>  <Rbt.Parameter_File>
/export/apps/rDock/src/rDock_2013.1_src/data/scripts/dock_solv.prm

>  <Rbt.Receptor>
prm/pocket_docking_6.prm

>  <SCORE>
-9.64332

>  <SCORE.INTER>
-4.68879

>  <SCORE.INTER.CONST>
1

>  <SCORE.INTER.POLAR>
0

>  <SCORE.INTER.ROT>
6

>  <SCORE.INTER.SOLV>
6.58335

>  <SCORE.INTER.VDW>
-12.9203

>  <SCORE.INTER.norm>
-0.151251

>  <SCORE.INTRA>
-4.95788

>  <SCORE.INTRA.DIHEDRAL>
-12.5405

>  <SCORE.INTRA.DIHEDRAL.0>
15.9129

>  <SCORE.INTRA.POLAR>
0

>  <SCORE.INTRA.POLAR.0>
0

>  <SCORE.INTRA.REPUL>
0

>  <SCORE.INTRA.REPUL.0>
0

>  <SCORE.INTRA.SOLV>
-1.82658

>  <SCORE.INTRA.SOLV.lig_0>
-75.7056

>  <SCORE.INTRA.VDW>
2.22567

>  <SCORE.INTRA.VDW.0>
-4.61812

>  <SCORE.INTRA.norm>
-0.159931

>  <SCORE.RESTR>
0.00334282

>  <SCORE.RESTR.CAVITY>
0.00334282

>  <SCORE.RESTR.norm>
0.000107833

>  <SCORE.SYSTEM>
0

>  <SCORE.SYSTEM.CONST>
0

>  <SCORE.SYSTEM.DIHEDRAL>
0

>  <SCORE.SYSTEM.SOLV>
0

>  <SCORE.SYSTEM.norm>
0

>  <SCORE.heavy>
31

>  <SCORE.norm>
-0.311075

>  <RMSD>
8.095

$$$$
ligand
 OpenBabel11021811493D
libRbt.so/2013.1/901 2013/11/27
 31 33  0  0  0  0  0  0  0  0999 V2000
   26.1086  -12.3291   -3.1172 C   0  0  2  0  0  0  0  0  0  0  0  0
   25.8085  -13.4774   -3.9219 O   0  0  0  0  0  0  0  0  0  0  0  0
   22.6210  -13.9808   -6.7103 C   0  0  2  0  0  0  0  0  0  0  0  0
   21.2988  -14.1158   -7.2218 N   0  0  0  0  0  0  0  0  0  0  0  0
   21.1829  -11.3397   -7.4574 C   0  0  2  0  0  0  0  0  0  0  0  0
   27.5924  -12.4721   -2.6572 C   0  0  2  0  0  0  0  0  0  0  0  0
   28.4462  -12.5852   -3.8379 N   0  0  0  0  0  0  0  0  0  0  0  0
   22.9222  -15.1755   -5.7298 C   0  0  0  0  0  0  0  0  0  0  0  0
   21.3272   -9.9432   -8.1201 C   0  0  2  0  0  0  0  0  0  0  0  0
   22.4024   -9.9851   -9.0304 O   0  0  0  0  0  0  0  0  0  0  0  0
   27.7516  -13.7192   -1.7048 C   0  0  0  0  0  0  0  0  0  0  0  0
   24.3924  -15.0223   -5.1637 C   0  0  2  0  0  0  0  0  0  0  0  0
   24.6790  -16.1392   -4.2403 N   0  0  0  0  0  0  0  0  0  0  0  0
   21.5793   -8.8817   -6.9769 C   0  0  1  0  0  0  0  0  0  0  0  0
   21.7469   -7.5241   -7.5685 N   0  0  0  0  0  0  0  0  0  0  0  0
   26.4702  -13.9933   -0.8365 C   0  0  0  0  0  0  0  0  0  0  0  0
   24.5108  -13.6326   -4.4047 C   0  0  2  0  0  0  0  0  0  0  0  0
   20.3133   -8.8730   -5.9533 C   0  0  1  0  0  0  0  0  0  0  0  0
   19.1027   -8.5200   -6.5767 O   0  0  0  0  0  0  0  0  0  0  0  0
   25.3504  -13.2724   -0.9964 C   0  0  1  0  0  0  0  0  0  0  0  0
   25.2576  -12.2271   -1.9440 O   0  0  0  0  0  0  0  0  0  0  0  0
   24.1858  -12.4598   -5.3996 C   0  0  2  0  0  0  0  0  0  0  0  0
   24.2832  -11.2168   -4.7066 O   0  0  0  0  0  0  0  0  0  0  0  0
   20.1440  -10.3006   -5.3474 C   0  0  0  0  0  0  0  0  0  0  0  0
   20.0580  -11.3338   -6.4527 O   0  0  0  0  0  0  0  0  0  0  0  0
   24.0714  -13.5225   -0.1735 C   0  0  0  0  0  0  0  0  0  0  0  0
   22.9414  -13.5788   -1.0747 N   0  0  0  0  0  0  0  0  0  0  0  0
   22.7235  -12.6376   -5.9581 C   0  0  1  0  0  0  0  0  0  0  0  0
   22.4663  -11.5895   -6.8459 O   0  0  0  0  0  0  0  0  0  0  0  0
   20.4084   -7.8863   -4.7808 C   0  0  0  0  0  0  0  0  0  0  0  0
   23.1317   -7.0742   -7.7780 C   0  0  0  0  0  0  0  0  0  0  0  0
  1  2  1  1  0  0  0
  1  6  1  0  0  0  0
  1 21  1  0  0  0  0
  3  4  1  1  0  0  0
  3  8  1  0  0  0  0
  3 28  1  0  0  0  0
  5  9  1  0  0  0  0
  5 25  1  0  0  0  0
  5 29  1  1  0  0  0
  6  7  1  6  0  0  0
  6 11  1  0  0  0  0
  8 12  1  0  0  0  0
  9 10  1  6  0  0  0
  9 14  1  0  0  0  0
 11 16  1  0  0  0  0
 12 13  1  1  0  0  0
 12 17  1  0  0  0  0
 14 15  1  6  0  0  0
 14 18  1  0  0  0  0
 15 31  1  0  0  0  0
 16 20  1  0  0  0  0
 17  2  1  6  0  0  0
 17 22  1  0  0  0  0
 18 19  1  6  0  0  0
 18 24  1  0  0  0  0
 18 30  1  0  0  0  0
 20 21  1  0  0  0  0
 20 26  1  6  0  0  0
 22 23  1  1  0  0  0
 22 28  1  0  0  0  0
 24 25  1  0  0  0  0
 26 27  1  0  0  0  0
 28 29  1  6  0  0  0
M  END
>  <CHROM.1>
176.59970405,169.36268990,-96.91266010,-175.52396018,-131.87446513,67.29428777
23.37313998,-11.85644051,-4.94307459,-0.45274739,-0.82760633,0.15934592

>  <Name>
ligand

>  <RI>
0

>  <Rbt.Current_Directory>
/home/itssahil/PROJECTS/Mol_Feturizer/New_Systems/rnas/4F8V

>  <Rbt.Executable>
rbdock ($Id: //depot/dev/client3/rdock/2013.1/src/exe/rbdock.cxx#4 $)

>  <Rbt.Library>
libRbt.so (2013.1, Build901 2013/11/27)

>  <Rbt.Parameter_File>
/export/apps/rDock/src/rDock_2013.1_src/data/scripts/dock_solv.prm

>  <Rbt.Receptor>
prm/pocket_docking_4.prm

>  <SCORE>
-9.1691

>  <SCORE.INTER>
-4.47052

>  <SCORE.INTER.CONST>
1

>  <SCORE.INTER.POLAR>
0

>  <SCORE.INTER.ROT>
6

>  <SCORE.INTER.SOLV>
12.4719

>  <SCORE.INTER.VDW>
-14.7377

>  <SCORE.INTER.norm>
-0.14421

>  <SCORE.INTRA>
-4.69858

>  <SCORE.INTRA.DIHEDRAL>
-12.2802

>  <SCORE.INTRA.DIHEDRAL.0>
15.9129

>  <SCORE.INTRA.POLAR>
0

>  <SCORE.INTRA.POLAR.0>
0

>  <SCORE.INTRA.REPUL>
0

>  <SCORE.INTRA.REPUL.0>
0

>  <SCORE.INTRA.SOLV>
-1.0638

>  <SCORE.INTRA.SOLV.lig_0>
-75.7056

>  <SCORE.INTRA.VDW>
1.97344

>  <SCORE.INTRA.VDW.0>
-4.61812

>  <SCORE.INTRA.norm>
-0.151567

>  <SCORE.RESTR>
0

>  <SCORE.RESTR.CAVITY>
0

>  <SCORE.RESTR.norm>
0

>  <SCORE.SYSTEM>
0

>  <SCORE.SYSTEM.CONST>
0

>  <SCORE.SYSTEM.DIHEDRAL>
0

>  <SCORE.SYSTEM.SOLV>
0

>  <SCORE.SYSTEM.norm>
0

>  <SCORE.heavy>
31

>  <SCORE.norm>
-0.295777

>  <RMSD>
8.107

$$$$
ligand
 OpenBabel11021811493D
libRbt.so/2013.1/901 2013/11/27
 31 33  0  0  0  0  0  0  0  0999 V2000
   26.0909  -12.3693   -3.6519 C   0  0  2  0  0  0  0  0  0  0  0  0
   24.7093  -12.2642   -3.2823 O   0  0  0  0  0  0  0  0  0  0  0  0
   21.5279  -10.2577   -5.2926 C   0  0  2  0  0  0  0  0  0  0  0  0
   20.7574   -9.2032   -5.8605 N   0  0  0  0  0  0  0  0  0  0  0  0
   22.0379   -9.6277   -8.2233 C   0  0  2  0  0  0  0  0  0  0  0  0
   26.5968  -13.7497   -3.1303 C   0  0  2  0  0  0  0  0  0  0  0  0
   25.7666  -14.8069   -3.7041 N   0  0  0  0  0  0  0  0  0  0  0  0
   21.6718  -10.0182   -3.7430 C   0  0  0  0  0  0  0  0  0  0  0  0
   22.1233  -10.3252   -9.6078 C   0  0  2  0  0  0  0  0  0  0  0  0
   21.5884  -11.6240   -9.4919 O   0  0  0  0  0  0  0  0  0  0  0  0
   26.5688  -13.7819   -1.5535 C   0  0  0  0  0  0  0  0  0  0  0  0
   22.5283  -11.1922   -3.1153 C   0  0  2  0  0  0  0  0  0  0  0  0
   22.6693  -10.9705   -1.6616 N   0  0  0  0  0  0  0  0  0  0  0  0
   23.6414  -10.3626  -10.0451 C   0  0  1  0  0  0  0  0  0  0  0  0
   23.7764  -11.0454  -11.3629 N   0  0  0  0  0  0  0  0  0  0  0  0
   26.8480  -12.3760   -0.9081 C   0  0  0  0  0  0  0  0  0  0  0  0
   23.9550  -11.2193   -3.8118 C   0  0  2  0  0  0  0  0  0  0  0  0
   24.2116   -8.8422  -10.1627 C   0  0  1  0  0  0  0  0  0  0  0  0
   23.5306   -8.0707  -11.1218 O   0  0  0  0  0  0  0  0  0  0  0  0
   26.9924  -11.2767   -1.6629 C   0  0  1  0  0  0  0  0  0  0  0  0
   26.9088  -11.3167   -3.0739 O   0  0  0  0  0  0  0  0  0  0  0  0
   23.7819  -11.4389   -5.3586 C   0  0  2  0  0  0  0  0  0  0  0  0
   25.0672  -11.4502   -5.9771 O   0  0  0  0  0  0  0  0  0  0  0  0
   24.0573   -8.1366   -8.7799 C   0  0  0  0  0  0  0  0  0  0  0  0
   22.6257   -8.2405   -8.2938 O   0  0  0  0  0  0  0  0  0  0  0  0
   27.2524   -9.8805   -1.0641 C   0  0  0  0  0  0  0  0  0  0  0  0
   28.4708   -9.3488   -1.6344 N   0  0  0  0  0  0  0  0  0  0  0  0
   22.9189  -10.2662   -5.9602 C   0  0  1  0  0  0  0  0  0  0  0  0
   22.7725  -10.4926   -7.3314 O   0  0  0  0  0  0  0  0  0  0  0  0
   25.6826   -8.7106  -10.5823 C   0  0  0  0  0  0  0  0  0  0  0  0
   24.0788  -12.4844  -11.3201 C   0  0  0  0  0  0  0  0  0  0  0  0
  1  2  1  1  0  0  0
  1  6  1  0  0  0  0
  1 21  1  0  0  0  0
  3  4  1  6  0  0  0
  3  8  1  0  0  0  0
  3 28  1  0  0  0  0
  5  9  1  0  0  0  0
  5 25  1  0  0  0  0
  5 29  1  1  0  0  0
  6  7  1  6  0  0  0
  6 11  1  0  0  0  0
  8 12  1  0  0  0  0
  9 10  1  1  0  0  0
  9 14  1  0  0  0  0
 11 16  1  0  0  0  0
 12 13  1  1  0  0  0
 12 17  1  0  0  0  0
 14 15  1  6  0  0  0
 14 18  1  0  0  0  0
 15 31  1  0  0  0  0
 16 20  1  0  0  0  0
 17  2  1  1  0  0  0
 17 22  1  0  0  0  0
 18 19  1  6  0  0  0
 18 24  1  0  0  0  0
 18 30  1  0  0  0  0
 20 21  1  0  0  0  0
 20 26  1  1  0  0  0
 22 23  1  6  0  0  0
 22 28  1  0  0  0  0
 24 25  1  0  0  0  0
 26 27  1  0  0  0  0
 28 29  1  6  0  0  0
M  END
>  <CHROM.1>
-169.89603508,-178.00072787,-94.17735216,-172.40182992,123.51597228,60.77101757
24.23474280,-10.80201219,-5.87996784,-1.20681699,0.30342224,-1.42091738

>  <Name>
ligand

>  <RI>
0

>  <Rbt.Current_Directory>
/home/itssahil/PROJECTS/Mol_Feturizer/New_Systems/rnas/4F8V

>  <Rbt.Executable>
rbdock ($Id: //depot/dev/client3/rdock/2013.1/src/exe/rbdock.cxx#4 $)

>  <Rbt.Library>
libRbt.so (2013.1, Build901 2013/11/27)

>  <Rbt.Parameter_File>
/export/apps/rDock/src/rDock_2013.1_src/data/scripts/dock_solv.prm

>  <Rbt.Receptor>
prm/pocket_docking_7.prm

>  <SCORE>
-10.1004

>  <SCORE.INTER>
-5.19529

>  <SCORE.INTER.CONST>
1

>  <SCORE.INTER.POLAR>
0

>  <SCORE.INTER.ROT>
6

>  <SCORE.INTER.SOLV>
7.0665

>  <SCORE.INTER.VDW>
-13.419

>  <SCORE.INTER.norm>
-0.16759

>  <SCORE.INTRA>
-4.90507

>  <SCORE.INTRA.DIHEDRAL>
-12.6869

>  <SCORE.INTRA.DIHEDRAL.0>
15.9129

>  <SCORE.INTRA.POLAR>
0

>  <SCORE.INTRA.POLAR.0>
0

>  <SCORE.INTRA.REPUL>
0

>  <SCORE.INTRA.REPUL.0>
0

>  <SCORE.INTRA.SOLV>
-1.98869

>  <SCORE.INTRA.SOLV.lig_0>
-75.7056

>  <SCORE.INTRA.VDW>
2.43275

>  <SCORE.INTRA.VDW.0>
-4.61812

>  <SCORE.INTRA.norm>
-0.158228

>  <SCORE.RESTR>
0

>  <SCORE.RESTR.CAVITY>
0

>  <SCORE.RESTR.norm>
0

>  <SCORE.SYSTEM>
0

>  <SCORE.SYSTEM.CONST>
0

>  <SCORE.SYSTEM.DIHEDRAL>
0

>  <SCORE.SYSTEM.SOLV>
0

>  <SCORE.SYSTEM.norm>
0

>  <SCORE.heavy>
31

>  <SCORE.norm>
-0.325818

>  <RMSD>
8.119

$$$$
ligand
 OpenBabel11021811493D
libRbt.so/2013.1/901 2013/11/27
 31 33  0  0  0  0  0  0  0  0999 V2000
   26.0979  -11.8775   -2.4879 C   0  0  2  0  0  0  0  0  0  0  0  0
   25.4000  -12.7364   -3.3999 O   0  0  0  0  0  0  0  0  0  0  0  0
   21.7677  -11.8730   -5.4613 C   0  0  2  0  0  0  0  0  0  0  0  0
   20.3837  -11.6263   -5.6886 N   0  0  0  0  0  0  0  0  0  0  0  0
   22.6629   -9.1318   -6.2576 C   0  0  2  0  0  0  0  0  0  0  0  0
   27.5593  -12.4141   -2.3868 C   0  0  2  0  0  0  0  0  0  0  0  0
   28.1506  -12.4346   -3.7232 N   0  0  0  0  0  0  0  0  0  0  0  0
   21.9476  -13.3283   -4.8876 C   0  0  0  0  0  0  0  0  0  0  0  0
   23.4372   -7.8207   -5.9546 C   0  0  2  0  0  0  0  0  0  0  0  0
   24.4242   -8.0936   -4.9861 O   0  0  0  0  0  0  0  0  0  0  0  0
   27.5714  -13.8459   -1.7253 C   0  0  0  0  0  0  0  0  0  0  0  0
   23.4869  -13.5990   -4.6367 C   0  0  2  0  0  0  0  0  0  0  0  0
   23.6610  -14.9623   -4.0950 N   0  0  0  0  0  0  0  0  0  0  0  0
   22.3999   -6.7474   -5.4356 C   0  0  1  0  0  0  0  0  0  0  0  0
   23.1026   -5.4742   -5.1094 N   0  0  0  0  0  0  0  0  0  0  0  0
   26.4259  -14.0401   -0.6664 C   0  0  0  0  0  0  0  0  0  0  0  0
   24.0397  -12.5209   -3.6102 C   0  0  2  0  0  0  0  0  0  0  0  0
   21.2828   -6.4690   -6.5868 C   0  0  1  0  0  0  0  0  0  0  0  0
   21.8330   -5.9609   -7.7775 O   0  0  0  0  0  0  0  0  0  0  0  0
   25.5017  -13.0913   -0.4547 C   0  0  1  0  0  0  0  0  0  0  0  0
   25.5055  -11.8665   -1.1613 O   0  0  0  0  0  0  0  0  0  0  0  0
   23.8296  -11.0782   -4.1976 C   0  0  2  0  0  0  0  0  0  0  0  0
   24.3183  -10.1165   -3.2643 O   0  0  0  0  0  0  0  0  0  0  0  0
   20.5606   -7.8100   -6.9244 C   0  0  0  0  0  0  0  0  0  0  0  0
   21.5755   -8.8804   -7.2722 O   0  0  0  0  0  0  0  0  0  0  0  0
   24.3567  -13.2531    0.5643 C   0  0  0  0  0  0  0  0  0  0  0  0
   24.4023  -12.1472    1.4955 N   0  0  0  0  0  0  0  0  0  0  0  0
   22.2937  -10.8342   -4.4490 C   0  0  1  0  0  0  0  0  0  0  0  0
   22.1381   -9.5509   -4.9800 O   0  0  0  0  0  0  0  0  0  0  0  0
   20.1984   -5.4418   -6.2314 C   0  0  0  0  0  0  0  0  0  0  0  0
   23.7271   -5.4002   -3.7796 C   0  0  0  0  0  0  0  0  0  0  0  0
  1  2  1  6  0  0  0
  1  6  1  0  0  0  0
  1 21  1  0  0  0  0
  3  4  1  1  0  0  0
  3  8  1  0  0  0  0
  3 28  1  0  0  0  0
  5  9  1  0  0  0  0
  5 25  1  0  0  0  0
  5 29  1  1  0  0  0
  6  7  1  6  0  0  0
  6 11  1  0  0  0  0
  8 12  1  0  0  0  0
  9 10  1  1  0  0  0
  9 14  1  0  0  0  0
 11 16  1  0  0  0  0
 12 13  1  1  0  0  0
 12 17  1  0  0  0  0
 14 15  1  6  0  0  0
 14 18  1  0  0  0  0
 15 31  1  0  0  0  0
 16 20  1  0  0  0  0
 17  2  1  6  0  0  0
 17 22  1  0  0  0  0
 18 19  1  6  0  0  0
 18 24  1  0  0  0  0
 18 30  1  0  0  0  0
 20 21  1  0  0  0  0
 20 26  1  6  0  0  0
 22 23  1  1  0  0  0
 22 28  1  0  0  0  0
 24 25  1  0  0  0  0
 26 27  1  0  0  0  0
 28 29  1  6  0  0  0
M  END
>  <CHROM.1>
176.29636946,-128.97120783,-83.27118259,-179.25559866,124.11415924,-55.00102509
23.67332065,-10.41950392,-4.06070552,-0.88529921,-0.77351322,-0.12625226

>  <Name>
ligand

>  <RI>
0

>  <Rbt.Current_Directory>
/home/itssahil/PROJECTS/Mol_Feturizer/New_Systems/rnas/4F8V

>  <Rbt.Executable>
rbdock ($Id: //depot/dev/client3/rdock/2013.1/src/exe/rbdock.cxx#4 $)

>  <Rbt.Library>
libRbt.so (2013.1, Build901 2013/11/27)

>  <Rbt.Parameter_File>
/export/apps/rDock/src/rDock_2013.1_src/data/scripts/dock_solv.prm

>  <Rbt.Receptor>
prm/pocket_docking_5.prm

>  <SCORE>
-6.76279

>  <SCORE.INTER>
-5.05226

>  <SCORE.INTER.CONST>
1

>  <SCORE.INTER.POLAR>
0

>  <SCORE.INTER.ROT>
6

>  <SCORE.INTER.SOLV>
13.344

>  <SCORE.INTER.VDW>
-15.4162

>  <SCORE.INTER.norm>
-0.162976

>  <SCORE.INTRA>
-1.71053

>  <SCORE.INTRA.DIHEDRAL>
-6.81121

>  <SCORE.INTRA.DIHEDRAL.0>
15.9129

>  <SCORE.INTRA.POLAR>
0

>  <SCORE.INTRA.POLAR.0>
0

>  <SCORE.INTRA.REPUL>
0

>  <SCORE.INTRA.REPUL.0>
0

>  <SCORE.INTRA.SOLV>
-2.11008

>  <SCORE.INTRA.SOLV.lig_0>
-75.7056

>  <SCORE.INTRA.VDW>
2.75012

>  <SCORE.INTRA.VDW.0>
-4.61812

>  <SCORE.INTRA.norm>
-0.0551784

>  <SCORE.RESTR>
0

>  <SCORE.RESTR.CAVITY>
0

>  <SCORE.RESTR.norm>
0

>  <SCORE.SYSTEM>
0

>  <SCORE.SYSTEM.CONST>
0

>  <SCORE.SYSTEM.DIHEDRAL>
0

>  <SCORE.SYSTEM.SOLV>
0

>  <SCORE.SYSTEM.norm>
0

>  <SCORE.heavy>
31

>  <SCORE.norm>
-0.218154

>  <RMSD>
8.120

$$$$
ligand
 OpenBabel11021811493D
libRbt.so/2013.1/901 2013/11/27
 31 33  0  0  0  0  0  0  0  0999 V2000
   25.9997  -12.2912   -2.7376 C   0  0  2  0  0  0  0  0  0  0  0  0
   25.3882  -13.3583   -3.4749 O   0  0  0  0  0  0  0  0  0  0  0  0
   21.9751  -13.2858   -6.0312 C   0  0  2  0  0  0  0  0  0  0  0  0
   20.6269  -13.1226   -6.4596 N   0  0  0  0  0  0  0  0  0  0  0  0
   21.1998  -10.4728   -7.0266 C   0  0  2  0  0  0  0  0  0  0  0  0
   27.4973  -12.6788   -2.5354 C   0  0  2  0  0  0  0  0  0  0  0  0
   28.1110  -12.8987   -3.8434 N   0  0  0  0  0  0  0  0  0  0  0  0
   22.0383  -14.4172   -4.9378 C   0  0  0  0  0  0  0  0  0  0  0  0
   21.6689   -9.4720   -8.1169 C   0  0  2  0  0  0  0  0  0  0  0  0
   22.5215  -10.1481   -9.0126 O   0  0  0  0  0  0  0  0  0  0  0  0
   27.6120  -13.9572   -1.6186 C   0  0  0  0  0  0  0  0  0  0  0  0
   23.5381  -14.5962   -4.4644 C   0  0  2  0  0  0  0  0  0  0  0  0
   23.6026  -15.6544   -3.4358 N   0  0  0  0  0  0  0  0  0  0  0  0
   22.4151   -8.2785   -7.3985 C   0  0  1  0  0  0  0  0  0  0  0  0
   22.9049   -7.2998   -8.4101 N   0  0  0  0  0  0  0  0  0  0  0  0
   26.4677  -14.0442   -0.5444 C   0  0  0  0  0  0  0  0  0  0  0  0
   24.0607  -13.2179   -3.8738 C   0  0  2  0  0  0  0  0  0  0  0  0
   21.3909   -7.5328   -6.3760 C   0  0  1  0  0  0  0  0  0  0  0  0
   20.2701   -6.9815   -7.0230 O   0  0  0  0  0  0  0  0  0  0  0  0
   25.4674  -13.1511   -0.5150 C   0  0  1  0  0  0  0  0  0  0  0  0
   25.3857  -12.0826   -1.4374 O   0  0  0  0  0  0  0  0  0  0  0  0
   23.9678  -12.1028   -4.9778 C   0  0  2  0  0  0  0  0  0  0  0  0
   24.4280  -10.8666   -4.4351 O   0  0  0  0  0  0  0  0  0  0  0  0
   20.8798   -8.5693   -5.3280 C   0  0  0  0  0  0  0  0  0  0  0  0
   20.3039   -9.7840   -6.0278 O   0  0  0  0  0  0  0  0  0  0  0  0
   24.3217  -13.2138    0.5140 C   0  0  0  0  0  0  0  0  0  0  0  0
   23.0600  -13.1235   -0.1877 N   0  0  0  0  0  0  0  0  0  0  0  0
   22.4700  -11.9488   -5.4413 C   0  0  1  0  0  0  0  0  0  0  0  0
   22.4192  -10.9608   -6.4282 O   0  0  0  0  0  0  0  0  0  0  0  0
   21.9711   -6.3431   -5.5981 C   0  0  0  0  0  0  0  0  0  0  0  0
   24.3194   -6.9102   -8.3040 C   0  0  0  0  0  0  0  0  0  0  0  0
  1  2  1  1  0  0  0
  1  6  1  0  0  0  0
  1 21  1  0  0  0  0
  3  4  1  1  0  0  0
  3  8  1  0  0  0  0
  3 28  1  0  0  0  0
  5  9  1  0  0  0  0
  5 25  1  0  0  0  0
  5 29  1  1  0  0  0
  6  7  1  6  0  0  0
  6 11  1  0  0  0  0
  8 12  1  0  0  0  0
  9 10  1  6  0  0  0
  9 14  1  0  0  0  0
 11 16  1  0  0  0  0
 12 13  1  1  0  0  0
 12 17  1  0  0  0  0
 14 15  1  6  0  0  0
 14 18  1  0  0  0  0
 15 31  1  0  0  0  0
 16 20  1  0  0  0  0
 17  2  1  6  0  0  0
 17 22  1  0  0  0  0
 18 19  1  6  0  0  0
 18 24  1  0  0  0  0
 18 30  1  0  0  0  0
 20 21  1  0  0  0  0
 20 26  1  6  0  0  0
 22 23  1  1  0  0  0
 22 28  1  0  0  0  0
 24 25  1  0  0  0  0
 26 27  1  0  0  0  0
 28 29  1  6  0  0  0
M  END
>  <CHROM.1>
-175.53637649,-176.24813556,-129.44653101,-171.19614617,-129.57540595,65.56652808
23.47996884,-11.33583210,-4.71488391,-0.97276039,-0.63105455,-0.43144927

>  <Name>
ligand

>  <RI>
0

>  <Rbt.Current_Directory>
/home/itssahil/PROJECTS/Mol_Feturizer/New_Systems/rnas/4F8V

>  <Rbt.Executable>
rbdock ($Id: //depot/dev/client3/rdock/2013.1/src/exe/rbdock.cxx#4 $)

>  <Rbt.Library>
libRbt.so (2013.1, Build901 2013/11/27)

>  <Rbt.Parameter_File>
/export/apps/rDock/src/rDock_2013.1_src/data/scripts/dock_solv.prm

>  <Rbt.Receptor>
prm/pocket_docking_7.prm

>  <SCORE>
-9.1858

>  <SCORE.INTER>
-4.30531

>  <SCORE.INTER.CONST>
1

>  <SCORE.INTER.POLAR>
0

>  <SCORE.INTER.ROT>
6

>  <SCORE.INTER.SOLV>
13.0008

>  <SCORE.INTER.VDW>
-14.8038

>  <SCORE.INTER.norm>
-0.138881

>  <SCORE.INTRA>
-4.88049

>  <SCORE.INTRA.DIHEDRAL>
-12.2899

>  <SCORE.INTRA.DIHEDRAL.0>
15.9129

>  <SCORE.INTRA.POLAR>
0

>  <SCORE.INTRA.POLAR.0>
0

>  <SCORE.INTRA.REPUL>
0

>  <SCORE.INTRA.REPUL.0>
0

>  <SCORE.INTRA.SOLV>
-0.989472

>  <SCORE.INTRA.SOLV.lig_0>
-75.7056

>  <SCORE.INTRA.VDW>
1.75921

>  <SCORE.INTRA.VDW.0>
-4.61812

>  <SCORE.INTRA.norm>
-0.157435

>  <SCORE.RESTR>
0

>  <SCORE.RESTR.CAVITY>
0

>  <SCORE.RESTR.norm>
0

>  <SCORE.SYSTEM>
0

>  <SCORE.SYSTEM.CONST>
0

>  <SCORE.SYSTEM.DIHEDRAL>
0

>  <SCORE.SYSTEM.SOLV>
0

>  <SCORE.SYSTEM.norm>
0

>  <SCORE.heavy>
31

>  <SCORE.norm>
-0.296316

>  <RMSD>
8.121

$$$$
ligand
 OpenBabel11021811493D
libRbt.so/2013.1/901 2013/11/27
 31 33  0  0  0  0  0  0  0  0999 V2000
   23.5119  -14.0109   -4.3049 C   0  0  2  0  0  0  0  0  0  0  0  0
   22.4962  -13.6675   -3.3526 O   0  0  0  0  0  0  0  0  0  0  0  0
   20.6499   -9.9252   -2.4723 C   0  0  2  0  0  0  0  0  0  0  0  0
   20.5065   -8.5579   -2.1010 N   0  0  0  0  0  0  0  0  0  0  0  0
   19.9653   -9.8280   -5.6207 C   0  0  2  0  0  0  0  0  0  0  0  0
   23.3661  -15.5370   -4.5940 C   0  0  2  0  0  0  0  0  0  0  0  0
   22.0124  -15.8010   -5.0775 N   0  0  0  0  0  0  0  0  0  0  0  0
   21.2746  -10.7264   -1.2693 C   0  0  0  0  0  0  0  0  0  0  0  0
   19.7130   -8.7085   -6.6664 C   0  0  2  0  0  0  0  0  0  0  0  0
   20.9251   -8.4292   -7.3291 O   0  0  0  0  0  0  0  0  0  0  0  0
   23.6917  -16.3726   -3.2965 C   0  0  0  0  0  0  0  0  0  0  0  0
   21.4321  -12.2455   -1.6854 C   0  0  2  0  0  0  0  0  0  0  0  0
   22.0212  -13.0013   -0.5611 N   0  0  0  0  0  0  0  0  0  0  0  0
   19.1664   -7.4379   -5.9022 C   0  0  1  0  0  0  0  0  0  0  0  0
   18.9296   -6.3254   -6.8652 N   0  0  0  0  0  0  0  0  0  0  0  0
   24.7759  -15.6902   -2.3856 C   0  0  0  0  0  0  0  0  0  0  0  0
   22.3694  -12.3356   -2.9641 C   0  0  2  0  0  0  0  0  0  0  0  0
   17.7697   -7.8119   -5.1538 C   0  0  1  0  0  0  0  0  0  0  0  0
   16.7589   -8.2177   -6.0438 O   0  0  0  0  0  0  0  0  0  0  0  0
   25.2705  -14.4778   -2.6765 C   0  0  1  0  0  0  0  0  0  0  0  0
   24.8541  -13.7487   -3.8141 O   0  0  0  0  0  0  0  0  0  0  0  0
   21.7337  -11.5117   -4.1421 C   0  0  2  0  0  0  0  0  0  0  0  0
   22.5877  -11.5888   -5.2821 O   0  0  0  0  0  0  0  0  0  0  0  0
   18.0295   -8.9819   -4.1551 C   0  0  0  0  0  0  0  0  0  0  0  0
   18.6974  -10.1415   -4.8664 O   0  0  0  0  0  0  0  0  0  0  0  0
   26.3231  -13.7725   -1.7989 C   0  0  0  0  0  0  0  0  0  0  0  0
   27.3352  -13.1972   -2.6574 N   0  0  0  0  0  0  0  0  0  0  0  0
   21.5767  -10.0069   -3.7032 C   0  0  1  0  0  0  0  0  0  0  0  0
   21.0006   -9.3021   -4.7635 O   0  0  0  0  0  0  0  0  0  0  0  0
   17.1092   -6.6734   -4.3634 C   0  0  0  0  0  0  0  0  0  0  0  0
   19.1059   -4.9632   -6.3389 C   0  0  0  0  0  0  0  0  0  0  0  0
  1  2  1  1  0  0  0
  1  6  1  0  0  0  0
  1 21  1  0  0  0  0
  3  4  1  1  0  0  0
  3  8  1  0  0  0  0
  3 28  1  0  0  0  0
  5  9  1  0  0  0  0
  5 25  1  0  0  0  0
  5 29  1  1  0  0  0
  6  7  1  1  0  0  0
  6 11  1  0  0  0  0
  8 12  1  0  0  0  0
  9 10  1  1  0  0  0
  9 14  1  0  0  0  0
 11 16  1  0  0  0  0
 12 13  1  1  0  0  0
 12 17  1  0  0  0  0
 14 15  1  6  0  0  0
 14 18  1  0  0  0  0
 15 31  1  0  0  0  0
 16 20  1  0  0  0  0
 17  2  1  6  0  0  0
 17 22  1  0  0  0  0
 18 19  1  6  0  0  0
 18 24  1  0  0  0  0
 18 30  1  0  0  0  0
 20 21  1  0  0  0  0
 20 26  1  1  0  0  0
 22 23  1  6  0  0  0
 22 28  1  0  0  0  0
 24 25  1  0  0  0  0
 26 27  1  0  0  0  0
 28 29  1  6  0  0  0
M  END
>  <CHROM.1>
-177.24510021,-177.46732282,-149.30824304,-167.11954495,135.93482444,-80.85901935
21.43246709,-11.03454398,-4.10372201,-0.26092472,0.88333988,-1.59592826

>  <Name>
ligand

>  <RI>
0

>  <Rbt.Current_Directory>
/home/itssahil/PROJECTS/Mol_Feturizer/New_Systems/rnas/4F8V

>  <Rbt.Executable>
rbdock ($Id: //depot/dev/client3/rdock/2013.1/src/exe/rbdock.cxx#4 $)

>  <Rbt.Library>
libRbt.so (2013.1, Build901 2013/11/27)

>  <Rbt.Parameter_File>
/export/apps/rDock/src/rDock_2013.1_src/data/scripts/dock_solv.prm

>  <Rbt.Receptor>
prm/pocket_docking_2.prm

>  <SCORE>
-11.0228

>  <SCORE.INTER>
-8.17305

>  <SCORE.INTER.CONST>
1

>  <SCORE.INTER.POLAR>
0

>  <SCORE.INTER.ROT>
6

>  <SCORE.INTER.SOLV>
19.4217

>  <SCORE.INTER.VDW>
-19.5226

>  <SCORE.INTER.norm>
-0.263647

>  <SCORE.INTRA>
-3.64162

>  <SCORE.INTRA.DIHEDRAL>
-10.4936

>  <SCORE.INTRA.DIHEDRAL.0>
15.9129

>  <SCORE.INTRA.POLAR>
0

>  <SCORE.INTRA.POLAR.0>
0

>  <SCORE.INTRA.REPUL>
0

>  <SCORE.INTRA.REPUL.0>
0

>  <SCORE.INTRA.SOLV>
-1.23089

>  <SCORE.INTRA.SOLV.lig_0>
-75.7056

>  <SCORE.INTRA.VDW>
2.22063

>  <SCORE.INTRA.VDW.0>
-4.61812

>  <SCORE.INTRA.norm>
-0.117472

>  <SCORE.RESTR>
0.791907

>  <SCORE.RESTR.CAVITY>
0.791907

>  <SCORE.RESTR.norm>
0.0255454

>  <SCORE.SYSTEM>
0

>  <SCORE.SYSTEM.CONST>
0

>  <SCORE.SYSTEM.DIHEDRAL>
0

>  <SCORE.SYSTEM.SOLV>
0

>  <SCORE.SYSTEM.norm>
0

>  <SCORE.heavy>
31

>  <SCORE.norm>
-0.355573

>  <RMSD>
8.123

$$$$
ligand
 OpenBabel11021811493D
libRbt.so/2013.1/901 2013/11/27
 31 33  0  0  0  0  0  0  0  0999 V2000
   21.4980  -11.2186    1.6893 C   0  0  2  0  0  0  0  0  0  0  0  0
   22.2347   -9.9882    1.6883 O   0  0  0  0  0  0  0  0  0  0  0  0
   22.6202   -7.1474   -1.4692 C   0  0  2  0  0  0  0  0  0  0  0  0
   22.9841   -6.5832   -2.7250 N   0  0  0  0  0  0  0  0  0  0  0  0
   19.7166   -8.9838   -3.0574 C   0  0  2  0  0  0  0  0  0  0  0  0
   21.3413  -11.6529    3.1794 C   0  0  2  0  0  0  0  0  0  0  0  0
   20.6735  -10.5828    3.9177 N   0  0  0  0  0  0  0  0  0  0  0  0
   23.9250   -7.5310   -0.6755 C   0  0  0  0  0  0  0  0  0  0  0  0
   20.4354   -9.3688   -4.3785 C   0  0  2  0  0  0  0  0  0  0  0  0
   21.7040   -9.8964   -4.0643 O   0  0  0  0  0  0  0  0  0  0  0  0
   22.7505  -11.9939    3.8004 C   0  0  0  0  0  0  0  0  0  0  0  0
   23.5167   -8.1573    0.7197 C   0  0  2  0  0  0  0  0  0  0  0  0
   24.7375   -8.5222    1.4673 N   0  0  0  0  0  0  0  0  0  0  0  0
   20.5548   -8.0686   -5.2687 C   0  0  1  0  0  0  0  0  0  0  0  0
   21.2605   -8.3850   -6.5427 N   0  0  0  0  0  0  0  0  0  0  0  0
   23.7530  -12.5946    2.7492 C   0  0  0  0  0  0  0  0  0  0  0  0
   22.6188   -9.4421    0.4655 C   0  0  2  0  0  0  0  0  0  0  0  0
   19.0667   -7.4985   -5.6019 C   0  0  1  0  0  0  0  0  0  0  0  0
   18.2744   -8.4122   -6.3203 O   0  0  0  0  0  0  0  0  0  0  0  0
   23.4276  -12.6959    1.4518 C   0  0  1  0  0  0  0  0  0  0  0  0
   22.1712  -12.2773    0.9565 O   0  0  0  0  0  0  0  0  0  0  0  0
   21.3349   -9.0353   -0.3451 C   0  0  2  0  0  0  0  0  0  0  0  0
   20.5406  -10.1969   -0.5787 O   0  0  0  0  0  0  0  0  0  0  0  0
   18.3363   -7.1789   -4.2609 C   0  0  0  0  0  0  0  0  0  0  0  0
   18.3617   -8.3880   -3.3475 O   0  0  0  0  0  0  0  0  0  0  0  0
   24.3900  -13.2659    0.3914 C   0  0  0  0  0  0  0  0  0  0  0  0
   23.6632  -14.1952   -0.4456 N   0  0  0  0  0  0  0  0  0  0  0  0
   21.7643   -8.4056   -1.7238 C   0  0  1  0  0  0  0  0  0  0  0  0
   20.6058   -8.0444   -2.4169 O   0  0  0  0  0  0  0  0  0  0  0  0
   19.0147   -6.2299   -6.4652 C   0  0  0  0  0  0  0  0  0  0  0  0
   22.1473   -7.3369   -7.0706 C   0  0  0  0  0  0  0  0  0  0  0  0
  1  2  1  1  0  0  0
  1  6  1  0  0  0  0
  1 21  1  0  0  0  0
  3  4  1  6  0  0  0
  3  8  1  0  0  0  0
  3 28  1  0  0  0  0
  5  9  1  0  0  0  0
  5 25  1  0  0  0  0
  5 29  1  6  0  0  0
  6  7  1  1  0  0  0
  6 11  1  0  0  0  0
  8 12  1  0  0  0  0
  9 10  1  1  0  0  0
  9 14  1  0  0  0  0
 11 16  1  0  0  0  0
 12 13  1  6  0  0  0
 12 17  1  0  0  0  0
 14 15  1  6  0  0  0
 14 18  1  0  0  0  0
 15 31  1  0  0  0  0
 16 20  1  0  0  0  0
 17  2  1  1  0  0  0
 17 22  1  0  0  0  0
 18 19  1  6  0  0  0
 18 24  1  0  0  0  0
 18 30  1  0  0  0  0
 20 21  1  0  0  0  0
 20 26  1  6  0  0  0
 22 23  1  6  0  0  0
 22 28  1  0  0  0  0
 24 25  1  0  0  0  0
 26 27  1  0  0  0  0
 28 29  1  6  0  0  0
M  END
>  <CHROM.1>
174.29755354,-77.82393220,-144.08678719,-175.38687700,134.28117372,166.79648777
21.56527531,-9.46138756,-1.46842370,1.07538755,0.81558634,2.42356686

>  <Name>
ligand

>  <RI>
0

>  <Rbt.Current_Directory>
/home/itssahil/PROJECTS/Mol_Feturizer/New_Systems/rnas/4F8V

>  <Rbt.Executable>
rbdock ($Id: //depot/dev/client3/rdock/2013.1/src/exe/rbdock.cxx#4 $)

>  <Rbt.Library>
libRbt.so (2013.1, Build901 2013/11/27)

>  <Rbt.Parameter_File>
/export/apps/rDock/src/rDock_2013.1_src/data/scripts/dock_solv.prm

>  <Rbt.Receptor>
prm/pocket_docking_6.prm

>  <SCORE>
-9.58576

>  <SCORE.INTER>
-5.65866

>  <SCORE.INTER.CONST>
1

>  <SCORE.INTER.POLAR>
0

>  <SCORE.INTER.ROT>
6

>  <SCORE.INTER.SOLV>
17.2847

>  <SCORE.INTER.VDW>
-17.134

>  <SCORE.INTER.norm>
-0.182537

>  <SCORE.INTRA>
-3.9271

>  <SCORE.INTRA.DIHEDRAL>
-10.6425

>  <SCORE.INTRA.DIHEDRAL.0>
15.9129

>  <SCORE.INTRA.POLAR>
0

>  <SCORE.INTRA.POLAR.0>
0

>  <SCORE.INTRA.REPUL>
0

>  <SCORE.INTRA.REPUL.0>
0

>  <SCORE.INTRA.SOLV>
-2.21522

>  <SCORE.INTRA.SOLV.lig_0>
-75.7056

>  <SCORE.INTRA.VDW>
2.50174

>  <SCORE.INTRA.VDW.0>
-4.61812

>  <SCORE.INTRA.norm>
-0.126681

>  <SCORE.RESTR>
0

>  <SCORE.RESTR.CAVITY>
0

>  <SCORE.RESTR.norm>
0

>  <SCORE.SYSTEM>
0

>  <SCORE.SYSTEM.CONST>
0

>  <SCORE.SYSTEM.DIHEDRAL>
0

>  <SCORE.SYSTEM.SOLV>
0

>  <SCORE.SYSTEM.norm>
0

>  <SCORE.heavy>
31

>  <SCORE.norm>
-0.309218

>  <RMSD>
8.125

$$$$
ligand
 OpenBabel11021811493D
libRbt.so/2013.1/901 2013/11/27
 31 33  0  0  0  0  0  0  0  0999 V2000
   26.1197  -12.3201   -3.6296 C   0  0  2  0  0  0  0  0  0  0  0  0
   24.7231  -12.2481   -3.3123 O   0  0  0  0  0  0  0  0  0  0  0  0
   21.5429  -10.2325   -5.3153 C   0  0  2  0  0  0  0  0  0  0  0  0
   20.7754   -9.1762   -5.8838 N   0  0  0  0  0  0  0  0  0  0  0  0
   22.0364   -9.6210   -8.2499 C   0  0  2  0  0  0  0  0  0  0  0  0
   26.6270  -13.7096   -3.1340 C   0  0  2  0  0  0  0  0  0  0  0  0
   25.8374  -14.7591   -3.7751 N   0  0  0  0  0  0  0  0  0  0  0  0
   21.6957   -9.9874   -3.7674 C   0  0  0  0  0  0  0  0  0  0  0  0
   22.1169  -10.3215   -9.6331 C   0  0  2  0  0  0  0  0  0  0  0  0
   21.5845  -11.6209   -9.5120 O   0  0  0  0  0  0  0  0  0  0  0  0
   26.5374  -13.7952   -1.5615 C   0  0  0  0  0  0  0  0  0  0  0  0
   22.5488  -11.1634   -3.1390 C   0  0  2  0  0  0  0  0  0  0  0  0
   22.6982  -10.9366   -1.6870 N   0  0  0  0  0  0  0  0  0  0  0  0
   23.6331  -10.3576  -10.0768 C   0  0  1  0  0  0  0  0  0  0  0  0
   23.7636  -11.0432  -11.3937 N   0  0  0  0  0  0  0  0  0  0  0  0
   26.7681  -12.4078   -0.8594 C   0  0  0  0  0  0  0  0  0  0  0  0
   23.9720  -11.2013   -3.8424 C   0  0  2  0  0  0  0  0  0  0  0  0
   24.2006   -8.8366  -10.2003 C   0  0  1  0  0  0  0  0  0  0  0  0
   23.5143   -8.0683  -11.1582 O   0  0  0  0  0  0  0  0  0  0  0  0
   26.9243  -11.2817   -1.5712 C   0  0  1  0  0  0  0  0  0  0  0  0
   26.8971  -11.2756   -2.9849 O   0  0  0  0  0  0  0  0  0  0  0  0
   23.7900  -11.4263   -5.3874 C   0  0  2  0  0  0  0  0  0  0  0  0
   25.0722  -11.4473   -6.0121 O   0  0  0  0  0  0  0  0  0  0  0  0
   24.0511   -8.1281   -8.8185 C   0  0  0  0  0  0  0  0  0  0  0  0
   22.6217   -8.2331   -8.3259 O   0  0  0  0  0  0  0  0  0  0  0  0
   27.1378   -9.9028   -0.9167 C   0  0  0  0  0  0  0  0  0  0  0  0
   28.3411   -9.3111   -1.4592 N   0  0  0  0  0  0  0  0  0  0  0  0
   22.9305  -10.2514   -5.9896 C   0  0  1  0  0  0  0  0  0  0  0  0
   22.7761  -10.4828   -7.3591 O   0  0  0  0  0  0  0  0  0  0  0  0
   25.6696   -8.7037  -10.6265 C   0  0  0  0  0  0  0  0  0  0  0  0
   23.9577  -12.5006  -11.3499 C   0  0  0  0  0  0  0  0  0  0  0  0
  1  2  1  1  0  0  0
  1  6  1  0  0  0  0
  1 21  1  0  0  0  0
  3  4  1  6  0  0  0
  3  8  1  0  0  0  0
  3 28  1  0  0  0  0
  5  9  1  0  0  0  0
  5 25  1  0  0  0  0
  5 29  1  1  0  0  0
  6  7  1  6  0  0  0
  6 11  1  0  0  0  0
  8 12  1  0  0  0  0
  9 10  1  1  0  0  0
  9 14  1  0  0  0  0
 11 16  1  0  0  0  0
 12 13  1  1  0  0  0
 12 17  1  0  0  0  0
 14 15  1  6  0  0  0
 14 18  1  0  0  0  0
 15 31  1  0  0  0  0
 16 20  1  0  0  0  0
 17  2  1  1  0  0  0
 17 22  1  0  0  0  0
 18 19  1  6  0  0  0
 18 24  1  0  0  0  0
 18 30  1  0  0  0  0
 20 21  1  0  0  0  0
 20 26  1  1  0  0  0
 22 23  1  6  0  0  0
 22 28  1  0  0  0  0
 24 25  1  0  0  0  0
 26 27  1  0  0  0  0
 28 29  1  6  0  0  0
M  END
>  <CHROM.1>
-169.56334432,-178.14923642,-89.30156585,-169.02130516,125.74740914,60.45507216
24.22324774,-10.78937194,-5.88534296,-1.20246506,0.36486242,-1.45083834

>  <Name>
ligand

>  <RI>
0

>  <Rbt.Current_Directory>
/home/itssahil/PROJECTS/Mol_Feturizer/New_Systems/rnas/4F8V

>  <Rbt.Executable>
rbdock ($Id: //depot/dev/client3/rdock/2013.1/src/exe/rbdock.cxx#4 $)

>  <Rbt.Library>
libRbt.so (2013.1, Build901 2013/11/27)

>  <Rbt.Parameter_File>
/export/apps/rDock/src/rDock_2013.1_src/data/scripts/dock_solv.prm

>  <Rbt.Receptor>
prm/pocket_docking_7.prm

>  <SCORE>
-10.0492

>  <SCORE.INTER>
-5.23376

>  <SCORE.INTER.CONST>
1

>  <SCORE.INTER.POLAR>
0

>  <SCORE.INTER.ROT>
6

>  <SCORE.INTER.SOLV>
7.04998

>  <SCORE.INTER.VDW>
-13.4392

>  <SCORE.INTER.norm>
-0.168831

>  <SCORE.INTRA>
-4.81547

>  <SCORE.INTRA.DIHEDRAL>
-12.4871

>  <SCORE.INTRA.DIHEDRAL.0>
15.9129

>  <SCORE.INTRA.POLAR>
0

>  <SCORE.INTRA.POLAR.0>
0

>  <SCORE.INTRA.REPUL>
0

>  <SCORE.INTRA.REPUL.0>
0

>  <SCORE.INTRA.SOLV>
-1.75452

>  <SCORE.INTRA.SOLV.lig_0>
-75.7056

>  <SCORE.INTRA.VDW>
2.30532

>  <SCORE.INTRA.VDW.0>
-4.61812

>  <SCORE.INTRA.norm>
-0.155338

>  <SCORE.RESTR>
0

>  <SCORE.RESTR.CAVITY>
0

>  <SCORE.RESTR.norm>
0

>  <SCORE.SYSTEM>
0

>  <SCORE.SYSTEM.CONST>
0

>  <SCORE.SYSTEM.DIHEDRAL>
0

>  <SCORE.SYSTEM.SOLV>
0

>  <SCORE.SYSTEM.norm>
0

>  <SCORE.heavy>
31

>  <SCORE.norm>
-0.324169

>  <RMSD>
8.127

$$$$
ligand
 OpenBabel11021811493D
libRbt.so/2013.1/901 2013/11/27
 31 33  0  0  0  0  0  0  0  0999 V2000
   26.1176  -12.3851   -3.1177 C   0  0  2  0  0  0  0  0  0  0  0  0
   25.8030  -13.5406   -3.9066 O   0  0  0  0  0  0  0  0  0  0  0  0
   22.5830  -14.1261   -6.6410 C   0  0  2  0  0  0  0  0  0  0  0  0
   21.2542  -14.2625   -7.1347 N   0  0  0  0  0  0  0  0  0  0  0  0
   21.1755  -11.4667   -7.4720 C   0  0  2  0  0  0  0  0  0  0  0  0
   27.6107  -12.5223   -2.6867 C   0  0  2  0  0  0  0  0  0  0  0  0
   28.4406  -12.6441   -3.8835 N   0  0  0  0  0  0  0  0  0  0  0  0
   22.8708  -15.2747   -5.6030 C   0  0  0  0  0  0  0  0  0  0  0  0
   21.3329  -10.0795   -8.1512 C   0  0  2  0  0  0  0  0  0  0  0  0
   22.3785  -10.1549   -9.0932 O   0  0  0  0  0  0  0  0  0  0  0  0
   27.7911  -13.7612   -1.7273 C   0  0  0  0  0  0  0  0  0  0  0  0
   24.3485  -15.1202   -5.0568 C   0  0  2  0  0  0  0  0  0  0  0  0
   24.6227  -16.1937   -4.0797 N   0  0  0  0  0  0  0  0  0  0  0  0
   21.6451   -9.0151   -7.0257 C   0  0  1  0  0  0  0  0  0  0  0  0
   21.8271   -7.6669   -7.6342 N   0  0  0  0  0  0  0  0  0  0  0  0
   26.5280  -14.0297   -0.8310 C   0  0  0  0  0  0  0  0  0  0  0  0
   24.4987  -13.6960   -4.3708 C   0  0  2  0  0  0  0  0  0  0  0  0
   20.4114   -8.9674   -5.9643 C   0  0  1  0  0  0  0  0  0  0  0  0
   19.1912   -8.5904   -6.5539 O   0  0  0  0  0  0  0  0  0  0  0  0
   25.4040  -13.3118   -0.9742 C   0  0  1  0  0  0  0  0  0  0  0  0
   25.2905  -12.2745   -1.9284 O   0  0  0  0  0  0  0  0  0  0  0  0
   24.1864  -12.5697   -5.4218 C   0  0  2  0  0  0  0  0  0  0  0  0
   24.3124  -11.2950   -4.7941 O   0  0  0  0  0  0  0  0  0  0  0  0
   20.2266  -10.3855   -5.3409 C   0  0  0  0  0  0  0  0  0  0  0  0
   20.0822  -11.4254   -6.4338 O   0  0  0  0  0  0  0  0  0  0  0  0
   24.1424  -13.5567   -0.1235 C   0  0  0  0  0  0  0  0  0  0  0  0
   23.7585  -12.3136    0.5089 N   0  0  0  0  0  0  0  0  0  0  0  0
   22.7164  -12.7485   -5.9592 C   0  0  1  0  0  0  0  0  0  0  0  0
   22.4706  -11.7424   -6.8975 O   0  0  0  0  0  0  0  0  0  0  0  0
   20.5658   -7.9737   -4.8041 C   0  0  0  0  0  0  0  0  0  0  0  0
   23.2089   -7.2848   -7.9633 C   0  0  0  0  0  0  0  0  0  0  0  0
  1  2  1  1  0  0  0
  1  6  1  0  0  0  0
  1 21  1  0  0  0  0
  3  4  1  1  0  0  0
  3  8  1  0  0  0  0
  3 28  1  0  0  0  0
  5  9  1  0  0  0  0
  5 25  1  0  0  0  0
  5 29  1  1  0  0  0
  6  7  1  6  0  0  0
  6 11  1  0  0  0  0
  8 12  1  0  0  0  0
  9 10  1  6  0  0  0
  9 14  1  0  0  0  0
 11 16  1  0  0  0  0
 12 13  1  1  0  0  0
 12 17  1  0  0  0  0
 14 15  1  6  0  0  0
 14 18  1  0  0  0  0
 15 31  1  0  0  0  0
 16 20  1  0  0  0  0
 17  2  1  6  0  0  0
 17 22  1  0  0  0  0
 18 19  1  6  0  0  0
 18 24  1  0  0  0  0
 18 30  1  0  0  0  0
 20 21  1  0  0  0  0
 20 26  1  6  0  0  0
 22 23  1  1  0  0  0
 22 28  1  0  0  0  0
 24 25  1  0  0  0  0
 26 27  1  0  0  0  0
 28 29  1  6  0  0  0
M  END
>  <CHROM.1>
177.11458046,166.12555158,-93.40314417,-173.02009230,125.42048686,69.82566023
23.42242183,-11.90764155,-4.89235904,-0.22412029,-0.90411299,0.40581357

>  <Name>
ligand

>  <RI>
0

>  <Rbt.Current_Directory>
/home/itssahil/PROJECTS/Mol_Feturizer/New_Systems/rnas/4F8V

>  <Rbt.Executable>
rbdock ($Id: //depot/dev/client3/rdock/2013.1/src/exe/rbdock.cxx#4 $)

>  <Rbt.Library>
libRbt.so (2013.1, Build901 2013/11/27)

>  <Rbt.Parameter_File>
/export/apps/rDock/src/rDock_2013.1_src/data/scripts/dock_solv.prm

>  <Rbt.Receptor>
prm/pocket_docking_4.prm

>  <SCORE>
-9.6786

>  <SCORE.INTER>
-4.6297

>  <SCORE.INTER.CONST>
1

>  <SCORE.INTER.POLAR>
0

>  <SCORE.INTER.ROT>
6

>  <SCORE.INTER.SOLV>
11.8967

>  <SCORE.INTER.VDW>
-14.652

>  <SCORE.INTER.norm>
-0.149345

>  <SCORE.INTRA>
-5.0489

>  <SCORE.INTRA.DIHEDRAL>
-11.831

>  <SCORE.INTRA.DIHEDRAL.0>
15.9129

>  <SCORE.INTRA.POLAR>
0

>  <SCORE.INTRA.POLAR.0>
0

>  <SCORE.INTRA.REPUL>
0

>  <SCORE.INTRA.REPUL.0>
0

>  <SCORE.INTRA.SOLV>
-2.08843

>  <SCORE.INTRA.SOLV.lig_0>
-75.7056

>  <SCORE.INTRA.VDW>
1.91082

>  <SCORE.INTRA.VDW.0>
-4.61812

>  <SCORE.INTRA.norm>
-0.162868

>  <SCORE.RESTR>
0

>  <SCORE.RESTR.CAVITY>
0

>  <SCORE.RESTR.norm>
0

>  <SCORE.SYSTEM>
0

>  <SCORE.SYSTEM.CONST>
0

>  <SCORE.SYSTEM.DIHEDRAL>
0

>  <SCORE.SYSTEM.SOLV>
0

>  <SCORE.SYSTEM.norm>
0

>  <SCORE.heavy>
31

>  <SCORE.norm>
-0.312213

>  <RMSD>
8.128

$$$$
ligand
 OpenBabel11021811493D
libRbt.so/2013.1/901 2013/11/27
 31 33  0  0  0  0  0  0  0  0999 V2000
   24.2282  -13.7860   -4.3356 C   0  0  2  0  0  0  0  0  0  0  0  0
   23.2073  -13.5199   -3.3643 O   0  0  0  0  0  0  0  0  0  0  0  0
   21.0602   -9.9569   -2.4247 C   0  0  2  0  0  0  0  0  0  0  0  0
   20.8063   -8.6029   -2.0636 N   0  0  0  0  0  0  0  0  0  0  0  0
   20.1307   -9.9580   -5.4723 C   0  0  2  0  0  0  0  0  0  0  0  0
   24.2188  -15.3244   -4.5946 C   0  0  2  0  0  0  0  0  0  0  0  0
   22.8847  -15.7223   -5.0396 N   0  0  0  0  0  0  0  0  0  0  0  0
   21.8291  -10.6711   -1.2507 C   0  0  0  0  0  0  0  0  0  0  0  0
   19.7348   -8.9058   -6.5431 C   0  0  2  0  0  0  0  0  0  0  0  0
   20.8684   -8.6125   -7.3276 O   0  0  0  0  0  0  0  0  0  0  0  0
   24.6509  -16.1008   -3.2914 C   0  0  0  0  0  0  0  0  0  0  0  0
   22.1091  -12.1756   -1.6553 C   0  0  2  0  0  0  0  0  0  0  0  0
   22.8335  -12.8496   -0.5585 N   0  0  0  0  0  0  0  0  0  0  0  0
   19.2025   -7.6203   -5.7938 C   0  0  1  0  0  0  0  0  0  0  0  0
   18.8298   -6.5701   -6.7835 N   0  0  0  0  0  0  0  0  0  0  0  0
   25.6876  -15.3031   -2.4197 C   0  0  0  0  0  0  0  0  0  0  0  0
   22.9745  -12.1993   -2.9866 C   0  0  2  0  0  0  0  0  0  0  0  0
   17.8974   -8.0111   -4.9024 C   0  0  1  0  0  0  0  0  0  0  0  0
   16.8297   -8.5035   -5.6747 O   0  0  0  0  0  0  0  0  0  0  0  0
   26.0601  -14.0559   -2.7437 C   0  0  1  0  0  0  0  0  0  0  0  0
   25.5512  -13.3909   -3.8830 O   0  0  0  0  0  0  0  0  0  0  0  0
   22.1939  -11.4630   -4.1352 C   0  0  2  0  0  0  0  0  0  0  0  0
   22.9834  -11.4791   -5.3232 O   0  0  0  0  0  0  0  0  0  0  0  0
   18.2988   -9.1159   -3.8767 C   0  0  0  0  0  0  0  0  0  0  0  0
   18.9515  -10.2829   -4.5899 O   0  0  0  0  0  0  0  0  0  0  0  0
   27.0624  -13.2390   -1.9049 C   0  0  0  0  0  0  0  0  0  0  0  0
   28.0764  -12.7009   -2.7850 N   0  0  0  0  0  0  0  0  0  0  0  0
   21.9171   -9.9722   -3.7076 C   0  0  1  0  0  0  0  0  0  0  0  0
   21.2143   -9.3465   -4.7408 O   0  0  0  0  0  0  0  0  0  0  0  0
   17.2601   -6.8606   -4.1103 C   0  0  0  0  0  0  0  0  0  0  0  0
   19.0381   -5.1768   -6.3604 C   0  0  0  0  0  0  0  0  0  0  0  0
  1  2  1  1  0  0  0
  1  6  1  0  0  0  0
  1 21  1  0  0  0  0
  3  4  1  1  0  0  0
  3  8  1  0  0  0  0
  3 28  1  0  0  0  0
  5  9  1  0  0  0  0
  5 25  1  0  0  0  0
  5 29  1  1  0  0  0
  6  7  1  1  0  0  0
  6 11  1  0  0  0  0
  8 12  1  0  0  0  0
  9 10  1  1  0  0  0
  9 14  1  0  0  0  0
 11 16  1  0  0  0  0
 12 13  1  1  0  0  0
 12 17  1  0  0  0  0
 14 15  1  6  0  0  0
 14 18  1  0  0  0  0
 15 31  1  0  0  0  0
 16 20  1  0  0  0  0
 17  2  1  6  0  0  0
 17 22  1  0  0  0  0
 18 19  1  6  0  0  0
 18 24  1  0  0  0  0
 18 30  1  0  0  0  0
 20 21  1  0  0  0  0
 20 26  1  1  0  0  0
 22 23  1  6  0  0  0
 22 28  1  0  0  0  0
 24 25  1  0  0  0  0
 26 27  1  0  0  0  0
 28 29  1  6  0  0  0
M  END
>  <CHROM.1>
-177.83370036,-177.30135396,-147.11746797,-164.87440103,130.14670905,-76.85345457
21.86765312,-10.98745233,-4.05249306,-0.18820653,0.79462113,-1.66589595

>  <Name>
ligand

>  <RI>
0

>  <Rbt.Current_Directory>
/home/itssahil/PROJECTS/Mol_Feturizer/New_Systems/rnas/4F8V

>  <Rbt.Executable>
rbdock ($Id: //depot/dev/client3/rdock/2013.1/src/exe/rbdock.cxx#4 $)

>  <Rbt.Library>
libRbt.so (2013.1, Build901 2013/11/27)

>  <Rbt.Parameter_File>
/export/apps/rDock/src/rDock_2013.1_src/data/scripts/dock_solv.prm

>  <Rbt.Receptor>
prm/pocket_docking_3.prm

>  <SCORE>
-13.1769

>  <SCORE.INTER>
-9.18505

>  <SCORE.INTER.CONST>
1

>  <SCORE.INTER.POLAR>
0

>  <SCORE.INTER.ROT>
6

>  <SCORE.INTER.SOLV>
16.9278

>  <SCORE.INTER.VDW>
-19.366

>  <SCORE.INTER.norm>
-0.296292

>  <SCORE.INTRA>
-3.99188

>  <SCORE.INTRA.DIHEDRAL>
-10.9638

>  <SCORE.INTRA.DIHEDRAL.0>
15.9129

>  <SCORE.INTRA.POLAR>
0

>  <SCORE.INTRA.POLAR.0>
0

>  <SCORE.INTRA.REPUL>
0

>  <SCORE.INTRA.REPUL.0>
0

>  <SCORE.INTRA.SOLV>
-0.912223

>  <SCORE.INTRA.SOLV.lig_0>
-75.7056

>  <SCORE.INTRA.VDW>
1.94615

>  <SCORE.INTRA.VDW.0>
-4.61812

>  <SCORE.INTRA.norm>
-0.12877

>  <SCORE.RESTR>
0

>  <SCORE.RESTR.CAVITY>
0

>  <SCORE.RESTR.norm>
0

>  <SCORE.SYSTEM>
0

>  <SCORE.SYSTEM.CONST>
0

>  <SCORE.SYSTEM.DIHEDRAL>
0

>  <SCORE.SYSTEM.SOLV>
0

>  <SCORE.SYSTEM.norm>
0

>  <SCORE.heavy>
31

>  <SCORE.norm>
-0.425062

>  <RMSD>
8.134

$$$$
ligand
 OpenBabel11021811493D
libRbt.so/2013.1/901 2013/11/27
 31 33  0  0  0  0  0  0  0  0999 V2000
   26.0282  -12.4207   -2.9577 C   0  0  2  0  0  0  0  0  0  0  0  0
   25.5175  -13.5650   -3.6550 O   0  0  0  0  0  0  0  0  0  0  0  0
   22.1215  -13.9944   -6.1989 C   0  0  2  0  0  0  0  0  0  0  0  0
   20.7678  -13.9679   -6.6403 N   0  0  0  0  0  0  0  0  0  0  0  0
   21.1759  -11.1010   -7.2823 C   0  0  2  0  0  0  0  0  0  0  0  0
   27.5282  -12.7126   -2.6433 C   0  0  2  0  0  0  0  0  0  0  0  0
   28.2313  -12.9832   -3.8957 N   0  0  0  0  0  0  0  0  0  0  0  0
   22.2530  -14.9947   -4.9899 C   0  0  0  0  0  0  0  0  0  0  0  0
   21.5724  -10.2231   -8.4999 C   0  0  2  0  0  0  0  0  0  0  0  0
   22.1890  -11.0438   -9.4656 O   0  0  0  0  0  0  0  0  0  0  0  0
   27.6506  -13.9208   -1.6368 C   0  0  0  0  0  0  0  0  0  0  0  0
   23.7587  -15.0220   -4.5023 C   0  0  2  0  0  0  0  0  0  0  0  0
   23.8871  -15.9566   -3.3656 N   0  0  0  0  0  0  0  0  0  0  0  0
   22.5529   -9.0931   -7.9911 C   0  0  1  0  0  0  0  0  0  0  0  0
   22.9799   -8.2355   -9.1327 N   0  0  0  0  0  0  0  0  0  0  0  0
   26.4485  -13.9999   -0.6271 C   0  0  0  0  0  0  0  0  0  0  0  0
   24.1858  -13.5565   -4.0646 C   0  0  2  0  0  0  0  0  0  0  0  0
   21.7962   -8.1760   -6.8790 C   0  0  1  0  0  0  0  0  0  0  0  0
   20.6547   -7.5273   -7.3837 O   0  0  0  0  0  0  0  0  0  0  0  0
   25.4046  -13.1624   -0.7163 C   0  0  1  0  0  0  0  0  0  0  0  0
   25.3259  -12.1618   -1.7123 O   0  0  0  0  0  0  0  0  0  0  0  0
   24.0258  -12.5755   -5.2823 C   0  0  2  0  0  0  0  0  0  0  0  0
   24.4005  -11.2602   -4.8769 O   0  0  0  0  0  0  0  0  0  0  0  0
   21.3478   -9.0862   -5.6940 C   0  0  0  0  0  0  0  0  0  0  0  0
   20.5349  -10.2570   -6.2091 O   0  0  0  0  0  0  0  0  0  0  0  0
   24.2025  -13.2203    0.2466 C   0  0  0  0  0  0  0  0  0  0  0  0
   24.0279  -11.9184    0.8523 N   0  0  0  0  0  0  0  0  0  0  0  0
   22.5238  -12.5719   -5.7574 C   0  0  1  0  0  0  0  0  0  0  0  0
   22.4135  -11.7015   -6.8451 O   0  0  0  0  0  0  0  0  0  0  0  0
   22.6232   -7.0264   -6.2858 C   0  0  0  0  0  0  0  0  0  0  0  0
   24.0688   -8.7634   -9.9690 C   0  0  0  0  0  0  0  0  0  0  0  0
  1  2  1  1  0  0  0
  1  6  1  0  0  0  0
  1 21  1  0  0  0  0
  3  4  1  1  0  0  0
  3  8  1  0  0  0  0
  3 28  1  0  0  0  0
  5  9  1  0  0  0  0
  5 25  1  0  0  0  0
  5 29  1  1  0  0  0
  6  7  1  6  0  0  0
  6 11  1  0  0  0  0
  8 12  1  0  0  0  0
  9 10  1  6  0  0  0
  9 14  1  0  0  0  0
 11 16  1  0  0  0  0
 12 13  1  1  0  0  0
 12 17  1  0  0  0  0
 14 15  1  6  0  0  0
 14 18  1  0  0  0  0
 15 31  1  0  0  0  0
 16 20  1  0  0  0  0
 17  2  1  6  0  0  0
 17 22  1  0  0  0  0
 18 19  1  6  0  0  0
 18 24  1  0  0  0  0
 18 30  1  0  0  0  0
 20 21  1  0  0  0  0
 20 26  1  6  0  0  0
 22 23  1  1  0  0  0
 22 28  1  0  0  0  0
 24 25  1  0  0  0  0
 26 27  1  0  0  0  0
 28 29  1  6  0  0  0
M  END
>  <CHROM.1>
-179.52656177,179.62031995,-81.02814503,-167.06500971,124.75986714,81.68536543
23.60452063,-11.77310547,-4.99691538,-0.75588191,-0.90591381,-0.27584848

>  <Name>
ligand

>  <RI>
0

>  <Rbt.Current_Directory>
/home/itssahil/PROJECTS/Mol_Feturizer/New_Systems/rnas/4F8V

>  <Rbt.Executable>
rbdock ($Id: //depot/dev/client3/rdock/2013.1/src/exe/rbdock.cxx#4 $)

>  <Rbt.Library>
libRbt.so (2013.1, Build901 2013/11/27)

>  <Rbt.Parameter_File>
/export/apps/rDock/src/rDock_2013.1_src/data/scripts/dock_solv.prm

>  <Rbt.Receptor>
prm/pocket_docking_7.prm

>  <SCORE>
-10.2302

>  <SCORE.INTER>
-5.19595

>  <SCORE.INTER.CONST>
1

>  <SCORE.INTER.POLAR>
0

>  <SCORE.INTER.ROT>
6

>  <SCORE.INTER.SOLV>
11.443

>  <SCORE.INTER.VDW>
-14.8783

>  <SCORE.INTER.norm>
-0.167611

>  <SCORE.INTRA>
-5.03425

>  <SCORE.INTRA.DIHEDRAL>
-10.9945

>  <SCORE.INTRA.DIHEDRAL.0>
15.9129

>  <SCORE.INTRA.POLAR>
0

>  <SCORE.INTRA.POLAR.0>
0

>  <SCORE.INTRA.REPUL>
0

>  <SCORE.INTRA.REPUL.0>
0

>  <SCORE.INTRA.SOLV>
-2.29217

>  <SCORE.INTRA.SOLV.lig_0>
-75.7056

>  <SCORE.INTRA.VDW>
1.60908

>  <SCORE.INTRA.VDW.0>
-4.61812

>  <SCORE.INTRA.norm>
-0.162395

>  <SCORE.RESTR>
0

>  <SCORE.RESTR.CAVITY>
0

>  <SCORE.RESTR.norm>
0

>  <SCORE.SYSTEM>
0

>  <SCORE.SYSTEM.CONST>
0

>  <SCORE.SYSTEM.DIHEDRAL>
0

>  <SCORE.SYSTEM.SOLV>
0

>  <SCORE.SYSTEM.norm>
0

>  <SCORE.heavy>
31

>  <SCORE.norm>
-0.330007

>  <RMSD>
8.136

$$$$
ligand
 OpenBabel11021811493D
libRbt.so/2013.1/901 2013/11/27
 31 33  0  0  0  0  0  0  0  0999 V2000
   20.7170  -10.3423    0.4450 C   0  0  2  0  0  0  0  0  0  0  0  0
   21.5778   -9.1954    0.4550 O   0  0  0  0  0  0  0  0  0  0  0  0
   23.0000   -6.9588   -2.8862 C   0  0  2  0  0  0  0  0  0  0  0  0
   23.7078   -6.6400   -4.0801 N   0  0  0  0  0  0  0  0  0  0  0  0
   20.6749   -8.8045   -5.1329 C   0  0  2  0  0  0  0  0  0  0  0  0
   20.1718  -10.5136    1.8966 C   0  0  2  0  0  0  0  0  0  0  0  0
   19.4874   -9.2850    2.2943 N   0  0  0  0  0  0  0  0  0  0  0  0
   24.0322   -7.2931   -1.7450 C   0  0  0  0  0  0  0  0  0  0  0  0
   20.0779   -7.9263   -6.2656 C   0  0  2  0  0  0  0  0  0  0  0  0
   21.0895   -7.0781   -6.7592 O   0  0  0  0  0  0  0  0  0  0  0  0
   21.3494  -10.8673    2.8845 C   0  0  0  0  0  0  0  0  0  0  0  0
   23.2420   -7.6464   -0.4198 C   0  0  2  0  0  0  0  0  0  0  0  0
   24.2059   -7.9643    0.6536 N   0  0  0  0  0  0  0  0  0  0  0  0
   18.8742   -7.0992   -5.6619 C   0  0  1  0  0  0  0  0  0  0  0  0
   18.2811   -6.2215   -6.7102 N   0  0  0  0  0  0  0  0  0  0  0  0
   22.4856  -11.7137    2.2037 C   0  0  0  0  0  0  0  0  0  0  0  0
   22.2954   -8.8903   -0.6996 C   0  0  2  0  0  0  0  0  0  0  0  0
   17.7362   -8.1217   -5.1051 C   0  0  1  0  0  0  0  0  0  0  0  0
   17.1992   -8.9482   -6.1087 O   0  0  0  0  0  0  0  0  0  0  0  0
   22.4562  -11.9967    0.8929 C   0  0  1  0  0  0  0  0  0  0  0  0
   21.4068  -11.5593    0.0523 O   0  0  0  0  0  0  0  0  0  0  0  0
   21.2899   -8.5375   -1.8551 C   0  0  2  0  0  0  0  0  0  0  0  0
   20.4519   -9.6639   -2.1073 O   0  0  0  0  0  0  0  0  0  0  0  0
   18.3714   -9.0393   -4.0150 C   0  0  0  0  0  0  0  0  0  0  0  0
   19.6176   -9.7116   -4.5550 O   0  0  0  0  0  0  0  0  0  0  0  0
   23.5595  -12.8110    0.1892 C   0  0  0  0  0  0  0  0  0  0  0  0
   24.1040  -12.0200   -0.8925 N   0  0  0  0  0  0  0  0  0  0  0  0
   22.0969   -8.1795   -3.1599 C   0  0  1  0  0  0  0  0  0  0  0  0
   21.1799   -7.8603   -4.1650 O   0  0  0  0  0  0  0  0  0  0  0  0
   16.4943   -7.4659   -4.4847 C   0  0  0  0  0  0  0  0  0  0  0  0
   17.8935   -4.8690   -6.2808 C   0  0  0  0  0  0  0  0  0  0  0  0
  1  2  1  1  0  0  0
  1  6  1  0  0  0  0
  1 21  1  0  0  0  0
  3  4  1  6  0  0  0
  3  8  1  0  0  0  0
  3 28  1  0  0  0  0
  5  9  1  0  0  0  0
  5 25  1  0  0  0  0
  5 29  1  1  0  0  0
  6  7  1  1  0  0  0
  6 11  1  0  0  0  0
  8 12  1  0  0  0  0
  9 10  1  1  0  0  0
  9 14  1  0  0  0  0
 11 16  1  0  0  0  0
 12 13  1  1  0  0  0
 12 17  1  0  0  0  0
 14 15  1  6  0  0  0
 14 18  1  0  0  0  0
 15 31  1  0  0  0  0
 16 20  1  0  0  0  0
 17  2  1  1  0  0  0
 17 22  1  0  0  0  0
 18 19  1  6  0  0  0
 18 24  1  0  0  0  0
 18 30  1  0  0  0  0
 20 21  1  0  0  0  0
 20 26  1  6  0  0  0
 22 23  1  6  0  0  0
 22 28  1  0  0  0  0
 24 25  1  0  0  0  0
 26 27  1  0  0  0  0
 28 29  1  6  0  0  0
M  END
>  <CHROM.1>
174.26995316,-162.67352591,-139.62495570,-176.33555613,-122.94122190,147.09860278
20.90806315,-8.87947759,-2.33333457,1.13508822,0.24713578,2.14557073

>  <Name>
ligand

>  <RI>
0

>  <Rbt.Current_Directory>
/home/itssahil/PROJECTS/Mol_Feturizer/New_Systems/rnas/4F8V

>  <Rbt.Executable>
rbdock ($Id: //depot/dev/client3/rdock/2013.1/src/exe/rbdock.cxx#4 $)

>  <Rbt.Library>
libRbt.so (2013.1, Build901 2013/11/27)

>  <Rbt.Parameter_File>
/export/apps/rDock/src/rDock_2013.1_src/data/scripts/dock_solv.prm

>  <Rbt.Receptor>
prm/pocket_docking_7.prm

>  <SCORE>
-12.3398

>  <SCORE.INTER>
-9.61093

>  <SCORE.INTER.CONST>
1

>  <SCORE.INTER.POLAR>
0

>  <SCORE.INTER.ROT>
6

>  <SCORE.INTER.SOLV>
17.4634

>  <SCORE.INTER.VDW>
-19.8284

>  <SCORE.INTER.norm>
-0.31003

>  <SCORE.INTRA>
-2.72885

>  <SCORE.INTRA.DIHEDRAL>
-7.55745

>  <SCORE.INTRA.DIHEDRAL.0>
15.9129

>  <SCORE.INTRA.POLAR>
0

>  <SCORE.INTRA.POLAR.0>
0

>  <SCORE.INTRA.REPUL>
0

>  <SCORE.INTRA.REPUL.0>
0

>  <SCORE.INTRA.SOLV>
-1.77739

>  <SCORE.INTRA.SOLV.lig_0>
-75.7056

>  <SCORE.INTRA.VDW>
1.93857

>  <SCORE.INTRA.VDW.0>
-4.61812

>  <SCORE.INTRA.norm>
-0.0880275

>  <SCORE.RESTR>
0

>  <SCORE.RESTR.CAVITY>
0

>  <SCORE.RESTR.norm>
0

>  <SCORE.SYSTEM>
0

>  <SCORE.SYSTEM.CONST>
0

>  <SCORE.SYSTEM.DIHEDRAL>
0

>  <SCORE.SYSTEM.SOLV>
0

>  <SCORE.SYSTEM.norm>
0

>  <SCORE.heavy>
31

>  <SCORE.norm>
-0.398058

>  <RMSD>
8.170

$$$$
ligand
 OpenBabel11021811493D
libRbt.so/2013.1/901 2013/11/27
 31 33  0  0  0  0  0  0  0  0999 V2000
   25.0476  -13.1200   -2.6267 C   0  0  2  0  0  0  0  0  0  0  0  0
   25.0071  -11.9297   -1.8278 O   0  0  0  0  0  0  0  0  0  0  0  0
   23.1832   -8.1230   -2.4367 C   0  0  2  0  0  0  0  0  0  0  0  0
   22.8216   -6.8971   -3.0647 N   0  0  0  0  0  0  0  0  0  0  0  0
   20.6485  -10.0357   -4.5004 C   0  0  2  0  0  0  0  0  0  0  0  0
   25.3027  -14.3119   -1.6531 C   0  0  2  0  0  0  0  0  0  0  0  0
   24.2467  -14.3337   -0.6430 N   0  0  0  0  0  0  0  0  0  0  0  0
   24.7423   -8.1535   -2.2182 C   0  0  0  0  0  0  0  0  0  0  0  0
   20.8296   -9.2594   -5.8328 C   0  0  2  0  0  0  0  0  0  0  0  0
   22.2082   -9.1289   -6.0947 O   0  0  0  0  0  0  0  0  0  0  0  0
   26.7311  -14.1850   -0.9961 C   0  0  0  0  0  0  0  0  0  0  0  0
   25.1404   -9.5170   -1.5197 C   0  0  2  0  0  0  0  0  0  0  0  0
   26.6030   -9.5523   -1.3154 N   0  0  0  0  0  0  0  0  0  0  0  0
   20.1352   -7.8485   -5.6763 C   0  0  1  0  0  0  0  0  0  0  0  0
   20.3026   -7.0555   -6.9270 N   0  0  0  0  0  0  0  0  0  0  0  0
   27.7842  -13.5099   -1.9479 C   0  0  0  0  0  0  0  0  0  0  0  0
   24.6817  -10.7236   -2.4446 C   0  0  2  0  0  0  0  0  0  0  0  0
   18.5486   -8.0531   -5.3739 C   0  0  1  0  0  0  0  0  0  0  0  0
   17.8729   -8.7270   -6.4073 O   0  0  0  0  0  0  0  0  0  0  0  0
   27.4315  -13.0223   -3.1467 C   0  0  1  0  0  0  0  0  0  0  0  0
   26.1027  -13.0909   -3.6252 O   0  0  0  0  0  0  0  0  0  0  0  0
   23.1265  -10.6578   -2.6631 C   0  0  2  0  0  0  0  0  0  0  0  0
   22.7253  -11.7380   -3.5040 O   0  0  0  0  0  0  0  0  0  0  0  0
   18.3874   -8.8907   -4.0676 C   0  0  0  0  0  0  0  0  0  0  0  0
   19.1846  -10.1758   -4.1656 O   0  0  0  0  0  0  0  0  0  0  0  0
   28.4336  -12.3414   -4.0993 C   0  0  0  0  0  0  0  0  0  0  0  0
   28.3886  -13.0125   -5.3798 N   0  0  0  0  0  0  0  0  0  0  0  0
   22.7518   -9.2900   -3.3491 C   0  0  1  0  0  0  0  0  0  0  0  0
   21.3654   -9.2547   -3.5210 O   0  0  0  0  0  0  0  0  0  0  0  0
   17.7305   -6.7661   -5.1965 C   0  0  0  0  0  0  0  0  0  0  0  0
   21.3984   -6.0741   -6.9312 C   0  0  0  0  0  0  0  0  0  0  0  0
  1  2  1  1  0  0  0
  1  6  1  0  0  0  0
  1 21  1  0  0  0  0
  3  4  1  6  0  0  0
  3  8  1  0  0  0  0
  3 28  1  0  0  0  0
  5  9  1  0  0  0  0
  5 25  1  0  0  0  0
  5 29  1  1  0  0  0
  6  7  1  1  0  0  0
  6 11  1  0  0  0  0
  8 12  1  0  0  0  0
  9 10  1  1  0  0  0
  9 14  1  0  0  0  0
 11 16  1  0  0  0  0
 12 13  1  6  0  0  0
 12 17  1  0  0  0  0
 14 15  1  6  0  0  0
 14 18  1  0  0  0  0
 15 31  1  0  0  0  0
 16 20  1  0  0  0  0
 17  2  1  1  0  0  0
 17 22  1  0  0  0  0
 18 19  1  6  0  0  0
 18 24  1  0  0  0  0
 18 30  1  0  0  0  0
 20 21  1  0  0  0  0
 20 26  1  1  0  0  0
 22 23  1  6  0  0  0
 22 28  1  0  0  0  0
 24 25  1  0  0  0  0
 26 27  1  0  0  0  0
 28 29  1  1  0  0  0
M  END
>  <CHROM.1>
-174.82655792,-79.89826360,-97.97258545,-162.05172474,124.98827725,168.05384461
23.15073061,-10.27856043,-3.67952187,0.67906086,0.09378862,2.70519491

>  <Name>
ligand

>  <RI>
0

>  <Rbt.Current_Directory>
/home/itssahil/PROJECTS/Mol_Feturizer/New_Systems/rnas/4F8V

>  <Rbt.Executable>
rbdock ($Id: //depot/dev/client3/rdock/2013.1/src/exe/rbdock.cxx#4 $)

>  <Rbt.Library>
libRbt.so (2013.1, Build901 2013/11/27)

>  <Rbt.Parameter_File>
/export/apps/rDock/src/rDock_2013.1_src/data/scripts/dock_solv.prm

>  <Rbt.Receptor>
prm/pocket_docking_6.prm

>  <SCORE>
-12.031

>  <SCORE.INTER>
-8.11243

>  <SCORE.INTER.CONST>
1

>  <SCORE.INTER.POLAR>
0

>  <SCORE.INTER.ROT>
6

>  <SCORE.INTER.SOLV>
14.3946

>  <SCORE.INTER.VDW>
-17.8065

>  <SCORE.INTER.norm>
-0.261691

>  <SCORE.INTRA>
-3.91855

>  <SCORE.INTRA.DIHEDRAL>
-9.2815

>  <SCORE.INTRA.DIHEDRAL.0>
15.9129

>  <SCORE.INTRA.POLAR>
0

>  <SCORE.INTRA.POLAR.0>
0

>  <SCORE.INTRA.REPUL>
0

>  <SCORE.INTRA.REPUL.0>
0

>  <SCORE.INTRA.SOLV>
-1.26913

>  <SCORE.INTRA.SOLV.lig_0>
-75.7056

>  <SCORE.INTRA.VDW>
1.35676

>  <SCORE.INTRA.VDW.0>
-4.61812

>  <SCORE.INTRA.norm>
-0.126405

>  <SCORE.RESTR>
0

>  <SCORE.RESTR.CAVITY>
0

>  <SCORE.RESTR.norm>
0

>  <SCORE.SYSTEM>
0

>  <SCORE.SYSTEM.CONST>
0

>  <SCORE.SYSTEM.DIHEDRAL>
0

>  <SCORE.SYSTEM.SOLV>
0

>  <SCORE.SYSTEM.norm>
0

>  <SCORE.heavy>
31

>  <SCORE.norm>
-0.388096

>  <RMSD>
8.172

$$$$
ligand
 OpenBabel11021811493D
libRbt.so/2013.1/901 2013/11/27
 31 33  0  0  0  0  0  0  0  0999 V2000
   26.4067  -16.2718   -6.4888 C   0  0  2  0  0  0  0  0  0  0  0  0
   26.4484  -15.1141   -7.3341 O   0  0  0  0  0  0  0  0  0  0  0  0
   29.2353  -12.8227   -5.0600 C   0  0  2  0  0  0  0  0  0  0  0  0
   30.0579  -11.7327   -4.6562 N   0  0  0  0  0  0  0  0  0  0  0  0
   26.1856  -11.1456   -3.5756 C   0  0  2  0  0  0  0  0  0  0  0  0
   25.8218  -17.4379   -7.3442 C   0  0  2  0  0  0  0  0  0  0  0  0
   26.6568  -17.6218   -8.5295 N   0  0  0  0  0  0  0  0  0  0  0  0
   29.6945  -13.3200   -6.4818 C   0  0  0  0  0  0  0  0  0  0  0  0
   26.4828  -10.4087   -2.2418 C   0  0  2  0  0  0  0  0  0  0  0  0
   27.6483   -9.6333   -2.4051 O   0  0  0  0  0  0  0  0  0  0  0  0
   24.3235  -17.1332   -7.7320 C   0  0  0  0  0  0  0  0  0  0  0  0
   28.7784  -14.5316   -6.9270 C   0  0  2  0  0  0  0  0  0  0  0  0
   29.2029  -14.9999   -8.2622 N   0  0  0  0  0  0  0  0  0  0  0  0
   26.6669  -11.4971   -1.1109 C   0  0  1  0  0  0  0  0  0  0  0  0
   26.9771  -10.8361    0.1883 N   0  0  0  0  0  0  0  0  0  0  0  0
   23.5642  -16.3036   -6.6338 C   0  0  0  0  0  0  0  0  0  0  0  0
   27.2663  -14.0483   -6.9652 C   0  0  2  0  0  0  0  0  0  0  0  0
   25.2976  -12.3652   -0.9627 C   0  0  1  0  0  0  0  0  0  0  0  0
   24.1862  -11.5837   -0.5985 O   0  0  0  0  0  0  0  0  0  0  0  0
   24.1962  -15.8439   -5.5436 C   0  0  1  0  0  0  0  0  0  0  0  0
   25.5713  -16.0810   -5.3154 O   0  0  0  0  0  0  0  0  0  0  0  0
   26.8402  -13.5387   -5.5405 C   0  0  2  0  0  0  0  0  0  0  0  0
   25.4850  -13.0961   -5.5872 O   0  0  0  0  0  0  0  0  0  0  0  0
   24.9801  -13.0450   -2.3305 C   0  0  0  0  0  0  0  0  0  0  0  0
   24.9582  -12.0114   -3.4386 O   0  0  0  0  0  0  0  0  0  0  0  0
   23.4874  -15.0154   -4.4543 C   0  0  0  0  0  0  0  0  0  0  0  0
   23.3610  -15.8247   -3.2621 N   0  0  0  0  0  0  0  0  0  0  0  0
   27.7704  -12.3412   -5.1133 C   0  0  1  0  0  0  0  0  0  0  0  0
   27.3766  -11.9164   -3.8416 O   0  0  0  0  0  0  0  0  0  0  0  0
   25.3184  -13.4696    0.1036 C   0  0  0  0  0  0  0  0  0  0  0  0
   28.4033  -10.6573    0.5010 C   0  0  0  0  0  0  0  0  0  0  0  0
  1  2  1  6  0  0  0
  1  6  1  0  0  0  0
  1 21  1  0  0  0  0
  3  4  1  6  0  0  0
  3  8  1  0  0  0  0
  3 28  1  0  0  0  0
  5  9  1  0  0  0  0
  5 25  1  0  0  0  0
  5 29  1  1  0  0  0
  6  7  1  6  0  0  0
  6 11  1  0  0  0  0
  8 12  1  0  0  0  0
  9 10  1  6  0  0  0
  9 14  1  0  0  0  0
 11 16  1  0  0  0  0
 12 13  1  6  0  0  0
 12 17  1  0  0  0  0
 14 15  1  1  0  0  0
 14 18  1  0  0  0  0
 15 31  1  0  0  0  0
 16 20  1  0  0  0  0
 17  2  1  1  0  0  0
 17 22  1  0  0  0  0
 18 19  1  1  0  0  0
 18 24  1  0  0  0  0
 18 30  1  0  0  0  0
 20 21  1  0  0  0  0
 20 26  1  6  0  0  0
 22 23  1  6  0  0  0
 22 28  1  0  0  0  0
 24 25  1  0  0  0  0
 26 27  1  0  0  0  0
 28 29  1  1  0  0  0
M  END
>  <CHROM.1>
-161.76544995,-155.79446706,-92.05814249,61.79920318,109.25636818,166.16047593
26.38881165,-13.57335050,-4.38389778,1.63759944,-0.51740588,-2.21931182

>  <Name>
ligand

>  <RI>
0

>  <Rbt.Current_Directory>
/home/itssahil/PROJECTS/Mol_Feturizer/New_Systems/rnas/4F8V

>  <Rbt.Executable>
rbdock ($Id: //depot/dev/client3/rdock/2013.1/src/exe/rbdock.cxx#4 $)

>  <Rbt.Library>
libRbt.so (2013.1, Build901 2013/11/27)

>  <Rbt.Parameter_File>
/export/apps/rDock/src/rDock_2013.1_src/data/scripts/dock_solv.prm

>  <Rbt.Receptor>
prm/pocket_docking_7.prm

>  <SCORE>
-5.08682

>  <SCORE.INTER>
-2.6784

>  <SCORE.INTER.CONST>
1

>  <SCORE.INTER.POLAR>
0

>  <SCORE.INTER.ROT>
6

>  <SCORE.INTER.SOLV>
9.5152

>  <SCORE.INTER.VDW>
-12.5573

>  <SCORE.INTER.norm>
-0.0863999

>  <SCORE.INTRA>
-2.40842

>  <SCORE.INTRA.DIHEDRAL>
-8.45429

>  <SCORE.INTRA.DIHEDRAL.0>
15.9129

>  <SCORE.INTRA.POLAR>
0

>  <SCORE.INTRA.POLAR.0>
0

>  <SCORE.INTRA.REPUL>
0

>  <SCORE.INTRA.REPUL.0>
0

>  <SCORE.INTRA.SOLV>
0.227218

>  <SCORE.INTRA.SOLV.lig_0>
-75.7056

>  <SCORE.INTRA.VDW>
1.70511

>  <SCORE.INTRA.VDW.0>
-4.61812

>  <SCORE.INTRA.norm>
-0.0776911

>  <SCORE.RESTR>
0

>  <SCORE.RESTR.CAVITY>
0

>  <SCORE.RESTR.norm>
0

>  <SCORE.SYSTEM>
0

>  <SCORE.SYSTEM.CONST>
0

>  <SCORE.SYSTEM.DIHEDRAL>
0

>  <SCORE.SYSTEM.SOLV>
0

>  <SCORE.SYSTEM.norm>
0

>  <SCORE.heavy>
31

>  <SCORE.norm>
-0.164091

>  <RMSD>
8.183

$$$$
ligand
 OpenBabel11021811493D
libRbt.so/2013.1/901 2013/11/27
 31 33  0  0  0  0  0  0  0  0999 V2000
   20.7531  -10.3906    0.1568 C   0  0  2  0  0  0  0  0  0  0  0  0
   21.5866   -9.2237    0.1540 O   0  0  0  0  0  0  0  0  0  0  0  0
   22.9118   -6.9082   -3.1733 C   0  0  2  0  0  0  0  0  0  0  0  0
   23.5808   -6.5625   -4.3820 N   0  0  0  0  0  0  0  0  0  0  0  0
   20.4847   -8.6781   -5.3777 C   0  0  2  0  0  0  0  0  0  0  0  0
   20.3215  -10.6369    1.6356 C   0  0  2  0  0  0  0  0  0  0  0  0
   19.6414   -9.4439    2.1361 N   0  0  0  0  0  0  0  0  0  0  0  0
   23.9798   -7.2811   -2.0779 C   0  0  0  0  0  0  0  0  0  0  0  0
   19.8195   -7.7693   -6.4463 C   0  0  2  0  0  0  0  0  0  0  0  0
   20.7974   -6.9007   -6.9713 O   0  0  0  0  0  0  0  0  0  0  0  0
   21.5769  -11.0019    2.5179 C   0  0  0  0  0  0  0  0  0  0  0  0
   23.2327   -7.6642   -0.7361 C   0  0  2  0  0  0  0  0  0  0  0  0
   24.2303   -8.0183    0.2943 N   0  0  0  0  0  0  0  0  0  0  0  0
   18.6496   -6.9679   -5.7488 C   0  0  1  0  0  0  0  0  0  0  0  0
   17.9932   -6.0621   -6.7336 N   0  0  0  0  0  0  0  0  0  0  0  0
   22.6778  -11.7897    1.7189 C   0  0  0  0  0  0  0  0  0  0  0  0
   22.2666   -8.8929   -1.0162 C   0  0  2  0  0  0  0  0  0  0  0  0
   17.5498   -8.0134   -5.1588 C   0  0  1  0  0  0  0  0  0  0  0  0
   16.9588   -8.8121   -6.1546 O   0  0  0  0  0  0  0  0  0  0  0  0
   22.5572  -12.0178    0.4026 C   0  0  1  0  0  0  0  0  0  0  0  0
   21.4386  -11.5720   -0.3386 O   0  0  0  0  0  0  0  0  0  0  0  0
   21.2249   -8.5013   -2.1263 C   0  0  2  0  0  0  0  0  0  0  0  0
   20.3692   -9.6141   -2.3794 O   0  0  0  0  0  0  0  0  0  0  0  0
   18.2508   -8.9601   -4.1361 C   0  0  0  0  0  0  0  0  0  0  0  0
   19.4663   -9.6085   -4.7677 O   0  0  0  0  0  0  0  0  0  0  0  0
   23.6228  -12.7733   -0.4153 C   0  0  0  0  0  0  0  0  0  0  0  0
   22.9619  -13.7551   -1.2469 N   0  0  0  0  0  0  0  0  0  0  0  0
   21.9895   -8.1142   -3.4481 C   0  0  1  0  0  0  0  0  0  0  0  0
   21.0412   -7.7610   -4.4119 O   0  0  0  0  0  0  0  0  0  0  0  0
   16.3434   -7.3839   -4.4478 C   0  0  0  0  0  0  0  0  0  0  0  0
   17.6769   -4.7066   -6.2578 C   0  0  0  0  0  0  0  0  0  0  0  0
  1  2  1  1  0  0  0
  1  6  1  0  0  0  0
  1 21  1  0  0  0  0
  3  4  1  6  0  0  0
  3  8  1  0  0  0  0
  3 28  1  0  0  0  0
  5  9  1  0  0  0  0
  5 25  1  0  0  0  0
  5 29  1  1  0  0  0
  6  7  1  1  0  0  0
  6 11  1  0  0  0  0
  8 12  1  0  0  0  0
  9 10  1  1  0  0  0
  9 14  1  0  0  0  0
 11 16  1  0  0  0  0
 12 13  1  1  0  0  0
 12 17  1  0  0  0  0
 14 15  1  6  0  0  0
 14 18  1  0  0  0  0
 15 31  1  0  0  0  0
 16 20  1  0  0  0  0
 17  2  1  1  0  0  0
 17 22  1  0  0  0  0
 18 19  1  6  0  0  0
 18 24  1  0  0  0  0
 18 30  1  0  0  0  0
 20 21  1  0  0  0  0
 20 26  1  6  0  0  0
 22 23  1  6  0  0  0
 22 28  1  0  0  0  0
 24 25  1  0  0  0  0
 26 27  1  0  0  0  0
 28 29  1  6  0  0  0
M  END
>  <CHROM.1>
170.85087044,-164.49801028,-137.14794863,-174.15860625,133.35351785,147.78812978
20.80410605,-8.89579041,-2.58404815,1.10129042,0.31147940,2.24965167

>  <Name>
ligand

>  <RI>
0

>  <Rbt.Current_Directory>
/home/itssahil/PROJECTS/Mol_Feturizer/New_Systems/rnas/4F8V

>  <Rbt.Executable>
rbdock ($Id: //depot/dev/client3/rdock/2013.1/src/exe/rbdock.cxx#4 $)

>  <Rbt.Library>
libRbt.so (2013.1, Build901 2013/11/27)

>  <Rbt.Parameter_File>
/export/apps/rDock/src/rDock_2013.1_src/data/scripts/dock_solv.prm

>  <Rbt.Receptor>
prm/pocket_docking_8.prm

>  <SCORE>
-12.2643

>  <SCORE.INTER>
-9.37845

>  <SCORE.INTER.CONST>
1

>  <SCORE.INTER.POLAR>
0

>  <SCORE.INTER.ROT>
6

>  <SCORE.INTER.SOLV>
19.0364

>  <SCORE.INTER.VDW>
-20.1978

>  <SCORE.INTER.norm>
-0.302531

>  <SCORE.INTRA>
-2.88589

>  <SCORE.INTRA.DIHEDRAL>
-7.32182

>  <SCORE.INTRA.DIHEDRAL.0>
15.9129

>  <SCORE.INTRA.POLAR>
0

>  <SCORE.INTRA.POLAR.0>
0

>  <SCORE.INTRA.REPUL>
0

>  <SCORE.INTRA.REPUL.0>
0

>  <SCORE.INTRA.SOLV>
-2.88664

>  <SCORE.INTRA.SOLV.lig_0>
-75.7056

>  <SCORE.INTRA.VDW>
2.21833

>  <SCORE.INTRA.VDW.0>
-4.61812

>  <SCORE.INTRA.norm>
-0.0930934

>  <SCORE.RESTR>
0

>  <SCORE.RESTR.CAVITY>
0

>  <SCORE.RESTR.norm>
0

>  <SCORE.SYSTEM>
0

>  <SCORE.SYSTEM.CONST>
0

>  <SCORE.SYSTEM.DIHEDRAL>
0

>  <SCORE.SYSTEM.SOLV>
0

>  <SCORE.SYSTEM.norm>
0

>  <SCORE.heavy>
31

>  <SCORE.norm>
-0.395624

>  <RMSD>
8.195

$$$$
ligand
 OpenBabel11021811493D
libRbt.so/2013.1/901 2013/11/27
 31 33  0  0  0  0  0  0  0  0999 V2000
   26.0732  -12.0189   -2.7229 C   0  0  2  0  0  0  0  0  0  0  0  0
   25.4322  -13.0019   -3.5471 O   0  0  0  0  0  0  0  0  0  0  0  0
   22.2519  -12.5081   -6.3454 C   0  0  2  0  0  0  0  0  0  0  0  0
   20.9589  -12.2124   -6.8637 N   0  0  0  0  0  0  0  0  0  0  0  0
   21.7869   -9.6600   -7.2946 C   0  0  2  0  0  0  0  0  0  0  0  0
   27.5090  -12.5477   -2.4187 C   0  0  2  0  0  0  0  0  0  0  0  0
   28.2060  -12.7812   -3.6819 N   0  0  0  0  0  0  0  0  0  0  0  0
   22.1408  -13.7018   -5.3245 C   0  0  0  0  0  0  0  0  0  0  0  0
   22.4223   -8.6205   -8.2569 C   0  0  2  0  0  0  0  0  0  0  0  0
   23.3788   -9.2746   -9.0592 O   0  0  0  0  0  0  0  0  0  0  0  0
   27.4349  -13.8596   -1.5462 C   0  0  0  0  0  0  0  0  0  0  0  0
   23.5796  -14.0279   -4.7510 C   0  0  2  0  0  0  0  0  0  0  0  0
   23.4805  -15.1453   -3.7898 N   0  0  0  0  0  0  0  0  0  0  0  0
   23.0833   -7.4824   -7.3822 C   0  0  1  0  0  0  0  0  0  0  0  0
   23.7278   -6.4693   -8.2648 N   0  0  0  0  0  0  0  0  0  0  0  0
   26.2032  -13.8759   -0.5696 C   0  0  0  0  0  0  0  0  0  0  0  0
   24.1557  -12.7324   -4.0359 C   0  0  2  0  0  0  0  0  0  0  0  0
   21.9406   -6.7605   -6.4746 C   0  0  1  0  0  0  0  0  0  0  0  0
   20.9317   -6.1502   -7.2416 O   0  0  0  0  0  0  0  0  0  0  0  0
   25.2867  -12.8966   -0.5843 C   0  0  1  0  0  0  0  0  0  0  0  0
   25.3756  -11.7964   -1.4680 O   0  0  0  0  0  0  0  0  0  0  0  0
   24.2369  -11.5519   -5.0705 C   0  0  2  0  0  0  0  0  0  0  0  0
   24.7442  -10.3899   -4.4169 O   0  0  0  0  0  0  0  0  0  0  0  0
   21.2688   -7.8325   -5.5617 C   0  0  0  0  0  0  0  0  0  0  0  0
   20.7735   -8.9970   -6.3955 O   0  0  0  0  0  0  0  0  0  0  0  0
   24.0595  -12.8870    0.3481 C   0  0  0  0  0  0  0  0  0  0  0  0
   22.8694  -12.6914   -0.4504 N   0  0  0  0  0  0  0  0  0  0  0  0
   22.7974  -11.2514   -5.6357 C   0  0  1  0  0  0  0  0  0  0  0  0
   22.9015  -10.2074   -6.5588 O   0  0  0  0  0  0  0  0  0  0  0  0
   22.4289   -5.6247   -5.5641 C   0  0  0  0  0  0  0  0  0  0  0  0
   25.0682   -6.0166   -7.8619 C   0  0  0  0  0  0  0  0  0  0  0  0
  1  2  1  6  0  0  0
  1  6  1  0  0  0  0
  1 21  1  0  0  0  0
  3  4  1  1  0  0  0
  3  8  1  0  0  0  0
  3 28  1  0  0  0  0
  5  9  1  0  0  0  0
  5 25  1  0  0  0  0
  5 29  1  1  0  0  0
  6  7  1  6  0  0  0
  6 11  1  0  0  0  0
  8 12  1  0  0  0  0
  9 10  1  1  0  0  0
  9 14  1  0  0  0  0
 11 16  1  0  0  0  0
 12 13  1  1  0  0  0
 12 17  1  0  0  0  0
 14 15  1  6  0  0  0
 14 18  1  0  0  0  0
 15 31  1  0  0  0  0
 16 20  1  0  0  0  0
 17  2  1  6  0  0  0
 17 22  1  0  0  0  0
 18 19  1  6  0  0  0
 18 24  1  0  0  0  0
 18 30  1  0  0  0  0
 20 21  1  0  0  0  0
 20 26  1  6  0  0  0
 22 23  1  1  0  0  0
 22 28  1  0  0  0  0
 24 25  1  0  0  0  0
 26 27  1  0  0  0  0
 28 29  1  6  0  0  0
M  END
>  <CHROM.1>
-175.97365680,-175.59031847,-135.67929553,-172.54302828,-128.24131705,60.44392663
23.74988870,-10.75993367,-4.81985934,-1.08149004,-0.67187808,-0.43956383

>  <Name>
ligand

>  <RI>
0

>  <Rbt.Current_Directory>
/home/itssahil/PROJECTS/Mol_Feturizer/New_Systems/rnas/4F8V

>  <Rbt.Executable>
rbdock ($Id: //depot/dev/client3/rdock/2013.1/src/exe/rbdock.cxx#4 $)

>  <Rbt.Library>
libRbt.so (2013.1, Build901 2013/11/27)

>  <Rbt.Parameter_File>
/export/apps/rDock/src/rDock_2013.1_src/data/scripts/dock_solv.prm

>  <Rbt.Receptor>
prm/pocket_docking_8.prm

>  <SCORE>
-8.6414

>  <SCORE.INTER>
-4.0498

>  <SCORE.INTER.CONST>
1

>  <SCORE.INTER.POLAR>
0

>  <SCORE.INTER.ROT>
6

>  <SCORE.INTER.SOLV>
10.3506

>  <SCORE.INTER.VDW>
-13.75

>  <SCORE.INTER.norm>
-0.130639

>  <SCORE.INTRA>
-4.59161

>  <SCORE.INTRA.DIHEDRAL>
-12.6866

>  <SCORE.INTRA.DIHEDRAL.0>
15.9129

>  <SCORE.INTRA.POLAR>
0

>  <SCORE.INTRA.POLAR.0>
0

>  <SCORE.INTRA.REPUL>
0

>  <SCORE.INTRA.REPUL.0>
0

>  <SCORE.INTRA.SOLV>
-0.942689

>  <SCORE.INTRA.SOLV.lig_0>
-75.7056

>  <SCORE.INTRA.VDW>
2.22301

>  <SCORE.INTRA.VDW.0>
-4.61812

>  <SCORE.INTRA.norm>
-0.148116

>  <SCORE.RESTR>
0

>  <SCORE.RESTR.CAVITY>
0

>  <SCORE.RESTR.norm>
0

>  <SCORE.SYSTEM>
0

>  <SCORE.SYSTEM.CONST>
0

>  <SCORE.SYSTEM.DIHEDRAL>
0

>  <SCORE.SYSTEM.SOLV>
0

>  <SCORE.SYSTEM.norm>
0

>  <SCORE.heavy>
31

>  <SCORE.norm>
-0.278755

>  <RMSD>
8.208

$$$$
ligand
 OpenBabel11021811493D
libRbt.so/2013.1/901 2013/11/27
 31 33  0  0  0  0  0  0  0  0999 V2000
   20.6791  -10.3949    0.1521 C   0  0  2  0  0  0  0  0  0  0  0  0
   21.5780   -9.2781    0.1168 O   0  0  0  0  0  0  0  0  0  0  0  0
   22.8565   -7.0288   -3.2736 C   0  0  2  0  0  0  0  0  0  0  0  0
   23.4890   -6.7142   -4.5101 N   0  0  0  0  0  0  0  0  0  0  0  0
   20.2966   -8.7049   -5.3886 C   0  0  2  0  0  0  0  0  0  0  0  0
   20.3056  -10.6302    1.6484 C   0  0  2  0  0  0  0  0  0  0  0  0
   19.7211   -9.4049    2.1897 N   0  0  0  0  0  0  0  0  0  0  0  0
   23.9527   -7.4390   -2.2201 C   0  0  0  0  0  0  0  0  0  0  0  0
   19.6360   -7.7680   -6.4357 C   0  0  2  0  0  0  0  0  0  0  0  0
   20.6290   -6.9282   -6.9791 O   0  0  0  0  0  0  0  0  0  0  0  0
   21.5788  -11.0757    2.4660 C   0  0  0  0  0  0  0  0  0  0  0  0
   23.2461   -7.7875   -0.8472 C   0  0  2  0  0  0  0  0  0  0  0  0
   24.2701   -8.1763    0.1441 N   0  0  0  0  0  0  0  0  0  0  0  0
   18.5100   -6.9335   -5.7056 C   0  0  1  0  0  0  0  0  0  0  0  0
   17.8602   -6.0005   -6.6690 N   0  0  0  0  0  0  0  0  0  0  0  0
   22.5921  -11.9180    1.6089 C   0  0  0  0  0  0  0  0  0  0  0  0
   22.2224   -8.9785   -1.0816 C   0  0  2  0  0  0  0  0  0  0  0  0
   17.3910   -7.9466   -5.0953 C   0  0  1  0  0  0  0  0  0  0  0  0
   16.7507   -8.7191   -6.0812 O   0  0  0  0  0  0  0  0  0  0  0  0
   22.3952  -12.1259    0.2984 C   0  0  1  0  0  0  0  0  0  0  0  0
   21.2700  -11.6090   -0.3843 O   0  0  0  0  0  0  0  0  0  0  0  0
   21.1527   -8.5508   -2.1509 C   0  0  2  0  0  0  0  0  0  0  0  0
   20.2449   -9.6304   -2.3634 O   0  0  0  0  0  0  0  0  0  0  0  0
   18.0850   -8.9222   -4.0952 C   0  0  0  0  0  0  0  0  0  0  0  0
   19.2632   -9.6056   -4.7596 O   0  0  0  0  0  0  0  0  0  0  0  0
   23.3743  -12.9337   -0.5756 C   0  0  0  0  0  0  0  0  0  0  0  0
   22.6368  -13.9686   -1.2666 N   0  0  0  0  0  0  0  0  0  0  0  0
   21.8777   -8.1989   -3.5046 C   0  0  1  0  0  0  0  0  0  0  0  0
   20.9057   -7.8127   -4.4313 O   0  0  0  0  0  0  0  0  0  0  0  0
   16.2231   -7.2829   -4.3518 C   0  0  0  0  0  0  0  0  0  0  0  0
   17.4719   -4.6852   -6.1369 C   0  0  0  0  0  0  0  0  0  0  0  0
  1  2  1  1  0  0  0
  1  6  1  0  0  0  0
  1 21  1  0  0  0  0
  3  4  1  6  0  0  0
  3  8  1  0  0  0  0
  3 28  1  0  0  0  0
  5  9  1  0  0  0  0
  5 25  1  0  0  0  0
  5 29  1  1  0  0  0
  6  7  1  1  0  0  0
  6 11  1  0  0  0  0
  8 12  1  0  0  0  0
  9 10  1  1  0  0  0
  9 14  1  0  0  0  0
 11 16  1  0  0  0  0
 12 13  1  1  0  0  0
 12 17  1  0  0  0  0
 14 15  1  6  0  0  0
 14 18  1  0  0  0  0
 15 31  1  0  0  0  0
 16 20  1  0  0  0  0
 17  2  1  1  0  0  0
 17 22  1  0  0  0  0
 18 19  1  6  0  0  0
 18 24  1  0  0  0  0
 18 30  1  0  0  0  0
 20 21  1  0  0  0  0
 20 26  1  6  0  0  0
 22 23  1  6  0  0  0
 22 28  1  0  0  0  0
 24 25  1  0  0  0  0
 26 27  1  0  0  0  0
 28 29  1  6  0  0  0
M  END
>  <CHROM.1>
170.62917217,-163.60256727,-143.32172547,-175.44019655,126.91893996,146.36449351
20.69000470,-8.93876297,-2.60687982,1.09545928,0.27516734,2.25556916

>  <Name>
ligand

>  <RI>
0

>  <Rbt.Current_Directory>
/home/itssahil/PROJECTS/Mol_Feturizer/New_Systems/rnas/4F8V

>  <Rbt.Executable>
rbdock ($Id: //depot/dev/client3/rdock/2013.1/src/exe/rbdock.cxx#4 $)

>  <Rbt.Library>
libRbt.so (2013.1, Build901 2013/11/27)

>  <Rbt.Parameter_File>
/export/apps/rDock/src/rDock_2013.1_src/data/scripts/dock_solv.prm

>  <Rbt.Receptor>
prm/pocket_docking_6.prm

>  <SCORE>
-12.3357

>  <SCORE.INTER>
-9.49

>  <SCORE.INTER.CONST>
1

>  <SCORE.INTER.POLAR>
0

>  <SCORE.INTER.ROT>
6

>  <SCORE.INTER.SOLV>
19.9304

>  <SCORE.INTER.VDW>
-20.5701

>  <SCORE.INTER.norm>
-0.306129

>  <SCORE.INTRA>
-2.84575

>  <SCORE.INTRA.DIHEDRAL>
-7.30913

>  <SCORE.INTRA.DIHEDRAL.0>
15.9129

>  <SCORE.INTRA.POLAR>
0

>  <SCORE.INTRA.POLAR.0>
0

>  <SCORE.INTRA.REPUL>
0

>  <SCORE.INTRA.REPUL.0>
0

>  <SCORE.INTRA.SOLV>
-2.95783

>  <SCORE.INTRA.SOLV.lig_0>
-75.7056

>  <SCORE.INTRA.VDW>
2.28773

>  <SCORE.INTRA.VDW.0>
-4.61812

>  <SCORE.INTRA.norm>
-0.0917982

>  <SCORE.RESTR>
0

>  <SCORE.RESTR.CAVITY>
0

>  <SCORE.RESTR.norm>
0

>  <SCORE.SYSTEM>
0

>  <SCORE.SYSTEM.CONST>
0

>  <SCORE.SYSTEM.DIHEDRAL>
0

>  <SCORE.SYSTEM.SOLV>
0

>  <SCORE.SYSTEM.norm>
0

>  <SCORE.heavy>
31

>  <SCORE.norm>
-0.397927

>  <RMSD>
8.220

$$$$
ligand
 OpenBabel11021811493D
libRbt.so/2013.1/901 2013/11/27
 31 33  0  0  0  0  0  0  0  0999 V2000
   22.2141  -13.4014   -3.3790 C   0  0  2  0  0  0  0  0  0  0  0  0
   23.4092  -12.6093   -3.4024 O   0  0  0  0  0  0  0  0  0  0  0  0
   24.3276   -9.2138   -5.8140 C   0  0  2  0  0  0  0  0  0  0  0  0
   24.5890   -8.4243   -6.9700 N   0  0  0  0  0  0  0  0  0  0  0  0
   20.8284   -8.8857   -6.9358 C   0  0  2  0  0  0  0  0  0  0  0  0
   22.2346  -14.2151   -2.0481 C   0  0  2  0  0  0  0  0  0  0  0  0
   22.3293  -13.2848   -0.9248 N   0  0  0  0  0  0  0  0  0  0  0  0
   25.4258  -10.3358   -5.6931 C   0  0  0  0  0  0  0  0  0  0  0  0
   20.3357   -7.4155   -7.0162 C   0  0  2  0  0  0  0  0  0  0  0  0
   21.3954   -6.6097   -7.4789 O   0  0  0  0  0  0  0  0  0  0  0  0
   23.4320  -15.2417   -2.0534 C   0  0  0  0  0  0  0  0  0  0  0  0
   25.1322  -11.2108   -4.4071 C   0  0  2  0  0  0  0  0  0  0  0  0
   26.1580  -12.2674   -4.2908 N   0  0  0  0  0  0  0  0  0  0  0  0
   19.8640   -6.9769   -5.5731 C   0  0  1  0  0  0  0  0  0  0  0  0
   19.4015   -5.5603   -5.5957 N   0  0  0  0  0  0  0  0  0  0  0  0
   23.7649  -15.7857   -3.4901 C   0  0  0  0  0  0  0  0  0  0  0  0
   23.6869  -11.8550   -4.5404 C   0  0  2  0  0  0  0  0  0  0  0  0
   18.6432   -7.9368   -5.0843 C   0  0  1  0  0  0  0  0  0  0  0  0
   17.5150   -7.8630   -5.9213 O   0  0  0  0  0  0  0  0  0  0  0  0
   23.1317  -15.3209   -4.5775 C   0  0  1  0  0  0  0  0  0  0  0  0
   22.1305  -14.3257   -4.4969 O   0  0  0  0  0  0  0  0  0  0  0  0
   22.6133  -10.7154   -4.6799 C   0  0  2  0  0  0  0  0  0  0  0  0
   21.3202  -11.3034   -4.8106 O   0  0  0  0  0  0  0  0  0  0  0  0
   19.1377   -9.4163   -5.0727 C   0  0  0  0  0  0  0  0  0  0  0  0
   19.7319   -9.7825   -6.4179 O   0  0  0  0  0  0  0  0  0  0  0  0
   23.4421  -15.8203   -6.0021 C   0  0  0  0  0  0  0  0  0  0  0  0
   22.2131  -16.2754   -6.6142 N   0  0  0  0  0  0  0  0  0  0  0  0
   22.9302   -9.8517   -5.9588 C   0  0  1  0  0  0  0  0  0  0  0  0
   21.9683   -8.8422   -6.0515 O   0  0  0  0  0  0  0  0  0  0  0  0
   18.0713   -7.6341   -3.6920 C   0  0  0  0  0  0  0  0  0  0  0  0
   18.2852   -5.2567   -6.5042 C   0  0  0  0  0  0  0  0  0  0  0  0
  1  2  1  6  0  0  0
  1  6  1  0  0  0  0
  1 21  1  0  0  0  0
  3  4  1  6  0  0  0
  3  8  1  0  0  0  0
  3 28  1  0  0  0  0
  5  9  1  0  0  0  0
  5 25  1  0  0  0  0
  5 29  1  1  0  0  0
  6  7  1  1  0  0  0
  6 11  1  0  0  0  0
  8 12  1  0  0  0  0
  9 10  1  1  0  0  0
  9 14  1  0  0  0  0
 11 16  1  0  0  0  0
 12 13  1  6  0  0  0
 12 17  1  0  0  0  0
 14 15  1  6  0  0  0
 14 18  1  0  0  0  0
 15 31  1  0  0  0  0
 16 20  1  0  0  0  0
 17  2  1  1  0  0  0
 17 22  1  0  0  0  0
 18 19  1  6  0  0  0
 18 24  1  0  0  0  0
 18 30  1  0  0  0  0
 20 21  1  0  0  0  0
 20 26  1  6  0  0  0
 22 23  1  6  0  0  0
 22 28  1  0  0  0  0
 24 25  1  0  0  0  0
 26 27  1  0  0  0  0
 28 29  1  1  0  0  0
M  END
>  <CHROM.1>
175.34547026,-162.59084420,59.23466621,-173.12155845,125.36870252,140.15479102
21.88101852,-10.73593675,-5.03232686,1.07956617,-0.25096708,2.72324960

>  <Name>
ligand

>  <RI>
0

>  <Rbt.Current_Directory>
/home/itssahil/PROJECTS/Mol_Feturizer/New_Systems/rnas/4F8V

>  <Rbt.Executable>
rbdock ($Id: //depot/dev/client3/rdock/2013.1/src/exe/rbdock.cxx#4 $)

>  <Rbt.Library>
libRbt.so (2013.1, Build901 2013/11/27)

>  <Rbt.Parameter_File>
/export/apps/rDock/src/rDock_2013.1_src/data/scripts/dock_solv.prm

>  <Rbt.Receptor>
prm/pocket_docking_4.prm

>  <SCORE>
-8.52065

>  <SCORE.INTER>
-7.57234

>  <SCORE.INTER.CONST>
1

>  <SCORE.INTER.POLAR>
0

>  <SCORE.INTER.ROT>
6

>  <SCORE.INTER.SOLV>
12.0999

>  <SCORE.INTER.VDW>
-16.6815

>  <SCORE.INTER.norm>
-0.244269

>  <SCORE.INTRA>
-0.948306

>  <SCORE.INTRA.DIHEDRAL>
-7.08808

>  <SCORE.INTRA.DIHEDRAL.0>
15.9129

>  <SCORE.INTRA.POLAR>
0

>  <SCORE.INTRA.POLAR.0>
0

>  <SCORE.INTRA.REPUL>
0

>  <SCORE.INTRA.REPUL.0>
0

>  <SCORE.INTRA.SOLV>
-2.59408

>  <SCORE.INTRA.SOLV.lig_0>
-75.7056

>  <SCORE.INTRA.VDW>
3.89277

>  <SCORE.INTRA.VDW.0>
-4.61812

>  <SCORE.INTRA.norm>
-0.0305905

>  <SCORE.RESTR>
0

>  <SCORE.RESTR.CAVITY>
0

>  <SCORE.RESTR.norm>
0

>  <SCORE.SYSTEM>
0

>  <SCORE.SYSTEM.CONST>
0

>  <SCORE.SYSTEM.DIHEDRAL>
0

>  <SCORE.SYSTEM.SOLV>
0

>  <SCORE.SYSTEM.norm>
0

>  <SCORE.heavy>
31

>  <SCORE.norm>
-0.27486

>  <RMSD>
8.234

$$$$
ligand
 OpenBabel11021811493D
libRbt.so/2013.1/901 2013/11/27
 31 33  0  0  0  0  0  0  0  0999 V2000
   25.8593  -12.0867   -2.9958 C   0  0  2  0  0  0  0  0  0  0  0  0
   24.4703  -12.2881   -2.7018 O   0  0  0  0  0  0  0  0  0  0  0  0
   21.1189   -9.7583   -3.4477 C   0  0  2  0  0  0  0  0  0  0  0  0
   20.2666   -8.6182   -3.4047 N   0  0  0  0  0  0  0  0  0  0  0  0
   21.4818   -7.7090   -5.6327 C   0  0  2  0  0  0  0  0  0  0  0  0
   26.4787  -13.4958   -3.2502 C   0  0  2  0  0  0  0  0  0  0  0  0
   25.7495  -14.1451   -4.3377 N   0  0  0  0  0  0  0  0  0  0  0  0
   21.2772  -10.3423   -1.9939 C   0  0  0  0  0  0  0  0  0  0  0  0
   21.5847   -7.5906   -7.1773 C   0  0  2  0  0  0  0  0  0  0  0  0
   21.1908   -8.8164   -7.7506 O   0  0  0  0  0  0  0  0  0  0  0  0
   26.4382  -14.3572   -1.9295 C   0  0  0  0  0  0  0  0  0  0  0  0
   22.2247  -11.6093   -2.0457 C   0  0  2  0  0  0  0  0  0  0  0  0
   22.3795  -12.1594   -0.6834 N   0  0  0  0  0  0  0  0  0  0  0  0
   23.0805   -7.2360   -7.5434 C   0  0  1  0  0  0  0  0  0  0  0  0
   23.2338   -7.1336   -9.0222 N   0  0  0  0  0  0  0  0  0  0  0  0
   26.5874  -13.4885   -0.6279 C   0  0  0  0  0  0  0  0  0  0  0  0
   23.6356  -11.1749   -2.6306 C   0  0  2  0  0  0  0  0  0  0  0  0
   23.4867   -5.8162   -6.8579 C   0  0  1  0  0  0  0  0  0  0  0  0
   22.6935   -4.7427   -7.3020 O   0  0  0  0  0  0  0  0  0  0  0  0
   26.6427  -12.1495   -0.6839 C   0  0  1  0  0  0  0  0  0  0  0  0
   26.5767  -11.4444   -1.9077 O   0  0  0  0  0  0  0  0  0  0  0  0
   23.4468  -10.5773   -4.0721 C   0  0  2  0  0  0  0  0  0  0  0  0
   24.7171  -10.1794   -4.5846 O   0  0  0  0  0  0  0  0  0  0  0  0
   23.3145   -5.9342   -5.3118 C   0  0  0  0  0  0  0  0  0  0  0  0
   21.9210   -6.4251   -4.9743 O   0  0  0  0  0  0  0  0  0  0  0  0
   26.7741  -11.2657    0.5719 C   0  0  0  0  0  0  0  0  0  0  0  0
   27.9204  -10.3980    0.4130 N   0  0  0  0  0  0  0  0  0  0  0  0
   22.4934   -9.3253   -3.9988 C   0  0  1  0  0  0  0  0  0  0  0  0
   22.3353   -8.8223   -5.2929 O   0  0  0  0  0  0  0  0  0  0  0  0
   24.9191   -5.3314   -7.1233 C   0  0  0  0  0  0  0  0  0  0  0  0
   23.6773   -8.3534   -9.7145 C   0  0  0  0  0  0  0  0  0  0  0  0
  1  2  1  1  0  0  0
  1  6  1  0  0  0  0
  1 21  1  0  0  0  0
  3  4  1  1  0  0  0
  3  8  1  0  0  0  0
  3 28  1  0  0  0  0
  5  9  1  0  0  0  0
  5 25  1  0  0  0  0
  5 29  1  1  0  0  0
  6  7  1  6  0  0  0
  6 11  1  0  0  0  0
  8 12  1  0  0  0  0
  9 10  1  6  0  0  0
  9 14  1  0  0  0  0
 11 16  1  0  0  0  0
 12 13  1  1  0  0  0
 12 17  1  0  0  0  0
 14 15  1  6  0  0  0
 14 18  1  0  0  0  0
 15 31  1  0  0  0  0
 16 20  1  0  0  0  0
 17  2  1  6  0  0  0
 17 22  1  0  0  0  0
 18 19  1  6  0  0  0
 18 24  1  0  0  0  0
 18 30  1  0  0  0  0
 20 21  1  0  0  0  0
 20 26  1  1  0  0  0
 22 23  1  1  0  0  0
 22 28  1  0  0  0  0
 24 25  1  0  0  0  0
 26 27  1  0  0  0  0
 28 29  1  6  0  0  0
M  END
>  <CHROM.1>
-170.52780486,-176.88345920,-93.88908993,-169.98135426,125.46217914,58.08609023
23.80584699,-9.73382955,-4.16661889,-1.16949595,0.29165145,-0.91415975

>  <Name>
ligand

>  <RI>
0

>  <Rbt.Current_Directory>
/home/itssahil/PROJECTS/Mol_Feturizer/New_Systems/rnas/4F8V

>  <Rbt.Executable>
rbdock ($Id: //depot/dev/client3/rdock/2013.1/src/exe/rbdock.cxx#4 $)

>  <Rbt.Library>
libRbt.so (2013.1, Build901 2013/11/27)

>  <Rbt.Parameter_File>
/export/apps/rDock/src/rDock_2013.1_src/data/scripts/dock_solv.prm

>  <Rbt.Receptor>
prm/pocket_docking_5.prm

>  <SCORE>
-8.92798

>  <SCORE.INTER>
-4.18801

>  <SCORE.INTER.CONST>
1

>  <SCORE.INTER.POLAR>
0

>  <SCORE.INTER.ROT>
6

>  <SCORE.INTER.SOLV>
9.78853

>  <SCORE.INTER.VDW>
-13.6548

>  <SCORE.INTER.norm>
-0.135097

>  <SCORE.INTRA>
-4.73997

>  <SCORE.INTRA.DIHEDRAL>
-12.4851

>  <SCORE.INTRA.DIHEDRAL.0>
15.9129

>  <SCORE.INTRA.POLAR>
0

>  <SCORE.INTRA.POLAR.0>
0

>  <SCORE.INTRA.REPUL>
0

>  <SCORE.INTRA.REPUL.0>
0

>  <SCORE.INTRA.SOLV>
-1.79557

>  <SCORE.INTRA.SOLV.lig_0>
-75.7056

>  <SCORE.INTRA.VDW>
2.40035

>  <SCORE.INTRA.VDW.0>
-4.61812

>  <SCORE.INTRA.norm>
-0.152902

>  <SCORE.RESTR>
0

>  <SCORE.RESTR.CAVITY>
0

>  <SCORE.RESTR.norm>
0

>  <SCORE.SYSTEM>
0

>  <SCORE.SYSTEM.CONST>
0

>  <SCORE.SYSTEM.DIHEDRAL>
0

>  <SCORE.SYSTEM.SOLV>
0

>  <SCORE.SYSTEM.norm>
0

>  <SCORE.heavy>
31

>  <SCORE.norm>
-0.287999

>  <RMSD>
8.241

$$$$
ligand
 OpenBabel11021811493D
libRbt.so/2013.1/901 2013/11/27
 31 33  0  0  0  0  0  0  0  0999 V2000
   25.6576  -12.6379   -2.6910 C   0  0  2  0  0  0  0  0  0  0  0  0
   25.4282  -13.8527   -3.4177 O   0  0  0  0  0  0  0  0  0  0  0  0
   23.5576  -14.4876   -7.1974 C   0  0  2  0  0  0  0  0  0  0  0  0
   22.5608  -14.4873   -8.2144 N   0  0  0  0  0  0  0  0  0  0  0  0
   25.5119  -12.4709   -8.4797 C   0  0  2  0  0  0  0  0  0  0  0  0
   26.8625  -12.9008   -1.7356 C   0  0  2  0  0  0  0  0  0  0  0  0
   28.0149  -13.3212   -2.5302 N   0  0  0  0  0  0  0  0  0  0  0  0
   23.0633  -15.3653   -5.9871 C   0  0  0  0  0  0  0  0  0  0  0  0
   25.7233  -11.1835   -9.3214 C   0  0  2  0  0  0  0  0  0  0  0  0
   25.6878  -10.0698   -8.4585 O   0  0  0  0  0  0  0  0  0  0  0  0
   26.4773  -13.9833   -0.6550 C   0  0  0  0  0  0  0  0  0  0  0  0
   24.1738  -15.3636   -4.8591 C   0  0  2  0  0  0  0  0  0  0  0  0
   23.7136  -16.1831   -3.7195 N   0  0  0  0  0  0  0  0  0  0  0  0
   24.5749  -11.1119  -10.4046 C   0  0  1  0  0  0  0  0  0  0  0  0
   24.7235   -9.8769  -11.2254 N   0  0  0  0  0  0  0  0  0  0  0  0
   24.9576  -13.9354   -0.2561 C   0  0  0  0  0  0  0  0  0  0  0  0
   24.4353  -13.8677   -4.3950 C   0  0  2  0  0  0  0  0  0  0  0  0
   24.6576  -12.4181  -11.3729 C   0  0  1  0  0  0  0  0  0  0  0  0
   25.8736  -12.5082  -12.0743 O   0  0  0  0  0  0  0  0  0  0  0  0
   24.0996  -13.1072   -0.8703 C   0  0  1  0  0  0  0  0  0  0  0  0
   24.5083  -12.2300   -1.9012 O   0  0  0  0  0  0  0  0  0  0  0  0
   24.9073  -13.0096   -5.6245 C   0  0  2  0  0  0  0  0  0  0  0  0
   25.1285  -11.6656   -5.2008 O   0  0  0  0  0  0  0  0  0  0  0  0
   24.5087  -13.7033  -10.5011 C   0  0  0  0  0  0  0  0  0  0  0  0
   25.5155  -13.6895   -9.3684 O   0  0  0  0  0  0  0  0  0  0  0  0
   22.6011  -13.0437   -0.5155 C   0  0  0  0  0  0  0  0  0  0  0  0
   22.2920  -11.7146   -0.0357 N   0  0  0  0  0  0  0  0  0  0  0  0
   23.7929  -13.0336   -6.7378 C   0  0  1  0  0  0  0  0  0  0  0  0
   24.2431  -12.2734   -7.8206 O   0  0  0  0  0  0  0  0  0  0  0  0
   23.6013  -12.4940  -12.4846 C   0  0  0  0  0  0  0  0  0  0  0  0
   23.9475   -8.7076  -10.7845 C   0  0  0  0  0  0  0  0  0  0  0  0
  1  2  1  1  0  0  0
  1  6  1  0  0  0  0
  1 21  1  0  0  0  0
  3  4  1  6  0  0  0
  3  8  1  0  0  0  0
  3 28  1  0  0  0  0
  5  9  1  0  0  0  0
  5 25  1  0  0  0  0
  5 29  1  6  0  0  0
  6  7  1  6  0  0  0
  6 11  1  0  0  0  0
  8 12  1  0  0  0  0
  9 10  1  1  0  0  0
  9 14  1  0  0  0  0
 11 16  1  0  0  0  0
 12 13  1  1  0  0  0
 12 17  1  0  0  0  0
 14 15  1  6  0  0  0
 14 18  1  0  0  0  0
 15 31  1  0  0  0  0
 16 20  1  0  0  0  0
 17  2  1  1  0  0  0
 17 22  1  0  0  0  0
 18 19  1  6  0  0  0
 18 24  1  0  0  0  0
 18 30  1  0  0  0  0
 20 21  1  0  0  0  0
 20 26  1  6  0  0  0
 22 23  1  1  0  0  0
 22 28  1  0  0  0  0
 24 25  1  0  0  0  0
 26 27  1  0  0  0  0
 28 29  1  6  0  0  0
M  END
>  <CHROM.1>
-176.98913886,-164.93162038,-94.27350862,-169.17404694,118.33556279,-66.02270471
24.67923186,-12.83198806,-6.12909488,-1.54944521,-1.18460430,-1.37421925

>  <Name>
ligand

>  <RI>
0

>  <Rbt.Current_Directory>
/home/itssahil/PROJECTS/Mol_Feturizer/New_Systems/rnas/4F8V

>  <Rbt.Executable>
rbdock ($Id: //depot/dev/client3/rdock/2013.1/src/exe/rbdock.cxx#4 $)

>  <Rbt.Library>
libRbt.so (2013.1, Build901 2013/11/27)

>  <Rbt.Parameter_File>
/export/apps/rDock/src/rDock_2013.1_src/data/scripts/dock_solv.prm

>  <Rbt.Receptor>
prm/pocket_docking_8.prm

>  <SCORE>
-8.46523

>  <SCORE.INTER>
-3.61692

>  <SCORE.INTER.CONST>
1

>  <SCORE.INTER.POLAR>
0

>  <SCORE.INTER.ROT>
6

>  <SCORE.INTER.SOLV>
11.0955

>  <SCORE.INTER.VDW>
-13.7098

>  <SCORE.INTER.norm>
-0.116675

>  <SCORE.INTRA>
-4.84832

>  <SCORE.INTRA.DIHEDRAL>
-11.6444

>  <SCORE.INTRA.DIHEDRAL.0>
15.9129

>  <SCORE.INTRA.POLAR>
0

>  <SCORE.INTRA.POLAR.0>
0

>  <SCORE.INTRA.REPUL>
0

>  <SCORE.INTRA.REPUL.0>
0

>  <SCORE.INTRA.SOLV>
-1.35831

>  <SCORE.INTRA.SOLV.lig_0>
-75.7056

>  <SCORE.INTRA.VDW>
1.65306

>  <SCORE.INTRA.VDW.0>
-4.61812

>  <SCORE.INTRA.norm>
-0.156397

>  <SCORE.RESTR>
0

>  <SCORE.RESTR.CAVITY>
0

>  <SCORE.RESTR.norm>
0

>  <SCORE.SYSTEM>
0

>  <SCORE.SYSTEM.CONST>
0

>  <SCORE.SYSTEM.DIHEDRAL>
0

>  <SCORE.SYSTEM.SOLV>
0

>  <SCORE.SYSTEM.norm>
0

>  <SCORE.heavy>
31

>  <SCORE.norm>
-0.273072

>  <RMSD>
8.244

$$$$
ligand
 OpenBabel11021811493D
libRbt.so/2013.1/901 2013/11/27
 31 33  0  0  0  0  0  0  0  0999 V2000
   25.3019  -13.5491   -4.6267 C   0  0  2  0  0  0  0  0  0  0  0  0
   24.0633  -13.0215   -4.1330 O   0  0  0  0  0  0  0  0  0  0  0  0
   22.7941   -9.1357   -2.9173 C   0  0  2  0  0  0  0  0  0  0  0  0
   22.5591   -7.7316   -2.9548 N   0  0  0  0  0  0  0  0  0  0  0  0
   19.7581   -9.9513   -5.0453 C   0  0  2  0  0  0  0  0  0  0  0  0
   24.9997  -14.9766   -5.1786 C   0  0  2  0  0  0  0  0  0  0  0  0
   23.9663  -14.8784   -6.2074 N   0  0  0  0  0  0  0  0  0  0  0  0
   24.3442   -9.4040   -2.9853 C   0  0  0  0  0  0  0  0  0  0  0  0
   19.9551   -8.9392   -6.2061 C   0  0  2  0  0  0  0  0  0  0  0  0
   21.2976   -8.9967   -6.6313 O   0  0  0  0  0  0  0  0  0  0  0  0
   24.5605  -15.9347   -4.0051 C   0  0  0  0  0  0  0  0  0  0  0  0
   24.6015  -10.9652   -2.9430 C   0  0  2  0  0  0  0  0  0  0  0  0
   26.0546  -11.2227   -3.0100 N   0  0  0  0  0  0  0  0  0  0  0  0
   19.5798   -7.5004   -5.6710 C   0  0  1  0  0  0  0  0  0  0  0  0
   19.7752   -6.4883   -6.7473 N   0  0  0  0  0  0  0  0  0  0  0  0
   25.2538  -15.5852   -2.6383 C   0  0  0  0  0  0  0  0  0  0  0  0
   23.8620  -11.6435   -4.1737 C   0  0  2  0  0  0  0  0  0  0  0  0
   18.0240   -7.4867   -5.1915 C   0  0  1  0  0  0  0  0  0  0  0  0
   17.1241   -7.7816   -6.2316 O   0  0  0  0  0  0  0  0  0  0  0  0
   26.0525  -14.5149   -2.5133 C   0  0  1  0  0  0  0  0  0  0  0  0
   26.3217  -13.6466   -3.5964 O   0  0  0  0  0  0  0  0  0  0  0  0
   22.3212  -11.3435   -4.0928 C   0  0  2  0  0  0  0  0  0  0  0  0
   21.6671  -11.9465   -5.2078 O   0  0  0  0  0  0  0  0  0  0  0  0
   17.8313   -8.5551   -4.0712 C   0  0  0  0  0  0  0  0  0  0  0  0
   18.3382   -9.9045   -4.5391 O   0  0  0  0  0  0  0  0  0  0  0  0
   26.7369  -14.1338   -1.1860 C   0  0  0  0  0  0  0  0  0  0  0  0
   28.1209  -13.8083   -1.4523 N   0  0  0  0  0  0  0  0  0  0  0  0
   22.0890   -9.7857   -4.1259 C   0  0  1  0  0  0  0  0  0  0  0  0
   20.7143   -9.5486   -4.0419 O   0  0  0  0  0  0  0  0  0  0  0  0
   17.5053   -6.1496   -4.6433 C   0  0  0  0  0  0  0  0  0  0  0  0
   21.0426   -5.7423   -6.7140 C   0  0  0  0  0  0  0  0  0  0  0  0
  1  2  1  1  0  0  0
  1  6  1  0  0  0  0
  1 21  1  0  0  0  0
  3  4  1  6  0  0  0
  3  8  1  0  0  0  0
  3 28  1  0  0  0  0
  5  9  1  0  0  0  0
  5 25  1  0  0  0  0
  5 29  1  1  0  0  0
  6  7  1  6  0  0  0
  6 11  1  0  0  0  0
  8 12  1  0  0  0  0
  9 10  1  1  0  0  0
  9 14  1  0  0  0  0
 11 16  1  0  0  0  0
 12 13  1  6  0  0  0
 12 17  1  0  0  0  0
 14 15  1  6  0  0  0
 14 18  1  0  0  0  0
 15 31  1  0  0  0  0
 16 20  1  0  0  0  0
 17  2  1  1  0  0  0
 17 22  1  0  0  0  0
 18 19  1  6  0  0  0
 18 24  1  0  0  0  0
 18 30  1  0  0  0  0
 20 21  1  0  0  0  0
 20 26  1  1  0  0  0
 22 23  1  6  0  0  0
 22 28  1  0  0  0  0
 24 25  1  0  0  0  0
 26 27  1  0  0  0  0
 28 29  1  1  0  0  0
M  END
>  <CHROM.1>
-149.99133180,-75.37067507,-97.74502125,-80.45165594,134.49818754,176.46682515
22.43229937,-10.76448132,-4.33338943,0.63126385,0.50668386,-2.89177023

>  <Name>
ligand

>  <RI>
0

>  <Rbt.Current_Directory>
/home/itssahil/PROJECTS/Mol_Feturizer/New_Systems/rnas/4F8V

>  <Rbt.Executable>
rbdock ($Id: //depot/dev/client3/rdock/2013.1/src/exe/rbdock.cxx#4 $)

>  <Rbt.Library>
libRbt.so (2013.1, Build901 2013/11/27)

>  <Rbt.Parameter_File>
/export/apps/rDock/src/rDock_2013.1_src/data/scripts/dock_solv.prm

>  <Rbt.Receptor>
prm/pocket_docking_4.prm

>  <SCORE>
-9.18441

>  <SCORE.INTER>
-8.76548

>  <SCORE.INTER.CONST>
1

>  <SCORE.INTER.POLAR>
0

>  <SCORE.INTER.ROT>
6

>  <SCORE.INTER.SOLV>
16.6254

>  <SCORE.INTER.VDW>
-18.9855

>  <SCORE.INTER.norm>
-0.282757

>  <SCORE.INTRA>
-0.418926

>  <SCORE.INTRA.DIHEDRAL>
-6.48667

>  <SCORE.INTRA.DIHEDRAL.0>
15.9129

>  <SCORE.INTRA.POLAR>
0

>  <SCORE.INTRA.POLAR.0>
0

>  <SCORE.INTRA.REPUL>
0

>  <SCORE.INTRA.REPUL.0>
0

>  <SCORE.INTRA.SOLV>
1.77883

>  <SCORE.INTRA.SOLV.lig_0>
-75.7056

>  <SCORE.INTRA.VDW>
1.935

>  <SCORE.INTRA.VDW.0>
-4.61812

>  <SCORE.INTRA.norm>
-0.0135137

>  <SCORE.RESTR>
0

>  <SCORE.RESTR.CAVITY>
0

>  <SCORE.RESTR.norm>
0

>  <SCORE.SYSTEM>
0

>  <SCORE.SYSTEM.CONST>
0

>  <SCORE.SYSTEM.DIHEDRAL>
0

>  <SCORE.SYSTEM.SOLV>
0

>  <SCORE.SYSTEM.norm>
0

>  <SCORE.heavy>
31

>  <SCORE.norm>
-0.296271

>  <RMSD>
8.268

$$$$
ligand
 OpenBabel11021811493D
libRbt.so/2013.1/901 2013/11/27
 31 33  0  0  0  0  0  0  0  0999 V2000
   22.4312  -12.8888   -3.7475 C   0  0  2  0  0  0  0  0  0  0  0  0
   23.8475  -12.7340   -3.9103 O   0  0  0  0  0  0  0  0  0  0  0  0
   26.2471  -10.2669   -6.4291 C   0  0  2  0  0  0  0  0  0  0  0  0
   26.7293   -9.6202   -7.6026 N   0  0  0  0  0  0  0  0  0  0  0  0
   24.8907   -7.5286   -7.1080 C   0  0  2  0  0  0  0  0  0  0  0  0
   22.2001  -13.4851   -2.3246 C   0  0  2  0  0  0  0  0  0  0  0  0
   22.7981  -12.5928   -1.3335 N   0  0  0  0  0  0  0  0  0  0  0  0
   26.3749  -11.8263   -6.6068 C   0  0  0  0  0  0  0  0  0  0  0  0
   24.9615   -6.1581   -6.3818 C   0  0  2  0  0  0  0  0  0  0  0  0
   25.9958   -6.2075   -5.4257 O   0  0  0  0  0  0  0  0  0  0  0  0
   22.8057  -14.9389   -2.2361 C   0  0  0  0  0  0  0  0  0  0  0  0
   25.8385  -12.5417   -5.3006 C   0  0  2  0  0  0  0  0  0  0  0  0
   25.9530  -14.0054   -5.4634 N   0  0  0  0  0  0  0  0  0  0  0  0
   23.5598   -5.8900   -5.7031 C   0  0  1  0  0  0  0  0  0  0  0  0
   23.5862   -4.5914   -4.9725 N   0  0  0  0  0  0  0  0  0  0  0  0
   22.7341  -15.7153   -3.6010 C   0  0  0  0  0  0  0  0  0  0  0  0
   24.3229  -12.1274   -5.0710 C   0  0  2  0  0  0  0  0  0  0  0  0
   22.4014   -5.8440   -6.8462 C   0  0  1  0  0  0  0  0  0  0  0  0
   22.5990   -4.8202   -7.7903 O   0  0  0  0  0  0  0  0  0  0  0  0
   22.2847  -15.1246   -4.7184 C   0  0  1  0  0  0  0  0  0  0  0  0
   21.8463  -13.7805   -4.7344 O   0  0  0  0  0  0  0  0  0  0  0  0
   24.2211  -10.5664   -4.9174 C   0  0  2  0  0  0  0  0  0  0  0  0
   22.8555  -10.2027   -4.7232 O   0  0  0  0  0  0  0  0  0  0  0  0
   22.3894   -7.2053   -7.6082 C   0  0  0  0  0  0  0  0  0  0  0  0
   23.7766   -7.5307   -8.1246 O   0  0  0  0  0  0  0  0  0  0  0  0
   22.2142  -15.8502   -6.0763 C   0  0  0  0  0  0  0  0  0  0  0  0
   20.8492  -15.8137   -6.5535 N   0  0  0  0  0  0  0  0  0  0  0  0
   24.7691   -9.8753   -6.2227 C   0  0  1  0  0  0  0  0  0  0  0  0
   24.6766   -8.4911   -6.0540 O   0  0  0  0  0  0  0  0  0  0  0  0
   20.9739   -5.5893   -6.3414 C   0  0  0  0  0  0  0  0  0  0  0  0
   24.0894   -4.6344   -3.5909 C   0  0  0  0  0  0  0  0  0  0  0  0
  1  2  1  6  0  0  0
  1  6  1  0  0  0  0
  1 21  1  0  0  0  0
  3  4  1  6  0  0  0
  3  8  1  0  0  0  0
  3 28  1  0  0  0  0
  5  9  1  0  0  0  0
  5 25  1  0  0  0  0
  5 29  1  1  0  0  0
  6  7  1  1  0  0  0
  6 11  1  0  0  0  0
  8 12  1  0  0  0  0
  9 10  1  1  0  0  0
  9 14  1  0  0  0  0
 11 16  1  0  0  0  0
 12 13  1  6  0  0  0
 12 17  1  0  0  0  0
 14 15  1  6  0  0  0
 14 18  1  0  0  0  0
 15 31  1  0  0  0  0
 16 20  1  0  0  0  0
 17  2  1  1  0  0  0
 17 22  1  0  0  0  0
 18 19  1  6  0  0  0
 18 24  1  0  0  0  0
 18 30  1  0  0  0  0
 20 21  1  0  0  0  0
 20 26  1  6  0  0  0
 22 23  1  6  0  0  0
 22 28  1  0  0  0  0
 24 25  1  0  0  0  0
 26 27  1  0  0  0  0
 28 29  1  1  0  0  0
M  END
>  <CHROM.1>
-175.56776610,-168.98261809,-86.18279943,-158.75026510,122.49902071,70.78971186
23.70435231,-10.22417825,-5.41196663,1.68675431,-0.55706469,2.96702020

>  <Name>
ligand

>  <RI>
0

>  <Rbt.Current_Directory>
/home/itssahil/PROJECTS/Mol_Feturizer/New_Systems/rnas/4F8V

>  <Rbt.Executable>
rbdock ($Id: //depot/dev/client3/rdock/2013.1/src/exe/rbdock.cxx#4 $)

>  <Rbt.Library>
libRbt.so (2013.1, Build901 2013/11/27)

>  <Rbt.Parameter_File>
/export/apps/rDock/src/rDock_2013.1_src/data/scripts/dock_solv.prm

>  <Rbt.Receptor>
prm/pocket_docking_7.prm

>  <SCORE>
-7.91767

>  <SCORE.INTER>
-3.45141

>  <SCORE.INTER.CONST>
1

>  <SCORE.INTER.POLAR>
0

>  <SCORE.INTER.ROT>
6

>  <SCORE.INTER.SOLV>
8.15833

>  <SCORE.INTER.VDW>
-12.6204

>  <SCORE.INTER.norm>
-0.111336

>  <SCORE.INTRA>
-4.46626

>  <SCORE.INTRA.DIHEDRAL>
-10.4945

>  <SCORE.INTRA.DIHEDRAL.0>
15.9129

>  <SCORE.INTRA.POLAR>
0

>  <SCORE.INTRA.POLAR.0>
0

>  <SCORE.INTRA.REPUL>
0

>  <SCORE.INTRA.REPUL.0>
0

>  <SCORE.INTRA.SOLV>
-1.31968

>  <SCORE.INTRA.SOLV.lig_0>
-75.7056

>  <SCORE.INTRA.VDW>
1.44085

>  <SCORE.INTRA.VDW.0>
-4.61812

>  <SCORE.INTRA.norm>
-0.144073

>  <SCORE.RESTR>
0

>  <SCORE.RESTR.CAVITY>
0

>  <SCORE.RESTR.norm>
0

>  <SCORE.SYSTEM>
0

>  <SCORE.SYSTEM.CONST>
0

>  <SCORE.SYSTEM.DIHEDRAL>
0

>  <SCORE.SYSTEM.SOLV>
0

>  <SCORE.SYSTEM.norm>
0

>  <SCORE.heavy>
31

>  <SCORE.norm>
-0.255409

>  <RMSD>
8.291

$$$$
ligand
 OpenBabel11021811493D
libRbt.so/2013.1/901 2013/11/27
 31 33  0  0  0  0  0  0  0  0999 V2000
   25.8230  -11.9666   -2.0397 C   0  0  2  0  0  0  0  0  0  0  0  0
   25.1967  -12.7268   -3.0820 O   0  0  0  0  0  0  0  0  0  0  0  0
   22.8162  -11.1468   -6.2483 C   0  0  2  0  0  0  0  0  0  0  0  0
   21.7084  -10.5645   -6.9278 N   0  0  0  0  0  0  0  0  0  0  0  0
   24.0803   -7.8171   -4.9342 C   0  0  2  0  0  0  0  0  0  0  0  0
   27.0302  -12.8103   -1.5250 C   0  0  2  0  0  0  0  0  0  0  0  0
   27.9238  -13.0928   -2.6465 N   0  0  0  0  0  0  0  0  0  0  0  0
   22.3786  -12.5281   -5.6318 C   0  0  0  0  0  0  0  0  0  0  0  0
   22.7697   -7.0283   -4.6680 C   0  0  2  0  0  0  0  0  0  0  0  0
   21.8654   -7.8718   -3.9920 O   0  0  0  0  0  0  0  0  0  0  0  0
   26.5184  -14.1371   -0.8428 C   0  0  0  0  0  0  0  0  0  0  0  0
   23.6124  -13.1723   -4.8779 C   0  0  2  0  0  0  0  0  0  0  0  0
   23.2062  -14.4673   -4.2946 N   0  0  0  0  0  0  0  0  0  0  0  0
   22.1896   -6.5571   -6.0603 C   0  0  1  0  0  0  0  0  0  0  0  0
   20.9151   -5.8121   -5.8567 N   0  0  0  0  0  0  0  0  0  0  0  0
   25.1263  -13.9628   -0.1339 C   0  0  0  0  0  0  0  0  0  0  0  0
   24.0959  -12.1790   -3.7373 C   0  0  2  0  0  0  0  0  0  0  0  0
   23.2695   -5.5894   -6.8006 C   0  0  1  0  0  0  0  0  0  0  0  0
   23.5610   -4.4256   -6.0662 O   0  0  0  0  0  0  0  0  0  0  0  0
   24.4411  -12.8124   -0.2128 C   0  0  1  0  0  0  0  0  0  0  0  0
   24.9285  -11.6941   -0.9277 O   0  0  0  0  0  0  0  0  0  0  0  0
   24.5069  -10.8031   -4.3765 C   0  0  2  0  0  0  0  0  0  0  0  0
   24.9286   -9.9139   -3.3439 O   0  0  0  0  0  0  0  0  0  0  0  0
   24.6006   -6.3781   -7.0005 C   0  0  0  0  0  0  0  0  0  0  0  0
   25.0702   -6.9594   -5.6821 O   0  0  0  0  0  0  0  0  0  0  0  0
   23.0677  -12.6106    0.4570 C   0  0  0  0  0  0  0  0  0  0  0  0
   22.0901  -12.3112   -0.5662 N   0  0  0  0  0  0  0  0  0  0  0  0
   23.2687  -10.1854   -5.1295 C   0  0  1  0  0  0  0  0  0  0  0  0
   23.6652   -8.9708   -5.6957 O   0  0  0  0  0  0  0  0  0  0  0  0
   22.8489   -5.0455   -8.1734 C   0  0  0  0  0  0  0  0  0  0  0  0
   19.7036   -6.4352   -6.4115 C   0  0  0  0  0  0  0  0  0  0  0  0
  1  2  1  6  0  0  0
  1  6  1  0  0  0  0
  1 21  1  0  0  0  0
  3  4  1  1  0  0  0
  3  8  1  0  0  0  0
  3 28  1  0  0  0  0
  5  9  1  0  0  0  0
  5 25  1  0  0  0  0
  5 29  1  6  0  0  0
  6  7  1  6  0  0  0
  6 11  1  0  0  0  0
  8 12  1  0  0  0  0
  9 10  1  6  0  0  0
  9 14  1  0  0  0  0
 11 16  1  0  0  0  0
 12 13  1  1  0  0  0
 12 17  1  0  0  0  0
 14 15  1  1  0  0  0
 14 18  1  0  0  0  0
 15 31  1  0  0  0  0
 16 20  1  0  0  0  0
 17  2  1  6  0  0  0
 17 22  1  0  0  0  0
 18 19  1  1  0  0  0
 18 24  1  0  0  0  0
 18 30  1  0  0  0  0
 20 21  1  0  0  0  0
 20 26  1  6  0  0  0
 22 23  1  1  0  0  0
 22 28  1  0  0  0  0
 24 25  1  0  0  0  0
 26 27  1  0  0  0  0
 28 29  1  6  0  0  0
M  END
>  <CHROM.1>
-178.65123299,-89.26672081,-115.06491929,177.88720262,-119.34245337,176.56311083
23.77720704,-10.01528161,-4.11618402,-1.23939743,-0.52722402,-0.44259105

>  <Name>
ligand

>  <RI>
0

>  <Rbt.Current_Directory>
/home/itssahil/PROJECTS/Mol_Feturizer/New_Systems/rnas/4F8V

>  <Rbt.Executable>
rbdock ($Id: //depot/dev/client3/rdock/2013.1/src/exe/rbdock.cxx#4 $)

>  <Rbt.Library>
libRbt.so (2013.1, Build901 2013/11/27)

>  <Rbt.Parameter_File>
/export/apps/rDock/src/rDock_2013.1_src/data/scripts/dock_solv.prm

>  <Rbt.Receptor>
prm/pocket_docking_5.prm

>  <SCORE>
-7.86919

>  <SCORE.INTER>
-4.76063

>  <SCORE.INTER.CONST>
1

>  <SCORE.INTER.POLAR>
0

>  <SCORE.INTER.ROT>
6

>  <SCORE.INTER.SOLV>
10.3618

>  <SCORE.INTER.VDW>
-14.2277

>  <SCORE.INTER.norm>
-0.153569

>  <SCORE.INTRA>
-3.10855

>  <SCORE.INTRA.DIHEDRAL>
-9.49812

>  <SCORE.INTRA.DIHEDRAL.0>
15.9129

>  <SCORE.INTRA.POLAR>
0

>  <SCORE.INTRA.POLAR.0>
0

>  <SCORE.INTRA.REPUL>
0

>  <SCORE.INTRA.REPUL.0>
0

>  <SCORE.INTRA.SOLV>
-2.07154

>  <SCORE.INTRA.SOLV.lig_0>
-75.7056

>  <SCORE.INTRA.VDW>
2.67627

>  <SCORE.INTRA.VDW.0>
-4.61812

>  <SCORE.INTRA.norm>
-0.100276

>  <SCORE.RESTR>
0

>  <SCORE.RESTR.CAVITY>
0

>  <SCORE.RESTR.norm>
0

>  <SCORE.SYSTEM>
0

>  <SCORE.SYSTEM.CONST>
0

>  <SCORE.SYSTEM.DIHEDRAL>
0

>  <SCORE.SYSTEM.SOLV>
0

>  <SCORE.SYSTEM.norm>
0

>  <SCORE.heavy>
31

>  <SCORE.norm>
-0.253845

>  <RMSD>
8.301

$$$$
ligand
 OpenBabel11021811493D
libRbt.so/2013.1/901 2013/11/27
 31 33  0  0  0  0  0  0  0  0999 V2000
   25.5230  -13.8228   -4.4759 C   0  0  2  0  0  0  0  0  0  0  0  0
   24.2323  -13.4248   -3.9941 O   0  0  0  0  0  0  0  0  0  0  0  0
   21.5365  -10.6124   -5.7294 C   0  0  2  0  0  0  0  0  0  0  0  0
   21.0047   -9.3708   -6.1807 N   0  0  0  0  0  0  0  0  0  0  0  0
   22.1854   -9.8248   -8.6146 C   0  0  2  0  0  0  0  0  0  0  0  0
   25.5904  -15.3773   -4.3629 C   0  0  2  0  0  0  0  0  0  0  0  0
   24.4879  -15.9567   -5.1277 N   0  0  0  0  0  0  0  0  0  0  0  0
   21.7430  -10.5516   -4.1695 C   0  0  0  0  0  0  0  0  0  0  0  0
   22.2881  -10.3277  -10.0798 C   0  0  2  0  0  0  0  0  0  0  0  0
   21.5418  -11.5170  -10.2016 O   0  0  0  0  0  0  0  0  0  0  0  0
   25.5407  -15.8180   -2.8492 C   0  0  0  0  0  0  0  0  0  0  0  0
   22.3336  -11.9332   -3.6715 C   0  0  2  0  0  0  0  0  0  0  0  0
   22.5326  -11.8804   -2.2087 N   0  0  0  0  0  0  0  0  0  0  0  0
   23.8148  -10.5674  -10.4100 C   0  0  1  0  0  0  0  0  0  0  0  0
   23.9624  -11.0739  -11.8039 N   0  0  0  0  0  0  0  0  0  0  0  0
   26.2204  -14.7776   -1.8867 C   0  0  0  0  0  0  0  0  0  0  0  0
   23.7148  -12.1994   -4.4085 C   0  0  2  0  0  0  0  0  0  0  0  0
   24.6319   -9.1679  -10.2537 C   0  0  1  0  0  0  0  0  0  0  0  0
   24.1788   -8.1644  -11.1291 O   0  0  0  0  0  0  0  0  0  0  0  0
   26.6922  -13.6078   -2.3430 C   0  0  1  0  0  0  0  0  0  0  0  0
   26.6124  -13.2453   -3.7073 O   0  0  0  0  0  0  0  0  0  0  0  0
   23.4840  -12.2349   -5.9630 C   0  0  2  0  0  0  0  0  0  0  0  0
   24.7311  -12.4628   -6.6168 O   0  0  0  0  0  0  0  0  0  0  0  0
   24.4630   -8.6449   -8.7937 C   0  0  0  0  0  0  0  0  0  0  0  0
   22.9937   -8.5647   -8.4308 O   0  0  0  0  0  0  0  0  0  0  0  0
   27.3511  -12.5583   -1.4265 C   0  0  0  0  0  0  0  0  0  0  0  0
   26.5810  -11.3355   -1.4899 N   0  0  0  0  0  0  0  0  0  0  0  0
   22.8869  -10.8555   -6.4349 C   0  0  1  0  0  0  0  0  0  0  0  0
   22.6824  -10.9194   -7.8158 O   0  0  0  0  0  0  0  0  0  0  0  0
   26.1379   -9.2372  -10.5439 C   0  0  0  0  0  0  0  0  0  0  0  0
   24.1133  -12.5295  -11.9527 C   0  0  0  0  0  0  0  0  0  0  0  0
  1  2  1  1  0  0  0
  1  6  1  0  0  0  0
  1 21  1  0  0  0  0
  3  4  1  6  0  0  0
  3  8  1  0  0  0  0
  3 28  1  0  0  0  0
  5  9  1  0  0  0  0
  5 25  1  0  0  0  0
  5 29  1  1  0  0  0
  6  7  1  6  0  0  0
  6 11  1  0  0  0  0
  8 12  1  0  0  0  0
  9 10  1  1  0  0  0
  9 14  1  0  0  0  0
 11 16  1  0  0  0  0
 12 13  1  1  0  0  0
 12 17  1  0  0  0  0
 14 15  1  6  0  0  0
 14 18  1  0  0  0  0
 15 31  1  0  0  0  0
 16 20  1  0  0  0  0
 17  2  1  1  0  0  0
 17 22  1  0  0  0  0
 18 19  1  6  0  0  0
 18 24  1  0  0  0  0
 18 30  1  0  0  0  0
 20 21  1  0  0  0  0
 20 26  1  1  0  0  0
 22 23  1  6  0  0  0
 22 28  1  0  0  0  0
 24 25  1  0  0  0  0
 26 27  1  0  0  0  0
 28 29  1  6  0  0  0
M  END
>  <CHROM.1>
-157.24459139,173.76539472,-98.13118016,-176.08672306,-119.38893775,63.01095336
24.06427091,-11.68111828,-6.40336740,-1.24197514,0.75571967,-1.33200329

>  <Name>
ligand

>  <RI>
0

>  <Rbt.Current_Directory>
/home/itssahil/PROJECTS/Mol_Feturizer/New_Systems/rnas/4F8V

>  <Rbt.Executable>
rbdock ($Id: //depot/dev/client3/rdock/2013.1/src/exe/rbdock.cxx#4 $)

>  <Rbt.Library>
libRbt.so (2013.1, Build901 2013/11/27)

>  <Rbt.Parameter_File>
/export/apps/rDock/src/rDock_2013.1_src/data/scripts/dock_solv.prm

>  <Rbt.Receptor>
prm/pocket_docking_8.prm

>  <SCORE>
-10.049

>  <SCORE.INTER>
-6.66586

>  <SCORE.INTER.CONST>
1

>  <SCORE.INTER.POLAR>
0

>  <SCORE.INTER.ROT>
6

>  <SCORE.INTER.SOLV>
8.5331

>  <SCORE.INTER.VDW>
-14.8883

>  <SCORE.INTER.norm>
-0.215028

>  <SCORE.INTRA>
-3.38316

>  <SCORE.INTRA.DIHEDRAL>
-10.8045

>  <SCORE.INTRA.DIHEDRAL.0>
15.9129

>  <SCORE.INTRA.POLAR>
0

>  <SCORE.INTRA.POLAR.0>
0

>  <SCORE.INTRA.REPUL>
0

>  <SCORE.INTRA.REPUL.0>
0

>  <SCORE.INTRA.SOLV>
-0.664595

>  <SCORE.INTRA.SOLV.lig_0>
-75.7056

>  <SCORE.INTRA.VDW>
2.35136

>  <SCORE.INTRA.VDW.0>
-4.61812

>  <SCORE.INTRA.norm>
-0.109134

>  <SCORE.RESTR>
0

>  <SCORE.RESTR.CAVITY>
0

>  <SCORE.RESTR.norm>
0

>  <SCORE.SYSTEM>
0

>  <SCORE.SYSTEM.CONST>
0

>  <SCORE.SYSTEM.DIHEDRAL>
0

>  <SCORE.SYSTEM.SOLV>
0

>  <SCORE.SYSTEM.norm>
0

>  <SCORE.heavy>
31

>  <SCORE.norm>
-0.324162

>  <RMSD>
8.314

$$$$
ligand
 OpenBabel11021811493D
libRbt.so/2013.1/901 2013/11/27
 31 33  0  0  0  0  0  0  0  0999 V2000
   21.3387  -13.0485   -5.8563 C   0  0  2  0  0  0  0  0  0  0  0  0
   22.0875  -13.0771   -7.0789 O   0  0  0  0  0  0  0  0  0  0  0  0
   23.2250   -9.9598   -9.7579 C   0  0  2  0  0  0  0  0  0  0  0  0
   23.1162   -8.8501  -10.6437 N   0  0  0  0  0  0  0  0  0  0  0  0
   23.2077   -7.1215   -8.3249 C   0  0  2  0  0  0  0  0  0  0  0  0
   21.9501  -14.1395   -4.9236 C   0  0  2  0  0  0  0  0  0  0  0  0
   23.3717  -13.8584   -4.7334 N   0  0  0  0  0  0  0  0  0  0  0  0
   22.4397  -11.1840  -10.3614 C   0  0  0  0  0  0  0  0  0  0  0  0
   24.5475   -6.4427   -7.9317 C   0  0  2  0  0  0  0  0  0  0  0  0
   25.6062   -7.1532   -8.5323 O   0  0  0  0  0  0  0  0  0  0  0  0
   21.7197  -15.5744   -5.5367 C   0  0  0  0  0  0  0  0  0  0  0  0
   22.5632  -12.4154   -9.3745 C   0  0  2  0  0  0  0  0  0  0  0  0
   21.8251  -13.5660   -9.9345 N   0  0  0  0  0  0  0  0  0  0  0  0
   24.6615   -6.4594   -6.3556 C   0  0  1  0  0  0  0  0  0  0  0  0
   25.9466   -5.8361   -5.9299 N   0  0  0  0  0  0  0  0  0  0  0  0
   20.3814  -15.6825   -6.3541 C   0  0  0  0  0  0  0  0  0  0  0  0
   21.9628  -12.0070   -7.9623 C   0  0  2  0  0  0  0  0  0  0  0  0
   23.4181   -5.6293   -5.7110 C   0  0  1  0  0  0  0  0  0  0  0  0
   23.3947   -4.2786   -6.1032 O   0  0  0  0  0  0  0  0  0  0  0  0
   19.6002  -14.6118   -6.5607 C   0  0  1  0  0  0  0  0  0  0  0  0
   19.9277  -13.3328   -6.0546 O   0  0  0  0  0  0  0  0  0  0  0  0
   22.7503  -10.7718   -7.3925 C   0  0  2  0  0  0  0  0  0  0  0  0
   22.1969  -10.4051   -6.1300 O   0  0  0  0  0  0  0  0  0  0  0  0
   22.0799   -6.2867   -6.1703 C   0  0  0  0  0  0  0  0  0  0  0  0
   22.0454   -6.4085   -7.6805 O   0  0  0  0  0  0  0  0  0  0  0  0
   18.2896  -14.6776   -7.3690 C   0  0  0  0  0  0  0  0  0  0  0  0
   18.5148  -14.0876   -8.6703 N   0  0  0  0  0  0  0  0  0  0  0  0
   22.6228   -9.5626   -8.3941 C   0  0  1  0  0  0  0  0  0  0  0  0
   23.3397   -8.4844   -7.8683 O   0  0  0  0  0  0  0  0  0  0  0  0
   23.3883   -5.5533   -4.1779 C   0  0  0  0  0  0  0  0  0  0  0  0
   26.2178   -4.4878   -6.4518 C   0  0  0  0  0  0  0  0  0  0  0  0
  1  2  1  6  0  0  0
  1  6  1  0  0  0  0
  1 21  1  0  0  0  0
  3  4  1  6  0  0  0
  3  8  1  0  0  0  0
  3 28  1  0  0  0  0
  5  9  1  0  0  0  0
  5 25  1  0  0  0  0
  5 29  1  1  0  0  0
  6  7  1  6  0  0  0
  6 11  1  0  0  0  0
  8 12  1  0  0  0  0
  9 10  1  6  0  0  0
  9 14  1  0  0  0  0
 11 16  1  0  0  0  0
 12 13  1  6  0  0  0
 12 17  1  0  0  0  0
 14 15  1  6  0  0  0
 14 18  1  0  0  0  0
 15 31  1  0  0  0  0
 16 20  1  0  0  0  0
 17  2  1  1  0  0  0
 17 22  1  0  0  0  0
 18 19  1  6  0  0  0
 18 24  1  0  0  0  0
 18 30  1  0  0  0  0
 20 21  1  0  0  0  0
 20 26  1  6  0  0  0
 22 23  1  1  0  0  0
 22 28  1  0  0  0  0
 24 25  1  0  0  0  0
 26 27  1  0  0  0  0
 28 29  1  1  0  0  0
M  END
>  <CHROM.1>
-165.14184353,-156.35721399,53.51799140,-165.49257832,-104.48158916,76.13257302
22.51677358,-10.10973882,-7.22143707,3.05253901,-1.16492850,-1.64317628

>  <Name>
ligand

>  <RI>
0

>  <Rbt.Current_Directory>
/home/itssahil/PROJECTS/Mol_Feturizer/New_Systems/rnas/4F8V

>  <Rbt.Executable>
rbdock ($Id: //depot/dev/client3/rdock/2013.1/src/exe/rbdock.cxx#4 $)

>  <Rbt.Library>
libRbt.so (2013.1, Build901 2013/11/27)

>  <Rbt.Parameter_File>
/export/apps/rDock/src/rDock_2013.1_src/data/scripts/dock_solv.prm

>  <Rbt.Receptor>
prm/pocket_docking_8.prm

>  <SCORE>
-4.00505

>  <SCORE.INTER>
-3.36178

>  <SCORE.INTER.CONST>
1

>  <SCORE.INTER.POLAR>
0

>  <SCORE.INTER.ROT>
6

>  <SCORE.INTER.SOLV>
11.9955

>  <SCORE.INTER.VDW>
-13.8397

>  <SCORE.INTER.norm>
-0.108444

>  <SCORE.INTRA>
-0.643274

>  <SCORE.INTRA.DIHEDRAL>
-8.23639

>  <SCORE.INTRA.DIHEDRAL.0>
15.9129

>  <SCORE.INTRA.POLAR>
0

>  <SCORE.INTRA.POLAR.0>
0

>  <SCORE.INTRA.REPUL>
0

>  <SCORE.INTRA.REPUL.0>
0

>  <SCORE.INTRA.SOLV>
0.45665

>  <SCORE.INTRA.SOLV.lig_0>
-75.7056

>  <SCORE.INTRA.VDW>
3.24659

>  <SCORE.INTRA.VDW.0>
-4.61812

>  <SCORE.INTRA.norm>
-0.0207508

>  <SCORE.RESTR>
0

>  <SCORE.RESTR.CAVITY>
0

>  <SCORE.RESTR.norm>
0

>  <SCORE.SYSTEM>
0

>  <SCORE.SYSTEM.CONST>
0

>  <SCORE.SYSTEM.DIHEDRAL>
0

>  <SCORE.SYSTEM.SOLV>
0

>  <SCORE.SYSTEM.norm>
0

>  <SCORE.heavy>
31

>  <SCORE.norm>
-0.129195

>  <RMSD>
8.319

$$$$
ligand
 OpenBabel11021811493D
libRbt.so/2013.1/901 2013/11/27
 31 33  0  0  0  0  0  0  0  0999 V2000
   22.9520  -13.5493   -0.8942 C   0  0  2  0  0  0  0  0  0  0  0  0
   22.9100  -12.4400   -1.8020 O   0  0  0  0  0  0  0  0  0  0  0  0
   21.7606  -12.2728   -5.9056 C   0  0  2  0  0  0  0  0  0  0  0  0
   20.9456  -12.3430   -7.0713 N   0  0  0  0  0  0  0  0  0  0  0  0
   20.2993   -9.6634   -6.6955 C   0  0  2  0  0  0  0  0  0  0  0  0
   23.0739  -12.9554    0.5433 C   0  0  2  0  0  0  0  0  0  0  0  0
   21.9447  -12.0590    0.7834 N   0  0  0  0  0  0  0  0  0  0  0  0
   21.8157  -13.6918   -5.2252 C   0  0  0  0  0  0  0  0  0  0  0  0
   20.6557   -8.1896   -7.0293 C   0  0  2  0  0  0  0  0  0  0  0  0
   22.0422   -8.1038   -7.2671 O   0  0  0  0  0  0  0  0  0  0  0  0
   24.4530  -12.2086    0.7111 C   0  0  0  0  0  0  0  0  0  0  0  0
   22.7225  -13.6100   -3.9304 C   0  0  2  0  0  0  0  0  0  0  0  0
   22.7748  -14.9382   -3.2860 N   0  0  0  0  0  0  0  0  0  0  0  0
   20.2232   -7.2909   -5.8035 C   0  0  1  0  0  0  0  0  0  0  0  0
   20.5668   -5.8653   -6.0691 N   0  0  0  0  0  0  0  0  0  0  0  0
   25.6070  -12.8578   -0.1361 C   0  0  0  0  0  0  0  0  0  0  0  0
   22.1061  -12.5364   -2.9358 C   0  0  2  0  0  0  0  0  0  0  0  0
   18.6177   -7.4257   -5.5694 C   0  0  1  0  0  0  0  0  0  0  0  0
   17.8614   -6.9970   -6.6753 O   0  0  0  0  0  0  0  0  0  0  0  0
   25.3703  -13.8789   -0.9730 C   0  0  1  0  0  0  0  0  0  0  0  0
   24.0797  -14.4325   -1.1379 O   0  0  0  0  0  0  0  0  0  0  0  0
   22.0437  -11.1355   -3.6459 C   0  0  2  0  0  0  0  0  0  0  0  0
   21.4783  -10.1806   -2.7496 O   0  0  0  0  0  0  0  0  0  0  0  0
   18.2705   -8.9227   -5.3004 C   0  0  0  0  0  0  0  0  0  0  0  0
   18.8251   -9.7977   -6.4064 O   0  0  0  0  0  0  0  0  0  0  0  0
   26.4738  -14.5301   -1.8294 C   0  0  0  0  0  0  0  0  0  0  0  0
   26.3204  -14.0909   -3.1991 N   0  0  0  0  0  0  0  0  0  0  0  0
   21.1457  -11.2423   -4.9358 C   0  0  1  0  0  0  0  0  0  0  0  0
   21.1169   -9.9879   -5.5512 O   0  0  0  0  0  0  0  0  0  0  0  0
   18.0405   -6.6057   -4.4067 C   0  0  0  0  0  0  0  0  0  0  0  0
   21.9815   -5.4973   -5.9040 C   0  0  0  0  0  0  0  0  0  0  0  0
  1  2  1  6  0  0  0
  1  6  1  0  0  0  0
  1 21  1  0  0  0  0
  3  4  1  6  0  0  0
  3  8  1  0  0  0  0
  3 28  1  0  0  0  0
  5  9  1  0  0  0  0
  5 25  1  0  0  0  0
  5 29  1  1  0  0  0
  6  7  1  6  0  0  0
  6 11  1  0  0  0  0
  8 12  1  0  0  0  0
  9 10  1  1  0  0  0
  9 14  1  0  0  0  0
 11 16  1  0  0  0  0
 12 13  1  1  0  0  0
 12 17  1  0  0  0  0
 14 15  1  6  0  0  0
 14 18  1  0  0  0  0
 15 31  1  0  0  0  0
 16 20  1  0  0  0  0
 17  2  1  1  0  0  0
 17 22  1  0  0  0  0
 18 19  1  6  0  0  0
 18 24  1  0  0  0  0
 18 30  1  0  0  0  0
 20 21  1  0  0  0  0
 20 26  1  6  0  0  0
 22 23  1  1  0  0  0
 22 28  1  0  0  0  0
 24 25  1  0  0  0  0
 26 27  1  0  0  0  0
 28 29  1  6  0  0  0
M  END
>  <CHROM.1>
-144.27283636,-178.01876782,-77.32483623,-68.98396558,-104.85118780,66.70407151
21.86693505,-10.90386542,-3.89973107,0.13667899,-1.02448912,1.03675961

>  <Name>
ligand

>  <RI>
0

>  <Rbt.Current_Directory>
/home/itssahil/PROJECTS/Mol_Feturizer/New_Systems/rnas/4F8V

>  <Rbt.Executable>
rbdock ($Id: //depot/dev/client3/rdock/2013.1/src/exe/rbdock.cxx#4 $)

>  <Rbt.Library>
libRbt.so (2013.1, Build901 2013/11/27)

>  <Rbt.Parameter_File>
/export/apps/rDock/src/rDock_2013.1_src/data/scripts/dock_solv.prm

>  <Rbt.Receptor>
prm/pocket_docking_3.prm

>  <SCORE>
-9.55182

>  <SCORE.INTER>
-8.8698

>  <SCORE.INTER.CONST>
1

>  <SCORE.INTER.POLAR>
0

>  <SCORE.INTER.ROT>
6

>  <SCORE.INTER.SOLV>
16.9286

>  <SCORE.INTER.VDW>
-19.1561

>  <SCORE.INTER.norm>
-0.286123

>  <SCORE.INTRA>
-0.698927

>  <SCORE.INTRA.DIHEDRAL>
-8.41838

>  <SCORE.INTRA.DIHEDRAL.0>
15.9129

>  <SCORE.INTRA.POLAR>
0

>  <SCORE.INTRA.POLAR.0>
0

>  <SCORE.INTRA.REPUL>
0

>  <SCORE.INTRA.REPUL.0>
0

>  <SCORE.INTRA.SOLV>
2.29341

>  <SCORE.INTRA.SOLV.lig_0>
-75.7056

>  <SCORE.INTRA.VDW>
2.36356

>  <SCORE.INTRA.VDW.0>
-4.61812

>  <SCORE.INTRA.norm>
-0.022546

>  <SCORE.RESTR>
0.0169066

>  <SCORE.RESTR.CAVITY>
0.0169066

>  <SCORE.RESTR.norm>
0.000545374

>  <SCORE.SYSTEM>
0

>  <SCORE.SYSTEM.CONST>
0

>  <SCORE.SYSTEM.DIHEDRAL>
0

>  <SCORE.SYSTEM.SOLV>
0

>  <SCORE.SYSTEM.norm>
0

>  <SCORE.heavy>
31

>  <SCORE.norm>
-0.308123

>  <RMSD>
8.352

$$$$
ligand
 OpenBabel11021811493D
libRbt.so/2013.1/901 2013/11/27
 31 33  0  0  0  0  0  0  0  0999 V2000
   22.9184  -14.2191   -2.1869 C   0  0  2  0  0  0  0  0  0  0  0  0
   23.2362  -13.1367   -3.0723 O   0  0  0  0  0  0  0  0  0  0  0  0
   21.8100  -12.4539   -7.0331 C   0  0  2  0  0  0  0  0  0  0  0  0
   20.9237  -12.1281   -8.0991 N   0  0  0  0  0  0  0  0  0  0  0  0
   21.6388   -9.3941   -7.7429 C   0  0  2  0  0  0  0  0  0  0  0  0
   23.4667  -13.8302   -0.7791 C   0  0  2  0  0  0  0  0  0  0  0  0
   22.8692  -12.5602   -0.3716 N   0  0  0  0  0  0  0  0  0  0  0  0
   21.2648  -13.7215   -6.2745 C   0  0  0  0  0  0  0  0  0  0  0  0
   22.6767   -8.4251   -8.3710 C   0  0  2  0  0  0  0  0  0  0  0  0
   23.7387   -9.1845   -8.9020 O   0  0  0  0  0  0  0  0  0  0  0  0
   25.0415  -13.7468   -0.8098 C   0  0  0  0  0  0  0  0  0  0  0  0
   22.2525  -14.0809   -5.0909 C   0  0  2  0  0  0  0  0  0  0  0  0
   21.7438  -15.2677   -4.3735 N   0  0  0  0  0  0  0  0  0  0  0  0
   23.1783   -7.4431   -7.2391 C   0  0  1  0  0  0  0  0  0  0  0  0
   24.1963   -6.5050   -7.7911 N   0  0  0  0  0  0  0  0  0  0  0  0
   25.6882  -14.7626   -1.8201 C   0  0  0  0  0  0  0  0  0  0  0  0
   22.3509  -12.8391   -4.1061 C   0  0  2  0  0  0  0  0  0  0  0  0
   21.9174   -6.5924   -6.6584 C   0  0  1  0  0  0  0  0  0  0  0  0
   21.2901   -5.7996   -7.6366 O   0  0  0  0  0  0  0  0  0  0  0  0
   24.9325  -15.5301   -2.6196 C   0  0  1  0  0  0  0  0  0  0  0  0
   23.5198  -15.4763   -2.5977 O   0  0  0  0  0  0  0  0  0  0  0  0
   22.8774  -11.5839   -4.8922 C   0  0  2  0  0  0  0  0  0  0  0  0
   22.9515  -10.4711   -4.0028 O   0  0  0  0  0  0  0  0  0  0  0  0
   20.8564   -7.5855   -6.0912 C   0  0  0  0  0  0  0  0  0  0  0  0
   20.4943   -8.6213   -7.1366 O   0  0  0  0  0  0  0  0  0  0  0  0
   25.5320  -16.5259   -3.6317 C   0  0  0  0  0  0  0  0  0  0  0  0
   25.4696  -15.9411   -4.9532 N   0  0  0  0  0  0  0  0  0  0  0  0
   21.8861  -11.2507   -6.0704 C   0  0  1  0  0  0  0  0  0  0  0  0
   22.3837  -10.1398   -6.7568 O   0  0  0  0  0  0  0  0  0  0  0  0
   22.2452   -5.5873   -5.5450 C   0  0  0  0  0  0  0  0  0  0  0  0
   25.5972   -6.9459   -7.7084 C   0  0  0  0  0  0  0  0  0  0  0  0
  1  2  1  6  0  0  0
  1  6  1  0  0  0  0
  1 21  1  0  0  0  0
  3  4  1  6  0  0  0
  3  8  1  0  0  0  0
  3 28  1  0  0  0  0
  5  9  1  0  0  0  0
  5 25  1  0  0  0  0
  5 29  1  1  0  0  0
  6  7  1  6  0  0  0
  6 11  1  0  0  0  0
  8 12  1  0  0  0  0
  9 10  1  1  0  0  0
  9 14  1  0  0  0  0
 11 16  1  0  0  0  0
 12 13  1  1  0  0  0
 12 17  1  0  0  0  0
 14 15  1  6  0  0  0
 14 18  1  0  0  0  0
 15 31  1  0  0  0  0
 16 20  1  0  0  0  0
 17  2  1  1  0  0  0
 17 22  1  0  0  0  0
 18 19  1  6  0  0  0
 18 24  1  0  0  0  0
 18 30  1  0  0  0  0
 20 21  1  0  0  0  0
 20 26  1  6  0  0  0
 22 23  1  1  0  0  0
 22 28  1  0  0  0  0
 24 25  1  0  0  0  0
 26 27  1  0  0  0  0
 28 29  1  6  0  0  0
M  END
>  <CHROM.1>
-146.48779704,-171.10009555,-90.35258828,-62.67170996,-101.82365153,72.46936467
22.93510066,-11.30087451,-5.19222677,-1.08290090,-1.18673403,-0.11325761

>  <Name>
ligand

>  <RI>
0

>  <Rbt.Current_Directory>
/home/itssahil/PROJECTS/Mol_Feturizer/New_Systems/rnas/4F8V

>  <Rbt.Executable>
rbdock ($Id: //depot/dev/client3/rdock/2013.1/src/exe/rbdock.cxx#4 $)

>  <Rbt.Library>
libRbt.so (2013.1, Build901 2013/11/27)

>  <Rbt.Parameter_File>
/export/apps/rDock/src/rDock_2013.1_src/data/scripts/dock_solv.prm

>  <Rbt.Receptor>
prm/pocket_docking_6.prm

>  <SCORE>
-7.35674

>  <SCORE.INTER>
-6.65016

>  <SCORE.INTER.CONST>
1

>  <SCORE.INTER.POLAR>
0

>  <SCORE.INTER.ROT>
6

>  <SCORE.INTER.SOLV>
12.9789

>  <SCORE.INTER.VDW>
-16.3597

>  <SCORE.INTER.norm>
-0.214521

>  <SCORE.INTRA>
-0.706573

>  <SCORE.INTRA.DIHEDRAL>
-7.79709

>  <SCORE.INTRA.DIHEDRAL.0>
15.9129

>  <SCORE.INTRA.POLAR>
0

>  <SCORE.INTRA.POLAR.0>
0

>  <SCORE.INTRA.REPUL>
0

>  <SCORE.INTRA.REPUL.0>
0

>  <SCORE.INTRA.SOLV>
1.87911

>  <SCORE.INTRA.SOLV.lig_0>
-75.7056

>  <SCORE.INTRA.VDW>
2.25242

>  <SCORE.INTRA.VDW.0>
-4.61812

>  <SCORE.INTRA.norm>
-0.0227927

>  <SCORE.RESTR>
0

>  <SCORE.RESTR.CAVITY>
0

>  <SCORE.RESTR.norm>
0

>  <SCORE.SYSTEM>
0

>  <SCORE.SYSTEM.CONST>
0

>  <SCORE.SYSTEM.DIHEDRAL>
0

>  <SCORE.SYSTEM.SOLV>
0

>  <SCORE.SYSTEM.norm>
0

>  <SCORE.heavy>
31

>  <SCORE.norm>
-0.237314

>  <RMSD>
8.371

$$$$
ligand
 OpenBabel11021811493D
libRbt.so/2013.1/901 2013/11/27
 31 33  0  0  0  0  0  0  0  0999 V2000
   26.0092  -14.4205   -2.9123 C   0  0  2  0  0  0  0  0  0  0  0  0
   25.2095  -13.5199   -3.6907 O   0  0  0  0  0  0  0  0  0  0  0  0
   26.0040   -9.4642   -4.7437 C   0  0  2  0  0  0  0  0  0  0  0  0
   26.6116   -8.3379   -5.3683 N   0  0  0  0  0  0  0  0  0  0  0  0
   24.8292   -8.7951   -7.6535 C   0  0  2  0  0  0  0  0  0  0  0  0
   25.4547  -15.8563   -3.1671 C   0  0  2  0  0  0  0  0  0  0  0  0
   25.5045  -16.1364   -4.6007 N   0  0  0  0  0  0  0  0  0  0  0  0
   27.0746  -10.2070   -3.8596 C   0  0  0  0  0  0  0  0  0  0  0  0
   23.5494   -8.7407   -8.5308 C   0  0  2  0  0  0  0  0  0  0  0  0
   22.4618   -8.3621   -7.7183 O   0  0  0  0  0  0  0  0  0  0  0  0
   23.9878  -15.9840   -2.6018 C   0  0  0  0  0  0  0  0  0  0  0  0
   26.3958  -11.4578   -3.1667 C   0  0  2  0  0  0  0  0  0  0  0  0
   27.3970  -12.1605   -2.3385 N   0  0  0  0  0  0  0  0  0  0  0  0
   23.3274  -10.1717   -9.1634 C   0  0  1  0  0  0  0  0  0  0  0  0
   22.0935  -10.1746   -9.9992 N   0  0  0  0  0  0  0  0  0  0  0  0
   23.7443  -15.0975   -1.3268 C   0  0  0  0  0  0  0  0  0  0  0  0
   25.8297  -12.4262   -4.2908 C   0  0  2  0  0  0  0  0  0  0  0  0
   24.6085  -10.5625  -10.0889 C   0  0  1  0  0  0  0  0  0  0  0  0
   24.8082   -9.6711  -11.1586 O   0  0  0  0  0  0  0  0  0  0  0  0
   24.6879  -14.2635   -0.8649 C   0  0  1  0  0  0  0  0  0  0  0  0
   25.9505  -14.1368   -1.4886 O   0  0  0  0  0  0  0  0  0  0  0  0
   24.7799  -11.6550   -5.1705 C   0  0  2  0  0  0  0  0  0  0  0  0
   24.2858  -12.5286   -6.1840 O   0  0  0  0  0  0  0  0  0  0  0  0
   25.8936  -10.5481   -9.2045 C   0  0  0  0  0  0  0  0  0  0  0  0
   26.0170   -9.2236   -8.4783 O   0  0  0  0  0  0  0  0  0  0  0  0
   24.4790  -13.3693    0.3729 C   0  0  0  0  0  0  0  0  0  0  0  0
   24.2036  -12.0197   -0.0686 N   0  0  0  0  0  0  0  0  0  0  0  0
   25.4734  -10.4097   -5.8415 C   0  0  1  0  0  0  0  0  0  0  0  0
   24.5161   -9.7385   -6.6070 O   0  0  0  0  0  0  0  0  0  0  0  0
   24.5422  -11.9329  -10.7779 C   0  0  0  0  0  0  0  0  0  0  0  0
   21.0230  -11.0887   -9.5724 C   0  0  0  0  0  0  0  0  0  0  0  0
  1  2  1  6  0  0  0
  1  6  1  0  0  0  0
  1 21  1  0  0  0  0
  3  4  1  6  0  0  0
  3  8  1  0  0  0  0
  3 28  1  0  0  0  0
  5  9  1  0  0  0  0
  5 25  1  0  0  0  0
  5 29  1  1  0  0  0
  6  7  1  6  0  0  0
  6 11  1  0  0  0  0
  8 12  1  0  0  0  0
  9 10  1  1  0  0  0
  9 14  1  0  0  0  0
 11 16  1  0  0  0  0
 12 13  1  6  0  0  0
 12 17  1  0  0  0  0
 14 15  1  6  0  0  0
 14 18  1  0  0  0  0
 15 31  1  0  0  0  0
 16 20  1  0  0  0  0
 17  2  1  1  0  0  0
 17 22  1  0  0  0  0
 18 19  1  6  0  0  0
 18 24  1  0  0  0  0
 18 30  1  0  0  0  0
 20 21  1  0  0  0  0
 20 26  1  6  0  0  0
 22 23  1  6  0  0  0
 22 28  1  0  0  0  0
 24 25  1  0  0  0  0
 26 27  1  0  0  0  0
 28 29  1  1  0  0  0
M  END
>  <CHROM.1>
-143.02335859,159.33467450,-118.14240345,-64.29320676,-102.08763671,79.25757439
24.84437708,-11.67777708,-5.53539187,1.27495265,1.07797494,2.34341188

>  <Name>
ligand

>  <RI>
0

>  <Rbt.Current_Directory>
/home/itssahil/PROJECTS/Mol_Feturizer/New_Systems/rnas/4F8V

>  <Rbt.Executable>
rbdock ($Id: //depot/dev/client3/rdock/2013.1/src/exe/rbdock.cxx#4 $)

>  <Rbt.Library>
libRbt.so (2013.1, Build901 2013/11/27)

>  <Rbt.Parameter_File>
/export/apps/rDock/src/rDock_2013.1_src/data/scripts/dock_solv.prm

>  <Rbt.Receptor>
prm/pocket_docking_6.prm

>  <SCORE>
-3.22204

>  <SCORE.INTER>
-3.41302

>  <SCORE.INTER.CONST>
1

>  <SCORE.INTER.POLAR>
0

>  <SCORE.INTER.ROT>
6

>  <SCORE.INTER.SOLV>
9.99832

>  <SCORE.INTER.VDW>
-13.2081

>  <SCORE.INTER.norm>
-0.110098

>  <SCORE.INTRA>
0.19098

>  <SCORE.INTRA.DIHEDRAL>
-4.0739

>  <SCORE.INTRA.DIHEDRAL.0>
15.9129

>  <SCORE.INTRA.POLAR>
0

>  <SCORE.INTRA.POLAR.0>
0

>  <SCORE.INTRA.REPUL>
0

>  <SCORE.INTRA.REPUL.0>
0

>  <SCORE.INTRA.SOLV>
1.65595

>  <SCORE.INTRA.SOLV.lig_0>
-75.7056

>  <SCORE.INTRA.VDW>
1.39995

>  <SCORE.INTRA.VDW.0>
-4.61812

>  <SCORE.INTRA.norm>
0.00616064

>  <SCORE.RESTR>
0

>  <SCORE.RESTR.CAVITY>
0

>  <SCORE.RESTR.norm>
0

>  <SCORE.SYSTEM>
0

>  <SCORE.SYSTEM.CONST>
0

>  <SCORE.SYSTEM.DIHEDRAL>
0

>  <SCORE.SYSTEM.SOLV>
0

>  <SCORE.SYSTEM.norm>
0

>  <SCORE.heavy>
31

>  <SCORE.norm>
-0.103937

>  <RMSD>
8.373

$$$$
ligand
 OpenBabel11021811493D
libRbt.so/2013.1/901 2013/11/27
 31 33  0  0  0  0  0  0  0  0999 V2000
   23.5885  -13.5419   -3.3371 C   0  0  2  0  0  0  0  0  0  0  0  0
   24.5212  -13.4591   -4.4231 O   0  0  0  0  0  0  0  0  0  0  0  0
   24.2162  -11.1606   -8.0026 C   0  0  2  0  0  0  0  0  0  0  0  0
   23.7391  -10.7066   -9.2652 N   0  0  0  0  0  0  0  0  0  0  0  0
   21.7785   -9.0724   -7.7957 C   0  0  2  0  0  0  0  0  0  0  0  0
   24.3836  -14.0454   -2.0929 C   0  0  2  0  0  0  0  0  0  0  0  0
   25.4887  -13.1253   -1.8321 N   0  0  0  0  0  0  0  0  0  0  0  0
   24.7023  -12.6522   -8.1378 C   0  0  0  0  0  0  0  0  0  0  0  0
   21.9115   -7.5632   -7.4565 C   0  0  2  0  0  0  0  0  0  0  0  0
   23.2662   -7.1924   -7.5739 O   0  0  0  0  0  0  0  0  0  0  0  0
   24.8984  -15.5170   -2.3321 C   0  0  0  0  0  0  0  0  0  0  0  0
   25.2322  -13.1532   -6.7329 C   0  0  2  0  0  0  0  0  0  0  0  0
   25.6864  -14.5537   -6.8534 N   0  0  0  0  0  0  0  0  0  0  0  0
   21.3776   -7.3424   -5.9856 C   0  0  1  0  0  0  0  0  0  0  0  0
   21.5063   -5.9070   -5.6057 N   0  0  0  0  0  0  0  0  0  0  0  0
   23.9278  -16.3660   -3.2310 C   0  0  0  0  0  0  0  0  0  0  0  0
   24.0584  -13.0418   -5.6692 C   0  0  2  0  0  0  0  0  0  0  0  0
   19.8133   -7.7858   -5.9020 C   0  0  1  0  0  0  0  0  0  0  0  0
   18.9816   -7.0364   -6.7537 O   0  0  0  0  0  0  0  0  0  0  0  0
   22.8378  -15.8207   -3.7913 C   0  0  1  0  0  0  0  0  0  0  0  0
   22.4957  -14.4617   -3.6038 O   0  0  0  0  0  0  0  0  0  0  0  0
   23.5786  -11.5483   -5.5689 C   0  0  2  0  0  0  0  0  0  0  0  0
   22.5170  -11.4599   -4.6202 O   0  0  0  0  0  0  0  0  0  0  0  0
   19.6915   -9.2869   -6.3093 C   0  0  0  0  0  0  0  0  0  0  0  0
   20.3451   -9.5206   -7.6564 O   0  0  0  0  0  0  0  0  0  0  0  0
   21.8724  -16.6186   -4.6895 C   0  0  0  0  0  0  0  0  0  0  0  0
   21.9551  -16.1007   -6.0375 N   0  0  0  0  0  0  0  0  0  0  0  0
   23.0657  -11.0676   -6.9787 C   0  0  1  0  0  0  0  0  0  0  0  0
   22.6566   -9.7365   -6.8624 O   0  0  0  0  0  0  0  0  0  0  0  0
   19.1465   -7.6286   -4.5280 C   0  0  0  0  0  0  0  0  0  0  0  0
   22.8418   -5.4678   -5.1728 C   0  0  0  0  0  0  0  0  0  0  0  0
  1  2  1  6  0  0  0
  1  6  1  0  0  0  0
  1 21  1  0  0  0  0
  3  4  1  6  0  0  0
  3  8  1  0  0  0  0
  3 28  1  0  0  0  0
  5  9  1  0  0  0  0
  5 25  1  0  0  0  0
  5 29  1  1  0  0  0
  6  7  1  6  0  0  0
  6 11  1  0  0  0  0
  8 12  1  0  0  0  0
  9 10  1  1  0  0  0
  9 14  1  0  0  0  0
 11 16  1  0  0  0  0
 12 13  1  6  0  0  0
 12 17  1  0  0  0  0
 14 15  1  6  0  0  0
 14 18  1  0  0  0  0
 15 31  1  0  0  0  0
 16 20  1  0  0  0  0
 17  2  1  1  0  0  0
 17 22  1  0  0  0  0
 18 19  1  6  0  0  0
 18 24  1  0  0  0  0
 18 30  1  0  0  0  0
 20 21  1  0  0  0  0
 20 26  1  6  0  0  0
 22 23  1  1  0  0  0
 22 28  1  0  0  0  0
 24 25  1  0  0  0  0
 26 27  1  0  0  0  0
 28 29  1  1  0  0  0
M  END
>  <CHROM.1>
179.38342044,-166.09652157,-80.29194348,-174.98662380,-113.23658124,80.11382747
22.74843491,-11.31155817,-5.63976832,0.97053346,-0.93894499,2.31860469

>  <Name>
ligand

>  <RI>
0

>  <Rbt.Current_Directory>
/home/itssahil/PROJECTS/Mol_Feturizer/New_Systems/rnas/4F8V

>  <Rbt.Executable>
rbdock ($Id: //depot/dev/client3/rdock/2013.1/src/exe/rbdock.cxx#4 $)

>  <Rbt.Library>
libRbt.so (2013.1, Build901 2013/11/27)

>  <Rbt.Parameter_File>
/export/apps/rDock/src/rDock_2013.1_src/data/scripts/dock_solv.prm

>  <Rbt.Receptor>
prm/pocket_docking_7.prm

>  <SCORE>
-10.396

>  <SCORE.INTER>
-6.43476

>  <SCORE.INTER.CONST>
1

>  <SCORE.INTER.POLAR>
0

>  <SCORE.INTER.ROT>
6

>  <SCORE.INTER.SOLV>
9.07677

>  <SCORE.INTER.VDW>
-14.9154

>  <SCORE.INTER.norm>
-0.207573

>  <SCORE.INTRA>
-3.96126

>  <SCORE.INTRA.DIHEDRAL>
-11.0064

>  <SCORE.INTRA.DIHEDRAL.0>
15.9129

>  <SCORE.INTRA.POLAR>
0

>  <SCORE.INTRA.POLAR.0>
0

>  <SCORE.INTRA.REPUL>
0

>  <SCORE.INTRA.REPUL.0>
0

>  <SCORE.INTRA.SOLV>
-1.05419

>  <SCORE.INTRA.SOLV.lig_0>
-75.7056

>  <SCORE.INTRA.VDW>
2.06904

>  <SCORE.INTRA.VDW.0>
-4.61812

>  <SCORE.INTRA.norm>
-0.127783

>  <SCORE.RESTR>
0

>  <SCORE.RESTR.CAVITY>
0

>  <SCORE.RESTR.norm>
0

>  <SCORE.SYSTEM>
0

>  <SCORE.SYSTEM.CONST>
0

>  <SCORE.SYSTEM.DIHEDRAL>
0

>  <SCORE.SYSTEM.SOLV>
0

>  <SCORE.SYSTEM.norm>
0

>  <SCORE.heavy>
31

>  <SCORE.norm>
-0.335355

>  <RMSD>
8.385

$$$$
ligand
 OpenBabel11021811493D
libRbt.so/2013.1/901 2013/11/27
 31 33  0  0  0  0  0  0  0  0999 V2000
   28.4783  -12.0712   -5.0647 C   0  0  2  0  0  0  0  0  0  0  0  0
   27.4057  -12.8439   -5.6204 O   0  0  0  0  0  0  0  0  0  0  0  0
   24.4588  -15.4509   -3.9748 C   0  0  2  0  0  0  0  0  0  0  0  0
   23.8729  -16.4749   -3.1772 N   0  0  0  0  0  0  0  0  0  0  0  0
   23.7131  -14.4110   -0.9565 C   0  0  2  0  0  0  0  0  0  0  0  0
   28.8433  -10.9785   -6.1166 C   0  0  2  0  0  0  0  0  0  0  0  0
   27.6522  -10.1827   -6.4067 N   0  0  0  0  0  0  0  0  0  0  0  0
   25.5430  -16.0883   -4.9223 C   0  0  0  0  0  0  0  0  0  0  0  0
   22.4378  -13.6112   -0.5765 C   0  0  2  0  0  0  0  0  0  0  0  0
   21.4946  -13.7468   -1.6149 O   0  0  0  0  0  0  0  0  0  0  0  0
   29.4251  -11.6480   -7.4209 C   0  0  0  0  0  0  0  0  0  0  0  0
   26.1916  -14.9475   -5.8075 C   0  0  2  0  0  0  0  0  0  0  0  0
   27.2123  -15.5397   -6.6961 N   0  0  0  0  0  0  0  0  0  0  0  0
   22.8512  -12.1007   -0.3652 C   0  0  1  0  0  0  0  0  0  0  0  0
   21.6518  -11.2866   -0.0193 N   0  0  0  0  0  0  0  0  0  0  0  0
   30.2238  -12.9694   -7.1258 C   0  0  0  0  0  0  0  0  0  0  0  0
   26.8514  -13.8649   -4.8513 C   0  0  2  0  0  0  0  0  0  0  0  0
   23.9406  -11.9980    0.8404 C   0  0  1  0  0  0  0  0  0  0  0  0
   23.4443  -12.4604    2.0727 O   0  0  0  0  0  0  0  0  0  0  0  0
   30.2917  -13.4836   -5.8888 C   0  0  1  0  0  0  0  0  0  0  0  0
   29.6591  -12.8696   -4.7833 O   0  0  0  0  0  0  0  0  0  0  0  0
   25.7530  -13.2601   -3.9035 C   0  0  2  0  0  0  0  0  0  0  0  0
   26.3566  -12.2976   -3.0409 O   0  0  0  0  0  0  0  0  0  0  0  0
   25.1868  -12.8601    0.4697 C   0  0  0  0  0  0  0  0  0  0  0  0
   24.7632  -14.2719    0.1171 O   0  0  0  0  0  0  0  0  0  0  0  0
   31.0530  -14.7841   -5.5655 C   0  0  0  0  0  0  0  0  0  0  0  0
   32.4586  -14.4763   -5.4170 N   0  0  0  0  0  0  0  0  0  0  0  0
   25.1143  -14.4128   -3.0404 C   0  0  1  0  0  0  0  0  0  0  0  0
   24.1360  -13.8490   -2.2169 O   0  0  0  0  0  0  0  0  0  0  0  0
   24.4427  -10.5848    1.1690 C   0  0  0  0  0  0  0  0  0  0  0  0
   20.9604  -10.6394   -1.1449 C   0  0  0  0  0  0  0  0  0  0  0  0
  1  2  1  6  0  0  0
  1  6  1  0  0  0  0
  1 21  1  0  0  0  0
  3  4  1  1  0  0  0
  3  8  1  0  0  0  0
  3 28  1  0  0  0  0
  5  9  1  0  0  0  0
  5 25  1  0  0  0  0
  5 29  1  6  0  0  0
  6  7  1  6  0  0  0
  6 11  1  0  0  0  0
  8 12  1  0  0  0  0
  9 10  1  6  0  0  0
  9 14  1  0  0  0  0
 11 16  1  0  0  0  0
 12 13  1  6  0  0  0
 12 17  1  0  0  0  0
 14 15  1  1  0  0  0
 14 18  1  0  0  0  0
 15 31  1  0  0  0  0
 16 20  1  0  0  0  0
 17  2  1  6  0  0  0
 17 22  1  0  0  0  0
 18 19  1  1  0  0  0
 18 24  1  0  0  0  0
 18 30  1  0  0  0  0
 20 21  1  0  0  0  0
 20 26  1  6  0  0  0
 22 23  1  1  0  0  0
 22 28  1  0  0  0  0
 24 25  1  0  0  0  0
 26 27  1  0  0  0  0
 28 29  1  1  0  0  0
M  END
>  <CHROM.1>
-177.53784607,-168.73017769,-93.00073414,-155.30583663,81.89863808,86.78322877
25.97085961,-13.22596371,-3.21754771,-0.44000708,0.62064904,0.57233930

>  <Name>
ligand

>  <RI>
0

>  <Rbt.Current_Directory>
/home/itssahil/PROJECTS/Mol_Feturizer/New_Systems/rnas/4F8V

>  <Rbt.Executable>
rbdock ($Id: //depot/dev/client3/rdock/2013.1/src/exe/rbdock.cxx#4 $)

>  <Rbt.Library>
libRbt.so (2013.1, Build901 2013/11/27)

>  <Rbt.Parameter_File>
/export/apps/rDock/src/rDock_2013.1_src/data/scripts/dock_solv.prm

>  <Rbt.Receptor>
prm/pocket_docking_8.prm

>  <SCORE>
-6.51104

>  <SCORE.INTER>
-3.5749

>  <SCORE.INTER.CONST>
1

>  <SCORE.INTER.POLAR>
0

>  <SCORE.INTER.ROT>
6

>  <SCORE.INTER.SOLV>
15.7534

>  <SCORE.INTER.VDW>
-15.2344

>  <SCORE.INTER.norm>
-0.115319

>  <SCORE.INTRA>
-2.93614

>  <SCORE.INTRA.DIHEDRAL>
-5.93744

>  <SCORE.INTRA.DIHEDRAL.0>
15.9129

>  <SCORE.INTRA.POLAR>
0

>  <SCORE.INTRA.POLAR.0>
0

>  <SCORE.INTRA.REPUL>
0

>  <SCORE.INTRA.REPUL.0>
0

>  <SCORE.INTRA.SOLV>
-1.40036

>  <SCORE.INTRA.SOLV.lig_0>
-75.7056

>  <SCORE.INTRA.VDW>
0.73276

>  <SCORE.INTRA.VDW.0>
-4.61812

>  <SCORE.INTRA.norm>
-0.0947142

>  <SCORE.RESTR>
0

>  <SCORE.RESTR.CAVITY>
0

>  <SCORE.RESTR.norm>
0

>  <SCORE.SYSTEM>
0

>  <SCORE.SYSTEM.CONST>
0

>  <SCORE.SYSTEM.DIHEDRAL>
0

>  <SCORE.SYSTEM.SOLV>
0

>  <SCORE.SYSTEM.norm>
0

>  <SCORE.heavy>
31

>  <SCORE.norm>
-0.210033

>  <RMSD>
8.405

$$$$
ligand
 OpenBabel11021811493D
libRbt.so/2013.1/901 2013/11/27
 31 33  0  0  0  0  0  0  0  0999 V2000
   24.1301  -13.4382   -3.3129 C   0  0  2  0  0  0  0  0  0  0  0  0
   24.8842  -13.4032   -4.5321 O   0  0  0  0  0  0  0  0  0  0  0  0
   24.0816  -11.4040   -8.2128 C   0  0  2  0  0  0  0  0  0  0  0  0
   23.4117  -11.0212   -9.4097 N   0  0  0  0  0  0  0  0  0  0  0  0
   21.9944   -9.0747   -7.8924 C   0  0  2  0  0  0  0  0  0  0  0  0
   25.0806  -13.9921   -2.2067 C   0  0  2  0  0  0  0  0  0  0  0  0
   26.2634  -13.1374   -2.1262 N   0  0  0  0  0  0  0  0  0  0  0  0
   24.4307  -12.9379   -8.2818 C   0  0  0  0  0  0  0  0  0  0  0  0
   22.0907   -7.5775   -7.4930 C   0  0  2  0  0  0  0  0  0  0  0  0
   23.4407   -7.1786   -7.5613 O   0  0  0  0  0  0  0  0  0  0  0  0
   25.4670  -15.4894   -2.5176 C   0  0  0  0  0  0  0  0  0  0  0  0
   25.1754  -13.3595   -6.9502 C   0  0  2  0  0  0  0  0  0  0  0  0
   25.5023  -14.7990   -7.0083 N   0  0  0  0  0  0  0  0  0  0  0  0
   21.5160   -7.4227   -6.0291 C   0  0  1  0  0  0  0  0  0  0  0  0
   21.6083   -6.0009   -5.5920 N   0  0  0  0  0  0  0  0  0  0  0  0
   24.3208  -16.2775   -3.2496 C   0  0  0  0  0  0  0  0  0  0  0  0
   24.2288  -13.0567   -5.7117 C   0  0  2  0  0  0  0  0  0  0  0  0
   19.9586   -7.8966   -6.0028 C   0  0  1  0  0  0  0  0  0  0  0  0
   19.1348   -7.1299   -6.8467 O   0  0  0  0  0  0  0  0  0  0  0  0
   23.1892  -15.6685   -3.6343 C   0  0  1  0  0  0  0  0  0  0  0  0
   22.9586  -14.2931   -3.4010 O   0  0  0  0  0  0  0  0  0  0  0  0
   23.8796  -11.5245   -5.6781 C   0  0  2  0  0  0  0  0  0  0  0  0
   23.0202  -11.2639   -4.5698 O   0  0  0  0  0  0  0  0  0  0  0  0
   19.8751   -9.3829   -6.4695 C   0  0  0  0  0  0  0  0  0  0  0  0
   20.5666   -9.5532   -7.8072 O   0  0  0  0  0  0  0  0  0  0  0  0
   22.0511  -16.4059   -4.3666 C   0  0  0  0  0  0  0  0  0  0  0  0
   21.9971  -15.9377   -5.7342 N   0  0  0  0  0  0  0  0  0  0  0  0
   23.1492  -11.1248   -7.0155 C   0  0  1  0  0  0  0  0  0  0  0  0
   22.8610   -9.7584   -6.9625 O   0  0  0  0  0  0  0  0  0  0  0  0
   19.2547   -7.8039   -4.6415 C   0  0  0  0  0  0  0  0  0  0  0  0
   22.9032   -5.5749   -5.0392 C   0  0  0  0  0  0  0  0  0  0  0  0
  1  2  1  6  0  0  0
  1  6  1  0  0  0  0
  1 21  1  0  0  0  0
  3  4  1  6  0  0  0
  3  8  1  0  0  0  0
  3 28  1  0  0  0  0
  5  9  1  0  0  0  0
  5 25  1  0  0  0  0
  5 29  1  1  0  0  0
  6  7  1  6  0  0  0
  6 11  1  0  0  0  0
  8 12  1  0  0  0  0
  9 10  1  1  0  0  0
  9 14  1  0  0  0  0
 11 16  1  0  0  0  0
 12 13  1  6  0  0  0
 12 17  1  0  0  0  0
 14 15  1  6  0  0  0
 14 18  1  0  0  0  0
 15 31  1  0  0  0  0
 16 20  1  0  0  0  0
 17  2  1  1  0  0  0
 17 22  1  0  0  0  0
 18 19  1  6  0  0  0
 18 24  1  0  0  0  0
 18 30  1  0  0  0  0
 20 21  1  0  0  0  0
 20 26  1  6  0  0  0
 22 23  1  1  0  0  0
 22 28  1  0  0  0  0
 24 25  1  0  0  0  0
 26 27  1  0  0  0  0
 28 29  1  1  0  0  0
M  END
>  <CHROM.1>
174.33333998,-175.38110001,-83.54427557,-168.96929970,-110.22938269,72.26712871
22.95522247,-11.34012979,-5.68507273,0.61503908,-1.10333787,1.90473900

>  <Name>
ligand

>  <RI>
0

>  <Rbt.Current_Directory>
/home/itssahil/PROJECTS/Mol_Feturizer/New_Systems/rnas/4F8V

>  <Rbt.Executable>
rbdock ($Id: //depot/dev/client3/rdock/2013.1/src/exe/rbdock.cxx#4 $)

>  <Rbt.Library>
libRbt.so (2013.1, Build901 2013/11/27)

>  <Rbt.Parameter_File>
/export/apps/rDock/src/rDock_2013.1_src/data/scripts/dock_solv.prm

>  <Rbt.Receptor>
prm/pocket_docking_8.prm

>  <SCORE>
-10.7154

>  <SCORE.INTER>
-6.11616

>  <SCORE.INTER.CONST>
1

>  <SCORE.INTER.POLAR>
0

>  <SCORE.INTER.ROT>
6

>  <SCORE.INTER.SOLV>
9.11222

>  <SCORE.INTER.VDW>
-14.7148

>  <SCORE.INTER.norm>
-0.197295

>  <SCORE.INTRA>
-4.59925

>  <SCORE.INTRA.DIHEDRAL>
-12.1418

>  <SCORE.INTRA.DIHEDRAL.0>
15.9129

>  <SCORE.INTRA.POLAR>
0

>  <SCORE.INTRA.POLAR.0>
0

>  <SCORE.INTRA.REPUL>
0

>  <SCORE.INTRA.REPUL.0>
0

>  <SCORE.INTRA.SOLV>
-0.290216

>  <SCORE.INTRA.SOLV.lig_0>
-75.7056

>  <SCORE.INTRA.VDW>
1.61677

>  <SCORE.INTRA.VDW.0>
-4.61812

>  <SCORE.INTRA.norm>
-0.148363

>  <SCORE.RESTR>
0

>  <SCORE.RESTR.CAVITY>
0

>  <SCORE.RESTR.norm>
0

>  <SCORE.SYSTEM>
0

>  <SCORE.SYSTEM.CONST>
0

>  <SCORE.SYSTEM.DIHEDRAL>
0

>  <SCORE.SYSTEM.SOLV>
0

>  <SCORE.SYSTEM.norm>
0

>  <SCORE.heavy>
31

>  <SCORE.norm>
-0.345658

>  <RMSD>
8.413

$$$$
ligand
 OpenBabel11021811493D
libRbt.so/2013.1/901 2013/11/27
 31 33  0  0  0  0  0  0  0  0999 V2000
   25.1081  -12.1777   -2.4856 C   0  0  2  0  0  0  0  0  0  0  0  0
   25.6283  -12.2562   -3.8196 O   0  0  0  0  0  0  0  0  0  0  0  0
   23.7728  -11.4181   -7.5671 C   0  0  2  0  0  0  0  0  0  0  0  0
   22.8492  -11.4881   -8.6487 N   0  0  0  0  0  0  0  0  0  0  0  0
   21.2978   -9.5703   -7.3553 C   0  0  2  0  0  0  0  0  0  0  0  0
   26.3334  -12.0715   -1.5258 C   0  0  2  0  0  0  0  0  0  0  0  0
   27.1303  -10.9053   -1.9013 N   0  0  0  0  0  0  0  0  0  0  0  0
   24.4934  -12.8093   -7.4097 C   0  0  0  0  0  0  0  0  0  0  0  0
   21.1856   -8.0225   -7.4041 C   0  0  2  0  0  0  0  0  0  0  0  0
   22.4290   -7.4928   -7.8037 O   0  0  0  0  0  0  0  0  0  0  0  0
   27.1857  -13.3976   -1.5787 C   0  0  0  0  0  0  0  0  0  0  0  0
   25.5193  -12.7276   -6.2070 C   0  0  2  0  0  0  0  0  0  0  0  0
   26.1958  -14.0318   -6.0528 N   0  0  0  0  0  0  0  0  0  0  0  0
   20.7773   -7.5149   -5.9644 C   0  0  1  0  0  0  0  0  0  0  0  0
   20.6787   -6.0279   -5.9561 N   0  0  0  0  0  0  0  0  0  0  0  0
   26.3112  -14.6764   -1.8448 C   0  0  0  0  0  0  0  0  0  0  0  0
   24.7306  -12.3532   -4.8807 C   0  0  2  0  0  0  0  0  0  0  0  0
   19.3388   -8.1547   -5.5493 C   0  0  1  0  0  0  0  0  0  0  0  0
   18.2989   -7.7850   -6.4214 O   0  0  0  0  0  0  0  0  0  0  0  0
   24.9958  -14.5848   -2.0910 C   0  0  1  0  0  0  0  0  0  0  0  0
   24.3208  -13.3428   -2.1199 O   0  0  0  0  0  0  0  0  0  0  0  0
   24.0049  -10.9720   -5.0717 C   0  0  2  0  0  0  0  0  0  0  0  0
   23.2900  -10.6495   -3.8801 O   0  0  0  0  0  0  0  0  0  0  0  0
   19.4533   -9.7104   -5.5694 C   0  0  0  0  0  0  0  0  0  0  0  0
   19.9941  -10.1803   -6.9049 O   0  0  0  0  0  0  0  0  0  0  0  0
   24.1107  -15.8152   -2.3704 C   0  0  0  0  0  0  0  0  0  0  0  0
   23.5778  -15.7108   -3.7111 N   0  0  0  0  0  0  0  0  0  0  0  0
   22.9975  -11.0728   -6.2786 C   0  0  1  0  0  0  0  0  0  0  0  0
   22.3760   -9.8305   -6.4317 O   0  0  0  0  0  0  0  0  0  0  0  0
   18.8021   -7.7528   -4.1681 C   0  0  0  0  0  0  0  0  0  0  0  0
   21.9520   -5.2936   -5.8977 C   0  0  0  0  0  0  0  0  0  0  0  0
  1  2  1  6  0  0  0
  1  6  1  0  0  0  0
  1 21  1  0  0  0  0
  3  4  1  6  0  0  0
  3  8  1  0  0  0  0
  3 28  1  0  0  0  0
  5  9  1  0  0  0  0
  5 25  1  0  0  0  0
  5 29  1  1  0  0  0
  6  7  1  6  0  0  0
  6 11  1  0  0  0  0
  8 12  1  0  0  0  0
  9 10  1  1  0  0  0
  9 14  1  0  0  0  0
 11 16  1  0  0  0  0
 12 13  1  1  0  0  0
 12 17  1  0  0  0  0
 14 15  1  6  0  0  0
 14 18  1  0  0  0  0
 15 31  1  0  0  0  0
 16 20  1  0  0  0  0
 17  2  1  1  0  0  0
 17 22  1  0  0  0  0
 18 19  1  6  0  0  0
 18 24  1  0  0  0  0
 18 30  1  0  0  0  0
 20 21  1  0  0  0  0
 20 26  1  6  0  0  0
 22 23  1  1  0  0  0
 22 28  1  0  0  0  0
 24 25  1  0  0  0  0
 26 27  1  0  0  0  0
 28 29  1  6  0  0  0
M  END
>  <CHROM.1>
-179.70960554,-166.93459675,-77.79164432,-168.33699070,-117.04802360,67.00194677
23.16256920,-10.92567616,-4.99993693,0.14318541,-0.91211263,1.20775079

>  <Name>
ligand

>  <RI>
0

>  <Rbt.Current_Directory>
/home/itssahil/PROJECTS/Mol_Feturizer/New_Systems/rnas/4F8V

>  <Rbt.Executable>
rbdock ($Id: //depot/dev/client3/rdock/2013.1/src/exe/rbdock.cxx#4 $)

>  <Rbt.Library>
libRbt.so (2013.1, Build901 2013/11/27)

>  <Rbt.Parameter_File>
/export/apps/rDock/src/rDock_2013.1_src/data/scripts/dock_solv.prm

>  <Rbt.Receptor>
prm/pocket_docking_5.prm

>  <SCORE>
-12.1163

>  <SCORE.INTER>
-8.01645

>  <SCORE.INTER.CONST>
1

>  <SCORE.INTER.POLAR>
0

>  <SCORE.INTER.ROT>
6

>  <SCORE.INTER.SOLV>
9.46266

>  <SCORE.INTER.VDW>
-16.0985

>  <SCORE.INTER.norm>
-0.258595

>  <SCORE.INTRA>
-4.09983

>  <SCORE.INTRA.DIHEDRAL>
-12.2756

>  <SCORE.INTRA.DIHEDRAL.0>
15.9129

>  <SCORE.INTRA.POLAR>
0

>  <SCORE.INTRA.POLAR.0>
0

>  <SCORE.INTRA.REPUL>
0

>  <SCORE.INTRA.REPUL.0>
0

>  <SCORE.INTRA.SOLV>
-0.205946

>  <SCORE.INTRA.SOLV.lig_0>
-75.7056

>  <SCORE.INTRA.VDW>
2.14094

>  <SCORE.INTRA.VDW.0>
-4.61812

>  <SCORE.INTRA.norm>
-0.132253

>  <SCORE.RESTR>
0

>  <SCORE.RESTR.CAVITY>
0

>  <SCORE.RESTR.norm>
0

>  <SCORE.SYSTEM>
0

>  <SCORE.SYSTEM.CONST>
0

>  <SCORE.SYSTEM.DIHEDRAL>
0

>  <SCORE.SYSTEM.SOLV>
0

>  <SCORE.SYSTEM.norm>
0

>  <SCORE.heavy>
31

>  <SCORE.norm>
-0.390848

>  <RMSD>
8.431

$$$$
ligand
 OpenBabel11021811493D
libRbt.so/2013.1/901 2013/11/27
 31 33  0  0  0  0  0  0  0  0999 V2000
   25.7380  -13.8808   -6.2400 C   0  0  2  0  0  0  0  0  0  0  0  0
   24.6080  -14.2227   -7.0540 O   0  0  0  0  0  0  0  0  0  0  0  0
   20.9920  -12.0390   -7.6412 C   0  0  2  0  0  0  0  0  0  0  0  0
   19.7444  -11.4142   -7.3564 N   0  0  0  0  0  0  0  0  0  0  0  0
   22.9720   -9.1408   -6.2033 C   0  0  2  0  0  0  0  0  0  0  0  0
   26.9826  -14.5727   -6.8770 C   0  0  2  0  0  0  0  0  0  0  0  0
   27.1164  -14.1262   -8.2622 N   0  0  0  0  0  0  0  0  0  0  0  0
   20.8697  -13.5862   -7.3750 C   0  0  0  0  0  0  0  0  0  0  0  0
   22.1605   -8.9249   -4.8974 C   0  0  2  0  0  0  0  0  0  0  0  0
   21.9525  -10.1766   -4.2838 O   0  0  0  0  0  0  0  0  0  0  0  0
   26.8434  -16.1411   -6.7842 C   0  0  0  0  0  0  0  0  0  0  0  0
   22.2579  -14.2773   -7.6928 C   0  0  2  0  0  0  0  0  0  0  0  0
   22.1497  -15.7289   -7.4414 N   0  0  0  0  0  0  0  0  0  0  0  0
   20.7915   -8.2342   -5.2794 C   0  0  1  0  0  0  0  0  0  0  0  0
   19.9657   -8.0263   -4.0563 N   0  0  0  0  0  0  0  0  0  0  0  0
   26.0625  -16.6110   -5.5035 C   0  0  0  0  0  0  0  0  0  0  0  0
   23.3771  -13.6371   -6.7659 C   0  0  2  0  0  0  0  0  0  0  0  0
   21.0852   -6.7965   -5.9846 C   0  0  1  0  0  0  0  0  0  0  0  0
   21.7726   -5.9011   -5.1454 O   0  0  0  0  0  0  0  0  0  0  0  0
   25.5084  -15.7279   -4.6594 C   0  0  1  0  0  0  0  0  0  0  0  0
   25.5978  -14.3320   -4.8660 O   0  0  0  0  0  0  0  0  0  0  0  0
   23.4642  -12.0912   -7.0365 C   0  0  2  0  0  0  0  0  0  0  0  0
   24.4634  -11.5231   -6.1917 O   0  0  0  0  0  0  0  0  0  0  0  0
   21.9562   -7.0273   -7.2581 C   0  0  0  0  0  0  0  0  0  0  0  0
   23.1955   -7.8269   -6.9094 O   0  0  0  0  0  0  0  0  0  0  0  0
   24.7238  -16.1526   -3.4027 C   0  0  0  0  0  0  0  0  0  0  0  0
   23.3819  -15.6196   -3.4893 N   0  0  0  0  0  0  0  0  0  0  0  0
   22.0707  -11.4260   -6.7241 C   0  0  1  0  0  0  0  0  0  0  0  0
   22.1743  -10.0566   -6.9831 O   0  0  0  0  0  0  0  0  0  0  0  0
   19.8467   -5.9979   -6.4155 C   0  0  0  0  0  0  0  0  0  0  0  0
   18.5651   -8.4688   -4.1361 C   0  0  0  0  0  0  0  0  0  0  0  0
  1  2  1  6  0  0  0
  1  6  1  0  0  0  0
  1 21  1  0  0  0  0
  3  4  1  1  0  0  0
  3  8  1  0  0  0  0
  3 28  1  0  0  0  0
  5  9  1  0  0  0  0
  5 25  1  0  0  0  0
  5 29  1  6  0  0  0
  6  7  1  6  0  0  0
  6 11  1  0  0  0  0
  8 12  1  0  0  0  0
  9 10  1  6  0  0  0
  9 14  1  0  0  0  0
 11 16  1  0  0  0  0
 12 13  1  1  0  0  0
 12 17  1  0  0  0  0
 14 15  1  1  0  0  0
 14 18  1  0  0  0  0
 15 31  1  0  0  0  0
 16 20  1  0  0  0  0
 17  2  1  6  0  0  0
 17 22  1  0  0  0  0
 18 19  1  1  0  0  0
 18 24  1  0  0  0  0
 18 30  1  0  0  0  0
 20 21  1  0  0  0  0
 20 26  1  6  0  0  0
 22 23  1  1  0  0  0
 22 28  1  0  0  0  0
 24 25  1  0  0  0  0
 26 27  1  0  0  0  0
 28 29  1  6  0  0  0
M  END
>  <CHROM.1>
-174.70019355,-75.42626895,-131.20200069,-174.10858920,-121.31972666,172.50042074
22.97672222,-11.68583352,-6.07838429,-1.03471942,0.20554200,-0.08220302

>  <Name>
ligand

>  <RI>
0

>  <Rbt.Current_Directory>
/home/itssahil/PROJECTS/Mol_Feturizer/New_Systems/rnas/4F8V

>  <Rbt.Executable>
rbdock ($Id: //depot/dev/client3/rdock/2013.1/src/exe/rbdock.cxx#4 $)

>  <Rbt.Library>
libRbt.so (2013.1, Build901 2013/11/27)

>  <Rbt.Parameter_File>
/export/apps/rDock/src/rDock_2013.1_src/data/scripts/dock_solv.prm

>  <Rbt.Receptor>
prm/pocket_docking_8.prm

>  <SCORE>
-8.26533

>  <SCORE.INTER>
-4.20257

>  <SCORE.INTER.CONST>
1

>  <SCORE.INTER.POLAR>
0

>  <SCORE.INTER.ROT>
6

>  <SCORE.INTER.SOLV>
11.0651

>  <SCORE.INTER.VDW>
-14.0901

>  <SCORE.INTER.norm>
-0.135567

>  <SCORE.INTRA>
-4.06276

>  <SCORE.INTRA.DIHEDRAL>
-11.4346

>  <SCORE.INTRA.DIHEDRAL.0>
15.9129

>  <SCORE.INTRA.POLAR>
0

>  <SCORE.INTRA.POLAR.0>
0

>  <SCORE.INTRA.REPUL>
0

>  <SCORE.INTRA.REPUL.0>
0

>  <SCORE.INTRA.SOLV>
-1.10866

>  <SCORE.INTRA.SOLV.lig_0>
-75.7056

>  <SCORE.INTRA.VDW>
2.20884

>  <SCORE.INTRA.VDW.0>
-4.61812

>  <SCORE.INTRA.norm>
-0.131057

>  <SCORE.RESTR>
0

>  <SCORE.RESTR.CAVITY>
0

>  <SCORE.RESTR.norm>
0

>  <SCORE.SYSTEM>
0

>  <SCORE.SYSTEM.CONST>
0

>  <SCORE.SYSTEM.DIHEDRAL>
0

>  <SCORE.SYSTEM.SOLV>
0

>  <SCORE.SYSTEM.norm>
0

>  <SCORE.heavy>
31

>  <SCORE.norm>
-0.266624

>  <RMSD>
8.434

$$$$
ligand
 OpenBabel11021811493D
libRbt.so/2013.1/901 2013/11/27
 31 33  0  0  0  0  0  0  0  0999 V2000
   26.5142  -11.4210   -3.1610 C   0  0  2  0  0  0  0  0  0  0  0  0
   25.1524  -11.7561   -2.8617 O   0  0  0  0  0  0  0  0  0  0  0  0
   21.5791   -9.5624   -3.6415 C   0  0  2  0  0  0  0  0  0  0  0  0
   20.6189   -8.5114   -3.6053 N   0  0  0  0  0  0  0  0  0  0  0  0
   21.7875   -7.4566   -5.8095 C   0  0  2  0  0  0  0  0  0  0  0  0
   27.2922  -12.7657   -3.3028 C   0  0  2  0  0  0  0  0  0  0  0  0
   26.6576  -13.5735   -4.3425 N   0  0  0  0  0  0  0  0  0  0  0  0
   21.7757  -10.1353   -2.1880 C   0  0  0  0  0  0  0  0  0  0  0  0
   21.8177   -7.3930   -7.3605 C   0  0  2  0  0  0  0  0  0  0  0  0
   21.4758   -8.6616   -7.8704 O   0  0  0  0  0  0  0  0  0  0  0  0
   27.3288  -13.5245   -1.9205 C   0  0  0  0  0  0  0  0  0  0  0  0
   22.8431  -11.3034   -2.2322 C   0  0  2  0  0  0  0  0  0  0  0  0
   23.0339  -11.8423   -0.8701 N   0  0  0  0  0  0  0  0  0  0  0  0
   23.2723   -6.9645   -7.8053 C   0  0  1  0  0  0  0  0  0  0  0  0
   23.3566   -6.9112   -9.2923 N   0  0  0  0  0  0  0  0  0  0  0  0
   27.3592  -12.5492   -0.6881 C   0  0  0  0  0  0  0  0  0  0  0  0
   24.2120  -10.7302   -2.7972 C   0  0  2  0  0  0  0  0  0  0  0  0
   23.6194   -5.4973   -7.1910 C   0  0  1  0  0  0  0  0  0  0  0  0
   22.7439   -4.4912   -7.6384 O   0  0  0  0  0  0  0  0  0  0  0  0
   27.2642  -11.2206   -0.8458 C   0  0  1  0  0  0  0  0  0  0  0  0
   27.1379  -10.6215   -2.1203 O   0  0  0  0  0  0  0  0  0  0  0  0
   23.9836  -10.1469   -4.2389 C   0  0  2  0  0  0  0  0  0  0  0  0
   25.2152   -9.6241   -4.7334 O   0  0  0  0  0  0  0  0  0  0  0  0
   23.5200   -5.5646   -5.6355 C   0  0  0  0  0  0  0  0  0  0  0  0
   22.1746   -6.1240   -5.2186 O   0  0  0  0  0  0  0  0  0  0  0  0
   27.2758  -10.2358    0.3397 C   0  0  0  0  0  0  0  0  0  0  0  0
   28.3802   -9.3170    0.1711 N   0  0  0  0  0  0  0  0  0  0  0  0
   22.9115   -8.9944   -4.1732 C   0  0  1  0  0  0  0  0  0  0  0  0
   22.7211   -8.5029   -5.4675 O   0  0  0  0  0  0  0  0  0  0  0  0
   25.0069   -4.9387   -7.5374 C   0  0  0  0  0  0  0  0  0  0  0  0
   23.7607   -8.1558   -9.9642 C   0  0  0  0  0  0  0  0  0  0  0  0
  1  2  1  1  0  0  0
  1  6  1  0  0  0  0
  1 21  1  0  0  0  0
  3  4  1  1  0  0  0
  3  8  1  0  0  0  0
  3 28  1  0  0  0  0
  5  9  1  0  0  0  0
  5 25  1  0  0  0  0
  5 29  1  1  0  0  0
  6  7  1  6  0  0  0
  6 11  1  0  0  0  0
  8 12  1  0  0  0  0
  9 10  1  6  0  0  0
  9 14  1  0  0  0  0
 11 16  1  0  0  0  0
 12 13  1  1  0  0  0
 12 17  1  0  0  0  0
 14 15  1  6  0  0  0
 14 18  1  0  0  0  0
 15 31  1  0  0  0  0
 16 20  1  0  0  0  0
 17  2  1  6  0  0  0
 17 22  1  0  0  0  0
 18 19  1  6  0  0  0
 18 24  1  0  0  0  0
 18 30  1  0  0  0  0
 20 21  1  0  0  0  0
 20 26  1  1  0  0  0
 22 23  1  1  0  0  0
 22 28  1  0  0  0  0
 24 25  1  0  0  0  0
 26 27  1  0  0  0  0
 28 29  1  6  0  0  0
M  END
>  <CHROM.1>
-174.57639008,-173.25713196,-90.05930491,-171.09285559,121.38002511,59.47918517
24.24826174,-9.27395442,-4.36052468,-1.11918469,0.14098282,-0.91818673

>  <Name>
ligand

>  <RI>
0

>  <Rbt.Current_Directory>
/home/itssahil/PROJECTS/Mol_Feturizer/New_Systems/rnas/4F8V

>  <Rbt.Executable>
rbdock ($Id: //depot/dev/client3/rdock/2013.1/src/exe/rbdock.cxx#4 $)

>  <Rbt.Library>
libRbt.so (2013.1, Build901 2013/11/27)

>  <Rbt.Parameter_File>
/export/apps/rDock/src/rDock_2013.1_src/data/scripts/dock_solv.prm

>  <Rbt.Receptor>
prm/pocket_docking_6.prm

>  <SCORE>
-9.035

>  <SCORE.INTER>
-4.00766

>  <SCORE.INTER.CONST>
1

>  <SCORE.INTER.POLAR>
0

>  <SCORE.INTER.ROT>
6

>  <SCORE.INTER.SOLV>
10.9545

>  <SCORE.INTER.VDW>
-13.9233

>  <SCORE.INTER.norm>
-0.129279

>  <SCORE.INTRA>
-5.02734

>  <SCORE.INTRA.DIHEDRAL>
-12.8731

>  <SCORE.INTRA.DIHEDRAL.0>
15.9129

>  <SCORE.INTRA.POLAR>
0

>  <SCORE.INTRA.POLAR.0>
0

>  <SCORE.INTRA.REPUL>
0

>  <SCORE.INTRA.REPUL.0>
0

>  <SCORE.INTRA.SOLV>
-2.09456

>  <SCORE.INTRA.SOLV.lig_0>
-75.7056

>  <SCORE.INTRA.VDW>
2.45648

>  <SCORE.INTRA.VDW.0>
-4.61812

>  <SCORE.INTRA.norm>
-0.162172

>  <SCORE.RESTR>
0

>  <SCORE.RESTR.CAVITY>
0

>  <SCORE.RESTR.norm>
0

>  <SCORE.SYSTEM>
0

>  <SCORE.SYSTEM.CONST>
0

>  <SCORE.SYSTEM.DIHEDRAL>
0

>  <SCORE.SYSTEM.SOLV>
0

>  <SCORE.SYSTEM.norm>
0

>  <SCORE.heavy>
31

>  <SCORE.norm>
-0.291452

>  <RMSD>
8.450

$$$$
ligand
 OpenBabel11021811493D
libRbt.so/2013.1/901 2013/11/27
 31 33  0  0  0  0  0  0  0  0999 V2000
   25.8923  -12.9983   -2.7030 C   0  0  2  0  0  0  0  0  0  0  0  0
   24.7698  -12.1078   -2.7607 O   0  0  0  0  0  0  0  0  0  0  0  0
   24.1105   -8.4501   -4.8526 C   0  0  2  0  0  0  0  0  0  0  0  0
   23.9953   -7.5266   -5.9304 N   0  0  0  0  0  0  0  0  0  0  0  0
   20.6565   -9.9028   -5.4524 C   0  0  2  0  0  0  0  0  0  0  0  0
   25.3794  -14.3360   -2.0854 C   0  0  2  0  0  0  0  0  0  0  0  0
   24.2823  -14.8468   -2.9048 N   0  0  0  0  0  0  0  0  0  0  0  0
   25.5866   -8.9951   -4.7922 C   0  0  0  0  0  0  0  0  0  0  0  0
   19.8249   -9.0071   -6.4099 C   0  0  2  0  0  0  0  0  0  0  0  0
   20.6233   -8.6736   -7.5223 O   0  0  0  0  0  0  0  0  0  0  0  0
   24.9304  -14.1110   -0.5902 C   0  0  0  0  0  0  0  0  0  0  0  0
   25.7109  -10.0208   -3.5930 C   0  0  2  0  0  0  0  0  0  0  0  0
   27.0935  -10.5379   -3.5340 N   0  0  0  0  0  0  0  0  0  0  0  0
   19.3789   -7.7182   -5.6117 C   0  0  1  0  0  0  0  0  0  0  0  0
   18.5937   -6.8143   -6.4992 N   0  0  0  0  0  0  0  0  0  0  0  0
   25.7718  -13.0026    0.1408 C   0  0  0  0  0  0  0  0  0  0  0  0
   24.6846  -11.2104   -3.8231 C   0  0  2  0  0  0  0  0  0  0  0  0
   18.4629   -8.1559   -4.3389 C   0  0  1  0  0  0  0  0  0  0  0  0
   17.2866   -8.8307   -4.7124 O   0  0  0  0  0  0  0  0  0  0  0  0
   26.6983  -12.2846   -0.5113 C   0  0  1  0  0  0  0  0  0  0  0  0
   26.9761  -12.4840   -1.8833 O   0  0  0  0  0  0  0  0  0  0  0  0
   23.2229  -10.6374   -3.8998 C   0  0  2  0  0  0  0  0  0  0  0  0
   22.3095  -11.7112   -4.1181 O   0  0  0  0  0  0  0  0  0  0  0  0
   19.2931   -9.1074   -3.4227 C   0  0  0  0  0  0  0  0  0  0  0  0
   19.8483  -10.2629   -4.2310 O   0  0  0  0  0  0  0  0  0  0  0  0
   27.5312  -11.1808    0.1693 C   0  0  0  0  0  0  0  0  0  0  0  0
   27.0099   -9.8916   -0.2289 N   0  0  0  0  0  0  0  0  0  0  0  0
   23.1246   -9.6125   -5.0921 C   0  0  1  0  0  0  0  0  0  0  0  0
   21.8202   -9.1123   -5.1297 O   0  0  0  0  0  0  0  0  0  0  0  0
   17.9481   -7.0075   -3.4594 C   0  0  0  0  0  0  0  0  0  0  0  0
   18.8642   -5.3749   -6.3619 C   0  0  0  0  0  0  0  0  0  0  0  0
  1  2  1  1  0  0  0
  1  6  1  0  0  0  0
  1 21  1  0  0  0  0
  3  4  1  6  0  0  0
  3  8  1  0  0  0  0
  3 28  1  0  0  0  0
  5  9  1  0  0  0  0
  5 25  1  0  0  0  0
  5 29  1  1  0  0  0
  6  7  1  6  0  0  0
  6 11  1  0  0  0  0
  8 12  1  0  0  0  0
  9 10  1  6  0  0  0
  9 14  1  0  0  0  0
 11 16  1  0  0  0  0
 12 13  1  6  0  0  0
 12 17  1  0  0  0  0
 14 15  1  6  0  0  0
 14 18  1  0  0  0  0
 15 31  1  0  0  0  0
 16 20  1  0  0  0  0
 17  2  1  1  0  0  0
 17 22  1  0  0  0  0
 18 19  1  6  0  0  0
 18 24  1  0  0  0  0
 18 30  1  0  0  0  0
 20 21  1  0  0  0  0
 20 26  1  6  0  0  0
 22 23  1  6  0  0  0
 22 28  1  0  0  0  0
 24 25  1  0  0  0  0
 26 27  1  0  0  0  0
 28 29  1  1  0  0  0
M  END
>  <CHROM.1>
-145.79282964,-136.51184702,-139.61368904,-75.62136207,-103.62753186,174.31388937
22.91083235,-10.18067957,-3.76133336,0.70172832,0.09619762,2.53711955

>  <Name>
ligand

>  <RI>
0

>  <Rbt.Current_Directory>
/home/itssahil/PROJECTS/Mol_Feturizer/New_Systems/rnas/4F8V

>  <Rbt.Executable>
rbdock ($Id: //depot/dev/client3/rdock/2013.1/src/exe/rbdock.cxx#4 $)

>  <Rbt.Library>
libRbt.so (2013.1, Build901 2013/11/27)

>  <Rbt.Parameter_File>
/export/apps/rDock/src/rDock_2013.1_src/data/scripts/dock_solv.prm

>  <Rbt.Receptor>
prm/pocket_docking_5.prm

>  <SCORE>
-4.6108

>  <SCORE.INTER>
-6.35694

>  <SCORE.INTER.CONST>
1

>  <SCORE.INTER.POLAR>
0

>  <SCORE.INTER.ROT>
6

>  <SCORE.INTER.SOLV>
10.8081

>  <SCORE.INTER.VDW>
-15.4407

>  <SCORE.INTER.norm>
-0.205063

>  <SCORE.INTRA>
1.74615

>  <SCORE.INTRA.DIHEDRAL>
-1.36653

>  <SCORE.INTRA.DIHEDRAL.0>
15.9129

>  <SCORE.INTRA.POLAR>
0

>  <SCORE.INTRA.POLAR.0>
0

>  <SCORE.INTRA.REPUL>
0

>  <SCORE.INTRA.REPUL.0>
0

>  <SCORE.INTRA.SOLV>
1.96047

>  <SCORE.INTRA.SOLV.lig_0>
-75.7056

>  <SCORE.INTRA.VDW>
1.44918

>  <SCORE.INTRA.VDW.0>
-4.61812

>  <SCORE.INTRA.norm>
0.0563274

>  <SCORE.RESTR>
0

>  <SCORE.RESTR.CAVITY>
0

>  <SCORE.RESTR.norm>
0

>  <SCORE.SYSTEM>
0

>  <SCORE.SYSTEM.CONST>
0

>  <SCORE.SYSTEM.DIHEDRAL>
0

>  <SCORE.SYSTEM.SOLV>
0

>  <SCORE.SYSTEM.norm>
0

>  <SCORE.heavy>
31

>  <SCORE.norm>
-0.148735

>  <RMSD>
8.457

$$$$
ligand
 OpenBabel11021811493D
libRbt.so/2013.1/901 2013/11/27
 31 33  0  0  0  0  0  0  0  0999 V2000
   25.1492  -12.1615   -2.4103 C   0  0  2  0  0  0  0  0  0  0  0  0
   25.7662  -12.1281   -3.7044 O   0  0  0  0  0  0  0  0  0  0  0  0
   24.0874  -11.1640   -7.5045 C   0  0  2  0  0  0  0  0  0  0  0  0
   23.2484  -11.2316   -8.6532 N   0  0  0  0  0  0  0  0  0  0  0  0
   21.3960   -9.5991   -7.3011 C   0  0  2  0  0  0  0  0  0  0  0  0
   26.2937  -12.0322   -1.3581 C   0  0  2  0  0  0  0  0  0  0  0  0
   27.0327  -10.7967   -1.6105 N   0  0  0  0  0  0  0  0  0  0  0  0
   24.9304  -12.4899   -7.3995 C   0  0  0  0  0  0  0  0  0  0  0  0
   21.2369   -8.0565   -7.3746 C   0  0  2  0  0  0  0  0  0  0  0  0
   22.4690   -7.4943   -7.7648 O   0  0  0  0  0  0  0  0  0  0  0  0
   27.2371  -13.2948   -1.4185 C   0  0  0  0  0  0  0  0  0  0  0  0
   25.8618  -12.4110   -6.1220 C   0  0  2  0  0  0  0  0  0  0  0  0
   26.6527  -13.6542   -6.0168 N   0  0  0  0  0  0  0  0  0  0  0  0
   20.7925   -7.5410   -5.9484 C   0  0  1  0  0  0  0  0  0  0  0  0
   20.6481   -6.0577   -5.9638 N   0  0  0  0  0  0  0  0  0  0  0  0
   26.4739  -14.6100   -1.8168 C   0  0  0  0  0  0  0  0  0  0  0  0
   24.9543  -12.2216   -4.8328 C   0  0  2  0  0  0  0  0  0  0  0  0
   19.3687   -8.2189   -5.5438 C   0  0  1  0  0  0  0  0  0  0  0  0
   18.3304   -7.8944   -6.4356 O   0  0  0  0  0  0  0  0  0  0  0  0
   25.1759  -14.5898   -2.1546 C   0  0  1  0  0  0  0  0  0  0  0  0
   24.4204  -13.3947   -2.1670 O   0  0  0  0  0  0  0  0  0  0  0  0
   24.1094  -10.9036   -4.9724 C   0  0  2  0  0  0  0  0  0  0  0  0
   23.2893  -10.7479   -3.8157 O   0  0  0  0  0  0  0  0  0  0  0  0
   19.5314   -9.7705   -5.5390 C   0  0  0  0  0  0  0  0  0  0  0  0
   20.1054  -10.2427   -6.8597 O   0  0  0  0  0  0  0  0  0  0  0  0
   24.3996  -15.8566   -2.5643 C   0  0  0  0  0  0  0  0  0  0  0  0
   23.9992  -15.7303   -3.9485 N   0  0  0  0  0  0  0  0  0  0  0  0
   23.1985  -10.9993   -6.2542 C   0  0  1  0  0  0  0  0  0  0  0  0
   22.4684   -9.8123   -6.3589 O   0  0  0  0  0  0  0  0  0  0  0  0
   18.8002   -7.8139   -4.1763 C   0  0  0  0  0  0  0  0  0  0  0  0
   21.8989   -5.2838   -5.9434 C   0  0  0  0  0  0  0  0  0  0  0  0
  1  2  1  6  0  0  0
  1  6  1  0  0  0  0
  1 21  1  0  0  0  0
  3  4  1  6  0  0  0
  3  8  1  0  0  0  0
  3 28  1  0  0  0  0
  5  9  1  0  0  0  0
  5 25  1  0  0  0  0
  5 29  1  1  0  0  0
  6  7  1  6  0  0  0
  6 11  1  0  0  0  0
  8 12  1  0  0  0  0
  9 10  1  1  0  0  0
  9 14  1  0  0  0  0
 11 16  1  0  0  0  0
 12 13  1  1  0  0  0
 12 17  1  0  0  0  0
 14 15  1  6  0  0  0
 14 18  1  0  0  0  0
 15 31  1  0  0  0  0
 16 20  1  0  0  0  0
 17  2  1  1  0  0  0
 17 22  1  0  0  0  0
 18 19  1  6  0  0  0
 18 24  1  0  0  0  0
 18 30  1  0  0  0  0
 20 21  1  0  0  0  0
 20 26  1  6  0  0  0
 22 23  1  1  0  0  0
 22 28  1  0  0  0  0
 24 25  1  0  0  0  0
 26 27  1  0  0  0  0
 28 29  1  6  0  0  0
M  END
>  <CHROM.1>
-179.73888312,-161.47292895,-75.85429024,-170.45907538,-114.95289141,69.64300895
23.29527216,-10.87709876,-4.97018219,0.34495907,-0.85168616,1.46361396

>  <Name>
ligand

>  <RI>
0

>  <Rbt.Current_Directory>
/home/itssahil/PROJECTS/Mol_Feturizer/New_Systems/rnas/4F8V

>  <Rbt.Executable>
rbdock ($Id: //depot/dev/client3/rdock/2013.1/src/exe/rbdock.cxx#4 $)

>  <Rbt.Library>
libRbt.so (2013.1, Build901 2013/11/27)

>  <Rbt.Parameter_File>
/export/apps/rDock/src/rDock_2013.1_src/data/scripts/dock_solv.prm

>  <Rbt.Receptor>
prm/pocket_docking_8.prm

>  <SCORE>
-11.8523

>  <SCORE.INTER>
-8.19355

>  <SCORE.INTER.CONST>
1

>  <SCORE.INTER.POLAR>
0

>  <SCORE.INTER.ROT>
6

>  <SCORE.INTER.SOLV>
9.0703

>  <SCORE.INTER.VDW>
-16.0858

>  <SCORE.INTER.norm>
-0.264308

>  <SCORE.INTRA>
-3.65879

>  <SCORE.INTRA.DIHEDRAL>
-11.5463

>  <SCORE.INTRA.DIHEDRAL.0>
15.9129

>  <SCORE.INTRA.POLAR>
0

>  <SCORE.INTRA.POLAR.0>
0

>  <SCORE.INTRA.REPUL>
0

>  <SCORE.INTRA.REPUL.0>
0

>  <SCORE.INTRA.SOLV>
-0.385465

>  <SCORE.INTRA.SOLV.lig_0>
-75.7056

>  <SCORE.INTRA.VDW>
2.3071

>  <SCORE.INTRA.VDW.0>
-4.61812

>  <SCORE.INTRA.norm>
-0.118025

>  <SCORE.RESTR>
0

>  <SCORE.RESTR.CAVITY>
0

>  <SCORE.RESTR.norm>
0

>  <SCORE.SYSTEM>
0

>  <SCORE.SYSTEM.CONST>
0

>  <SCORE.SYSTEM.DIHEDRAL>
0

>  <SCORE.SYSTEM.SOLV>
0

>  <SCORE.SYSTEM.norm>
0

>  <SCORE.heavy>
31

>  <SCORE.norm>
-0.382333

>  <RMSD>
8.466

$$$$
ligand
 OpenBabel11021811493D
libRbt.so/2013.1/901 2013/11/27
 31 33  0  0  0  0  0  0  0  0999 V2000
   23.7506  -14.2409   -2.0122 C   0  0  2  0  0  0  0  0  0  0  0  0
   23.5944  -13.0122   -2.7349 O   0  0  0  0  0  0  0  0  0  0  0  0
   22.3087  -12.2948   -6.7375 C   0  0  2  0  0  0  0  0  0  0  0  0
   21.4674  -12.2513   -7.8857 N   0  0  0  0  0  0  0  0  0  0  0  0
   20.6152   -9.7392   -7.0815 C   0  0  2  0  0  0  0  0  0  0  0  0
   23.1533  -14.0102   -0.5896 C   0  0  2  0  0  0  0  0  0  0  0  0
   21.7582  -13.5952   -0.7225 N   0  0  0  0  0  0  0  0  0  0  0  0
   22.5087  -13.7935   -6.2977 C   0  0  0  0  0  0  0  0  0  0  0  0
   20.8900   -8.2183   -7.2291 C   0  0  2  0  0  0  0  0  0  0  0  0
   22.2637   -8.0309   -7.4826 O   0  0  0  0  0  0  0  0  0  0  0  0
   24.0051  -12.9383    0.1936 C   0  0  0  0  0  0  0  0  0  0  0  0
   23.4444  -13.8379   -5.0218 C   0  0  2  0  0  0  0  0  0  0  0  0
   23.6327  -15.2419   -4.6028 N   0  0  0  0  0  0  0  0  0  0  0  0
   20.4479   -7.5078   -5.8886 C   0  0  1  0  0  0  0  0  0  0  0  0
   20.7142   -6.0440   -5.9746 N   0  0  0  0  0  0  0  0  0  0  0  0
   25.5292  -12.9695   -0.1896 C   0  0  0  0  0  0  0  0  0  0  0  0
   22.7674  -12.9986   -3.8561 C   0  0  2  0  0  0  0  0  0  0  0  0
   18.8579   -7.7546   -5.6405 C   0  0  1  0  0  0  0  0  0  0  0  0
   18.0517   -7.2275   -6.6656 O   0  0  0  0  0  0  0  0  0  0  0  0
   25.9902  -13.7756   -1.1576 C   0  0  1  0  0  0  0  0  0  0  0  0
   25.1406  -14.6434   -1.8818 O   0  0  0  0  0  0  0  0  0  0  0  0
   22.5607  -11.5135   -4.3279 C   0  0  2  0  0  0  0  0  0  0  0  0
   21.9418  -10.7705   -3.2793 O   0  0  0  0  0  0  0  0  0  0  0  0
   18.5916   -9.2897   -5.5603 C   0  0  0  0  0  0  0  0  0  0  0  0
   19.1578   -9.9858   -6.7816 O   0  0  0  0  0  0  0  0  0  0  0  0
   27.4746  -13.8221   -1.5695 C   0  0  0  0  0  0  0  0  0  0  0  0
   27.6181  -13.1957   -2.8655 N   0  0  0  0  0  0  0  0  0  0  0  0
   21.6361  -11.4937   -5.6033 C   0  0  1  0  0  0  0  0  0  0  0  0
   21.4787  -10.1648   -6.0061 O   0  0  0  0  0  0  0  0  0  0  0  0
   18.2735   -7.1214   -4.3697 C   0  0  0  0  0  0  0  0  0  0  0  0
   22.1050   -5.6230   -5.7459 C   0  0  0  0  0  0  0  0  0  0  0  0
  1  2  1  6  0  0  0
  1  6  1  0  0  0  0
  1 21  1  0  0  0  0
  3  4  1  6  0  0  0
  3  8  1  0  0  0  0
  3 28  1  0  0  0  0
  5  9  1  0  0  0  0
  5 25  1  0  0  0  0
  5 29  1  1  0  0  0
  6  7  1  6  0  0  0
  6 11  1  0  0  0  0
  8 12  1  0  0  0  0
  9 10  1  1  0  0  0
  9 14  1  0  0  0  0
 11 16  1  0  0  0  0
 12 13  1  1  0  0  0
 12 17  1  0  0  0  0
 14 15  1  6  0  0  0
 14 18  1  0  0  0  0
 15 31  1  0  0  0  0
 16 20  1  0  0  0  0
 17  2  1  1  0  0  0
 17 22  1  0  0  0  0
 18 19  1  6  0  0  0
 18 24  1  0  0  0  0
 18 30  1  0  0  0  0
 20 21  1  0  0  0  0
 20 26  1  6  0  0  0
 22 23  1  1  0  0  0
 22 28  1  0  0  0  0
 24 25  1  0  0  0  0
 26 27  1  0  0  0  0
 28 29  1  6  0  0  0
M  END
>  <CHROM.1>
-115.81558429,-174.64630918,-79.39985422,-69.61202804,-108.00261572,65.78350373
22.29434924,-11.15499824,-4.38626957,0.00728708,-0.97957625,0.92915427

>  <Name>
ligand

>  <RI>
0

>  <Rbt.Current_Directory>
/home/itssahil/PROJECTS/Mol_Feturizer/New_Systems/rnas/4F8V

>  <Rbt.Executable>
rbdock ($Id: //depot/dev/client3/rdock/2013.1/src/exe/rbdock.cxx#4 $)

>  <Rbt.Library>
libRbt.so (2013.1, Build901 2013/11/27)

>  <Rbt.Parameter_File>
/export/apps/rDock/src/rDock_2013.1_src/data/scripts/dock_solv.prm

>  <Rbt.Receptor>
prm/pocket_docking_4.prm

>  <SCORE>
-9.37423

>  <SCORE.INTER>
-8.77912

>  <SCORE.INTER.CONST>
1

>  <SCORE.INTER.POLAR>
0

>  <SCORE.INTER.ROT>
6

>  <SCORE.INTER.SOLV>
16.1969

>  <SCORE.INTER.VDW>
-18.8517

>  <SCORE.INTER.norm>
-0.283197

>  <SCORE.INTRA>
-0.59511

>  <SCORE.INTRA.DIHEDRAL>
-5.89716

>  <SCORE.INTRA.DIHEDRAL.0>
15.9129

>  <SCORE.INTRA.POLAR>
0

>  <SCORE.INTRA.POLAR.0>
0

>  <SCORE.INTRA.REPUL>
0

>  <SCORE.INTRA.REPUL.0>
0

>  <SCORE.INTRA.SOLV>
0.157181

>  <SCORE.INTRA.SOLV.lig_0>
-75.7056

>  <SCORE.INTRA.VDW>
2.27488

>  <SCORE.INTRA.VDW.0>
-4.61812

>  <SCORE.INTRA.norm>
-0.0191971

>  <SCORE.RESTR>
0

>  <SCORE.RESTR.CAVITY>
0

>  <SCORE.RESTR.norm>
0

>  <SCORE.SYSTEM>
0

>  <SCORE.SYSTEM.CONST>
0

>  <SCORE.SYSTEM.DIHEDRAL>
0

>  <SCORE.SYSTEM.SOLV>
0

>  <SCORE.SYSTEM.norm>
0

>  <SCORE.heavy>
31

>  <SCORE.norm>
-0.302394

>  <RMSD>
8.475

$$$$
ligand
 OpenBabel11021811493D
libRbt.so/2013.1/901 2013/11/27
 31 33  0  0  0  0  0  0  0  0999 V2000
   23.8134  -14.7095   -2.5098 C   0  0  2  0  0  0  0  0  0  0  0  0
   23.9205  -13.5330   -3.3227 O   0  0  0  0  0  0  0  0  0  0  0  0
   22.1475  -12.7290   -7.1173 C   0  0  2  0  0  0  0  0  0  0  0  0
   21.1529  -12.4541   -8.0987 N   0  0  0  0  0  0  0  0  0  0  0  0
   21.4727   -9.7045   -7.5378 C   0  0  2  0  0  0  0  0  0  0  0  0
   22.9341  -14.3318   -1.2778 C   0  0  2  0  0  0  0  0  0  0  0  0
   21.6413  -13.8404   -1.7505 N   0  0  0  0  0  0  0  0  0  0  0  0
   21.8574  -14.1321   -6.4640 C   0  0  0  0  0  0  0  0  0  0  0  0
   22.3673   -8.6770   -8.2825 C   0  0  2  0  0  0  0  0  0  0  0  0
   23.4117   -9.3712   -8.9256 O   0  0  0  0  0  0  0  0  0  0  0  0
   23.6721  -13.2588   -0.3879 C   0  0  0  0  0  0  0  0  0  0  0  0
   22.9649  -14.4343   -5.3742 C   0  0  2  0  0  0  0  0  0  0  0  0
   22.6955  -15.7485   -4.7556 N   0  0  0  0  0  0  0  0  0  0  0  0
   22.9253   -7.6507   -7.2183 C   0  0  1  0  0  0  0  0  0  0  0  0
   23.8107   -6.6544   -7.8851 N   0  0  0  0  0  0  0  0  0  0  0  0
   25.2359  -13.4165   -0.4107 C   0  0  0  0  0  0  0  0  0  0  0  0
   22.9335  -13.2886   -4.2752 C   0  0  2  0  0  0  0  0  0  0  0  0
   21.6831   -6.8777   -6.5040 C   0  0  1  0  0  0  0  0  0  0  0  0
   20.8993   -6.1396   -7.4093 O   0  0  0  0  0  0  0  0  0  0  0  0
   25.8356  -14.3228   -1.1969 C   0  0  1  0  0  0  0  0  0  0  0  0
   25.1027  -15.1882   -2.0414 O   0  0  0  0  0  0  0  0  0  0  0  0
   23.2052  -11.8981   -4.9560 C   0  0  2  0  0  0  0  0  0  0  0  0
   23.1635  -10.8743   -3.9637 O   0  0  0  0  0  0  0  0  0  0  0  0
   20.7605   -7.9316   -5.8170 C   0  0  0  0  0  0  0  0  0  0  0  0
   20.3540   -9.0013   -6.8106 O   0  0  0  0  0  0  0  0  0  0  0  0
   27.3660  -14.4953   -1.2558 C   0  0  0  0  0  0  0  0  0  0  0  0
   27.9093  -13.5218   -2.1773 N   0  0  0  0  0  0  0  0  0  0  0  0
   22.0986  -11.6226   -6.0429 C   0  0  1  0  0  0  0  0  0  0  0  0
   22.3708  -10.3878   -6.6379 O   0  0  0  0  0  0  0  0  0  0  0  0
   22.0652   -5.8401   -5.4388 C   0  0  0  0  0  0  0  0  0  0  0  0
   25.2367   -7.0060   -7.9668 C   0  0  0  0  0  0  0  0  0  0  0  0
  1  2  1  6  0  0  0
  1  6  1  0  0  0  0
  1 21  1  0  0  0  0
  3  4  1  6  0  0  0
  3  8  1  0  0  0  0
  3 28  1  0  0  0  0
  5  9  1  0  0  0  0
  5 25  1  0  0  0  0
  5 29  1  1  0  0  0
  6  7  1  6  0  0  0
  6 11  1  0  0  0  0
  8 12  1  0  0  0  0
  9 10  1  1  0  0  0
  9 14  1  0  0  0  0
 11 16  1  0  0  0  0
 12 13  1  1  0  0  0
 12 17  1  0  0  0  0
 14 15  1  6  0  0  0
 14 18  1  0  0  0  0
 15 31  1  0  0  0  0
 16 20  1  0  0  0  0
 17  2  1  1  0  0  0
 17 22  1  0  0  0  0
 18 19  1  6  0  0  0
 18 24  1  0  0  0  0
 18 30  1  0  0  0  0
 20 21  1  0  0  0  0
 20 26  1  6  0  0  0
 22 23  1  1  0  0  0
 22 28  1  0  0  0  0
 24 25  1  0  0  0  0
 26 27  1  0  0  0  0
 28 29  1  6  0  0  0
M  END
>  <CHROM.1>
-87.18982566,-161.51746783,-89.90107431,-64.43921216,-83.65525491,70.45008583
23.13013071,-11.34388508,-4.97955511,1.13762966,0.83570063,2.78459231

>  <Name>
ligand

>  <RI>
0

>  <Rbt.Current_Directory>
/home/itssahil/PROJECTS/Mol_Feturizer/New_Systems/rnas/4F8V

>  <Rbt.Executable>
rbdock ($Id: //depot/dev/client3/rdock/2013.1/src/exe/rbdock.cxx#4 $)

>  <Rbt.Library>
libRbt.so (2013.1, Build901 2013/11/27)

>  <Rbt.Parameter_File>
/export/apps/rDock/src/rDock_2013.1_src/data/scripts/dock_solv.prm

>  <Rbt.Receptor>
prm/pocket_docking_5.prm

>  <SCORE>
-5.90404

>  <SCORE.INTER>
-5.48908

>  <SCORE.INTER.CONST>
1

>  <SCORE.INTER.POLAR>
0

>  <SCORE.INTER.ROT>
6

>  <SCORE.INTER.SOLV>
15.4063

>  <SCORE.INTER.VDW>
-16.3948

>  <SCORE.INTER.norm>
-0.177067

>  <SCORE.INTRA>
-0.41496

>  <SCORE.INTRA.DIHEDRAL>
-7.10577

>  <SCORE.INTRA.DIHEDRAL.0>
15.9129

>  <SCORE.INTRA.POLAR>
0

>  <SCORE.INTRA.POLAR.0>
0

>  <SCORE.INTRA.REPUL>
0

>  <SCORE.INTRA.REPUL.0>
0

>  <SCORE.INTRA.SOLV>
1.47813

>  <SCORE.INTRA.SOLV.lig_0>
-75.7056

>  <SCORE.INTRA.VDW>
2.39886

>  <SCORE.INTRA.VDW.0>
-4.61812

>  <SCORE.INTRA.norm>
-0.0133858

>  <SCORE.RESTR>
0

>  <SCORE.RESTR.CAVITY>
0

>  <SCORE.RESTR.norm>
0

>  <SCORE.SYSTEM>
0

>  <SCORE.SYSTEM.CONST>
0

>  <SCORE.SYSTEM.DIHEDRAL>
0

>  <SCORE.SYSTEM.SOLV>
0

>  <SCORE.SYSTEM.norm>
0

>  <SCORE.heavy>
31

>  <SCORE.norm>
-0.190453

>  <RMSD>
8.480

$$$$
ligand
 OpenBabel11021811493D
libRbt.so/2013.1/901 2013/11/27
 31 33  0  0  0  0  0  0  0  0999 V2000
   25.3843  -11.9736   -2.4241 C   0  0  2  0  0  0  0  0  0  0  0  0
   25.9428  -12.0532   -3.7425 O   0  0  0  0  0  0  0  0  0  0  0  0
   24.2012  -11.2566   -7.5531 C   0  0  2  0  0  0  0  0  0  0  0  0
   23.3096  -11.3375   -8.6605 N   0  0  0  0  0  0  0  0  0  0  0  0
   21.7462   -9.3928   -7.4564 C   0  0  2  0  0  0  0  0  0  0  0  0
   26.5818  -11.8870   -1.4280 C   0  0  2  0  0  0  0  0  0  0  0  0
   27.4042  -10.7296   -1.7744 N   0  0  0  0  0  0  0  0  0  0  0  0
   24.9124  -12.6478   -7.3574 C   0  0  0  0  0  0  0  0  0  0  0  0
   21.5886   -7.8482   -7.4638 C   0  0  2  0  0  0  0  0  0  0  0  0
   22.8360   -7.2693   -7.7725 O   0  0  0  0  0  0  0  0  0  0  0  0
   27.4184  -13.2238   -1.4615 C   0  0  0  0  0  0  0  0  0  0  0  0
   25.9028  -12.5539   -6.1261 C   0  0  2  0  0  0  0  0  0  0  0  0
   26.5704  -13.8579   -5.9359 N   0  0  0  0  0  0  0  0  0  0  0  0
   21.0814   -7.4003   -6.0358 C   0  0  1  0  0  0  0  0  0  0  0  0
   20.9360   -5.9179   -5.9874 N   0  0  0  0  0  0  0  0  0  0  0  0
   26.5360  -14.4902   -1.7593 C   0  0  0  0  0  0  0  0  0  0  0  0
   25.0765  -12.1609   -4.8283 C   0  0  2  0  0  0  0  0  0  0  0  0
   19.6420   -8.0954   -5.7266 C   0  0  1  0  0  0  0  0  0  0  0  0
   18.6435   -7.7281   -6.6468 O   0  0  0  0  0  0  0  0  0  0  0  0
   25.2298  -14.3807   -2.0440 C   0  0  1  0  0  0  0  0  0  0  0  0
   24.5717  -13.1300   -2.0873 O   0  0  0  0  0  0  0  0  0  0  0  0
   24.3610  -10.7802   -5.0576 C   0  0  2  0  0  0  0  0  0  0  0  0
   23.6124  -10.4410   -3.8917 O   0  0  0  0  0  0  0  0  0  0  0  0
   19.8062   -9.6455   -5.7880 C   0  0  0  0  0  0  0  0  0  0  0  0
   20.4382  -10.0554   -7.1030 O   0  0  0  0  0  0  0  0  0  0  0  0
   24.3378  -15.5984   -2.3550 C   0  0  0  0  0  0  0  0  0  0  0  0
   23.1113  -15.4830   -1.5969 N   0  0  0  0  0  0  0  0  0  0  0  0
   23.3893  -10.8932   -6.2924 C   0  0  1  0  0  0  0  0  0  0  0  0
   22.7764   -9.6512   -6.4790 O   0  0  0  0  0  0  0  0  0  0  0  0
   19.0135   -7.7549   -4.3678 C   0  0  0  0  0  0  0  0  0  0  0  0
   22.1821   -5.1478   -5.8529 C   0  0  0  0  0  0  0  0  0  0  0  0
  1  2  1  6  0  0  0
  1  6  1  0  0  0  0
  1 21  1  0  0  0  0
  3  4  1  6  0  0  0
  3  8  1  0  0  0  0
  3 28  1  0  0  0  0
  5  9  1  0  0  0  0
  5 25  1  0  0  0  0
  5 29  1  1  0  0  0
  6  7  1  6  0  0  0
  6 11  1  0  0  0  0
  8 12  1  0  0  0  0
  9 10  1  1  0  0  0
  9 14  1  0  0  0  0
 11 16  1  0  0  0  0
 12 13  1  1  0  0  0
 12 17  1  0  0  0  0
 14 15  1  6  0  0  0
 14 18  1  0  0  0  0
 15 31  1  0  0  0  0
 16 20  1  0  0  0  0
 17  2  1  1  0  0  0
 17 22  1  0  0  0  0
 18 19  1  6  0  0  0
 18 24  1  0  0  0  0
 18 30  1  0  0  0  0
 20 21  1  0  0  0  0
 20 26  1  6  0  0  0
 22 23  1  1  0  0  0
 22 28  1  0  0  0  0
 24 25  1  0  0  0  0
 26 27  1  0  0  0  0
 28 29  1  6  0  0  0
M  END
>  <CHROM.1>
179.04174803,-169.58368331,-76.84000606,-167.56863634,133.38191284,65.64871249
23.46609946,-10.76404310,-4.94321978,0.56823178,-0.80318950,1.69742312

>  <Name>
ligand

>  <RI>
0

>  <Rbt.Current_Directory>
/home/itssahil/PROJECTS/Mol_Feturizer/New_Systems/rnas/4F8V

>  <Rbt.Executable>
rbdock ($Id: //depot/dev/client3/rdock/2013.1/src/exe/rbdock.cxx#4 $)

>  <Rbt.Library>
libRbt.so (2013.1, Build901 2013/11/27)

>  <Rbt.Parameter_File>
/export/apps/rDock/src/rDock_2013.1_src/data/scripts/dock_solv.prm

>  <Rbt.Receptor>
prm/pocket_docking_8.prm

>  <SCORE>
-10.7678

>  <SCORE.INTER>
-6.12959

>  <SCORE.INTER.CONST>
1

>  <SCORE.INTER.POLAR>
0

>  <SCORE.INTER.ROT>
6

>  <SCORE.INTER.SOLV>
13.9436

>  <SCORE.INTER.VDW>
-16.3342

>  <SCORE.INTER.norm>
-0.197729

>  <SCORE.INTRA>
-4.63817

>  <SCORE.INTRA.DIHEDRAL>
-12.3645

>  <SCORE.INTRA.DIHEDRAL.0>
15.9129

>  <SCORE.INTRA.POLAR>
0

>  <SCORE.INTRA.POLAR.0>
0

>  <SCORE.INTRA.REPUL>
0

>  <SCORE.INTRA.REPUL.0>
0

>  <SCORE.INTRA.SOLV>
-1.89562

>  <SCORE.INTRA.SOLV.lig_0>
-75.7056

>  <SCORE.INTRA.VDW>
2.49191

>  <SCORE.INTRA.VDW.0>
-4.61812

>  <SCORE.INTRA.norm>
-0.149618

>  <SCORE.RESTR>
0

>  <SCORE.RESTR.CAVITY>
0

>  <SCORE.RESTR.norm>
0

>  <SCORE.SYSTEM>
0

>  <SCORE.SYSTEM.CONST>
0

>  <SCORE.SYSTEM.DIHEDRAL>
0

>  <SCORE.SYSTEM.SOLV>
0

>  <SCORE.SYSTEM.norm>
0

>  <SCORE.heavy>
31

>  <SCORE.norm>
-0.347347

>  <RMSD>
8.489

$$$$
ligand
 OpenBabel11021811493D
libRbt.so/2013.1/901 2013/11/27
 31 33  0  0  0  0  0  0  0  0999 V2000
   24.8513  -12.1795   -2.1534 C   0  0  2  0  0  0  0  0  0  0  0  0
   25.4865  -11.9596   -3.4202 O   0  0  0  0  0  0  0  0  0  0  0  0
   23.9074  -11.0121   -7.2669 C   0  0  2  0  0  0  0  0  0  0  0  0
   23.1138  -11.0978   -8.4462 N   0  0  0  0  0  0  0  0  0  0  0  0
   21.1285   -9.5717   -7.1227 C   0  0  2  0  0  0  0  0  0  0  0  0
   25.9518  -12.0185   -1.0595 C   0  0  2  0  0  0  0  0  0  0  0  0
   26.5493  -10.6901   -1.1797 N   0  0  0  0  0  0  0  0  0  0  0  0
   24.7996  -12.3042   -7.1474 C   0  0  0  0  0  0  0  0  0  0  0  0
   20.9798   -8.0339   -7.2763 C   0  0  2  0  0  0  0  0  0  0  0  0
   22.2176   -7.5002   -7.6878 O   0  0  0  0  0  0  0  0  0  0  0  0
   27.0347  -13.1564   -1.2019 C   0  0  0  0  0  0  0  0  0  0  0  0
   25.6805  -12.2053   -5.8360 C   0  0  2  0  0  0  0  0  0  0  0  0
   26.5172  -13.4169   -5.7171 N   0  0  0  0  0  0  0  0  0  0  0  0
   20.5311   -7.4430   -5.8810 C   0  0  1  0  0  0  0  0  0  0  0  0
   20.3963   -5.9617   -5.9734 N   0  0  0  0  0  0  0  0  0  0  0  0
   26.4355  -14.5074   -1.7373 C   0  0  0  0  0  0  0  0  0  0  0  0
   24.7202  -12.0704   -4.5784 C   0  0  2  0  0  0  0  0  0  0  0  0
   19.1008   -8.0904   -5.4502 C   0  0  1  0  0  0  0  0  0  0  0  0
   18.0694   -7.8057   -6.3635 O   0  0  0  0  0  0  0  0  0  0  0  0
   25.1509  -14.6025   -2.1114 C   0  0  1  0  0  0  0  0  0  0  0  0
   24.2638  -13.5036   -2.0417 O   0  0  0  0  0  0  0  0  0  0  0  0
   23.8277  -10.7858   -4.7327 C   0  0  2  0  0  0  0  0  0  0  0  0
   22.9608  -10.6793   -3.6049 O   0  0  0  0  0  0  0  0  0  0  0  0
   19.2533   -9.6407   -5.3649 C   0  0  0  0  0  0  0  0  0  0  0  0
   19.8314  -10.1838   -6.6562 O   0  0  0  0  0  0  0  0  0  0  0  0
   24.5333  -15.9061   -2.6542 C   0  0  0  0  0  0  0  0  0  0  0  0
   25.3952  -16.4341   -3.6890 N   0  0  0  0  0  0  0  0  0  0  0  0
   22.9682  -10.9006   -6.0479 C   0  0  1  0  0  0  0  0  0  0  0  0
   22.1944   -9.7428   -6.1646 O   0  0  0  0  0  0  0  0  0  0  0  0
   18.5275   -7.6122   -4.1086 C   0  0  0  0  0  0  0  0  0  0  0  0
   21.6523   -5.1988   -6.0393 C   0  0  0  0  0  0  0  0  0  0  0  0
  1  2  1  6  0  0  0
  1  6  1  0  0  0  0
  1 21  1  0  0  0  0
  3  4  1  6  0  0  0
  3  8  1  0  0  0  0
  3 28  1  0  0  0  0
  5  9  1  0  0  0  0
  5 25  1  0  0  0  0
  5 29  1  1  0  0  0
  6  7  1  6  0  0  0
  6 11  1  0  0  0  0
  8 12  1  0  0  0  0
  9 10  1  1  0  0  0
  9 14  1  0  0  0  0
 11 16  1  0  0  0  0
 12 13  1  1  0  0  0
 12 17  1  0  0  0  0
 14 15  1  6  0  0  0
 14 18  1  0  0  0  0
 15 31  1  0  0  0  0
 16 20  1  0  0  0  0
 17  2  1  1  0  0  0
 17 22  1  0  0  0  0
 18 19  1  6  0  0  0
 18 24  1  0  0  0  0
 18 30  1  0  0  0  0
 20 21  1  0  0  0  0
 20 26  1  6  0  0  0
 22 23  1  1  0  0  0
 22 28  1  0  0  0  0
 24 25  1  0  0  0  0
 26 27  1  0  0  0  0
 28 29  1  6  0  0  0
M  END
>  <CHROM.1>
178.84699253,-157.56201572,-73.52119738,-163.80582794,-49.21796923,71.11680639
23.12314673,-10.81372361,-4.80310149,0.32711367,-0.85233349,1.44728852

>  <Name>
ligand

>  <RI>
0

>  <Rbt.Current_Directory>
/home/itssahil/PROJECTS/Mol_Feturizer/New_Systems/rnas/4F8V

>  <Rbt.Executable>
rbdock ($Id: //depot/dev/client3/rdock/2013.1/src/exe/rbdock.cxx#4 $)

>  <Rbt.Library>
libRbt.so (2013.1, Build901 2013/11/27)

>  <Rbt.Parameter_File>
/export/apps/rDock/src/rDock_2013.1_src/data/scripts/dock_solv.prm

>  <Rbt.Receptor>
prm/pocket_docking_5.prm

>  <SCORE>
-10.4664

>  <SCORE.INTER>
-8.40984

>  <SCORE.INTER.CONST>
1

>  <SCORE.INTER.POLAR>
0

>  <SCORE.INTER.ROT>
6

>  <SCORE.INTER.SOLV>
13.0046

>  <SCORE.INTER.VDW>
-17.5414

>  <SCORE.INTER.norm>
-0.271285

>  <SCORE.INTRA>
-2.05655

>  <SCORE.INTRA.DIHEDRAL>
-8.28706

>  <SCORE.INTRA.DIHEDRAL.0>
15.9129

>  <SCORE.INTRA.POLAR>
0

>  <SCORE.INTRA.POLAR.0>
0

>  <SCORE.INTRA.REPUL>
0

>  <SCORE.INTRA.REPUL.0>
0

>  <SCORE.INTRA.SOLV>
-0.716648

>  <SCORE.INTRA.SOLV.lig_0>
-75.7056

>  <SCORE.INTRA.VDW>
2.4453

>  <SCORE.INTRA.VDW.0>
-4.61812

>  <SCORE.INTRA.norm>
-0.0663404

>  <SCORE.RESTR>
0

>  <SCORE.RESTR.CAVITY>
0

>  <SCORE.RESTR.norm>
0

>  <SCORE.SYSTEM>
0

>  <SCORE.SYSTEM.CONST>
0

>  <SCORE.SYSTEM.DIHEDRAL>
0

>  <SCORE.SYSTEM.SOLV>
0

>  <SCORE.SYSTEM.norm>
0

>  <SCORE.heavy>
31

>  <SCORE.norm>
-0.337626

>  <RMSD>
8.516

$$$$
ligand
 OpenBabel11021811493D
libRbt.so/2013.1/901 2013/11/27
 31 33  0  0  0  0  0  0  0  0999 V2000
   24.7548  -13.6540   -2.3585 C   0  0  2  0  0  0  0  0  0  0  0  0
   24.1101  -12.4451   -2.7821 O   0  0  0  0  0  0  0  0  0  0  0  0
   22.1650  -12.0563   -6.5575 C   0  0  2  0  0  0  0  0  0  0  0  0
   21.1445  -12.1101   -7.5493 N   0  0  0  0  0  0  0  0  0  0  0  0
   20.4973   -9.5693   -6.9253 C   0  0  2  0  0  0  0  0  0  0  0  0
   25.2255  -13.4267   -0.8886 C   0  0  2  0  0  0  0  0  0  0  0  0
   24.0677  -13.0754   -0.0688 N   0  0  0  0  0  0  0  0  0  0  0  0
   22.4657  -13.5140   -6.0434 C   0  0  0  0  0  0  0  0  0  0  0  0
   20.6802   -8.0476   -7.1736 C   0  0  2  0  0  0  0  0  0  0  0  0
   22.0304   -7.8025   -7.4951 O   0  0  0  0  0  0  0  0  0  0  0  0
   26.3342  -12.3060   -0.8368 C   0  0  0  0  0  0  0  0  0  0  0  0
   23.6005  -13.4503   -4.9417 C   0  0  2  0  0  0  0  0  0  0  0  0
   23.8842  -14.8153   -4.4533 N   0  0  0  0  0  0  0  0  0  0  0  0
   20.2510   -7.2814   -5.8599 C   0  0  1  0  0  0  0  0  0  0  0  0
   20.4310   -5.8133   -6.0431 N   0  0  0  0  0  0  0  0  0  0  0  0
   27.2348  -12.2766   -2.1248 C   0  0  0  0  0  0  0  0  0  0  0  0
   23.1088  -12.5264   -3.7474 C   0  0  2  0  0  0  0  0  0  0  0  0
   18.6881   -7.5977   -5.5312 C   0  0  1  0  0  0  0  0  0  0  0  0
   17.8145   -7.1784   -6.5509 O   0  0  0  0  0  0  0  0  0  0  0  0
   26.9840  -13.0773   -3.1714 C   0  0  1  0  0  0  0  0  0  0  0  0
   25.9067  -13.9930   -3.1767 O   0  0  0  0  0  0  0  0  0  0  0  0
   22.7965  -11.0849   -4.2909 C   0  0  2  0  0  0  0  0  0  0  0  0
   22.3447  -10.2658   -3.2140 O   0  0  0  0  0  0  0  0  0  0  0  0
   18.5118   -9.1371   -5.3497 C   0  0  0  0  0  0  0  0  0  0  0  0
   19.0687   -9.8752   -6.5505 O   0  0  0  0  0  0  0  0  0  0  0  0
   27.8365  -13.0653   -4.4553 C   0  0  0  0  0  0  0  0  0  0  0  0
   28.9663  -12.1842   -4.2560 N   0  0  0  0  0  0  0  0  0  0  0  0
   21.6733  -11.1729   -5.3920 C   0  0  1  0  0  0  0  0  0  0  0  0
   21.4242   -9.8813   -5.8638 O   0  0  0  0  0  0  0  0  0  0  0  0
   18.1185   -6.9205   -4.2766 C   0  0  0  0  0  0  0  0  0  0  0  0
   21.8073   -5.3083   -5.9214 C   0  0  0  0  0  0  0  0  0  0  0  0
  1  2  1  6  0  0  0
  1  6  1  0  0  0  0
  1 21  1  0  0  0  0
  3  4  1  6  0  0  0
  3  8  1  0  0  0  0
  3 28  1  0  0  0  0
  5  9  1  0  0  0  0
  5 25  1  0  0  0  0
  5 29  1  1  0  0  0
  6  7  1  1  0  0  0
  6 11  1  0  0  0  0
  8 12  1  0  0  0  0
  9 10  1  1  0  0  0
  9 14  1  0  0  0  0
 11 16  1  0  0  0  0
 12 13  1  1  0  0  0
 12 17  1  0  0  0  0
 14 15  1  6  0  0  0
 14 18  1  0  0  0  0
 15 31  1  0  0  0  0
 16 20  1  0  0  0  0
 17  2  1  1  0  0  0
 17 22  1  0  0  0  0
 18 19  1  6  0  0  0
 18 24  1  0  0  0  0
 18 30  1  0  0  0  0
 20 21  1  0  0  0  0
 20 26  1  6  0  0  0
 22 23  1  1  0  0  0
 22 28  1  0  0  0  0
 24 25  1  0  0  0  0
 26 27  1  0  0  0  0
 28 29  1  6  0  0  0
M  END
>  <CHROM.1>
-151.58898054,-174.52720355,-78.36717614,-46.81948649,5.82496096,58.01488275
22.68026966,-10.76273729,-4.65196453,0.50529160,0.63821783,-2.87680358

>  <Name>
ligand

>  <RI>
0

>  <Rbt.Current_Directory>
/home/itssahil/PROJECTS/Mol_Feturizer/New_Systems/rnas/4F8V

>  <Rbt.Executable>
rbdock ($Id: //depot/dev/client3/rdock/2013.1/src/exe/rbdock.cxx#4 $)

>  <Rbt.Library>
libRbt.so (2013.1, Build901 2013/11/27)

>  <Rbt.Parameter_File>
/export/apps/rDock/src/rDock_2013.1_src/data/scripts/dock_solv.prm

>  <Rbt.Receptor>
prm/pocket_docking_4.prm

>  <SCORE>
-4.71213

>  <SCORE.INTER>
-6.29438

>  <SCORE.INTER.CONST>
1

>  <SCORE.INTER.POLAR>
0

>  <SCORE.INTER.ROT>
6

>  <SCORE.INTER.SOLV>
13.4259

>  <SCORE.INTER.VDW>
-16.2716

>  <SCORE.INTER.norm>
-0.203045

>  <SCORE.INTRA>
1.58225

>  <SCORE.INTRA.DIHEDRAL>
-9.63726

>  <SCORE.INTRA.DIHEDRAL.0>
15.9129

>  <SCORE.INTRA.POLAR>
0

>  <SCORE.INTRA.POLAR.0>
0

>  <SCORE.INTRA.REPUL>
0

>  <SCORE.INTRA.REPUL.0>
0

>  <SCORE.INTRA.SOLV>
0.533331

>  <SCORE.INTRA.SOLV.lig_0>
-75.7056

>  <SCORE.INTRA.VDW>
6.13422

>  <SCORE.INTRA.VDW.0>
-4.61812

>  <SCORE.INTRA.norm>
0.0510403

>  <SCORE.RESTR>
0

>  <SCORE.RESTR.CAVITY>
0

>  <SCORE.RESTR.norm>
0

>  <SCORE.SYSTEM>
0

>  <SCORE.SYSTEM.CONST>
0

>  <SCORE.SYSTEM.DIHEDRAL>
0

>  <SCORE.SYSTEM.SOLV>
0

>  <SCORE.SYSTEM.norm>
0

>  <SCORE.heavy>
31

>  <SCORE.norm>
-0.152004

>  <RMSD>
8.518

$$$$
ligand
 OpenBabel11021811493D
libRbt.so/2013.1/901 2013/11/27
 31 33  0  0  0  0  0  0  0  0999 V2000
   24.6976  -14.5877   -3.8853 C   0  0  2  0  0  0  0  0  0  0  0  0
   24.0103  -13.3357   -4.0143 O   0  0  0  0  0  0  0  0  0  0  0  0
   22.9607  -10.9594   -7.3966 C   0  0  2  0  0  0  0  0  0  0  0  0
   22.3917  -10.5910   -8.6490 N   0  0  0  0  0  0  0  0  0  0  0  0
   20.9252   -9.5190   -5.1093 C   0  0  2  0  0  0  0  0  0  0  0  0
   23.6577  -15.6245   -3.3586 C   0  0  2  0  0  0  0  0  0  0  0  0
   22.5313  -15.6806   -4.2881 N   0  0  0  0  0  0  0  0  0  0  0  0
   23.9998  -12.1211   -7.6209 C   0  0  0  0  0  0  0  0  0  0  0  0
   19.8401   -8.4520   -5.4169 C   0  0  2  0  0  0  0  0  0  0  0  0
   18.6141   -9.1087   -5.6450 O   0  0  0  0  0  0  0  0  0  0  0  0
   23.1896  -15.2378   -1.9028 C   0  0  0  0  0  0  0  0  0  0  0  0
   24.6304  -12.5275   -6.2271 C   0  0  2  0  0  0  0  0  0  0  0  0
   25.6038  -13.6198   -6.4314 N   0  0  0  0  0  0  0  0  0  0  0  0
   20.3027   -7.6344   -6.6876 C   0  0  1  0  0  0  0  0  0  0  0  0
   19.2786   -6.6093   -7.0358 N   0  0  0  0  0  0  0  0  0  0  0  0
   24.3170  -14.5321   -1.0651 C   0  0  0  0  0  0  0  0  0  0  0  0
   23.4682  -12.9972   -5.2523 C   0  0  2  0  0  0  0  0  0  0  0  0
   21.7205   -6.8980   -6.3745 C   0  0  1  0  0  0  0  0  0  0  0  0
   21.6432   -5.9837   -5.3082 O   0  0  0  0  0  0  0  0  0  0  0  0
   25.5043  -14.2263   -1.6091 C   0  0  1  0  0  0  0  0  0  0  0  0
   25.8131  -14.5232   -2.9566 O   0  0  0  0  0  0  0  0  0  0  0  0
   22.4355  -11.8275   -5.0621 C   0  0  2  0  0  0  0  0  0  0  0  0
   21.3897  -12.2622   -4.1948 O   0  0  0  0  0  0  0  0  0  0  0  0
   22.7810   -7.9805   -6.0040 C   0  0  0  0  0  0  0  0  0  0  0  0
   22.2637   -8.8613   -4.8844 O   0  0  0  0  0  0  0  0  0  0  0  0
   26.6269  -13.5219   -0.8224 C   0  0  0  0  0  0  0  0  0  0  0  0
   26.8894  -12.2377   -1.4344 N   0  0  0  0  0  0  0  0  0  0  0  0
   21.8287  -11.4325   -6.4612 C   0  0  1  0  0  0  0  0  0  0  0  0
   20.9242  -10.3858   -6.2634 O   0  0  0  0  0  0  0  0  0  0  0  0
   22.3045   -6.0579   -7.5193 C   0  0  0  0  0  0  0  0  0  0  0  0
   18.8430   -5.7292   -5.9406 C   0  0  0  0  0  0  0  0  0  0  0  0
  1  2  1  1  0  0  0
  1  6  1  0  0  0  0
  1 21  1  0  0  0  0
  3  4  1  6  0  0  0
  3  8  1  0  0  0  0
  3 28  1  0  0  0  0
  5  9  1  0  0  0  0
  5 25  1  0  0  0  0
  5 29  1  6  0  0  0
  6  7  1  6  0  0  0
  6 11  1  0  0  0  0
  8 12  1  0  0  0  0
  9 10  1  6  0  0  0
  9 14  1  0  0  0  0
 11 16  1  0  0  0  0
 12 13  1  6  0  0  0
 12 17  1  0  0  0  0
 14 15  1  1  0  0  0
 14 18  1  0  0  0  0
 15 31  1  0  0  0  0
 16 20  1  0  0  0  0
 17  2  1  1  0  0  0
 17 22  1  0  0  0  0
 18 19  1  1  0  0  0
 18 24  1  0  0  0  0
 18 30  1  0  0  0  0
 20 21  1  0  0  0  0
 20 26  1  6  0  0  0
 22 23  1  1  0  0  0
 22 28  1  0  0  0  0
 24 25  1  0  0  0  0
 26 27  1  0  0  0  0
 28 29  1  1  0  0  0
M  END
>  <CHROM.1>
-94.28929643,174.71826197,51.31924330,-76.27542225,-116.90986673,-98.39774505
22.72823771,-11.09386150,-4.98458163,0.12092340,1.06568485,-2.18322049

>  <Name>
ligand

>  <RI>
0

>  <Rbt.Current_Directory>
/home/itssahil/PROJECTS/Mol_Feturizer/New_Systems/rnas/4F8V

>  <Rbt.Executable>
rbdock ($Id: //depot/dev/client3/rdock/2013.1/src/exe/rbdock.cxx#4 $)

>  <Rbt.Library>
libRbt.so (2013.1, Build901 2013/11/27)

>  <Rbt.Parameter_File>
/export/apps/rDock/src/rDock_2013.1_src/data/scripts/dock_solv.prm

>  <Rbt.Receptor>
prm/pocket_docking_4.prm

>  <SCORE>
-4.23678

>  <SCORE.INTER>
-7.32484

>  <SCORE.INTER.CONST>
1

>  <SCORE.INTER.POLAR>
0

>  <SCORE.INTER.ROT>
6

>  <SCORE.INTER.SOLV>
11.7461

>  <SCORE.INTER.VDW>
-16.3986

>  <SCORE.INTER.norm>
-0.236285

>  <SCORE.INTRA>
3.08806

>  <SCORE.INTRA.DIHEDRAL>
-3.25909

>  <SCORE.INTRA.DIHEDRAL.0>
15.9129

>  <SCORE.INTRA.POLAR>
0

>  <SCORE.INTRA.POLAR.0>
0

>  <SCORE.INTRA.REPUL>
0

>  <SCORE.INTRA.REPUL.0>
0

>  <SCORE.INTRA.SOLV>
0.964543

>  <SCORE.INTRA.SOLV.lig_0>
-75.7056

>  <SCORE.INTRA.VDW>
4.23533

>  <SCORE.INTRA.VDW.0>
-4.61812

>  <SCORE.INTRA.norm>
0.0996147

>  <SCORE.RESTR>
0

>  <SCORE.RESTR.CAVITY>
0

>  <SCORE.RESTR.norm>
0

>  <SCORE.SYSTEM>
0

>  <SCORE.SYSTEM.CONST>
0

>  <SCORE.SYSTEM.DIHEDRAL>
0

>  <SCORE.SYSTEM.SOLV>
0

>  <SCORE.SYSTEM.norm>
0

>  <SCORE.heavy>
31

>  <SCORE.norm>
-0.13667

>  <RMSD>
8.520

$$$$
ligand
 OpenBabel11021811493D
libRbt.so/2013.1/901 2013/11/27
 31 33  0  0  0  0  0  0  0  0999 V2000
   23.8024  -13.8600   -3.9728 C   0  0  2  0  0  0  0  0  0  0  0  0
   24.9426  -13.0998   -3.5502 O   0  0  0  0  0  0  0  0  0  0  0  0
   26.4094   -9.2869   -4.7746 C   0  0  2  0  0  0  0  0  0  0  0  0
   26.8768   -8.2413   -5.6208 N   0  0  0  0  0  0  0  0  0  0  0  0
   22.7231   -8.6744   -5.4441 C   0  0  2  0  0  0  0  0  0  0  0  0
   23.3367  -14.7011   -2.7441 C   0  0  2  0  0  0  0  0  0  0  0  0
   23.0448  -13.7968   -1.6336 N   0  0  0  0  0  0  0  0  0  0  0  0
   27.4001  -10.5076   -4.8632 C   0  0  0  0  0  0  0  0  0  0  0  0
   22.6504   -8.8066   -6.9893 C   0  0  2  0  0  0  0  0  0  0  0  0
   23.3682   -9.9555   -7.3778 O   0  0  0  0  0  0  0  0  0  0  0  0
   24.4403  -15.7590   -2.3559 C   0  0  0  0  0  0  0  0  0  0  0  0
   26.8778  -11.6675   -3.9212 C   0  0  2  0  0  0  0  0  0  0  0  0
   27.8021  -12.8169   -4.0033 N   0  0  0  0  0  0  0  0  0  0  0  0
   23.2686   -7.4975   -7.6230 C   0  0  1  0  0  0  0  0  0  0  0  0
   23.2409   -7.5880   -9.1103 N   0  0  0  0  0  0  0  0  0  0  0  0
   25.2498  -16.2821   -3.5976 C   0  0  0  0  0  0  0  0  0  0  0  0
   25.4211  -12.0944   -4.3877 C   0  0  2  0  0  0  0  0  0  0  0  0
   22.4073   -6.2017   -7.1439 C   0  0  1  0  0  0  0  0  0  0  0  0
   21.0614   -6.2537   -7.5494 O   0  0  0  0  0  0  0  0  0  0  0  0
   25.0502  -15.7784   -4.8247 C   0  0  1  0  0  0  0  0  0  0  0  0
   24.1030  -14.7587   -5.0742 O   0  0  0  0  0  0  0  0  0  0  0  0
   24.4584  -10.8544   -4.3091 C   0  0  2  0  0  0  0  0  0  0  0  0
   23.1559  -11.2442   -4.7407 O   0  0  0  0  0  0  0  0  0  0  0  0
   22.4376   -6.1230   -5.5861 C   0  0  0  0  0  0  0  0  0  0  0  0
   21.9889   -7.4397   -4.9845 O   0  0  0  0  0  0  0  0  0  0  0  0
   25.8352  -16.2566   -6.0617 C   0  0  0  0  0  0  0  0  0  0  0  0
   26.3241  -15.0995   -6.7790 N   0  0  0  0  0  0  0  0  0  0  0  0
   25.0021   -9.7097   -5.2451 C   0  0  1  0  0  0  0  0  0  0  0  0
   24.1345   -8.6186   -5.1472 O   0  0  0  0  0  0  0  0  0  0  0  0
   22.8863   -4.8452   -7.6803 C   0  0  0  0  0  0  0  0  0  0  0  0
   24.3611   -8.3061   -9.7375 C   0  0  0  0  0  0  0  0  0  0  0  0
  1  2  1  1  0  0  0
  1  6  1  0  0  0  0
  1 21  1  0  0  0  0
  3  4  1  6  0  0  0
  3  8  1  0  0  0  0
  3 28  1  0  0  0  0
  5  9  1  0  0  0  0
  5 25  1  0  0  0  0
  5 29  1  6  0  0  0
  6  7  1  1  0  0  0
  6 11  1  0  0  0  0
  8 12  1  0  0  0  0
  9 10  1  6  0  0  0
  9 14  1  0  0  0  0
 11 16  1  0  0  0  0
 12 13  1  6  0  0  0
 12 17  1  0  0  0  0
 14 15  1  6  0  0  0
 14 18  1  0  0  0  0
 15 31  1  0  0  0  0
 16 20  1  0  0  0  0
 17  2  1  1  0  0  0
 17 22  1  0  0  0  0
 18 19  1  6  0  0  0
 18 24  1  0  0  0  0
 18 30  1  0  0  0  0
 20 21  1  0  0  0  0
 20 26  1  1  0  0  0
 22 23  1  6  0  0  0
 22 28  1  0  0  0  0
 24 25  1  0  0  0  0
 26 27  1  0  0  0  0
 28 29  1  1  0  0  0
M  END
>  <CHROM.1>
-169.37776075,-71.79477974,-84.10207835,-164.83689355,-131.69788961,-176.88681802
24.29269671,-10.81545122,-5.40373864,1.28600532,-0.49176186,2.61963341

>  <Name>
ligand

>  <RI>
0

>  <Rbt.Current_Directory>
/home/itssahil/PROJECTS/Mol_Feturizer/New_Systems/rnas/4F8V

>  <Rbt.Executable>
rbdock ($Id: //depot/dev/client3/rdock/2013.1/src/exe/rbdock.cxx#4 $)

>  <Rbt.Library>
libRbt.so (2013.1, Build901 2013/11/27)

>  <Rbt.Parameter_File>
/export/apps/rDock/src/rDock_2013.1_src/data/scripts/dock_solv.prm

>  <Rbt.Receptor>
prm/pocket_docking_8.prm

>  <SCORE>
-9.4105

>  <SCORE.INTER>
-6.13375

>  <SCORE.INTER.CONST>
1

>  <SCORE.INTER.POLAR>
0

>  <SCORE.INTER.ROT>
6

>  <SCORE.INTER.SOLV>
8.19275

>  <SCORE.INTER.VDW>
-14.4201

>  <SCORE.INTER.norm>
-0.197863

>  <SCORE.INTRA>
-3.27676

>  <SCORE.INTRA.DIHEDRAL>
-11.3072

>  <SCORE.INTRA.DIHEDRAL.0>
15.9129

>  <SCORE.INTRA.POLAR>
0

>  <SCORE.INTRA.POLAR.0>
0

>  <SCORE.INTRA.REPUL>
0

>  <SCORE.INTRA.REPUL.0>
0

>  <SCORE.INTRA.SOLV>
-0.586754

>  <SCORE.INTRA.SOLV.lig_0>
-75.7056

>  <SCORE.INTRA.VDW>
2.67025

>  <SCORE.INTRA.VDW.0>
-4.61812

>  <SCORE.INTRA.norm>
-0.105702

>  <SCORE.RESTR>
0

>  <SCORE.RESTR.CAVITY>
0

>  <SCORE.RESTR.norm>
0

>  <SCORE.SYSTEM>
0

>  <SCORE.SYSTEM.CONST>
0

>  <SCORE.SYSTEM.DIHEDRAL>
0

>  <SCORE.SYSTEM.SOLV>
0

>  <SCORE.SYSTEM.norm>
0

>  <SCORE.heavy>
31

>  <SCORE.norm>
-0.303565

>  <RMSD>
8.564

$$$$
ligand
 OpenBabel11021811493D
libRbt.so/2013.1/901 2013/11/27
 31 33  0  0  0  0  0  0  0  0999 V2000
   24.3661  -14.8334   -3.1796 C   0  0  2  0  0  0  0  0  0  0  0  0
   24.1430  -13.5099   -3.6846 O   0  0  0  0  0  0  0  0  0  0  0  0
   22.4131  -12.2797   -7.3836 C   0  0  2  0  0  0  0  0  0  0  0  0
   21.4389  -12.0650   -8.3998 N   0  0  0  0  0  0  0  0  0  0  0  0
   20.9606   -9.6311   -7.3342 C   0  0  2  0  0  0  0  0  0  0  0  0
   23.3314  -15.0631   -2.0349 C   0  0  2  0  0  0  0  0  0  0  0  0
   21.9841  -14.8710   -2.5677 N   0  0  0  0  0  0  0  0  0  0  0  0
   22.5721  -13.8267   -7.1364 C   0  0  0  0  0  0  0  0  0  0  0  0
   21.2582   -8.1083   -7.2780 C   0  0  2  0  0  0  0  0  0  0  0  0
   22.6347   -7.9092   -7.5060 O   0  0  0  0  0  0  0  0  0  0  0  0
   23.6232  -14.0874   -0.8304 C   0  0  0  0  0  0  0  0  0  0  0  0
   23.6559  -14.0615   -6.0068 C   0  0  2  0  0  0  0  0  0  0  0  0
   23.8066  -15.5116   -5.7684 N   0  0  0  0  0  0  0  0  0  0  0  0
   20.8257   -7.5765   -5.8542 C   0  0  1  0  0  0  0  0  0  0  0  0
   21.1138   -6.1184   -5.7445 N   0  0  0  0  0  0  0  0  0  0  0  0
   25.1523  -13.7648   -0.6614 C   0  0  0  0  0  0  0  0  0  0  0  0
   23.1845  -13.3286   -4.6793 C   0  0  2  0  0  0  0  0  0  0  0  0
   19.2320   -7.8306   -5.6392 C   0  0  1  0  0  0  0  0  0  0  0  0
   18.4344   -7.1596   -6.5838 O   0  0  0  0  0  0  0  0  0  0  0  0
   26.0632  -14.2189   -1.5350 C   0  0  1  0  0  0  0  0  0  0  0  0
   25.7064  -15.0138   -2.6486 O   0  0  0  0  0  0  0  0  0  0  0  0
   23.0139  -11.7912   -4.9587 C   0  0  2  0  0  0  0  0  0  0  0  0
   22.5794  -11.1433   -3.7645 O   0  0  0  0  0  0  0  0  0  0  0  0
   18.9428   -9.3586   -5.7641 C   0  0  0  0  0  0  0  0  0  0  0  0
   19.4995   -9.8939   -7.0680 O   0  0  0  0  0  0  0  0  0  0  0  0
   27.5680  -13.9106   -1.4089 C   0  0  0  0  0  0  0  0  0  0  0  0
   27.9646  -13.0660   -2.5142 N   0  0  0  0  0  0  0  0  0  0  0  0
   21.9398  -11.5813   -6.0918 C   0  0  1  0  0  0  0  0  0  0  0  0
   21.8169  -10.2091   -6.3263 O   0  0  0  0  0  0  0  0  0  0  0  0
   18.6561   -7.3640   -4.2946 C   0  0  0  0  0  0  0  0  0  0  0  0
   22.4978   -5.7544   -5.4045 C   0  0  0  0  0  0  0  0  0  0  0  0
  1  2  1  1  0  0  0
  1  6  1  0  0  0  0
  1 21  1  0  0  0  0
  3  4  1  6  0  0  0
  3  8  1  0  0  0  0
  3 28  1  0  0  0  0
  5  9  1  0  0  0  0
  5 25  1  0  0  0  0
  5 29  1  1  0  0  0
  6  7  1  6  0  0  0
  6 11  1  0  0  0  0
  8 12  1  0  0  0  0
  9 10  1  1  0  0  0
  9 14  1  0  0  0  0
 11 16  1  0  0  0  0
 12 13  1  1  0  0  0
 12 17  1  0  0  0  0
 14 15  1  6  0  0  0
 14 18  1  0  0  0  0
 15 31  1  0  0  0  0
 16 20  1  0  0  0  0
 17  2  1  1  0  0  0
 17 22  1  0  0  0  0
 18 19  1  6  0  0  0
 18 24  1  0  0  0  0
 18 30  1  0  0  0  0
 20 21  1  0  0  0  0
 20 26  1  6  0  0  0
 22 23  1  1  0  0  0
 22 28  1  0  0  0  0
 24 25  1  0  0  0  0
 26 27  1  0  0  0  0
 28 29  1  6  0  0  0
M  END
>  <CHROM.1>
-86.41129669,-175.60331245,-82.01930999,-65.99545439,-113.06864718,58.50449222
22.57812766,-11.40147845,-4.84627438,0.47399255,0.91564723,-2.68302514

>  <Name>
ligand

>  <RI>
0

>  <Rbt.Current_Directory>
/home/itssahil/PROJECTS/Mol_Feturizer/New_Systems/rnas/4F8V

>  <Rbt.Executable>
rbdock ($Id: //depot/dev/client3/rdock/2013.1/src/exe/rbdock.cxx#4 $)

>  <Rbt.Library>
libRbt.so (2013.1, Build901 2013/11/27)

>  <Rbt.Parameter_File>
/export/apps/rDock/src/rDock_2013.1_src/data/scripts/dock_solv.prm

>  <Rbt.Receptor>
prm/pocket_docking_4.prm

>  <SCORE>
-10.1506

>  <SCORE.INTER>
-8.78684

>  <SCORE.INTER.CONST>
1

>  <SCORE.INTER.POLAR>
0

>  <SCORE.INTER.ROT>
6

>  <SCORE.INTER.SOLV>
16.4935

>  <SCORE.INTER.VDW>
-18.9557

>  <SCORE.INTER.norm>
-0.283446

>  <SCORE.INTRA>
-1.36379

>  <SCORE.INTRA.DIHEDRAL>
-10.6005

>  <SCORE.INTRA.DIHEDRAL.0>
15.9129

>  <SCORE.INTRA.POLAR>
0

>  <SCORE.INTRA.POLAR.0>
0

>  <SCORE.INTRA.REPUL>
0

>  <SCORE.INTRA.REPUL.0>
0

>  <SCORE.INTRA.SOLV>
1.79778

>  <SCORE.INTRA.SOLV.lig_0>
-75.7056

>  <SCORE.INTRA.VDW>
3.03759

>  <SCORE.INTRA.VDW.0>
-4.61812

>  <SCORE.INTRA.norm>
-0.0439933

>  <SCORE.RESTR>
0

>  <SCORE.RESTR.CAVITY>
0

>  <SCORE.RESTR.norm>
0

>  <SCORE.SYSTEM>
0

>  <SCORE.SYSTEM.CONST>
0

>  <SCORE.SYSTEM.DIHEDRAL>
0

>  <SCORE.SYSTEM.SOLV>
0

>  <SCORE.SYSTEM.norm>
0

>  <SCORE.heavy>
31

>  <SCORE.norm>
-0.32744

>  <RMSD>
8.566

$$$$
ligand
 OpenBabel11021811493D
libRbt.so/2013.1/901 2013/11/27
 31 33  0  0  0  0  0  0  0  0999 V2000
   26.8625   -9.9531   -2.4144 C   0  0  2  0  0  0  0  0  0  0  0  0
   26.0095   -8.9398   -1.8647 O   0  0  0  0  0  0  0  0  0  0  0  0
   23.5202   -6.1302   -3.8890 C   0  0  2  0  0  0  0  0  0  0  0  0
   23.1316   -5.0485   -4.7297 N   0  0  0  0  0  0  0  0  0  0  0  0
   22.9634   -6.8448   -6.8452 C   0  0  2  0  0  0  0  0  0  0  0  0
   27.0802  -11.0191   -1.2964 C   0  0  2  0  0  0  0  0  0  0  0  0
   25.7796  -11.5321   -0.8704 N   0  0  0  0  0  0  0  0  0  0  0  0
   24.4388   -5.5839   -2.7325 C   0  0  0  0  0  0  0  0  0  0  0  0
   21.9892   -7.7820   -7.6088 C   0  0  2  0  0  0  0  0  0  0  0  0
   20.9906   -8.2188   -6.7152 O   0  0  0  0  0  0  0  0  0  0  0  0
   27.8792  -10.3910   -0.0903 C   0  0  0  0  0  0  0  0  0  0  0  0
   24.8683   -6.7887   -1.8000 C   0  0  2  0  0  0  0  0  0  0  0  0
   25.7333   -6.2820   -0.7150 N   0  0  0  0  0  0  0  0  0  0  0  0
   22.8238   -8.9960   -8.1806 C   0  0  1  0  0  0  0  0  0  0  0  0
   21.9243   -9.9377   -8.9053 N   0  0  0  0  0  0  0  0  0  0  0  0
   28.9005   -9.2851   -0.5429 C   0  0  0  0  0  0  0  0  0  0  0  0
   25.6466   -7.8638   -2.6718 C   0  0  2  0  0  0  0  0  0  0  0  0
   23.9622   -8.4403   -9.2032 C   0  0  1  0  0  0  0  0  0  0  0  0
   23.4238   -7.7592  -10.3100 O   0  0  0  0  0  0  0  0  0  0  0  0
   28.9769   -8.8855   -1.8211 C   0  0  1  0  0  0  0  0  0  0  0  0
   28.1542   -9.4348   -2.8314 O   0  0  0  0  0  0  0  0  0  0  0  0
   24.7155   -8.3769   -3.8295 C   0  0  2  0  0  0  0  0  0  0  0  0
   25.4264   -9.3330   -4.6138 O   0  0  0  0  0  0  0  0  0  0  0  0
   24.8915   -7.4504   -8.4349 C   0  0  0  0  0  0  0  0  0  0  0  0
   24.0673   -6.3734   -7.7584 O   0  0  0  0  0  0  0  0  0  0  0  0
   29.9554   -7.7944   -2.2980 C   0  0  0  0  0  0  0  0  0  0  0  0
   29.2057   -6.7626   -2.9804 N   0  0  0  0  0  0  0  0  0  0  0  0
   24.2921   -7.1615   -4.7381 C   0  0  1  0  0  0  0  0  0  0  0  0
   23.4581   -7.6444   -5.7501 O   0  0  0  0  0  0  0  0  0  0  0  0
   24.8607   -9.5062   -9.8464 C   0  0  0  0  0  0  0  0  0  0  0  0
   21.2672  -10.9675   -8.0858 C   0  0  0  0  0  0  0  0  0  0  0  0
  1  2  1  1  0  0  0
  1  6  1  0  0  0  0
  1 21  1  0  0  0  0
  3  4  1  6  0  0  0
  3  8  1  0  0  0  0
  3 28  1  0  0  0  0
  5  9  1  0  0  0  0
  5 25  1  0  0  0  0
  5 29  1  1  0  0  0
  6  7  1  1  0  0  0
  6 11  1  0  0  0  0
  8 12  1  0  0  0  0
  9 10  1  1  0  0  0
  9 14  1  0  0  0  0
 11 16  1  0  0  0  0
 12 13  1  1  0  0  0
 12 17  1  0  0  0  0
 14 15  1  6  0  0  0
 14 18  1  0  0  0  0
 15 31  1  0  0  0  0
 16 20  1  0  0  0  0
 17  2  1  1  0  0  0
 17 22  1  0  0  0  0
 18 19  1  6  0  0  0
 18 24  1  0  0  0  0
 18 30  1  0  0  0  0
 20 21  1  0  0  0  0
 20 26  1  1  0  0  0
 22 23  1  6  0  0  0
 22 28  1  0  0  0  0
 24 25  1  0  0  0  0
 26 27  1  0  0  0  0
 28 29  1  6  0  0  0
M  END
>  <CHROM.1>
-179.45944116,-174.84030513,-86.54213754,-172.62215055,-125.14468122,66.55382839
25.05357856,-8.28395442,-4.70314670,-0.50877395,0.86325200,-2.42476476

>  <Name>
ligand

>  <RI>
0

>  <Rbt.Current_Directory>
/home/itssahil/PROJECTS/Mol_Feturizer/New_Systems/rnas/4F8V

>  <Rbt.Executable>
rbdock ($Id: //depot/dev/client3/rdock/2013.1/src/exe/rbdock.cxx#4 $)

>  <Rbt.Library>
libRbt.so (2013.1, Build901 2013/11/27)

>  <Rbt.Parameter_File>
/export/apps/rDock/src/rDock_2013.1_src/data/scripts/dock_solv.prm

>  <Rbt.Receptor>
prm/pocket_docking_8.prm

>  <SCORE>
-7.88819

>  <SCORE.INTER>
-2.90708

>  <SCORE.INTER.CONST>
1

>  <SCORE.INTER.POLAR>
0

>  <SCORE.INTER.ROT>
6

>  <SCORE.INTER.SOLV>
10.8002

>  <SCORE.INTER.VDW>
-13.1381

>  <SCORE.INTER.norm>
-0.0937769

>  <SCORE.INTRA>
-4.9811

>  <SCORE.INTRA.DIHEDRAL>
-13.0966

>  <SCORE.INTRA.DIHEDRAL.0>
15.9129

>  <SCORE.INTRA.POLAR>
0

>  <SCORE.INTRA.POLAR.0>
0

>  <SCORE.INTRA.REPUL>
0

>  <SCORE.INTRA.REPUL.0>
0

>  <SCORE.INTRA.SOLV>
-0.966569

>  <SCORE.INTRA.SOLV.lig_0>
-75.7056

>  <SCORE.INTRA.VDW>
2.05047

>  <SCORE.INTRA.VDW.0>
-4.61812

>  <SCORE.INTRA.norm>
-0.160681

>  <SCORE.RESTR>
0

>  <SCORE.RESTR.CAVITY>
0

>  <SCORE.RESTR.norm>
0

>  <SCORE.SYSTEM>
0

>  <SCORE.SYSTEM.CONST>
0

>  <SCORE.SYSTEM.DIHEDRAL>
0

>  <SCORE.SYSTEM.SOLV>
0

>  <SCORE.SYSTEM.norm>
0

>  <SCORE.heavy>
31

>  <SCORE.norm>
-0.254458

>  <RMSD>
8.590

$$$$
ligand
 OpenBabel11021811493D
libRbt.so/2013.1/901 2013/11/27
 31 33  0  0  0  0  0  0  0  0999 V2000
   25.9672  -11.6712   -3.0501 C   0  0  2  0  0  0  0  0  0  0  0  0
   25.7659  -12.4962   -4.2056 O   0  0  0  0  0  0  0  0  0  0  0  0
   23.3287  -11.9001   -7.6543 C   0  0  2  0  0  0  0  0  0  0  0  0
   22.1713  -11.6734   -8.4524 N   0  0  0  0  0  0  0  0  0  0  0  0
   22.5904   -8.9052   -8.1360 C   0  0  2  0  0  0  0  0  0  0  0  0
   27.4389  -11.8949   -2.5832 C   0  0  2  0  0  0  0  0  0  0  0  0
   28.3411  -11.5691   -3.6859 N   0  0  0  0  0  0  0  0  0  0  0  0
   23.1636  -13.2588   -6.8757 C   0  0  0  0  0  0  0  0  0  0  0  0
   23.2667   -7.6598   -8.7699 C   0  0  2  0  0  0  0  0  0  0  0  0
   24.3709   -8.0867   -9.5347 O   0  0  0  0  0  0  0  0  0  0  0  0
   27.6366  -13.3806   -2.0918 C   0  0  0  0  0  0  0  0  0  0  0  0
   24.4518  -13.5075   -5.9901 C   0  0  2  0  0  0  0  0  0  0  0  0
   24.3007  -14.7797   -5.2547 N   0  0  0  0  0  0  0  0  0  0  0  0
   23.7126   -6.6954   -7.6001 C   0  0  1  0  0  0  0  0  0  0  0  0
   24.3893   -5.4916   -8.1606 N   0  0  0  0  0  0  0  0  0  0  0  0
   26.3426  -13.9850   -1.4353 C   0  0  0  0  0  0  0  0  0  0  0  0
   24.6213  -12.2983   -4.9749 C   0  0  2  0  0  0  0  0  0  0  0  0
   22.4050   -6.2330   -6.7474 C   0  0  1  0  0  0  0  0  0  0  0  0
   21.4643   -5.5280   -7.5199 O   0  0  0  0  0  0  0  0  0  0  0  0
   25.1885  -13.3019   -1.4078 C   0  0  1  0  0  0  0  0  0  0  0  0
   25.0689  -12.0049   -1.9580 O   0  0  0  0  0  0  0  0  0  0  0  0
   24.7633  -10.9536   -5.7764 C   0  0  2  0  0  0  0  0  0  0  0  0
   24.9033   -9.8724   -4.8567 O   0  0  0  0  0  0  0  0  0  0  0  0
   21.7020   -7.5018   -6.1732 C   0  0  0  0  0  0  0  0  0  0  0  0
   21.4163   -8.4924   -7.2841 O   0  0  0  0  0  0  0  0  0  0  0  0
   23.8972  -13.8684   -0.7859 C   0  0  0  0  0  0  0  0  0  0  0  0
   23.4280  -12.9513    0.2296 N   0  0  0  0  0  0  0  0  0  0  0  0
   23.4765  -10.7315   -6.6577 C   0  0  1  0  0  0  0  0  0  0  0  0
   23.6348   -9.5371   -7.3657 O   0  0  0  0  0  0  0  0  0  0  0  0
   22.6758   -5.2867   -5.5691 C   0  0  0  0  0  0  0  0  0  0  0  0
   25.8423   -5.4059   -7.9475 C   0  0  0  0  0  0  0  0  0  0  0  0
  1  2  1  6  0  0  0
  1  6  1  0  0  0  0
  1 21  1  0  0  0  0
  3  4  1  1  0  0  0
  3  8  1  0  0  0  0
  3 28  1  0  0  0  0
  5  9  1  0  0  0  0
  5 25  1  0  0  0  0
  5 29  1  1  0  0  0
  6  7  1  6  0  0  0
  6 11  1  0  0  0  0
  8 12  1  0  0  0  0
  9 10  1  1  0  0  0
  9 14  1  0  0  0  0
 11 16  1  0  0  0  0
 12 13  1  1  0  0  0
 12 17  1  0  0  0  0
 14 15  1  6  0  0  0
 14 18  1  0  0  0  0
 15 31  1  0  0  0  0
 16 20  1  0  0  0  0
 17  2  1  6  0  0  0
 17 22  1  0  0  0  0
 18 19  1  6  0  0  0
 18 24  1  0  0  0  0
 18 30  1  0  0  0  0
 20 21  1  0  0  0  0
 20 26  1  6  0  0  0
 22 23  1  1  0  0  0
 22 28  1  0  0  0  0
 24 25  1  0  0  0  0
 26 27  1  0  0  0  0
 28 29  1  6  0  0  0
M  END
>  <CHROM.1>
-167.87855436,-177.68858659,-108.70021405,-167.70850954,123.73560493,69.85921877
24.23886831,-10.30593597,-5.44301663,-0.92240876,-1.07196192,-0.12592758

>  <Name>
ligand

>  <RI>
0

>  <Rbt.Current_Directory>
/home/itssahil/PROJECTS/Mol_Feturizer/New_Systems/rnas/4F8V

>  <Rbt.Executable>
rbdock ($Id: //depot/dev/client3/rdock/2013.1/src/exe/rbdock.cxx#4 $)

>  <Rbt.Library>
libRbt.so (2013.1, Build901 2013/11/27)

>  <Rbt.Parameter_File>
/export/apps/rDock/src/rDock_2013.1_src/data/scripts/dock_solv.prm

>  <Rbt.Receptor>
prm/pocket_docking_7.prm

>  <SCORE>
-8.89142

>  <SCORE.INTER>
-3.82447

>  <SCORE.INTER.CONST>
1

>  <SCORE.INTER.POLAR>
0

>  <SCORE.INTER.ROT>
6

>  <SCORE.INTER.SOLV>
9.00785

>  <SCORE.INTER.VDW>
-13.1523

>  <SCORE.INTER.norm>
-0.12337

>  <SCORE.INTRA>
-5.06696

>  <SCORE.INTRA.DIHEDRAL>
-11.1967

>  <SCORE.INTRA.DIHEDRAL.0>
15.9129

>  <SCORE.INTRA.POLAR>
0

>  <SCORE.INTRA.POLAR.0>
0

>  <SCORE.INTRA.REPUL>
0

>  <SCORE.INTRA.REPUL.0>
0

>  <SCORE.INTRA.SOLV>
-1.99705

>  <SCORE.INTRA.SOLV.lig_0>
-75.7056

>  <SCORE.INTRA.VDW>
1.52992

>  <SCORE.INTRA.VDW.0>
-4.61812

>  <SCORE.INTRA.norm>
-0.16345

>  <SCORE.RESTR>
0

>  <SCORE.RESTR.CAVITY>
0

>  <SCORE.RESTR.norm>
0

>  <SCORE.SYSTEM>
0

>  <SCORE.SYSTEM.CONST>
0

>  <SCORE.SYSTEM.DIHEDRAL>
0

>  <SCORE.SYSTEM.SOLV>
0

>  <SCORE.SYSTEM.norm>
0

>  <SCORE.heavy>
31

>  <SCORE.norm>
-0.28682

>  <RMSD>
8.606

$$$$
ligand
 OpenBabel11021811493D
libRbt.so/2013.1/901 2013/11/27
 31 33  0  0  0  0  0  0  0  0999 V2000
   25.9825  -11.6865   -3.0627 C   0  0  2  0  0  0  0  0  0  0  0  0
   25.8175  -12.4940   -4.2362 O   0  0  0  0  0  0  0  0  0  0  0  0
   23.3837  -11.9162   -7.6904 C   0  0  2  0  0  0  0  0  0  0  0  0
   22.2245  -11.7133   -8.4924 N   0  0  0  0  0  0  0  0  0  0  0  0
   22.5504   -8.9392   -8.1242 C   0  0  2  0  0  0  0  0  0  0  0  0
   27.4529  -11.8822   -2.5799 C   0  0  2  0  0  0  0  0  0  0  0  0
   28.3612  -11.5128   -3.6637 N   0  0  0  0  0  0  0  0  0  0  0  0
   23.2585  -13.2934   -6.9373 C   0  0  0  0  0  0  0  0  0  0  0  0
   23.1990   -7.6796   -8.7593 C   0  0  2  0  0  0  0  0  0  0  0  0
   24.3092   -8.0832   -9.5280 O   0  0  0  0  0  0  0  0  0  0  0  0
   27.6816  -13.3715   -2.1137 C   0  0  0  0  0  0  0  0  0  0  0  0
   24.5486  -13.5156   -6.0474 C   0  0  2  0  0  0  0  0  0  0  0  0
   24.4348  -14.8051   -5.3357 N   0  0  0  0  0  0  0  0  0  0  0  0
   23.6288   -6.7071   -7.5901 C   0  0  1  0  0  0  0  0  0  0  0  0
   24.2788   -5.4893   -8.1518 N   0  0  0  0  0  0  0  0  0  0  0  0
   26.3946  -14.0206   -1.4866 C   0  0  0  0  0  0  0  0  0  0  0  0
   24.6718  -12.3200   -5.0097 C   0  0  2  0  0  0  0  0  0  0  0  0
   22.3147   -6.2723   -6.7329 C   0  0  1  0  0  0  0  0  0  0  0  0
   21.3572   -5.5862   -7.5018 O   0  0  0  0  0  0  0  0  0  0  0  0
   25.2234  -13.3672   -1.4622 C   0  0  1  0  0  0  0  0  0  0  0  0
   25.0784  -12.0634   -1.9896 O   0  0  0  0  0  0  0  0  0  0  0  0
   24.7745  -10.9572   -5.7863 C   0  0  2  0  0  0  0  0  0  0  0  0
   24.8731   -9.8886   -4.8465 O   0  0  0  0  0  0  0  0  0  0  0  0
   21.6398   -7.5557   -6.1575 C   0  0  0  0  0  0  0  0  0  0  0  0
   21.3708   -8.5511   -7.2682 O   0  0  0  0  0  0  0  0  0  0  0  0
   23.9386  -13.9777   -0.8690 C   0  0  0  0  0  0  0  0  0  0  0  0
   23.4441  -13.1023    0.1709 N   0  0  0  0  0  0  0  0  0  0  0  0
   23.4867  -10.7615   -6.6723 C   0  0  1  0  0  0  0  0  0  0  0  0
   23.6101   -9.5500   -7.3578 O   0  0  0  0  0  0  0  0  0  0  0  0
   22.5698   -5.3216   -5.5546 C   0  0  0  0  0  0  0  0  0  0  0  0
   25.6613   -5.2337   -7.7192 C   0  0  0  0  0  0  0  0  0  0  0  0
  1  2  1  6  0  0  0
  1  6  1  0  0  0  0
  1 21  1  0  0  0  0
  3  4  1  6  0  0  0
  3  8  1  0  0  0  0
  3 28  1  0  0  0  0
  5  9  1  0  0  0  0
  5 25  1  0  0  0  0
  5 29  1  1  0  0  0
  6  7  1  6  0  0  0
  6 11  1  0  0  0  0
  8 12  1  0  0  0  0
  9 10  1  1  0  0  0
  9 14  1  0  0  0  0
 11 16  1  0  0  0  0
 12 13  1  1  0  0  0
 12 17  1  0  0  0  0
 14 15  1  6  0  0  0
 14 18  1  0  0  0  0
 15 31  1  0  0  0  0
 16 20  1  0  0  0  0
 17  2  1  6  0  0  0
 17 22  1  0  0  0  0
 18 19  1  6  0  0  0
 18 24  1  0  0  0  0
 18 30  1  0  0  0  0
 20 21  1  0  0  0  0
 20 26  1  6  0  0  0
 22 23  1  1  0  0  0
 22 28  1  0  0  0  0
 24 25  1  0  0  0  0
 26 27  1  0  0  0  0
 28 29  1  6  0  0  0
M  END
>  <CHROM.1>
-168.54082756,-176.34714339,-120.58204078,-167.53092436,122.87474200,69.84075244
24.23089417,-10.32815069,-5.45112900,-0.87235198,-1.07922837,-0.06508570

>  <Name>
ligand

>  <RI>
0

>  <Rbt.Current_Directory>
/home/itssahil/PROJECTS/Mol_Feturizer/New_Systems/rnas/4F8V

>  <Rbt.Executable>
rbdock ($Id: //depot/dev/client3/rdock/2013.1/src/exe/rbdock.cxx#4 $)

>  <Rbt.Library>
libRbt.so (2013.1, Build901 2013/11/27)

>  <Rbt.Parameter_File>
/export/apps/rDock/src/rDock_2013.1_src/data/scripts/dock_solv.prm

>  <Rbt.Receptor>
prm/pocket_docking_8.prm

>  <SCORE>
-8.88361

>  <SCORE.INTER>
-3.80754

>  <SCORE.INTER.CONST>
1

>  <SCORE.INTER.POLAR>
0

>  <SCORE.INTER.ROT>
6

>  <SCORE.INTER.SOLV>
9.30696

>  <SCORE.INTER.VDW>
-13.2407

>  <SCORE.INTER.norm>
-0.122824

>  <SCORE.INTRA>
-5.07607

>  <SCORE.INTRA.DIHEDRAL>
-11.117

>  <SCORE.INTRA.DIHEDRAL.0>
15.9129

>  <SCORE.INTRA.POLAR>
0

>  <SCORE.INTRA.POLAR.0>
0

>  <SCORE.INTRA.REPUL>
0

>  <SCORE.INTRA.REPUL.0>
0

>  <SCORE.INTRA.SOLV>
-2.03066

>  <SCORE.INTRA.SOLV.lig_0>
-75.7056

>  <SCORE.INTRA.VDW>
1.49776

>  <SCORE.INTRA.VDW.0>
-4.61812

>  <SCORE.INTRA.norm>
-0.163744

>  <SCORE.RESTR>
0

>  <SCORE.RESTR.CAVITY>
0

>  <SCORE.RESTR.norm>
0

>  <SCORE.SYSTEM>
0

>  <SCORE.SYSTEM.CONST>
0

>  <SCORE.SYSTEM.DIHEDRAL>
0

>  <SCORE.SYSTEM.SOLV>
0

>  <SCORE.SYSTEM.norm>
0

>  <SCORE.heavy>
31

>  <SCORE.norm>
-0.286568

>  <RMSD>
8.624

$$$$
ligand
 OpenBabel11021811493D
libRbt.so/2013.1/901 2013/11/27
 31 33  0  0  0  0  0  0  0  0999 V2000
   22.8748  -14.9455   -4.6024 C   0  0  2  0  0  0  0  0  0  0  0  0
   23.3683  -13.6007   -4.6666 O   0  0  0  0  0  0  0  0  0  0  0  0
   22.4854  -10.7869   -7.7475 C   0  0  2  0  0  0  0  0  0  0  0  0
   21.7794   -9.8100   -8.5058 N   0  0  0  0  0  0  0  0  0  0  0  0
   23.6706   -8.2450   -5.1914 C   0  0  2  0  0  0  0  0  0  0  0  0
   23.2382  -15.4957   -3.1885 C   0  0  2  0  0  0  0  0  0  0  0  0
   22.6541  -14.6203   -2.1744 N   0  0  0  0  0  0  0  0  0  0  0  0
   21.6588  -12.1270   -7.7307 C   0  0  0  0  0  0  0  0  0  0  0  0
   22.3429   -7.4749   -4.9576 C   0  0  2  0  0  0  0  0  0  0  0  0
   21.3051   -8.4108   -4.7749 O   0  0  0  0  0  0  0  0  0  0  0  0
   24.8038  -15.6032   -3.0297 C   0  0  0  0  0  0  0  0  0  0  0  0
   22.4466  -13.2105   -6.8874 C   0  0  2  0  0  0  0  0  0  0  0  0
   21.6736  -14.4691   -6.8656 N   0  0  0  0  0  0  0  0  0  0  0  0
   22.0791   -6.5585   -6.2177 C   0  0  1  0  0  0  0  0  0  0  0  0
   20.7995   -5.8136   -6.0485 N   0  0  0  0  0  0  0  0  0  0  0  0
   25.5343  -15.9354   -4.3813 C   0  0  0  0  0  0  0  0  0  0  0  0
   22.6553  -12.6636   -5.4113 C   0  0  2  0  0  0  0  0  0  0  0  0
   23.3036   -5.4988   -6.3860 C   0  0  1  0  0  0  0  0  0  0  0  0
   23.4454   -4.6402   -5.2808 O   0  0  0  0  0  0  0  0  0  0  0  0
   24.8610  -16.0134   -5.5389 C   0  0  1  0  0  0  0  0  0  0  0  0
   23.4638  -15.8091   -5.6115 O   0  0  0  0  0  0  0  0  0  0  0  0
   23.4643  -11.3167   -5.4582 C   0  0  2  0  0  0  0  0  0  0  0  0
   23.6368  -10.8272   -4.1295 O   0  0  0  0  0  0  0  0  0  0  0  0
   24.6372   -6.2906   -6.5542 C   0  0  0  0  0  0  0  0  0  0  0  0
   24.8075   -7.2805   -5.4193 O   0  0  0  0  0  0  0  0  0  0  0  0
   25.5460  -16.3226   -6.8844 C   0  0  0  0  0  0  0  0  0  0  0  0
   24.8500  -17.4197   -7.5202 N   0  0  0  0  0  0  0  0  0  0  0  0
   22.6679  -10.2574   -6.3099 C   0  0  1  0  0  0  0  0  0  0  0  0
   23.4140   -9.0762   -6.3433 O   0  0  0  0  0  0  0  0  0  0  0  0
   23.1923   -4.5318   -7.5734 C   0  0  0  0  0  0  0  0  0  0  0  0
   19.5801   -6.5113   -6.4846 C   0  0  0  0  0  0  0  0  0  0  0  0
  1  2  1  1  0  0  0
  1  6  1  0  0  0  0
  1 21  1  0  0  0  0
  3  4  1  6  0  0  0
  3  8  1  0  0  0  0
  3 28  1  0  0  0  0
  5  9  1  0  0  0  0
  5 25  1  0  0  0  0
  5 29  1  6  0  0  0
  6  7  1  1  0  0  0
  6 11  1  0  0  0  0
  8 12  1  0  0  0  0
  9 10  1  6  0  0  0
  9 14  1  0  0  0  0
 11 16  1  0  0  0  0
 12 13  1  1  0  0  0
 12 17  1  0  0  0  0
 14 15  1  1  0  0  0
 14 18  1  0  0  0  0
 15 31  1  0  0  0  0
 16 20  1  0  0  0  0
 17  2  1  1  0  0  0
 17 22  1  0  0  0  0
 18 19  1  1  0  0  0
 18 24  1  0  0  0  0
 18 30  1  0  0  0  0
 20 21  1  0  0  0  0
 20 26  1  6  0  0  0
 22 23  1  1  0  0  0
 22 28  1  0  0  0  0
 24 25  1  0  0  0  0
 26 27  1  0  0  0  0
 28 29  1  6  0  0  0
M  END
>  <CHROM.1>
-146.63332574,-76.72443344,-86.50402445,-54.08560597,128.05334818,174.10444750
23.10669980,-10.97101052,-5.72669391,-1.20911649,-1.13630179,0.22152410

>  <Name>
ligand

>  <RI>
0

>  <Rbt.Current_Directory>
/home/itssahil/PROJECTS/Mol_Feturizer/New_Systems/rnas/4F8V

>  <Rbt.Executable>
rbdock ($Id: //depot/dev/client3/rdock/2013.1/src/exe/rbdock.cxx#4 $)

>  <Rbt.Library>
libRbt.so (2013.1, Build901 2013/11/27)

>  <Rbt.Parameter_File>
/export/apps/rDock/src/rDock_2013.1_src/data/scripts/dock_solv.prm

>  <Rbt.Receptor>
prm/pocket_docking_7.prm

>  <SCORE>
-4.93946

>  <SCORE.INTER>
-4.83582

>  <SCORE.INTER.CONST>
1

>  <SCORE.INTER.POLAR>
0

>  <SCORE.INTER.ROT>
6

>  <SCORE.INTER.SOLV>
13.0532

>  <SCORE.INTER.VDW>
-15.175

>  <SCORE.INTER.norm>
-0.155994

>  <SCORE.INTRA>
-0.10364

>  <SCORE.INTRA.DIHEDRAL>
-7.78722

>  <SCORE.INTRA.DIHEDRAL.0>
15.9129

>  <SCORE.INTRA.POLAR>
0

>  <SCORE.INTRA.POLAR.0>
0

>  <SCORE.INTRA.REPUL>
0

>  <SCORE.INTRA.REPUL.0>
0

>  <SCORE.INTRA.SOLV>
0.148466

>  <SCORE.INTRA.SOLV.lig_0>
-75.7056

>  <SCORE.INTRA.VDW>
3.71574

>  <SCORE.INTRA.VDW.0>
-4.61812

>  <SCORE.INTRA.norm>
-0.00334322

>  <SCORE.RESTR>
0

>  <SCORE.RESTR.CAVITY>
0

>  <SCORE.RESTR.norm>
0

>  <SCORE.SYSTEM>
0

>  <SCORE.SYSTEM.CONST>
0

>  <SCORE.SYSTEM.DIHEDRAL>
0

>  <SCORE.SYSTEM.SOLV>
0

>  <SCORE.SYSTEM.norm>
0

>  <SCORE.heavy>
31

>  <SCORE.norm>
-0.159337

>  <RMSD>
8.647

$$$$
ligand
 OpenBabel11021811493D
libRbt.so/2013.1/901 2013/11/27
 31 33  0  0  0  0  0  0  0  0999 V2000
   24.6014  -14.8177   -4.8647 C   0  0  2  0  0  0  0  0  0  0  0  0
   23.6428  -15.6031   -5.5864 O   0  0  0  0  0  0  0  0  0  0  0  0
   21.5644  -14.5313   -9.1529 C   0  0  2  0  0  0  0  0  0  0  0  0
   20.6649  -13.8562  -10.0264 N   0  0  0  0  0  0  0  0  0  0  0  0
   22.6575  -12.0627  -10.5858 C   0  0  2  0  0  0  0  0  0  0  0  0
   25.5467  -15.8176   -4.1297 C   0  0  2  0  0  0  0  0  0  0  0  0
   26.1579  -16.7054   -5.1168 N   0  0  0  0  0  0  0  0  0  0  0  0
   20.7424  -15.2628   -8.0265 C   0  0  0  0  0  0  0  0  0  0  0  0
   23.8666  -11.4124  -11.3109 C   0  0  2  0  0  0  0  0  0  0  0  0
   24.7182  -12.4355  -11.7737 O   0  0  0  0  0  0  0  0  0  0  0  0
   24.7446  -16.6274   -3.0394 C   0  0  0  0  0  0  0  0  0  0  0  0
   21.7452  -16.0124   -7.0580 C   0  0  2  0  0  0  0  0  0  0  0  0
   20.9792  -16.6978   -5.9970 N   0  0  0  0  0  0  0  0  0  0  0  0
   24.6050  -10.4675  -10.2818 C   0  0  1  0  0  0  0  0  0  0  0  0
   25.7900   -9.8356  -10.9281 N   0  0  0  0  0  0  0  0  0  0  0  0
   23.5771  -15.7950   -2.3953 C   0  0  0  0  0  0  0  0  0  0  0  0
   22.7406  -14.9502   -6.4235 C   0  0  2  0  0  0  0  0  0  0  0  0
   23.5811   -9.3067   -9.7769 C   0  0  1  0  0  0  0  0  0  0  0  0
   23.1183   -8.4871  -10.8223 O   0  0  0  0  0  0  0  0  0  0  0  0
   23.2742  -14.5630   -2.8309 C   0  0  1  0  0  0  0  0  0  0  0  0
   23.9851  -13.9413   -3.8832 O   0  0  0  0  0  0  0  0  0  0  0  0
   23.5327  -14.2210   -7.5688 C   0  0  2  0  0  0  0  0  0  0  0  0
   24.4154  -13.2613   -6.9904 O   0  0  0  0  0  0  0  0  0  0  0  0
   22.3425   -9.9810   -9.1099 C   0  0  0  0  0  0  0  0  0  0  0  0
   21.7305  -11.0012  -10.0487 O   0  0  0  0  0  0  0  0  0  0  0  0
   22.1277  -13.7241   -2.2332 C   0  0  0  0  0  0  0  0  0  0  0  0
   22.6897  -12.5506   -1.6012 N   0  0  0  0  0  0  0  0  0  0  0  0
   22.5159  -13.4913   -8.5255 C   0  0  1  0  0  0  0  0  0  0  0  0
   23.2456  -12.8622   -9.5378 O   0  0  0  0  0  0  0  0  0  0  0  0
   24.1548   -8.3023   -8.7673 C   0  0  0  0  0  0  0  0  0  0  0  0
   27.0951  -10.1254  -10.3145 C   0  0  0  0  0  0  0  0  0  0  0  0
  1  2  1  1  0  0  0
  1  6  1  0  0  0  0
  1 21  1  0  0  0  0
  3  4  1  6  0  0  0
  3  8  1  0  0  0  0
  3 28  1  0  0  0  0
  5  9  1  0  0  0  0
  5 25  1  0  0  0  0
  5 29  1  1  0  0  0
  6  7  1  6  0  0  0
  6 11  1  0  0  0  0
  8 12  1  0  0  0  0
  9 10  1  1  0  0  0
  9 14  1  0  0  0  0
 11 16  1  0  0  0  0
 12 13  1  1  0  0  0
 12 17  1  0  0  0  0
 14 15  1  6  0  0  0
 14 18  1  0  0  0  0
 15 31  1  0  0  0  0
 16 20  1  0  0  0  0
 17  2  1  1  0  0  0
 17 22  1  0  0  0  0
 18 19  1  6  0  0  0
 18 24  1  0  0  0  0
 18 30  1  0  0  0  0
 20 21  1  0  0  0  0
 20 26  1  6  0  0  0
 22 23  1  1  0  0  0
 22 28  1  0  0  0  0
 24 25  1  0  0  0  0
 26 27  1  0  0  0  0
 28 29  1  6  0  0  0
M  END
>  <CHROM.1>
-174.79643723,171.39943524,-119.67090927,-177.46745355,115.37813990,62.57666897
23.44009637,-13.14550878,-7.40464046,-1.62906101,-0.88295491,-0.98247183

>  <Name>
ligand

>  <RI>
0

>  <Rbt.Current_Directory>
/home/itssahil/PROJECTS/Mol_Feturizer/New_Systems/rnas/4F8V

>  <Rbt.Executable>
rbdock ($Id: //depot/dev/client3/rdock/2013.1/src/exe/rbdock.cxx#4 $)

>  <Rbt.Library>
libRbt.so (2013.1, Build901 2013/11/27)

>  <Rbt.Parameter_File>
/export/apps/rDock/src/rDock_2013.1_src/data/scripts/dock_solv.prm

>  <Rbt.Receptor>
prm/pocket_docking_7.prm

>  <SCORE>
-10.856

>  <SCORE.INTER>
-6.04182

>  <SCORE.INTER.CONST>
1

>  <SCORE.INTER.POLAR>
0

>  <SCORE.INTER.ROT>
6

>  <SCORE.INTER.SOLV>
13.5296

>  <SCORE.INTER.VDW>
-16.1377

>  <SCORE.INTER.norm>
-0.194898

>  <SCORE.INTRA>
-4.81414

>  <SCORE.INTRA.DIHEDRAL>
-12.4464

>  <SCORE.INTRA.DIHEDRAL.0>
15.9129

>  <SCORE.INTRA.POLAR>
0

>  <SCORE.INTRA.POLAR.0>
0

>  <SCORE.INTRA.REPUL>
0

>  <SCORE.INTRA.REPUL.0>
0

>  <SCORE.INTRA.SOLV>
-2.22635

>  <SCORE.INTRA.SOLV.lig_0>
-75.7056

>  <SCORE.INTRA.VDW>
2.52221

>  <SCORE.INTRA.VDW.0>
-4.61812

>  <SCORE.INTRA.norm>
-0.155295

>  <SCORE.RESTR>
0

>  <SCORE.RESTR.CAVITY>
0

>  <SCORE.RESTR.norm>
0

>  <SCORE.SYSTEM>
0

>  <SCORE.SYSTEM.CONST>
0

>  <SCORE.SYSTEM.DIHEDRAL>
0

>  <SCORE.SYSTEM.SOLV>
0

>  <SCORE.SYSTEM.norm>
0

>  <SCORE.heavy>
31

>  <SCORE.norm>
-0.350192

>  <RMSD>
8.738

$$$$
ligand
 OpenBabel11021811493D
libRbt.so/2013.1/901 2013/11/27
 31 33  0  0  0  0  0  0  0  0999 V2000
   13.9171   -8.0626   -3.0638 C   0  0  2  0  0  0  0  0  0  0  0  0
   13.4793   -7.3654   -4.2379 O   0  0  0  0  0  0  0  0  0  0  0  0
   15.7673   -4.8367   -6.7991 C   0  0  2  0  0  0  0  0  0  0  0  0
   16.5329   -3.7207   -7.2423 N   0  0  0  0  0  0  0  0  0  0  0  0
   18.8213   -6.1598   -5.0274 C   0  0  2  0  0  0  0  0  0  0  0  0
   12.6400   -8.6272   -2.3682 C   0  0  2  0  0  0  0  0  0  0  0  0
   11.9253   -9.4841   -3.3122 N   0  0  0  0  0  0  0  0  0  0  0  0
   14.3239   -4.3498   -6.4004 C   0  0  0  0  0  0  0  0  0  0  0  0
   20.1032   -6.1639   -5.9033 C   0  0  2  0  0  0  0  0  0  0  0  0
   20.1984   -4.9252   -6.5689 O   0  0  0  0  0  0  0  0  0  0  0  0
   11.7301   -7.4459   -1.8539 C   0  0  0  0  0  0  0  0  0  0  0  0
   13.4759   -5.5928   -5.9089 C   0  0  2  0  0  0  0  0  0  0  0  0
   12.1214   -5.1409   -5.5301 N   0  0  0  0  0  0  0  0  0  0  0  0
   19.9936   -7.3628   -6.9270 C   0  0  1  0  0  0  0  0  0  0  0  0
   21.1956   -7.3939   -7.8075 N   0  0  0  0  0  0  0  0  0  0  0  0
   12.5573   -6.1840   -1.4134 C   0  0  0  0  0  0  0  0  0  0  0  0
   14.2061   -6.2558   -4.6644 C   0  0  2  0  0  0  0  0  0  0  0  0
   19.8845   -8.7673   -6.1109 C   0  0  1  0  0  0  0  0  0  0  0  0
   21.0067   -9.0237   -5.3024 O   0  0  0  0  0  0  0  0  0  0  0  0
   13.8885   -6.1316   -1.5695 C   0  0  1  0  0  0  0  0  0  0  0  0
   14.6229   -7.2021   -2.1297 O   0  0  0  0  0  0  0  0  0  0  0  0
   15.6501   -6.7138   -5.0837 C   0  0  2  0  0  0  0  0  0  0  0  0
   16.3023   -7.2973   -3.9572 O   0  0  0  0  0  0  0  0  0  0  0  0
   18.6277   -8.7187   -5.1879 C   0  0  0  0  0  0  0  0  0  0  0  0
   18.6639   -7.4801   -4.3154 O   0  0  0  0  0  0  0  0  0  0  0  0
   14.7296   -4.9058   -1.1626 C   0  0  0  0  0  0  0  0  0  0  0  0
   14.9709   -4.0961   -2.3368 N   0  0  0  0  0  0  0  0  0  0  0  0
   16.4722   -5.4644   -5.5786 C   0  0  1  0  0  0  0  0  0  0  0  0
   17.7452   -5.9019   -5.9541 O   0  0  0  0  0  0  0  0  0  0  0  0
   19.7717  -10.0336   -6.9717 C   0  0  0  0  0  0  0  0  0  0  0  0
   20.9471   -7.2490   -9.2501 C   0  0  0  0  0  0  0  0  0  0  0  0
  1  2  1  6  0  0  0
  1  6  1  0  0  0  0
  1 21  1  0  0  0  0
  3  4  1  1  0  0  0
  3  8  1  0  0  0  0
  3 28  1  0  0  0  0
  5  9  1  0  0  0  0
  5 25  1  0  0  0  0
  5 29  1  6  0  0  0
  6  7  1  6  0  0  0
  6 11  1  0  0  0  0
  8 12  1  0  0  0  0
  9 10  1  6  0  0  0
  9 14  1  0  0  0  0
 11 16  1  0  0  0  0
 12 13  1  1  0  0  0
 12 17  1  0  0  0  0
 14 15  1  6  0  0  0
 14 18  1  0  0  0  0
 15 31  1  0  0  0  0
 16 20  1  0  0  0  0
 17  2  1  6  0  0  0
 17 22  1  0  0  0  0
 18 19  1  1  0  0  0
 18 24  1  0  0  0  0
 18 30  1  0  0  0  0
 20 21  1  0  0  0  0
 20 26  1  6  0  0  0
 22 23  1  1  0  0  0
 22 28  1  0  0  0  0
 24 25  1  0  0  0  0
 26 27  1  0  0  0  0
 28 29  1  6  0  0  0
M  END
>  <CHROM.1>
148.00872183,-162.27812845,-119.96716554,-175.88126153,-97.75270143,160.41122996
16.37934601,-6.72675143,-4.84031779,-2.93857738,0.48144661,-0.59112606

>  <Name>
ligand

>  <RI>
0

>  <Rbt.Current_Directory>
/home/itssahil/PROJECTS/Mol_Feturizer/New_Systems/rnas/4F8V

>  <Rbt.Executable>
rbdock ($Id: //depot/dev/client3/rdock/2013.1/src/exe/rbdock.cxx#4 $)

>  <Rbt.Library>
libRbt.so (2013.1, Build901 2013/11/27)

>  <Rbt.Parameter_File>
/export/apps/rDock/src/rDock_2013.1_src/data/scripts/dock_solv.prm

>  <Rbt.Receptor>
prm/blind_docking_100.prm

>  <SCORE>
12.0445

>  <SCORE.INTER>
-1.86203

>  <SCORE.INTER.CONST>
1

>  <SCORE.INTER.POLAR>
0

>  <SCORE.INTER.ROT>
6

>  <SCORE.INTER.SOLV>
20.2066

>  <SCORE.INTER.VDW>
-15.5769

>  <SCORE.INTER.norm>
-0.0600656

>  <SCORE.INTRA>
0.67174

>  <SCORE.INTRA.DIHEDRAL>
-5.21545

>  <SCORE.INTRA.DIHEDRAL.0>
15.9129

>  <SCORE.INTRA.POLAR>
0

>  <SCORE.INTRA.POLAR.0>
0

>  <SCORE.INTRA.REPUL>
0

>  <SCORE.INTRA.REPUL.0>
0

>  <SCORE.INTRA.SOLV>
0.408657

>  <SCORE.INTRA.SOLV.lig_0>
-75.7056

>  <SCORE.INTRA.VDW>
3.07514

>  <SCORE.INTRA.VDW.0>
-4.61812

>  <SCORE.INTRA.norm>
0.021669

>  <SCORE.RESTR>
13.2348

>  <SCORE.RESTR.CAVITY>
13.2348

>  <SCORE.RESTR.norm>
0.426928

>  <SCORE.SYSTEM>
0

>  <SCORE.SYSTEM.CONST>
0

>  <SCORE.SYSTEM.DIHEDRAL>
0

>  <SCORE.SYSTEM.SOLV>
0

>  <SCORE.SYSTEM.norm>
0

>  <SCORE.heavy>
31

>  <SCORE.norm>
0.388532

>  <RMSD>
8.750

$$$$
ligand
 OpenBabel11021811493D
libRbt.so/2013.1/901 2013/11/27
 31 33  0  0  0  0  0  0  0  0999 V2000
   25.5628  -12.1276   -2.9904 C   0  0  2  0  0  0  0  0  0  0  0  0
   26.0633  -12.5316   -4.2721 O   0  0  0  0  0  0  0  0  0  0  0  0
   24.6645  -11.7831   -8.2309 C   0  0  2  0  0  0  0  0  0  0  0  0
   23.7873  -11.7194   -9.3509 N   0  0  0  0  0  0  0  0  0  0  0  0
   22.8284   -9.1392   -8.2915 C   0  0  2  0  0  0  0  0  0  0  0  0
   26.7966  -11.9784   -2.0475 C   0  0  2  0  0  0  0  0  0  0  0  0
   27.7260  -11.0134   -2.6315 N   0  0  0  0  0  0  0  0  0  0  0  0
   24.8429  -13.2863   -7.7968 C   0  0  0  0  0  0  0  0  0  0  0  0
   23.3153   -7.7527   -8.7926 C   0  0  2  0  0  0  0  0  0  0  0  0
   24.5306   -7.9250   -9.4853 O   0  0  0  0  0  0  0  0  0  0  0  0
   27.4832  -13.3801   -1.8197 C   0  0  0  0  0  0  0  0  0  0  0  0
   25.8186  -13.3532   -6.5522 C   0  0  2  0  0  0  0  0  0  0  0  0
   25.9868  -14.7613   -6.1387 N   0  0  0  0  0  0  0  0  0  0  0  0
   23.4954   -6.8125   -7.5352 C   0  0  1  0  0  0  0  0  0  0  0  0
   23.9847   -5.4723   -7.9657 N   0  0  0  0  0  0  0  0  0  0  0  0
   26.4601  -14.5733   -1.8436 C   0  0  0  0  0  0  0  0  0  0  0  0
   25.2005  -12.4980   -5.3655 C   0  0  2  0  0  0  0  0  0  0  0  0
   22.0678   -6.6471   -6.7703 C   0  0  1  0  0  0  0  0  0  0  0  0
   21.0747   -6.0623   -7.5769 O   0  0  0  0  0  0  0  0  0  0  0  0
   25.1641  -14.3771   -2.1283 C   0  0  1  0  0  0  0  0  0  0  0  0
   24.6430  -13.0946   -2.4160 O   0  0  0  0  0  0  0  0  0  0  0  0
   25.0141  -11.0084   -5.8314 C   0  0  2  0  0  0  0  0  0  0  0  0
   24.4480  -10.2508   -4.7635 O   0  0  0  0  0  0  0  0  0  0  0  0
   21.5633   -8.0568   -6.3322 C   0  0  0  0  0  0  0  0  0  0  0  0
   21.5407   -8.9991   -7.5189 O   0  0  0  0  0  0  0  0  0  0  0  0
   24.1361  -15.5245   -2.1749 C   0  0  0  0  0  0  0  0  0  0  0  0
   23.5845  -15.6017   -3.5098 N   0  0  0  0  0  0  0  0  0  0  0  0
   24.0489  -10.9662   -7.0758 C   0  0  1  0  0  0  0  0  0  0  0  0
   23.9103   -9.6339   -7.4741 O   0  0  0  0  0  0  0  0  0  0  0  0
   22.0786   -5.7557   -5.5202 C   0  0  0  0  0  0  0  0  0  0  0  0
   25.3752   -5.1456   -7.6142 C   0  0  0  0  0  0  0  0  0  0  0  0
  1  2  1  6  0  0  0
  1  6  1  0  0  0  0
  1 21  1  0  0  0  0
  3  4  1  6  0  0  0
  3  8  1  0  0  0  0
  3 28  1  0  0  0  0
  5  9  1  0  0  0  0
  5 25  1  0  0  0  0
  5 29  1  1  0  0  0
  6  7  1  6  0  0  0
  6 11  1  0  0  0  0
  8 12  1  0  0  0  0
  9 10  1  1  0  0  0
  9 14  1  0  0  0  0
 11 16  1  0  0  0  0
 12 13  1  1  0  0  0
 12 17  1  0  0  0  0
 14 15  1  6  0  0  0
 14 18  1  0  0  0  0
 15 31  1  0  0  0  0
 16 20  1  0  0  0  0
 17  2  1  1  0  0  0
 17 22  1  0  0  0  0
 18 19  1  6  0  0  0
 18 24  1  0  0  0  0
 18 30  1  0  0  0  0
 20 21  1  0  0  0  0
 20 26  1  6  0  0  0
 22 23  1  1  0  0  0
 22 28  1  0  0  0  0
 24 25  1  0  0  0  0
 26 27  1  0  0  0  0
 28 29  1  6  0  0  0
M  END
>  <CHROM.1>
-168.28183145,-164.20199579,-109.31545369,-164.08759758,-118.69858144,80.43718854
24.40426198,-10.64091164,-5.74615058,-0.38115339,-1.22863506,0.56759201

>  <Name>
ligand

>  <RI>
0

>  <Rbt.Current_Directory>
/home/itssahil/PROJECTS/Mol_Feturizer/New_Systems/rnas/4F8V

>  <Rbt.Executable>
rbdock ($Id: //depot/dev/client3/rdock/2013.1/src/exe/rbdock.cxx#4 $)

>  <Rbt.Library>
libRbt.so (2013.1, Build901 2013/11/27)

>  <Rbt.Parameter_File>
/export/apps/rDock/src/rDock_2013.1_src/data/scripts/dock_solv.prm

>  <Rbt.Receptor>
prm/pocket_docking_7.prm

>  <SCORE>
-8.7548

>  <SCORE.INTER>
-5.54839

>  <SCORE.INTER.CONST>
1

>  <SCORE.INTER.POLAR>
0

>  <SCORE.INTER.ROT>
6

>  <SCORE.INTER.SOLV>
8.08786

>  <SCORE.INTER.VDW>
-13.9949

>  <SCORE.INTER.norm>
-0.17898

>  <SCORE.INTRA>
-3.20642

>  <SCORE.INTRA.DIHEDRAL>
-8.24998

>  <SCORE.INTRA.DIHEDRAL.0>
15.9129

>  <SCORE.INTRA.POLAR>
0

>  <SCORE.INTRA.POLAR.0>
0

>  <SCORE.INTRA.REPUL>
0

>  <SCORE.INTRA.REPUL.0>
0

>  <SCORE.INTRA.SOLV>
0.181358

>  <SCORE.INTRA.SOLV.lig_0>
-75.7056

>  <SCORE.INTRA.VDW>
0.827894

>  <SCORE.INTRA.VDW.0>
-4.61812

>  <SCORE.INTRA.norm>
-0.103433

>  <SCORE.RESTR>
0

>  <SCORE.RESTR.CAVITY>
0

>  <SCORE.RESTR.norm>
0

>  <SCORE.SYSTEM>
0

>  <SCORE.SYSTEM.CONST>
0

>  <SCORE.SYSTEM.DIHEDRAL>
0

>  <SCORE.SYSTEM.SOLV>
0

>  <SCORE.SYSTEM.norm>
0

>  <SCORE.heavy>
31

>  <SCORE.norm>
-0.282413

>  <RMSD>
8.827

$$$$
ligand
 OpenBabel11021811493D
libRbt.so/2013.1/901 2013/11/27
 31 33  0  0  0  0  0  0  0  0999 V2000
   25.7246  -12.1492   -2.2343 C   0  0  2  0  0  0  0  0  0  0  0  0
   26.4195  -12.1003   -3.4878 O   0  0  0  0  0  0  0  0  0  0  0  0
   25.2540  -10.3620   -7.2037 C   0  0  2  0  0  0  0  0  0  0  0  0
   24.4989  -10.1072   -8.3839 N   0  0  0  0  0  0  0  0  0  0  0  0
   22.9868   -8.2664   -4.9945 C   0  0  2  0  0  0  0  0  0  0  0  0
   26.8098  -12.2277   -1.1162 C   0  0  2  0  0  0  0  0  0  0  0  0
   27.6984  -11.0735   -1.2358 N   0  0  0  0  0  0  0  0  0  0  0  0
   25.7695  -11.8497   -7.2291 C   0  0  0  0  0  0  0  0  0  0  0  0
   22.3870   -7.0089   -5.6798 C   0  0  2  0  0  0  0  0  0  0  0  0
   21.7838   -7.4006   -6.8918 O   0  0  0  0  0  0  0  0  0  0  0  0
   27.6055  -13.5855   -1.2211 C   0  0  0  0  0  0  0  0  0  0  0  0
   26.6086  -12.1290   -5.9162 C   0  0  2  0  0  0  0  0  0  0  0  0
   27.0919  -13.5248   -5.9333 N   0  0  0  0  0  0  0  0  0  0  0  0
   23.5593   -5.9778   -5.9246 C   0  0  1  0  0  0  0  0  0  0  0  0
   23.0341   -4.7593   -6.6031 N   0  0  0  0  0  0  0  0  0  0  0  0
   26.7236  -14.7714   -1.7567 C   0  0  0  0  0  0  0  0  0  0  0  0
   25.6836  -11.8792   -4.6499 C   0  0  2  0  0  0  0  0  0  0  0  0
   24.2228   -5.5591   -4.4981 C   0  0  1  0  0  0  0  0  0  0  0  0
   23.3099   -4.9380   -3.6267 O   0  0  0  0  0  0  0  0  0  0  0  0
   25.4595  -14.5755   -2.1602 C   0  0  1  0  0  0  0  0  0  0  0  0
   24.8469  -13.3017   -2.1229 O   0  0  0  0  0  0  0  0  0  0  0  0
   25.1667  -10.3948   -4.6599 C   0  0  2  0  0  0  0  0  0  0  0  0
   24.3278  -10.1830   -3.5257 O   0  0  0  0  0  0  0  0  0  0  0  0
   24.7612   -6.8435   -3.7952 C   0  0  0  0  0  0  0  0  0  0  0  0
   23.6683   -7.8894   -3.7029 O   0  0  0  0  0  0  0  0  0  0  0  0
   24.5708  -15.7111   -2.7042 C   0  0  0  0  0  0  0  0  0  0  0  0
   23.1983  -15.4481   -2.3307 N   0  0  0  0  0  0  0  0  0  0  0  0
   24.3441  -10.1360   -5.9783 C   0  0  1  0  0  0  0  0  0  0  0  0
   23.9072   -8.8087   -5.9652 O   0  0  0  0  0  0  0  0  0  0  0  0
   25.3827   -4.5557   -4.5693 C   0  0  0  0  0  0  0  0  0  0  0  0
   23.1312   -4.7411   -8.0708 C   0  0  0  0  0  0  0  0  0  0  0  0
  1  2  1  6  0  0  0
  1  6  1  0  0  0  0
  1 21  1  0  0  0  0
  3  4  1  6  0  0  0
  3  8  1  0  0  0  0
  3 28  1  0  0  0  0
  5  9  1  0  0  0  0
  5 25  1  0  0  0  0
  5 29  1  6  0  0  0
  6  7  1  6  0  0  0
  6 11  1  0  0  0  0
  8 12  1  0  0  0  0
  9 10  1  6  0  0  0
  9 14  1  0  0  0  0
 11 16  1  0  0  0  0
 12 13  1  6  0  0  0
 12 17  1  0  0  0  0
 14 15  1  1  0  0  0
 14 18  1  0  0  0  0
 15 31  1  0  0  0  0
 16 20  1  0  0  0  0
 17  2  1  1  0  0  0
 17 22  1  0  0  0  0
 18 19  1  1  0  0  0
 18 24  1  0  0  0  0
 18 30  1  0  0  0  0
 20 21  1  0  0  0  0
 20 26  1  6  0  0  0
 22 23  1  1  0  0  0
 22 28  1  0  0  0  0
 24 25  1  0  0  0  0
 26 27  1  0  0  0  0
 28 29  1  1  0  0  0
M  END
>  <CHROM.1>
-173.08440329,-158.32067753,-94.11574645,-169.72803798,147.17026857,176.83674750
24.80971850,-10.03196830,-4.45355948,-0.42669228,-1.25797326,0.72800446

>  <Name>
ligand

>  <RI>
0

>  <Rbt.Current_Directory>
/home/itssahil/PROJECTS/Mol_Feturizer/New_Systems/rnas/4F8V

>  <Rbt.Executable>
rbdock ($Id: //depot/dev/client3/rdock/2013.1/src/exe/rbdock.cxx#4 $)

>  <Rbt.Library>
libRbt.so (2013.1, Build901 2013/11/27)

>  <Rbt.Parameter_File>
/export/apps/rDock/src/rDock_2013.1_src/data/scripts/dock_solv.prm

>  <Rbt.Receptor>
prm/pocket_docking_7.prm

>  <SCORE>
-6.04075

>  <SCORE.INTER>
-2.76561

>  <SCORE.INTER.CONST>
1

>  <SCORE.INTER.POLAR>
0

>  <SCORE.INTER.ROT>
6

>  <SCORE.INTER.SOLV>
10.7236

>  <SCORE.INTER.VDW>
-13.0183

>  <SCORE.INTER.norm>
-0.0892133

>  <SCORE.INTRA>
-3.27514

>  <SCORE.INTRA.DIHEDRAL>
-9.80958

>  <SCORE.INTRA.DIHEDRAL.0>
15.9129

>  <SCORE.INTRA.POLAR>
0

>  <SCORE.INTRA.POLAR.0>
0

>  <SCORE.INTRA.REPUL>
0

>  <SCORE.INTRA.REPUL.0>
0

>  <SCORE.INTRA.SOLV>
-2.9368

>  <SCORE.INTRA.SOLV.lig_0>
-75.7056

>  <SCORE.INTRA.VDW>
3.09805

>  <SCORE.INTRA.VDW.0>
-4.61812

>  <SCORE.INTRA.norm>
-0.10565

>  <SCORE.RESTR>
0

>  <SCORE.RESTR.CAVITY>
0

>  <SCORE.RESTR.norm>
0

>  <SCORE.SYSTEM>
0

>  <SCORE.SYSTEM.CONST>
0

>  <SCORE.SYSTEM.DIHEDRAL>
0

>  <SCORE.SYSTEM.SOLV>
0

>  <SCORE.SYSTEM.norm>
0

>  <SCORE.heavy>
31

>  <SCORE.norm>
-0.194863

>  <RMSD>
8.840

$$$$
ligand
 OpenBabel11021811493D
libRbt.so/2013.1/901 2013/11/27
 31 33  0  0  0  0  0  0  0  0999 V2000
   25.5570  -12.1635   -3.0132 C   0  0  2  0  0  0  0  0  0  0  0  0
   26.0440  -12.5699   -4.2993 O   0  0  0  0  0  0  0  0  0  0  0  0
   24.6321  -11.7981   -8.2489 C   0  0  2  0  0  0  0  0  0  0  0  0
   23.7487  -11.7196   -9.3631 N   0  0  0  0  0  0  0  0  0  0  0  0
   22.8466   -9.1261   -8.3077 C   0  0  2  0  0  0  0  0  0  0  0  0
   26.8006  -12.0131   -2.0834 C   0  0  2  0  0  0  0  0  0  0  0  0
   27.7242  -11.0494   -2.6788 N   0  0  0  0  0  0  0  0  0  0  0  0
   24.7881  -13.3040   -7.8159 C   0  0  0  0  0  0  0  0  0  0  0  0
   23.3610   -7.7536   -8.8194 C   0  0  2  0  0  0  0  0  0  0  0  0
   24.5719   -7.9556   -9.5117 O   0  0  0  0  0  0  0  0  0  0  0  0
   27.4890  -13.4145   -1.8603 C   0  0  0  0  0  0  0  0  0  0  0  0
   25.7707  -13.3873   -6.5777 C   0  0  2  0  0  0  0  0  0  0  0  0
   25.9179  -14.7981   -6.1652 N   0  0  0  0  0  0  0  0  0  0  0  0
   23.5612   -6.8079   -7.5693 C   0  0  1  0  0  0  0  0  0  0  0  0
   24.0771   -5.4810   -8.0101 N   0  0  0  0  0  0  0  0  0  0  0  0
   26.4654  -14.6074   -1.8714 C   0  0  0  0  0  0  0  0  0  0  0  0
   25.1748  -12.5219   -5.3871 C   0  0  2  0  0  0  0  0  0  0  0  0
   22.1379   -6.6079   -6.8045 C   0  0  1  0  0  0  0  0  0  0  0  0
   21.1561   -6.0092   -7.6147 O   0  0  0  0  0  0  0  0  0  0  0  0
   25.1666  -14.4113   -2.1430 C   0  0  1  0  0  0  0  0  0  0  0  0
   24.6429  -13.1292   -2.4276 O   0  0  0  0  0  0  0  0  0  0  0  0
   25.0103  -11.0294   -5.8518 C   0  0  2  0  0  0  0  0  0  0  0  0
   24.4640  -10.2624   -4.7804 O   0  0  0  0  0  0  0  0  0  0  0  0
   21.6053   -8.0038   -6.3555 C   0  0  0  0  0  0  0  0  0  0  0  0
   21.5627   -8.9543   -7.5352 O   0  0  0  0  0  0  0  0  0  0  0  0
   24.1378  -15.5585   -2.1768 C   0  0  0  0  0  0  0  0  0  0  0  0
   23.6290  -15.6881   -3.5246 N   0  0  0  0  0  0  0  0  0  0  0  0
   24.0378  -10.9710   -7.0899 C   0  0  1  0  0  0  0  0  0  0  0  0
   23.9190   -9.6366   -7.4874 O   0  0  0  0  0  0  0  0  0  0  0  0
   22.1678   -5.7076   -5.5612 C   0  0  0  0  0  0  0  0  0  0  0  0
   25.5317   -5.2854   -7.9122 C   0  0  0  0  0  0  0  0  0  0  0  0
  1  2  1  6  0  0  0
  1  6  1  0  0  0  0
  1 21  1  0  0  0  0
  3  4  1  6  0  0  0
  3  8  1  0  0  0  0
  3 28  1  0  0  0  0
  5  9  1  0  0  0  0
  5 25  1  0  0  0  0
  5 29  1  1  0  0  0
  6  7  1  6  0  0  0
  6 11  1  0  0  0  0
  8 12  1  0  0  0  0
  9 10  1  1  0  0  0
  9 14  1  0  0  0  0
 11 16  1  0  0  0  0
 12 13  1  1  0  0  0
 12 17  1  0  0  0  0
 14 15  1  6  0  0  0
 14 18  1  0  0  0  0
 15 31  1  0  0  0  0
 16 20  1  0  0  0  0
 17  2  1  1  0  0  0
 17 22  1  0  0  0  0
 18 19  1  6  0  0  0
 18 24  1  0  0  0  0
 18 30  1  0  0  0  0
 20 21  1  0  0  0  0
 20 26  1  6  0  0  0
 22 23  1  1  0  0  0
 22 28  1  0  0  0  0
 24 25  1  0  0  0  0
 26 27  1  0  0  0  0
 28 29  1  6  0  0  0
M  END
>  <CHROM.1>
-167.47715545,-163.56080658,-97.25061854,-163.80374579,-115.43558246,79.85752268
24.42127490,-10.65680400,-5.77991760,-0.41842386,-1.23491077,0.52904505

>  <Name>
ligand

>  <RI>
0

>  <Rbt.Current_Directory>
/home/itssahil/PROJECTS/Mol_Feturizer/New_Systems/rnas/4F8V

>  <Rbt.Executable>
rbdock ($Id: //depot/dev/client3/rdock/2013.1/src/exe/rbdock.cxx#4 $)

>  <Rbt.Library>
libRbt.so (2013.1, Build901 2013/11/27)

>  <Rbt.Parameter_File>
/export/apps/rDock/src/rDock_2013.1_src/data/scripts/dock_solv.prm

>  <Rbt.Receptor>
prm/pocket_docking_7.prm

>  <SCORE>
-8.85058

>  <SCORE.INTER>
-5.72789

>  <SCORE.INTER.CONST>
1

>  <SCORE.INTER.POLAR>
0

>  <SCORE.INTER.ROT>
6

>  <SCORE.INTER.SOLV>
8.17339

>  <SCORE.INTER.VDW>
-14.1431

>  <SCORE.INTER.norm>
-0.184771

>  <SCORE.INTRA>
-3.12269

>  <SCORE.INTRA.DIHEDRAL>
-8.38559

>  <SCORE.INTRA.DIHEDRAL.0>
15.9129

>  <SCORE.INTRA.POLAR>
0

>  <SCORE.INTRA.POLAR.0>
0

>  <SCORE.INTRA.REPUL>
0

>  <SCORE.INTRA.REPUL.0>
0

>  <SCORE.INTRA.SOLV>
0.304762

>  <SCORE.INTRA.SOLV.lig_0>
-75.7056

>  <SCORE.INTRA.VDW>
0.91772

>  <SCORE.INTRA.VDW.0>
-4.61812

>  <SCORE.INTRA.norm>
-0.100732

>  <SCORE.RESTR>
0

>  <SCORE.RESTR.CAVITY>
0

>  <SCORE.RESTR.norm>
0

>  <SCORE.SYSTEM>
0

>  <SCORE.SYSTEM.CONST>
0

>  <SCORE.SYSTEM.DIHEDRAL>
0

>  <SCORE.SYSTEM.SOLV>
0

>  <SCORE.SYSTEM.norm>
0

>  <SCORE.heavy>
31

>  <SCORE.norm>
-0.285503

>  <RMSD>
8.842

$$$$
ligand
 OpenBabel11021811493D
libRbt.so/2013.1/901 2013/11/27
 31 33  0  0  0  0  0  0  0  0999 V2000
   23.5508   -8.9875   -7.7308 C   0  0  2  0  0  0  0  0  0  0  0  0
   22.3127   -8.2749   -7.6058 O   0  0  0  0  0  0  0  0  0  0  0  0
   19.1259   -8.7827   -4.8174 C   0  0  2  0  0  0  0  0  0  0  0  0
   18.4196   -8.8030   -3.5810 N   0  0  0  0  0  0  0  0  0  0  0  0
   17.5306   -6.5433   -6.0982 C   0  0  2  0  0  0  0  0  0  0  0  0
   24.4732   -8.1363   -8.6574 C   0  0  2  0  0  0  0  0  0  0  0  0
   24.6326   -6.8055   -8.0746 N   0  0  0  0  0  0  0  0  0  0  0  0
   20.3188   -9.8084   -4.7500 C   0  0  0  0  0  0  0  0  0  0  0  0
   16.7451   -5.2139   -5.9358 C   0  0  2  0  0  0  0  0  0  0  0  0
   17.6333   -4.1382   -6.1368 O   0  0  0  0  0  0  0  0  0  0  0  0
   23.8689   -8.0636  -10.1125 C   0  0  0  0  0  0  0  0  0  0  0  0
   21.1010   -9.7835   -6.1259 C   0  0  2  0  0  0  0  0  0  0  0  0
   22.2237  -10.7418   -6.0668 N   0  0  0  0  0  0  0  0  0  0  0  0
   16.1235   -5.1860   -4.4832 C   0  0  1  0  0  0  0  0  0  0  0  0
   15.3760   -3.9141   -4.2720 N   0  0  0  0  0  0  0  0  0  0  0  0
   23.0801   -9.3630  -10.5128 C   0  0  0  0  0  0  0  0  0  0  0  0
   21.6417   -8.3132   -6.3853 C   0  0  2  0  0  0  0  0  0  0  0  0
   15.1090   -6.4463   -4.3009 C   0  0  1  0  0  0  0  0  0  0  0  0
   14.0318   -6.4220   -5.2052 O   0  0  0  0  0  0  0  0  0  0  0  0
   22.8873  -10.3611   -9.6376 C   0  0  1  0  0  0  0  0  0  0  0  0
   23.3830  -10.3075   -8.3145 O   0  0  0  0  0  0  0  0  0  0  0  0
   20.4342   -7.3078   -6.4276 C   0  0  2  0  0  0  0  0  0  0  0  0
   20.9301   -5.9888   -6.6494 O   0  0  0  0  0  0  0  0  0  0  0  0
   15.9015   -7.7700   -4.5321 C   0  0  0  0  0  0  0  0  0  0  0  0
   16.6229   -7.7249   -5.8642 O   0  0  0  0  0  0  0  0  0  0  0  0
   22.1070  -11.6425   -9.9906 C   0  0  0  0  0  0  0  0  0  0  0  0
   23.0173  -12.7662   -9.9567 N   0  0  0  0  0  0  0  0  0  0  0  0
   19.6645   -7.3564   -5.0539 C   0  0  1  0  0  0  0  0  0  0  0  0
   18.5924   -6.4628   -5.1238 O   0  0  0  0  0  0  0  0  0  0  0  0
   14.4204   -6.5577   -2.9332 C   0  0  0  0  0  0  0  0  0  0  0  0
   15.8199   -3.0802   -3.1445 C   0  0  0  0  0  0  0  0  0  0  0  0
  1  2  1  6  0  0  0
  1  6  1  0  0  0  0
  1 21  1  0  0  0  0
  3  4  1  1  0  0  0
  3  8  1  0  0  0  0
  3 28  1  0  0  0  0
  5  9  1  0  0  0  0
  5 25  1  0  0  0  0
  5 29  1  1  0  0  0
  6  7  1  1  0  0  0
  6 11  1  0  0  0  0
  8 12  1  0  0  0  0
  9 10  1  1  0  0  0
  9 14  1  0  0  0  0
 11 16  1  0  0  0  0
 12 13  1  1  0  0  0
 12 17  1  0  0  0  0
 14 15  1  6  0  0  0
 14 18  1  0  0  0  0
 15 31  1  0  0  0  0
 16 20  1  0  0  0  0
 17  2  1  6  0  0  0
 17 22  1  0  0  0  0
 18 19  1  6  0  0  0
 18 24  1  0  0  0  0
 18 30  1  0  0  0  0
 20 21  1  0  0  0  0
 20 26  1  1  0  0  0
 22 23  1  1  0  0  0
 22 28  1  0  0  0  0
 24 25  1  0  0  0  0
 26 27  1  0  0  0  0
 28 29  1  6  0  0  0
M  END
>  <CHROM.1>
-144.12129798,-170.02961412,-121.83763666,-67.94047124,114.37195572,-59.91192170
19.67698656,-7.74415314,-6.39502144,-0.44295063,0.53781478,-0.00316144

>  <Name>
ligand

>  <RI>
0

>  <Rbt.Current_Directory>
/home/itssahil/PROJECTS/Mol_Feturizer/New_Systems/rnas/4F8V

>  <Rbt.Executable>
rbdock ($Id: //depot/dev/client3/rdock/2013.1/src/exe/rbdock.cxx#4 $)

>  <Rbt.Library>
libRbt.so (2013.1, Build901 2013/11/27)

>  <Rbt.Parameter_File>
/export/apps/rDock/src/rDock_2013.1_src/data/scripts/dock_solv.prm

>  <Rbt.Receptor>
prm/pocket_docking_7.prm

>  <SCORE>
-12.6032

>  <SCORE.INTER>
-11.6915

>  <SCORE.INTER.CONST>
1

>  <SCORE.INTER.POLAR>
0

>  <SCORE.INTER.ROT>
6

>  <SCORE.INTER.SOLV>
12.502

>  <SCORE.INTER.VDW>
-19.5617

>  <SCORE.INTER.norm>
-0.377145

>  <SCORE.INTRA>
-0.911685

>  <SCORE.INTRA.DIHEDRAL>
-7.51504

>  <SCORE.INTRA.DIHEDRAL.0>
15.9129

>  <SCORE.INTRA.POLAR>
0

>  <SCORE.INTRA.POLAR.0>
0

>  <SCORE.INTRA.REPUL>
0

>  <SCORE.INTRA.REPUL.0>
0

>  <SCORE.INTRA.SOLV>
1.55316

>  <SCORE.INTRA.SOLV.lig_0>
-75.7056

>  <SCORE.INTRA.VDW>
2.06925

>  <SCORE.INTRA.VDW.0>
-4.61812

>  <SCORE.INTRA.norm>
-0.0294092

>  <SCORE.RESTR>
0

>  <SCORE.RESTR.CAVITY>
0

>  <SCORE.RESTR.norm>
0

>  <SCORE.SYSTEM>
0

>  <SCORE.SYSTEM.CONST>
0

>  <SCORE.SYSTEM.DIHEDRAL>
0

>  <SCORE.SYSTEM.SOLV>
0

>  <SCORE.SYSTEM.norm>
0

>  <SCORE.heavy>
31

>  <SCORE.norm>
-0.406554

>  <RMSD>
8.855

$$$$
ligand
 OpenBabel11021811493D
libRbt.so/2013.1/901 2013/11/27
 31 33  0  0  0  0  0  0  0  0999 V2000
   27.0401   -8.7135   -2.2700 C   0  0  2  0  0  0  0  0  0  0  0  0
   27.4477   -9.7411   -3.1834 O   0  0  0  0  0  0  0  0  0  0  0  0
   25.5218  -11.1093   -6.7341 C   0  0  2  0  0  0  0  0  0  0  0  0
   24.5351  -11.6834   -7.5854 N   0  0  0  0  0  0  0  0  0  0  0  0
   23.2193   -9.0413   -7.6276 C   0  0  2  0  0  0  0  0  0  0  0  0
   28.3367   -8.1574   -1.6041 C   0  0  2  0  0  0  0  0  0  0  0  0
   29.2365   -7.6733   -2.6491 N   0  0  0  0  0  0  0  0  0  0  0  0
   26.0272  -12.1999   -5.7170 C   0  0  0  0  0  0  0  0  0  0  0  0
   23.2384   -7.8010   -8.5613 C   0  0  2  0  0  0  0  0  0  0  0  0
   24.3945   -7.8598   -9.3654 O   0  0  0  0  0  0  0  0  0  0  0  0
   29.0195   -9.2724   -0.7217 C   0  0  0  0  0  0  0  0  0  0  0  0
   27.1239  -11.5584   -4.7729 C   0  0  2  0  0  0  0  0  0  0  0  0
   27.5992  -12.5768   -3.8142 N   0  0  0  0  0  0  0  0  0  0  0  0
   23.2297   -6.5057   -7.6561 C   0  0  1  0  0  0  0  0  0  0  0  0
   23.2700   -5.2853   -8.5106 N   0  0  0  0  0  0  0  0  0  0  0  0
   27.9823  -10.2601   -0.0740 C   0  0  0  0  0  0  0  0  0  0  0  0
   26.4837  -10.3275   -4.0006 C   0  0  2  0  0  0  0  0  0  0  0  0
   21.8787   -6.4855   -6.7477 C   0  0  1  0  0  0  0  0  0  0  0  0
   20.6996   -6.4545   -7.5141 O   0  0  0  0  0  0  0  0  0  0  0  0
   26.6725  -10.1793   -0.3519 C   0  0  1  0  0  0  0  0  0  0  0  0
   26.1493   -9.2047   -1.2326 O   0  0  0  0  0  0  0  0  0  0  0  0
   25.9695   -9.2645   -5.0382 C   0  0  2  0  0  0  0  0  0  0  0  0
   25.3860   -8.1685   -4.3361 O   0  0  0  0  0  0  0  0  0  0  0  0
   21.8448   -7.7711   -5.8645 C   0  0  0  0  0  0  0  0  0  0  0  0
   22.0097   -9.0060   -6.7274 O   0  0  0  0  0  0  0  0  0  0  0  0
   25.6295  -11.1392    0.2530 C   0  0  0  0  0  0  0  0  0  0  0  0
   24.6906  -10.3706    1.0404 N   0  0  0  0  0  0  0  0  0  0  0  0
   24.8879   -9.9264   -5.9730 C   0  0  1  0  0  0  0  0  0  0  0  0
   24.4575   -8.9637   -6.8900 O   0  0  0  0  0  0  0  0  0  0  0  0
   21.7224   -5.2807   -5.8089 C   0  0  0  0  0  0  0  0  0  0  0  0
   24.0803   -4.1663   -8.0056 C   0  0  0  0  0  0  0  0  0  0  0  0
  1  2  1  6  0  0  0
  1  6  1  0  0  0  0
  1 21  1  0  0  0  0
  3  4  1  6  0  0  0
  3  8  1  0  0  0  0
  3 28  1  0  0  0  0
  5  9  1  0  0  0  0
  5 25  1  0  0  0  0
  5 29  1  1  0  0  0
  6  7  1  6  0  0  0
  6 11  1  0  0  0  0
  8 12  1  0  0  0  0
  9 10  1  1  0  0  0
  9 14  1  0  0  0  0
 11 16  1  0  0  0  0
 12 13  1  1  0  0  0
 12 17  1  0  0  0  0
 14 15  1  6  0  0  0
 14 18  1  0  0  0  0
 15 31  1  0  0  0  0
 16 20  1  0  0  0  0
 17  2  1  1  0  0  0
 17 22  1  0  0  0  0
 18 19  1  6  0  0  0
 18 24  1  0  0  0  0
 18 30  1  0  0  0  0
 20 21  1  0  0  0  0
 20 26  1  6  0  0  0
 22 23  1  1  0  0  0
 22 28  1  0  0  0  0
 24 25  1  0  0  0  0
 26 27  1  0  0  0  0
 28 29  1  6  0  0  0
M  END
>  <CHROM.1>
-174.51304254,-176.68934538,-142.17858540,-172.35384574,118.40971627,80.62547335
25.12232096,-8.87578214,-4.79796160,0.34330614,-0.96812074,0.86336276

>  <Name>
ligand

>  <RI>
0

>  <Rbt.Current_Directory>
/home/itssahil/PROJECTS/Mol_Feturizer/New_Systems/rnas/4F8V

>  <Rbt.Executable>
rbdock ($Id: //depot/dev/client3/rdock/2013.1/src/exe/rbdock.cxx#4 $)

>  <Rbt.Library>
libRbt.so (2013.1, Build901 2013/11/27)

>  <Rbt.Parameter_File>
/export/apps/rDock/src/rDock_2013.1_src/data/scripts/dock_solv.prm

>  <Rbt.Receptor>
prm/pocket_docking_8.prm

>  <SCORE>
-7.85978

>  <SCORE.INTER>
-2.77733

>  <SCORE.INTER.CONST>
1

>  <SCORE.INTER.POLAR>
0

>  <SCORE.INTER.ROT>
6

>  <SCORE.INTER.SOLV>
9.81319

>  <SCORE.INTER.VDW>
-12.7226

>  <SCORE.INTER.norm>
-0.0895913

>  <SCORE.INTRA>
-5.08245

>  <SCORE.INTRA.DIHEDRAL>
-10.9999

>  <SCORE.INTRA.DIHEDRAL.0>
15.9129

>  <SCORE.INTRA.POLAR>
0

>  <SCORE.INTRA.POLAR.0>
0

>  <SCORE.INTRA.REPUL>
0

>  <SCORE.INTRA.REPUL.0>
0

>  <SCORE.INTRA.SOLV>
-2.6629

>  <SCORE.INTRA.SOLV.lig_0>
-75.7056

>  <SCORE.INTRA.VDW>
1.74894

>  <SCORE.INTRA.VDW.0>
-4.61812

>  <SCORE.INTRA.norm>
-0.16395

>  <SCORE.RESTR>
0

>  <SCORE.RESTR.CAVITY>
0

>  <SCORE.RESTR.norm>
0

>  <SCORE.SYSTEM>
0

>  <SCORE.SYSTEM.CONST>
0

>  <SCORE.SYSTEM.DIHEDRAL>
0

>  <SCORE.SYSTEM.SOLV>
0

>  <SCORE.SYSTEM.norm>
0

>  <SCORE.heavy>
31

>  <SCORE.norm>
-0.253541

>  <RMSD>
8.883

$$$$
ligand
 OpenBabel11021811493D
libRbt.so/2013.1/901 2013/11/27
 31 33  0  0  0  0  0  0  0  0999 V2000
   22.5613   -9.7833   -5.6552 C   0  0  2  0  0  0  0  0  0  0  0  0
   21.7886   -9.5058   -6.8310 O   0  0  0  0  0  0  0  0  0  0  0  0
   20.6376   -5.4890   -5.9773 C   0  0  2  0  0  0  0  0  0  0  0  0
   20.1657   -4.1605   -6.1778 N   0  0  0  0  0  0  0  0  0  0  0  0
   17.0686   -6.6884   -6.0874 C   0  0  2  0  0  0  0  0  0  0  0  0
   22.8335  -11.3193   -5.6426 C   0  0  2  0  0  0  0  0  0  0  0  0
   23.5173  -11.6899   -6.8801 N   0  0  0  0  0  0  0  0  0  0  0  0
   21.9534   -5.7038   -6.8152 C   0  0  0  0  0  0  0  0  0  0  0  0
   16.2452   -5.3729   -6.1326 C   0  0  2  0  0  0  0  0  0  0  0  0
   16.8736   -4.4782   -7.0220 O   0  0  0  0  0  0  0  0  0  0  0  0
   21.4816  -12.1127   -5.4671 C   0  0  0  0  0  0  0  0  0  0  0  0
   22.4752   -7.1811   -6.5896 C   0  0  2  0  0  0  0  0  0  0  0  0
   23.7080   -7.3891   -7.3765 N   0  0  0  0  0  0  0  0  0  0  0  0
   16.1826   -4.7830   -4.6679 C   0  0  1  0  0  0  0  0  0  0  0  0
   15.4184   -3.5036   -4.6650 N   0  0  0  0  0  0  0  0  0  0  0  0
   20.4281  -11.3400   -4.5930 C   0  0  0  0  0  0  0  0  0  0  0  0
   21.3480   -8.2019   -7.0469 C   0  0  2  0  0  0  0  0  0  0  0  0
   15.4516   -5.8520   -3.6813 C   0  0  1  0  0  0  0  0  0  0  0  0
   14.1279   -6.1377   -4.0619 O   0  0  0  0  0  0  0  0  0  0  0  0
   20.6663  -10.0974   -4.1475 C   0  0  1  0  0  0  0  0  0  0  0  0
   21.8721   -9.4153   -4.4301 O   0  0  0  0  0  0  0  0  0  0  0  0
   20.0409   -7.9526   -6.2102 C   0  0  2  0  0  0  0  0  0  0  0  0
   19.0310   -8.8658   -6.6355 O   0  0  0  0  0  0  0  0  0  0  0  0
   16.2565   -7.1884   -3.6995 C   0  0  0  0  0  0  0  0  0  0  0  0
   16.4461   -7.6682   -5.1245 O   0  0  0  0  0  0  0  0  0  0  0  0
   19.6512   -9.3048   -3.3009 C   0  0  0  0  0  0  0  0  0  0  0  0
   20.2802   -8.9244   -2.0551 N   0  0  0  0  0  0  0  0  0  0  0  0
   19.5455   -6.4751   -6.4412 C   0  0  1  0  0  0  0  0  0  0  0  0
   18.3910   -6.2790   -5.6786 O   0  0  0  0  0  0  0  0  0  0  0  0
   15.3129   -5.4211   -2.2142 C   0  0  0  0  0  0  0  0  0  0  0  0
   15.9815   -2.4134   -3.8537 C   0  0  0  0  0  0  0  0  0  0  0  0
  1  2  1  6  0  0  0
  1  6  1  0  0  0  0
  1 21  1  0  0  0  0
  3  4  1  6  0  0  0
  3  8  1  0  0  0  0
  3 28  1  0  0  0  0
  5  9  1  0  0  0  0
  5 25  1  0  0  0  0
  5 29  1  1  0  0  0
  6  7  1  6  0  0  0
  6 11  1  0  0  0  0
  8 12  1  0  0  0  0
  9 10  1  6  0  0  0
  9 14  1  0  0  0  0
 11 16  1  0  0  0  0
 12 13  1  6  0  0  0
 12 17  1  0  0  0  0
 14 15  1  6  0  0  0
 14 18  1  0  0  0  0
 15 31  1  0  0  0  0
 16 20  1  0  0  0  0
 17  2  1  1  0  0  0
 17 22  1  0  0  0  0
 18 19  1  6  0  0  0
 18 24  1  0  0  0  0
 18 30  1  0  0  0  0
 20 21  1  0  0  0  0
 20 26  1  6  0  0  0
 22 23  1  6  0  0  0
 22 28  1  0  0  0  0
 24 25  1  0  0  0  0
 26 27  1  0  0  0  0
 28 29  1  1  0  0  0
M  END
>  <CHROM.1>
176.72713444,-119.87943105,-137.49371210,37.91283837,122.91461797,159.08581946
19.23622853,-7.43075667,-5.32220180,-0.50944561,0.49437636,-0.44443025

>  <Name>
ligand

>  <RI>
0

>  <Rbt.Current_Directory>
/home/itssahil/PROJECTS/Mol_Feturizer/New_Systems/rnas/4F8V

>  <Rbt.Executable>
rbdock ($Id: //depot/dev/client3/rdock/2013.1/src/exe/rbdock.cxx#4 $)

>  <Rbt.Library>
libRbt.so (2013.1, Build901 2013/11/27)

>  <Rbt.Parameter_File>
/export/apps/rDock/src/rDock_2013.1_src/data/scripts/dock_solv.prm

>  <Rbt.Receptor>
prm/pocket_docking_6.prm

>  <SCORE>
-9.95721

>  <SCORE.INTER>
-9.90637

>  <SCORE.INTER.CONST>
1

>  <SCORE.INTER.POLAR>
0

>  <SCORE.INTER.ROT>
6

>  <SCORE.INTER.SOLV>
19.0215

>  <SCORE.INTER.VDW>
-20.5447

>  <SCORE.INTER.norm>
-0.31956

>  <SCORE.INTRA>
-0.0508382

>  <SCORE.INTRA.DIHEDRAL>
-1.89966

>  <SCORE.INTRA.DIHEDRAL.0>
15.9129

>  <SCORE.INTRA.POLAR>
0

>  <SCORE.INTRA.POLAR.0>
0

>  <SCORE.INTRA.REPUL>
0

>  <SCORE.INTRA.REPUL.0>
0

>  <SCORE.INTRA.SOLV>
-1.13878

>  <SCORE.INTRA.SOLV.lig_0>
-75.7056

>  <SCORE.INTRA.VDW>
1.46838

>  <SCORE.INTRA.VDW.0>
-4.61812

>  <SCORE.INTRA.norm>
-0.00163994

>  <SCORE.RESTR>
0

>  <SCORE.RESTR.CAVITY>
0

>  <SCORE.RESTR.norm>
0

>  <SCORE.SYSTEM>
0

>  <SCORE.SYSTEM.CONST>
0

>  <SCORE.SYSTEM.DIHEDRAL>
0

>  <SCORE.SYSTEM.SOLV>
0

>  <SCORE.SYSTEM.norm>
0

>  <SCORE.heavy>
31

>  <SCORE.norm>
-0.3212

>  <RMSD>
8.964

$$$$
ligand
 OpenBabel11021811493D
libRbt.so/2013.1/901 2013/11/27
 31 33  0  0  0  0  0  0  0  0999 V2000
   22.9343  -10.2923   -2.7861 C   0  0  2  0  0  0  0  0  0  0  0  0
   21.8214   -9.4030   -2.9504 O   0  0  0  0  0  0  0  0  0  0  0  0
   21.3433   -6.0456   -5.5364 C   0  0  2  0  0  0  0  0  0  0  0  0
   21.2152   -5.2862   -6.7343 N   0  0  0  0  0  0  0  0  0  0  0  0
   17.7962   -6.9705   -6.1498 C   0  0  2  0  0  0  0  0  0  0  0  0
   22.6300  -11.5629   -3.6386 C   0  0  2  0  0  0  0  0  0  0  0  0
   22.4151  -11.1619   -5.0275 N   0  0  0  0  0  0  0  0  0  0  0  0
   22.7501   -6.7528   -5.5188 C   0  0  0  0  0  0  0  0  0  0  0  0
   16.8618   -5.7399   -6.3017 C   0  0  2  0  0  0  0  0  0  0  0  0
   17.5388   -4.7482   -7.0397 O   0  0  0  0  0  0  0  0  0  0  0  0
   21.3788  -12.3259   -3.0552 C   0  0  0  0  0  0  0  0  0  0  0  0
   22.8890   -7.5954   -4.1860 C   0  0  2  0  0  0  0  0  0  0  0  0
   24.2062   -8.2639   -4.1659 N   0  0  0  0  0  0  0  0  0  0  0  0
   16.4865   -5.2277   -4.8546 C   0  0  1  0  0  0  0  0  0  0  0  0
   15.6054   -4.0295   -4.9497 N   0  0  0  0  0  0  0  0  0  0  0  0
   21.2546  -12.1924   -1.4939 C   0  0  0  0  0  0  0  0  0  0  0  0
   21.7218   -8.6707   -4.1314 C   0  0  2  0  0  0  0  0  0  0  0  0
   15.7101   -6.4071   -4.0441 C   0  0  1  0  0  0  0  0  0  0  0  0
   14.5087   -6.8010   -4.6608 O   0  0  0  0  0  0  0  0  0  0  0  0
   22.0945  -11.4195   -0.7894 C   0  0  1  0  0  0  0  0  0  0  0  0
   23.1377  -10.6885   -1.4031 O   0  0  0  0  0  0  0  0  0  0  0  0
   20.3306   -7.9402   -4.1709 C   0  0  2  0  0  0  0  0  0  0  0  0
   19.2888   -8.9139   -4.1332 O   0  0  0  0  0  0  0  0  0  0  0  0
   16.6394   -7.6572   -3.9586 C   0  0  0  0  0  0  0  0  0  0  0  0
   17.1209   -8.0496   -5.3410 O   0  0  0  0  0  0  0  0  0  0  0  0
   21.9935  -11.2536    0.7395 C   0  0  0  0  0  0  0  0  0  0  0  0
   23.2877  -11.5281    1.3243 N   0  0  0  0  0  0  0  0  0  0  0  0
   20.2180   -7.1005   -5.4991 C   0  0  1  0  0  0  0  0  0  0  0  0
   18.9786   -6.4549   -5.5022 O   0  0  0  0  0  0  0  0  0  0  0  0
   15.2760   -6.0604   -2.6128 C   0  0  0  0  0  0  0  0  0  0  0  0
   15.9215   -2.9179   -4.0395 C   0  0  0  0  0  0  0  0  0  0  0  0
  1  2  1  1  0  0  0
  1  6  1  0  0  0  0
  1 21  1  0  0  0  0
  3  4  1  6  0  0  0
  3  8  1  0  0  0  0
  3 28  1  0  0  0  0
  5  9  1  0  0  0  0
  5 25  1  0  0  0  0
  5 29  1  1  0  0  0
  6  7  1  6  0  0  0
  6 11  1  0  0  0  0
  8 12  1  0  0  0  0
  9 10  1  6  0  0  0
  9 14  1  0  0  0  0
 11 16  1  0  0  0  0
 12 13  1  6  0  0  0
 12 17  1  0  0  0  0
 14 15  1  6  0  0  0
 14 18  1  0  0  0  0
 15 31  1  0  0  0  0
 16 20  1  0  0  0  0
 17  2  1  1  0  0  0
 17 22  1  0  0  0  0
 18 19  1  6  0  0  0
 18 24  1  0  0  0  0
 18 30  1  0  0  0  0
 20 21  1  0  0  0  0
 20 26  1  6  0  0  0
 22 23  1  6  0  0  0
 22 28  1  0  0  0  0
 24 25  1  0  0  0  0
 26 27  1  0  0  0  0
 28 29  1  1  0  0  0
M  END
>  <CHROM.1>
-77.04077157,-161.26749090,-136.27332727,-68.33792116,127.89709432,145.71817231
19.80370625,-8.03244809,-3.95652414,-0.76578986,0.27843900,-0.81018594

>  <Name>
ligand

>  <RI>
0

>  <Rbt.Current_Directory>
/home/itssahil/PROJECTS/Mol_Feturizer/New_Systems/rnas/4F8V

>  <Rbt.Executable>
rbdock ($Id: //depot/dev/client3/rdock/2013.1/src/exe/rbdock.cxx#4 $)

>  <Rbt.Library>
libRbt.so (2013.1, Build901 2013/11/27)

>  <Rbt.Parameter_File>
/export/apps/rDock/src/rDock_2013.1_src/data/scripts/dock_solv.prm

>  <Rbt.Receptor>
prm/pocket_docking_5.prm

>  <SCORE>
-5.08711

>  <SCORE.INTER>
-5.16337

>  <SCORE.INTER.CONST>
1

>  <SCORE.INTER.POLAR>
0

>  <SCORE.INTER.ROT>
6

>  <SCORE.INTER.SOLV>
13.524

>  <SCORE.INTER.VDW>
-15.5503

>  <SCORE.INTER.norm>
-0.16656

>  <SCORE.INTRA>
0.0762596

>  <SCORE.INTRA.DIHEDRAL>
-5.48075

>  <SCORE.INTRA.DIHEDRAL.0>
15.9129

>  <SCORE.INTRA.POLAR>
0

>  <SCORE.INTRA.POLAR.0>
0

>  <SCORE.INTRA.REPUL>
0

>  <SCORE.INTRA.REPUL.0>
0

>  <SCORE.INTRA.SOLV>
1.29588

>  <SCORE.INTRA.SOLV.lig_0>
-75.7056

>  <SCORE.INTRA.VDW>
2.16869

>  <SCORE.INTRA.VDW.0>
-4.61812

>  <SCORE.INTRA.norm>
0.00245999

>  <SCORE.RESTR>
0

>  <SCORE.RESTR.CAVITY>
0

>  <SCORE.RESTR.norm>
0

>  <SCORE.SYSTEM>
0

>  <SCORE.SYSTEM.CONST>
0

>  <SCORE.SYSTEM.DIHEDRAL>
0

>  <SCORE.SYSTEM.SOLV>
0

>  <SCORE.SYSTEM.norm>
0

>  <SCORE.heavy>
31

>  <SCORE.norm>
-0.1641

>  <RMSD>
8.973

$$$$
ligand
 OpenBabel11021811493D
libRbt.so/2013.1/901 2013/11/27
 31 33  0  0  0  0  0  0  0  0999 V2000
   26.6842  -13.5851   -5.6163 C   0  0  2  0  0  0  0  0  0  0  0  0
   26.3517  -12.9764   -6.8714 O   0  0  0  0  0  0  0  0  0  0  0  0
   23.3293  -10.2429   -8.1290 C   0  0  2  0  0  0  0  0  0  0  0  0
   22.0488   -9.6369   -8.2735 N   0  0  0  0  0  0  0  0  0  0  0  0
   24.5371   -7.9345   -6.6745 C   0  0  2  0  0  0  0  0  0  0  0  0
   28.2293  -13.4556   -5.4439 C   0  0  2  0  0  0  0  0  0  0  0  0
   28.5974  -12.0428   -5.5127 N   0  0  0  0  0  0  0  0  0  0  0  0
   23.2843  -11.6991   -8.7266 C   0  0  0  0  0  0  0  0  0  0  0  0
   24.6954   -6.9118   -5.5172 C   0  0  2  0  0  0  0  0  0  0  0  0
   25.2819   -7.5656   -4.4149 O   0  0  0  0  0  0  0  0  0  0  0  0
   28.9752  -14.3034   -6.5451 C   0  0  0  0  0  0  0  0  0  0  0  0
   24.7091  -12.3692   -8.5647 C   0  0  2  0  0  0  0  0  0  0  0  0
   24.6715  -13.7372   -9.1208 N   0  0  0  0  0  0  0  0  0  0  0  0
   23.2623   -6.3499   -5.1599 C   0  0  1  0  0  0  0  0  0  0  0  0
   23.3609   -5.3773   -4.0350 N   0  0  0  0  0  0  0  0  0  0  0  0
   28.1834  -15.5957   -6.9624 C   0  0  0  0  0  0  0  0  0  0  0  0
   25.0884  -12.4088   -7.0232 C   0  0  2  0  0  0  0  0  0  0  0  0
   22.6283   -5.6074   -6.4629 C   0  0  1  0  0  0  0  0  0  0  0  0
   23.3964   -4.5139   -6.9022 O   0  0  0  0  0  0  0  0  0  0  0  0
   26.9609  -15.8543   -6.4747 C   0  0  1  0  0  0  0  0  0  0  0  0
   26.3183  -14.9900   -5.5586 O   0  0  0  0  0  0  0  0  0  0  0  0
   25.1063  -10.9463   -6.4475 C   0  0  2  0  0  0  0  0  0  0  0  0
   25.4364  -10.9926   -5.0606 O   0  0  0  0  0  0  0  0  0  0  0  0
   22.5379   -6.6335   -7.6345 C   0  0  0  0  0  0  0  0  0  0  0  0
   23.8867   -7.2833   -7.8694 O   0  0  0  0  0  0  0  0  0  0  0  0
   26.1500  -17.1031   -6.8725 C   0  0  0  0  0  0  0  0  0  0  0  0
   24.8726  -16.6795   -7.4028 N   0  0  0  0  0  0  0  0  0  0  0  0
   23.6831  -10.2955   -6.6281 C   0  0  1  0  0  0  0  0  0  0  0  0
   23.7313   -8.9951   -6.1185 O   0  0  0  0  0  0  0  0  0  0  0  0
   21.2293   -5.0040   -6.2736 C   0  0  0  0  0  0  0  0  0  0  0  0
   23.4844   -5.9542   -2.6875 C   0  0  0  0  0  0  0  0  0  0  0  0
  1  2  1  6  0  0  0
  1  6  1  0  0  0  0
  1 21  1  0  0  0  0
  3  4  1  1  0  0  0
  3  8  1  0  0  0  0
  3 28  1  0  0  0  0
  5  9  1  0  0  0  0
  5 25  1  0  0  0  0
  5 29  1  1  0  0  0
  6  7  1  6  0  0  0
  6 11  1  0  0  0  0
  8 12  1  0  0  0  0
  9 10  1  1  0  0  0
  9 14  1  0  0  0  0
 11 16  1  0  0  0  0
 12 13  1  1  0  0  0
 12 17  1  0  0  0  0
 14 15  1  1  0  0  0
 14 18  1  0  0  0  0
 15 31  1  0  0  0  0
 16 20  1  0  0  0  0
 17  2  1  6  0  0  0
 17 22  1  0  0  0  0
 18 19  1  6  0  0  0
 18 24  1  0  0  0  0
 18 30  1  0  0  0  0
 20 21  1  0  0  0  0
 20 26  1  6  0  0  0
 22 23  1  1  0  0  0
 22 28  1  0  0  0  0
 24 25  1  0  0  0  0
 26 27  1  0  0  0  0
 28 29  1  6  0  0  0
M  END
>  <CHROM.1>
-151.31078275,-158.78834201,-79.08605444,-155.99719942,-123.62363742,-54.05859649
24.85567318,-10.50965098,-6.46164727,-1.03095738,-0.74419098,0.48376207

>  <Name>
ligand

>  <RI>
0

>  <Rbt.Current_Directory>
/home/itssahil/PROJECTS/Mol_Feturizer/New_Systems/rnas/4F8V

>  <Rbt.Executable>
rbdock ($Id: //depot/dev/client3/rdock/2013.1/src/exe/rbdock.cxx#4 $)

>  <Rbt.Library>
libRbt.so (2013.1, Build901 2013/11/27)

>  <Rbt.Parameter_File>
/export/apps/rDock/src/rDock_2013.1_src/data/scripts/dock_solv.prm

>  <Rbt.Receptor>
prm/pocket_docking_5.prm

>  <SCORE>
-1.90556

>  <SCORE.INTER>
-1.40971

>  <SCORE.INTER.CONST>
1

>  <SCORE.INTER.POLAR>
0

>  <SCORE.INTER.ROT>
6

>  <SCORE.INTER.SOLV>
10.1389

>  <SCORE.INTER.VDW>
-11.9194

>  <SCORE.INTER.norm>
-0.0454746

>  <SCORE.INTRA>
-0.497466

>  <SCORE.INTRA.DIHEDRAL>
-5.92236

>  <SCORE.INTRA.DIHEDRAL.0>
15.9129

>  <SCORE.INTRA.POLAR>
0

>  <SCORE.INTRA.POLAR.0>
0

>  <SCORE.INTRA.REPUL>
0

>  <SCORE.INTRA.REPUL.0>
0

>  <SCORE.INTRA.SOLV>
2.1694

>  <SCORE.INTRA.SOLV.lig_0>
-75.7056

>  <SCORE.INTRA.VDW>
1.37901

>  <SCORE.INTRA.VDW.0>
-4.61812

>  <SCORE.INTRA.norm>
-0.0160473

>  <SCORE.RESTR>
0.00162229

>  <SCORE.RESTR.CAVITY>
0.00162229

>  <SCORE.RESTR.norm>
5.23321e-05

>  <SCORE.SYSTEM>
0

>  <SCORE.SYSTEM.CONST>
0

>  <SCORE.SYSTEM.DIHEDRAL>
0

>  <SCORE.SYSTEM.SOLV>
0

>  <SCORE.SYSTEM.norm>
0

>  <SCORE.heavy>
31

>  <SCORE.norm>
-0.0614696

>  <RMSD>
9.114

$$$$
ligand
 OpenBabel11021811493D
libRbt.so/2013.1/901 2013/11/27
 31 33  0  0  0  0  0  0  0  0999 V2000
   21.9989  -10.8575   -6.8506 C   0  0  2  0  0  0  0  0  0  0  0  0
   20.9743  -10.0875   -6.2073 O   0  0  0  0  0  0  0  0  0  0  0  0
   20.4685   -5.8642   -5.8972 C   0  0  2  0  0  0  0  0  0  0  0  0
   20.2544   -4.5099   -6.2820 N   0  0  0  0  0  0  0  0  0  0  0  0
   16.7715   -6.6897   -6.0934 C   0  0  2  0  0  0  0  0  0  0  0  0
   21.3427  -11.5412   -8.0899 C   0  0  2  0  0  0  0  0  0  0  0  0
   20.7715  -10.5097   -8.9535 N   0  0  0  0  0  0  0  0  0  0  0  0
   21.7958   -6.3886   -6.5627 C   0  0  0  0  0  0  0  0  0  0  0  0
   15.8938   -5.4102   -6.0381 C   0  0  2  0  0  0  0  0  0  0  0  0
   16.4215   -4.4623   -6.9378 O   0  0  0  0  0  0  0  0  0  0  0  0
   20.2500  -12.5799   -7.6263 C   0  0  0  0  0  0  0  0  0  0  0  0
   22.0306   -7.8938   -6.1325 C   0  0  2  0  0  0  0  0  0  0  0  0
   23.2732   -8.3920   -6.7570 N   0  0  0  0  0  0  0  0  0  0  0  0
   15.9093   -4.8688   -4.5536 C   0  0  1  0  0  0  0  0  0  0  0  0
   15.0954   -3.6242   -4.4554 N   0  0  0  0  0  0  0  0  0  0  0  0
   20.5982  -13.2625   -6.2538 C   0  0  0  0  0  0  0  0  0  0  0  0
   20.7881   -8.7643   -6.6015 C   0  0  2  0  0  0  0  0  0  0  0  0
   15.2932   -5.9981   -3.5558 C   0  0  1  0  0  0  0  0  0  0  0  0
   13.9589   -6.3288   -3.8545 O   0  0  0  0  0  0  0  0  0  0  0  0
   21.6750  -12.8945   -5.5436 C   0  0  1  0  0  0  0  0  0  0  0  0
   22.5580  -11.8826   -5.9860 O   0  0  0  0  0  0  0  0  0  0  0  0
   19.4754   -8.2077   -5.9398 C   0  0  2  0  0  0  0  0  0  0  0  0
   18.3637   -8.9880   -6.3757 O   0  0  0  0  0  0  0  0  0  0  0  0
   16.1487   -7.2973   -3.6738 C   0  0  0  0  0  0  0  0  0  0  0  0
   16.2581   -7.7246   -5.1238 O   0  0  0  0  0  0  0  0  0  0  0  0
   22.0390  -13.5312   -4.1881 C   0  0  0  0  0  0  0  0  0  0  0  0
   21.9339  -12.5227   -3.1566 N   0  0  0  0  0  0  0  0  0  0  0  0
   19.2669   -6.7073   -6.3726 C   0  0  1  0  0  0  0  0  0  0  0  0
   18.1012   -6.2364   -5.7625 O   0  0  0  0  0  0  0  0  0  0  0  0
   15.2394   -5.6188   -2.0690 C   0  0  0  0  0  0  0  0  0  0  0  0
   15.8116   -2.4126   -4.0278 C   0  0  0  0  0  0  0  0  0  0  0  0
  1  2  1  1  0  0  0
  1  6  1  0  0  0  0
  1 21  1  0  0  0  0
  3  4  1  6  0  0  0
  3  8  1  0  0  0  0
  3 28  1  0  0  0  0
  5  9  1  0  0  0  0
  5 25  1  0  0  0  0
  5 29  1  1  0  0  0
  6  7  1  6  0  0  0
  6 11  1  0  0  0  0
  8 12  1  0  0  0  0
  9 10  1  6  0  0  0
  9 14  1  0  0  0  0
 11 16  1  0  0  0  0
 12 13  1  6  0  0  0
 12 17  1  0  0  0  0
 14 15  1  6  0  0  0
 14 18  1  0  0  0  0
 15 31  1  0  0  0  0
 16 20  1  0  0  0  0
 17  2  1  1  0  0  0
 17 22  1  0  0  0  0
 18 19  1  6  0  0  0
 18 24  1  0  0  0  0
 18 30  1  0  0  0  0
 20 21  1  0  0  0  0
 20 26  1  1  0  0  0
 22 23  1  6  0  0  0
 22 28  1  0  0  0  0
 24 25  1  0  0  0  0
 26 27  1  0  0  0  0
 28 29  1  1  0  0  0
M  END
>  <CHROM.1>
-89.72566720,-141.06608146,-119.01356990,-69.39922689,-114.98027094,172.53749116
19.01327899,-8.11574807,-5.66177093,-0.73042126,0.51531517,-0.25881354

>  <Name>
ligand

>  <RI>
0

>  <Rbt.Current_Directory>
/home/itssahil/PROJECTS/Mol_Feturizer/New_Systems/rnas/4F8V

>  <Rbt.Executable>
rbdock ($Id: //depot/dev/client3/rdock/2013.1/src/exe/rbdock.cxx#4 $)

>  <Rbt.Library>
libRbt.so (2013.1, Build901 2013/11/27)

>  <Rbt.Parameter_File>
/export/apps/rDock/src/rDock_2013.1_src/data/scripts/dock_solv.prm

>  <Rbt.Receptor>
prm/pocket_docking_6.prm

>  <SCORE>
-7.25344

>  <SCORE.INTER>
-7.40503

>  <SCORE.INTER.CONST>
1

>  <SCORE.INTER.POLAR>
0

>  <SCORE.INTER.ROT>
6

>  <SCORE.INTER.SOLV>
20.6607

>  <SCORE.INTER.VDW>
-19.4236

>  <SCORE.INTER.norm>
-0.238872

>  <SCORE.INTRA>
0.151599

>  <SCORE.INTRA.DIHEDRAL>
-3.52729

>  <SCORE.INTRA.DIHEDRAL.0>
15.9129

>  <SCORE.INTRA.POLAR>
0

>  <SCORE.INTRA.POLAR.0>
0

>  <SCORE.INTRA.REPUL>
0

>  <SCORE.INTRA.REPUL.0>
0

>  <SCORE.INTRA.SOLV>
0.352445

>  <SCORE.INTRA.SOLV.lig_0>
-75.7056

>  <SCORE.INTRA.VDW>
1.73902

>  <SCORE.INTRA.VDW.0>
-4.61812

>  <SCORE.INTRA.norm>
0.00489029

>  <SCORE.RESTR>
0

>  <SCORE.RESTR.CAVITY>
0

>  <SCORE.RESTR.norm>
0

>  <SCORE.SYSTEM>
0

>  <SCORE.SYSTEM.CONST>
0

>  <SCORE.SYSTEM.DIHEDRAL>
0

>  <SCORE.SYSTEM.SOLV>
0

>  <SCORE.SYSTEM.norm>
0

>  <SCORE.heavy>
31

>  <SCORE.norm>
-0.233982

>  <RMSD>
9.184

$$$$
ligand
 OpenBabel11021811493D
libRbt.so/2013.1/901 2013/11/27
 31 33  0  0  0  0  0  0  0  0999 V2000
   22.0248  -10.8596   -6.8671 C   0  0  2  0  0  0  0  0  0  0  0  0
   21.0100  -10.0899   -6.2083 O   0  0  0  0  0  0  0  0  0  0  0  0
   20.4820   -5.8686   -5.9078 C   0  0  2  0  0  0  0  0  0  0  0  0
   20.2560   -4.5170   -6.2952 N   0  0  0  0  0  0  0  0  0  0  0  0
   16.7857   -6.6929   -6.0873 C   0  0  2  0  0  0  0  0  0  0  0  0
   21.3577  -11.5177   -8.1144 C   0  0  2  0  0  0  0  0  0  0  0  0
   20.7936  -10.4675   -8.9599 N   0  0  0  0  0  0  0  0  0  0  0  0
   21.8057   -6.3875   -6.5845 C   0  0  0  0  0  0  0  0  0  0  0  0
   15.9220   -5.4036   -6.0376 C   0  0  2  0  0  0  0  0  0  0  0  0
   16.4658   -4.4619   -6.9342 O   0  0  0  0  0  0  0  0  0  0  0  0
   20.2566  -12.5528   -7.6630 C   0  0  0  0  0  0  0  0  0  0  0  0
   22.0539   -7.8896   -6.1515 C   0  0  2  0  0  0  0  0  0  0  0  0
   23.2932   -8.3826   -6.7865 N   0  0  0  0  0  0  0  0  0  0  0  0
   15.9346   -4.8620   -4.5531 C   0  0  1  0  0  0  0  0  0  0  0  0
   15.1341   -3.6084   -4.4601 N   0  0  0  0  0  0  0  0  0  0  0  0
   20.6030  -13.2600   -6.3025 C   0  0  0  0  0  0  0  0  0  0  0  0
   20.8120   -8.7692   -6.6051 C   0  0  2  0  0  0  0  0  0  0  0  0
   15.2999   -5.9841   -3.5588 C   0  0  1  0  0  0  0  0  0  0  0  0
   13.9639   -6.2999   -3.8655 O   0  0  0  0  0  0  0  0  0  0  0  0
   21.6857  -12.9135   -5.5906 C   0  0  1  0  0  0  0  0  0  0  0  0
   22.5769  -11.9034   -6.0204 O   0  0  0  0  0  0  0  0  0  0  0  0
   19.5026   -8.2181   -5.9325 C   0  0  2  0  0  0  0  0  0  0  0  0
   18.3914   -9.0066   -6.3546 O   0  0  0  0  0  0  0  0  0  0  0  0
   16.1416   -7.2928   -3.6714 C   0  0  0  0  0  0  0  0  0  0  0  0
   16.2549   -7.7217   -5.1206 O   0  0  0  0  0  0  0  0  0  0  0  0
   22.0482  -13.5746   -4.2464 C   0  0  0  0  0  0  0  0  0  0  0  0
   23.3314  -14.2288   -4.3803 N   0  0  0  0  0  0  0  0  0  0  0  0
   19.2808   -6.7205   -6.3683 C   0  0  1  0  0  0  0  0  0  0  0  0
   18.1184   -6.2544   -5.7484 O   0  0  0  0  0  0  0  0  0  0  0  0
   15.2414   -5.6039   -2.0724 C   0  0  0  0  0  0  0  0  0  0  0  0
   15.8932   -2.3492   -4.5039 C   0  0  0  0  0  0  0  0  0  0  0  0
  1  2  1  1  0  0  0
  1  6  1  0  0  0  0
  1 21  1  0  0  0  0
  3  4  1  6  0  0  0
  3  8  1  0  0  0  0
  3 28  1  0  0  0  0
  5  9  1  0  0  0  0
  5 25  1  0  0  0  0
  5 29  1  1  0  0  0
  6  7  1  6  0  0  0
  6 11  1  0  0  0  0
  8 12  1  0  0  0  0
  9 10  1  6  0  0  0
  9 14  1  0  0  0  0
 11 16  1  0  0  0  0
 12 13  1  6  0  0  0
 12 17  1  0  0  0  0
 14 15  1  6  0  0  0
 14 18  1  0  0  0  0
 15 31  1  0  0  0  0
 16 20  1  0  0  0  0
 17  2  1  1  0  0  0
 17 22  1  0  0  0  0
 18 19  1  6  0  0  0
 18 24  1  0  0  0  0
 18 30  1  0  0  0  0
 20 21  1  0  0  0  0
 20 26  1  1  0  0  0
 22 23  1  6  0  0  0
 22 28  1  0  0  0  0
 24 25  1  0  0  0  0
 26 27  1  0  0  0  0
 28 29  1  1  0  0  0
M  END
>  <CHROM.1>
-88.08994257,-139.83584335,-98.07100217,-69.94199526,118.16915014,170.95004477
19.07637076,-8.16711458,-5.72767345,-0.75752160,0.48259254,-0.22771708

>  <Name>
ligand

>  <RI>
0

>  <Rbt.Current_Directory>
/home/itssahil/PROJECTS/Mol_Feturizer/New_Systems/rnas/4F8V

>  <Rbt.Executable>
rbdock ($Id: //depot/dev/client3/rdock/2013.1/src/exe/rbdock.cxx#4 $)

>  <Rbt.Library>
libRbt.so (2013.1, Build901 2013/11/27)

>  <Rbt.Parameter_File>
/export/apps/rDock/src/rDock_2013.1_src/data/scripts/dock_solv.prm

>  <Rbt.Receptor>
prm/pocket_docking_7.prm

>  <SCORE>
-7.6524

>  <SCORE.INTER>
-7.56986

>  <SCORE.INTER.CONST>
1

>  <SCORE.INTER.POLAR>
0

>  <SCORE.INTER.ROT>
6

>  <SCORE.INTER.SOLV>
19.6449

>  <SCORE.INTER.VDW>
-19.1949

>  <SCORE.INTER.norm>
-0.244189

>  <SCORE.INTRA>
-0.0825376

>  <SCORE.INTRA.DIHEDRAL>
-3.83905

>  <SCORE.INTRA.DIHEDRAL.0>
15.9129

>  <SCORE.INTRA.POLAR>
0

>  <SCORE.INTRA.POLAR.0>
0

>  <SCORE.INTRA.REPUL>
0

>  <SCORE.INTRA.REPUL.0>
0

>  <SCORE.INTRA.SOLV>
0.0729316

>  <SCORE.INTRA.SOLV.lig_0>
-75.7056

>  <SCORE.INTRA.VDW>
1.80052

>  <SCORE.INTRA.VDW.0>
-4.61812

>  <SCORE.INTRA.norm>
-0.0026625

>  <SCORE.RESTR>
0

>  <SCORE.RESTR.CAVITY>
0

>  <SCORE.RESTR.norm>
0

>  <SCORE.SYSTEM>
0

>  <SCORE.SYSTEM.CONST>
0

>  <SCORE.SYSTEM.DIHEDRAL>
0

>  <SCORE.SYSTEM.SOLV>
0

>  <SCORE.SYSTEM.norm>
0

>  <SCORE.heavy>
31

>  <SCORE.norm>
-0.246852

>  <RMSD>
9.241

$$$$
ligand
 OpenBabel11021811493D
libRbt.so/2013.1/901 2013/11/27
 31 33  0  0  0  0  0  0  0  0999 V2000
   20.5182  -11.2605   -3.9813 C   0  0  2  0  0  0  0  0  0  0  0  0
   21.2324  -10.1182   -4.4726 O   0  0  0  0  0  0  0  0  0  0  0  0
   19.8354   -6.3199   -5.8178 C   0  0  2  0  0  0  0  0  0  0  0  0
   19.1184   -5.3479   -6.5721 N   0  0  0  0  0  0  0  0  0  0  0  0
   16.7043   -6.9938   -3.8311 C   0  0  2  0  0  0  0  0  0  0  0  0
   21.4985  -12.0456   -3.0559 C   0  0  2  0  0  0  0  0  0  0  0  0
   21.9614  -11.1564   -1.9923 N   0  0  0  0  0  0  0  0  0  0  0  0
   20.7858   -7.1256   -6.7807 C   0  0  0  0  0  0  0  0  0  0  0  0
   15.7441   -6.7221   -5.0205 C   0  0  2  0  0  0  0  0  0  0  0  0
   16.2242   -7.4093   -6.1535 O   0  0  0  0  0  0  0  0  0  0  0  0
   22.7030  -12.6195   -3.8971 C   0  0  0  0  0  0  0  0  0  0  0  0
   21.5813   -8.2045   -5.9389 C   0  0  2  0  0  0  0  0  0  0  0  0
   22.4723   -8.9658   -6.8383 N   0  0  0  0  0  0  0  0  0  0  0  0
   15.6988   -5.1619   -5.2675 C   0  0  1  0  0  0  0  0  0  0  0  0
   14.8038   -4.8529   -6.4184 N   0  0  0  0  0  0  0  0  0  0  0  0
   22.2966  -12.9974   -5.3678 C   0  0  0  0  0  0  0  0  0  0  0  0
   20.5428   -9.1779   -5.2350 C   0  0  2  0  0  0  0  0  0  0  0  0
   15.1406   -4.4155   -3.9326 C   0  0  1  0  0  0  0  0  0  0  0  0
   13.8362   -4.8106   -3.5848 O   0  0  0  0  0  0  0  0  0  0  0  0
   21.0656  -12.7481   -5.8387 C   0  0  1  0  0  0  0  0  0  0  0  0
   20.0655  -12.1405   -5.0451 O   0  0  0  0  0  0  0  0  0  0  0  0
   19.5944   -8.3467   -4.2967 C   0  0  2  0  0  0  0  0  0  0  0  0
   18.6581   -9.2272   -3.6781 O   0  0  0  0  0  0  0  0  0  0  0  0
   16.0811   -4.7532   -2.7346 C   0  0  0  0  0  0  0  0  0  0  0  0
   16.2430   -6.2540   -2.6004 O   0  0  0  0  0  0  0  0  0  0  0  0
   20.6367  -13.0916   -7.2787 C   0  0  0  0  0  0  0  0  0  0  0  0
   19.6175  -14.1169   -7.2290 N   0  0  0  0  0  0  0  0  0  0  0  0
   18.8213   -7.2735   -5.1524 C   0  0  1  0  0  0  0  0  0  0  0  0
   17.9957   -6.5439   -4.2926 O   0  0  0  0  0  0  0  0  0  0  0  0
   15.0367   -2.8859   -4.0161 C   0  0  0  0  0  0  0  0  0  0  0  0
   15.2387   -3.7615   -7.3036 C   0  0  0  0  0  0  0  0  0  0  0  0
  1  2  1  6  0  0  0
  1  6  1  0  0  0  0
  1 21  1  0  0  0  0
  3  4  1  6  0  0  0
  3  8  1  0  0  0  0
  3 28  1  0  0  0  0
  5  9  1  0  0  0  0
  5 25  1  0  0  0  0
  5 29  1  6  0  0  0
  6  7  1  1  0  0  0
  6 11  1  0  0  0  0
  8 12  1  0  0  0  0
  9 10  1  6  0  0  0
  9 14  1  0  0  0  0
 11 16  1  0  0  0  0
 12 13  1  6  0  0  0
 12 17  1  0  0  0  0
 14 15  1  6  0  0  0
 14 18  1  0  0  0  0
 15 31  1  0  0  0  0
 16 20  1  0  0  0  0
 17  2  1  1  0  0  0
 17 22  1  0  0  0  0
 18 19  1  1  0  0  0
 18 24  1  0  0  0  0
 18 30  1  0  0  0  0
 20 21  1  0  0  0  0
 20 26  1  6  0  0  0
 22 23  1  6  0  0  0
 22 28  1  0  0  0  0
 24 25  1  0  0  0  0
 26 27  1  0  0  0  0
 28 29  1  1  0  0  0
M  END
>  <CHROM.1>
-174.38739332,-78.64918843,-142.27666796,-166.97636160,114.36844076,159.86582878
18.72201672,-8.26634728,-4.94393017,0.32623373,-0.84236660,2.04819090

>  <Name>
ligand

>  <RI>
0

>  <Rbt.Current_Directory>
/home/itssahil/PROJECTS/Mol_Feturizer/New_Systems/rnas/4F8V

>  <Rbt.Executable>
rbdock ($Id: //depot/dev/client3/rdock/2013.1/src/exe/rbdock.cxx#4 $)

>  <Rbt.Library>
libRbt.so (2013.1, Build901 2013/11/27)

>  <Rbt.Parameter_File>
/export/apps/rDock/src/rDock_2013.1_src/data/scripts/dock_solv.prm

>  <Rbt.Receptor>
prm/pocket_docking_7.prm

>  <SCORE>
-9.19015

>  <SCORE.INTER>
-5.59848

>  <SCORE.INTER.CONST>
1

>  <SCORE.INTER.POLAR>
0

>  <SCORE.INTER.ROT>
6

>  <SCORE.INTER.SOLV>
17.0104

>  <SCORE.INTER.VDW>
-17.0025

>  <SCORE.INTER.norm>
-0.180596

>  <SCORE.INTRA>
-3.59167

>  <SCORE.INTRA.DIHEDRAL>
-8.98867

>  <SCORE.INTRA.DIHEDRAL.0>
15.9129

>  <SCORE.INTRA.POLAR>
0

>  <SCORE.INTRA.POLAR.0>
0

>  <SCORE.INTRA.REPUL>
0

>  <SCORE.INTRA.REPUL.0>
0

>  <SCORE.INTRA.SOLV>
-1.43103

>  <SCORE.INTRA.SOLV.lig_0>
-75.7056

>  <SCORE.INTRA.VDW>
1.61818

>  <SCORE.INTRA.VDW.0>
-4.61812

>  <SCORE.INTRA.norm>
-0.11586

>  <SCORE.RESTR>
0

>  <SCORE.RESTR.CAVITY>
0

>  <SCORE.RESTR.norm>
0

>  <SCORE.SYSTEM>
0

>  <SCORE.SYSTEM.CONST>
0

>  <SCORE.SYSTEM.DIHEDRAL>
0

>  <SCORE.SYSTEM.SOLV>
0

>  <SCORE.SYSTEM.norm>
0

>  <SCORE.heavy>
31

>  <SCORE.norm>
-0.296456

>  <RMSD>
9.274

$$$$
ligand
 OpenBabel11021811493D
libRbt.so/2013.1/901 2013/11/27
 31 33  0  0  0  0  0  0  0  0999 V2000
   21.4390   -8.9708   -0.9081 C   0  0  2  0  0  0  0  0  0  0  0  0
   21.6087   -9.0501   -2.3298 O   0  0  0  0  0  0  0  0  0  0  0  0
   18.8495   -8.8563   -5.5760 C   0  0  2  0  0  0  0  0  0  0  0  0
   17.7079   -9.1339   -6.3808 N   0  0  0  0  0  0  0  0  0  0  0  0
   16.4465   -7.1076   -5.1670 C   0  0  2  0  0  0  0  0  0  0  0  0
   22.6551   -8.1689   -0.3496 C   0  0  2  0  0  0  0  0  0  0  0  0
   22.6973   -6.8593   -0.9970 N   0  0  0  0  0  0  0  0  0  0  0  0
   19.7175  -10.1630   -5.4391 C   0  0  0  0  0  0  0  0  0  0  0  0
   16.0726   -5.6015   -5.1190 C   0  0  2  0  0  0  0  0  0  0  0  0
   17.1790   -4.8481   -5.5602 O   0  0  0  0  0  0  0  0  0  0  0  0
   23.9923   -8.9730   -0.5798 C   0  0  0  0  0  0  0  0  0  0  0  0
   20.9854   -9.8506   -4.5445 C   0  0  2  0  0  0  0  0  0  0  0  0
   21.8017  -11.0744   -4.4099 N   0  0  0  0  0  0  0  0  0  0  0  0
   15.6841   -5.2399   -3.6305 C   0  0  1  0  0  0  0  0  0  0  0  0
   15.3378   -3.7939   -3.5300 N   0  0  0  0  0  0  0  0  0  0  0  0
   23.7878  -10.5304   -0.5177 C   0  0  0  0  0  0  0  0  0  0  0  0
   20.4996   -9.3498   -3.1180 C   0  0  2  0  0  0  0  0  0  0  0  0
   14.4055   -6.1358   -3.1687 C   0  0  1  0  0  0  0  0  0  0  0  0
   13.2611   -5.9092   -3.9545 O   0  0  0  0  0  0  0  0  0  0  0  0
   22.5678  -11.0701   -0.3779 C   0  0  1  0  0  0  0  0  0  0  0  0
   21.4020  -10.2769   -0.2728 O   0  0  0  0  0  0  0  0  0  0  0  0
   19.6197   -8.0581   -3.2848 C   0  0  2  0  0  0  0  0  0  0  0  0
   19.1785   -7.6225   -2.0002 O   0  0  0  0  0  0  0  0  0  0  0  0
   14.7783   -7.6461   -3.2859 C   0  0  0  0  0  0  0  0  0  0  0  0
   15.2978   -7.9528   -4.6762 O   0  0  0  0  0  0  0  0  0  0  0  0
   22.3284  -12.5918   -0.3277 C   0  0  0  0  0  0  0  0  0  0  0  0
   22.2810  -13.0104    1.0561 N   0  0  0  0  0  0  0  0  0  0  0  0
   18.3705   -8.3888   -4.1859 C   0  0  1  0  0  0  0  0  0  0  0  0
   17.6137   -7.2223   -4.3257 O   0  0  0  0  0  0  0  0  0  0  0  0
   13.9046   -5.8976   -1.7370 C   0  0  0  0  0  0  0  0  0  0  0  0
   16.0380   -3.0301   -2.4860 C   0  0  0  0  0  0  0  0  0  0  0  0
  1  2  1  6  0  0  0
  1  6  1  0  0  0  0
  1 21  1  0  0  0  0
  3  4  1  6  0  0  0
  3  8  1  0  0  0  0
  3 28  1  0  0  0  0
  5  9  1  0  0  0  0
  5 25  1  0  0  0  0
  5 29  1  1  0  0  0
  6  7  1  6  0  0  0
  6 11  1  0  0  0  0
  8 12  1  0  0  0  0
  9 10  1  1  0  0  0
  9 14  1  0  0  0  0
 11 16  1  0  0  0  0
 12 13  1  1  0  0  0
 12 17  1  0  0  0  0
 14 15  1  6  0  0  0
 14 18  1  0  0  0  0
 15 31  1  0  0  0  0
 16 20  1  0  0  0  0
 17  2  1  1  0  0  0
 17 22  1  0  0  0  0
 18 19  1  6  0  0  0
 18 24  1  0  0  0  0
 18 30  1  0  0  0  0
 20 21  1  0  0  0  0
 20 26  1  6  0  0  0
 22 23  1  1  0  0  0
 22 28  1  0  0  0  0
 24 25  1  0  0  0  0
 26 27  1  0  0  0  0
 28 29  1  6  0  0  0
M  END
>  <CHROM.1>
-161.01284477,-173.32409143,-128.00977343,-161.46557277,95.15255123,56.00510160
18.91127994,-8.11247622,-2.93898742,-0.04356374,-0.65858977,0.92894964

>  <Name>
ligand

>  <RI>
0

>  <Rbt.Current_Directory>
/home/itssahil/PROJECTS/Mol_Feturizer/New_Systems/rnas/4F8V

>  <Rbt.Executable>
rbdock ($Id: //depot/dev/client3/rdock/2013.1/src/exe/rbdock.cxx#4 $)

>  <Rbt.Library>
libRbt.so (2013.1, Build901 2013/11/27)

>  <Rbt.Parameter_File>
/export/apps/rDock/src/rDock_2013.1_src/data/scripts/dock_solv.prm

>  <Rbt.Receptor>
prm/pocket_docking_8.prm

>  <SCORE>
-7.58651

>  <SCORE.INTER>
-4.51091

>  <SCORE.INTER.CONST>
1

>  <SCORE.INTER.POLAR>
0

>  <SCORE.INTER.ROT>
6

>  <SCORE.INTER.SOLV>
20.5344

>  <SCORE.INTER.VDW>
-17.4521

>  <SCORE.INTER.norm>
-0.145513

>  <SCORE.INTRA>
-3.07561

>  <SCORE.INTRA.DIHEDRAL>
-8.88023

>  <SCORE.INTRA.DIHEDRAL.0>
15.9129

>  <SCORE.INTRA.POLAR>
0

>  <SCORE.INTRA.POLAR.0>
0

>  <SCORE.INTRA.REPUL>
0

>  <SCORE.INTRA.REPUL.0>
0

>  <SCORE.INTRA.SOLV>
-1.29708

>  <SCORE.INTRA.SOLV.lig_0>
-75.7056

>  <SCORE.INTRA.VDW>
2.01305

>  <SCORE.INTRA.VDW.0>
-4.61812

>  <SCORE.INTRA.norm>
-0.0992131

>  <SCORE.RESTR>
0

>  <SCORE.RESTR.CAVITY>
0

>  <SCORE.RESTR.norm>
0

>  <SCORE.SYSTEM>
0

>  <SCORE.SYSTEM.CONST>
0

>  <SCORE.SYSTEM.DIHEDRAL>
0

>  <SCORE.SYSTEM.SOLV>
0

>  <SCORE.SYSTEM.norm>
0

>  <SCORE.heavy>
31

>  <SCORE.norm>
-0.244726

>  <RMSD>
9.280

$$$$
ligand
 OpenBabel11021811493D
libRbt.so/2013.1/901 2013/11/27
 31 33  0  0  0  0  0  0  0  0999 V2000
   20.1106  -10.2932   -6.6743 C   0  0  2  0  0  0  0  0  0  0  0  0
   20.4394   -8.9731   -6.2209 O   0  0  0  0  0  0  0  0  0  0  0  0
   17.9084   -5.5847   -5.6716 C   0  0  2  0  0  0  0  0  0  0  0  0
   17.0065   -4.5247   -5.9733 N   0  0  0  0  0  0  0  0  0  0  0  0
   16.0226   -7.5928   -4.0052 C   0  0  2  0  0  0  0  0  0  0  0  0
   20.7913  -11.2941   -5.6902 C   0  0  2  0  0  0  0  0  0  0  0  0
   20.3218  -11.0190   -4.3337 N   0  0  0  0  0  0  0  0  0  0  0  0
   19.2497   -5.3666   -6.4672 C   0  0  0  0  0  0  0  0  0  0  0  0
   14.5273   -7.4799   -3.6030 C   0  0  2  0  0  0  0  0  0  0  0  0
   13.7569   -8.2263   -4.5172 O   0  0  0  0  0  0  0  0  0  0  0  0
   22.3611  -11.1811   -5.7946 C   0  0  0  0  0  0  0  0  0  0  0  0
   20.2495   -6.5462   -6.1291 C   0  0  2  0  0  0  0  0  0  0  0  0
   21.5087   -6.3482   -6.8758 N   0  0  0  0  0  0  0  0  0  0  0  0
   14.1280   -5.9511   -3.6242 C   0  0  1  0  0  0  0  0  0  0  0  0
   12.6901   -5.7938   -3.2650 N   0  0  0  0  0  0  0  0  0  0  0  0
   22.8525  -10.8066   -7.2399 C   0  0  0  0  0  0  0  0  0  0  0  0
   19.5762   -7.9257   -6.5356 C   0  0  2  0  0  0  0  0  0  0  0  0
   15.0449   -5.1340   -2.5555 C   0  0  1  0  0  0  0  0  0  0  0  0
   14.8782   -5.5799   -1.2318 O   0  0  0  0  0  0  0  0  0  0  0  0
   21.9838  -10.5276   -8.2231 C   0  0  1  0  0  0  0  0  0  0  0  0
   20.5846  -10.5589   -8.0218 O   0  0  0  0  0  0  0  0  0  0  0  0
   18.2309   -8.1087   -5.7435 C   0  0  2  0  0  0  0  0  0  0  0  0
   17.6278   -9.3443   -6.1235 O   0  0  0  0  0  0  0  0  0  0  0  0
   16.5468   -5.3131   -2.9378 C   0  0  0  0  0  0  0  0  0  0  0  0
   16.8842   -6.7849   -3.0674 O   0  0  0  0  0  0  0  0  0  0  0  0
   22.4296  -10.1428   -9.6474 C   0  0  0  0  0  0  0  0  0  0  0  0
   22.2940  -11.2988  -10.5061 N   0  0  0  0  0  0  0  0  0  0  0  0
   17.2559   -6.9199   -6.0865 C   0  0  1  0  0  0  0  0  0  0  0  0
   16.0751   -7.1025   -5.3618 O   0  0  0  0  0  0  0  0  0  0  0  0
   14.7740   -3.6259   -2.4577 C   0  0  0  0  0  0  0  0  0  0  0  0
   11.8105   -5.2724   -4.3225 C   0  0  0  0  0  0  0  0  0  0  0  0
  1  2  1  1  0  0  0
  1  6  1  0  0  0  0
  1 21  1  0  0  0  0
  3  4  1  6  0  0  0
  3  8  1  0  0  0  0
  3 28  1  0  0  0  0
  5  9  1  0  0  0  0
  5 25  1  0  0  0  0
  5 29  1  6  0  0  0
  6  7  1  1  0  0  0
  6 11  1  0  0  0  0
  8 12  1  0  0  0  0
  9 10  1  6  0  0  0
  9 14  1  0  0  0  0
 11 16  1  0  0  0  0
 12 13  1  6  0  0  0
 12 17  1  0  0  0  0
 14 15  1  1  0  0  0
 14 18  1  0  0  0  0
 15 31  1  0  0  0  0
 16 20  1  0  0  0  0
 17  2  1  1  0  0  0
 17 22  1  0  0  0  0
 18 19  1  1  0  0  0
 18 24  1  0  0  0  0
 18 30  1  0  0  0  0
 20 21  1  0  0  0  0
 20 26  1  1  0  0  0
 22 23  1  6  0  0  0
 22 28  1  0  0  0  0
 24 25  1  0  0  0  0
 26 27  1  0  0  0  0
 28 29  1  1  0  0  0
M  END
>  <CHROM.1>
-154.13147510,174.39254822,-114.71866006,-171.38886567,101.23844315,-80.43711358
18.02098035,-7.76233422,-5.43134492,0.48359513,-0.55407393,3.10515438

>  <Name>
ligand

>  <RI>
0

>  <Rbt.Current_Directory>
/home/itssahil/PROJECTS/Mol_Feturizer/New_Systems/rnas/4F8V

>  <Rbt.Executable>
rbdock ($Id: //depot/dev/client3/rdock/2013.1/src/exe/rbdock.cxx#4 $)

>  <Rbt.Library>
libRbt.so (2013.1, Build901 2013/11/27)

>  <Rbt.Parameter_File>
/export/apps/rDock/src/rDock_2013.1_src/data/scripts/dock_solv.prm

>  <Rbt.Receptor>
prm/pocket_docking_7.prm

>  <SCORE>
-13.9037

>  <SCORE.INTER>
-11.96

>  <SCORE.INTER.CONST>
1

>  <SCORE.INTER.POLAR>
0

>  <SCORE.INTER.ROT>
6

>  <SCORE.INTER.SOLV>
21.368

>  <SCORE.INTER.VDW>
-22.696

>  <SCORE.INTER.norm>
-0.385808

>  <SCORE.INTRA>
-1.94371

>  <SCORE.INTRA.DIHEDRAL>
-7.41591

>  <SCORE.INTRA.DIHEDRAL.0>
15.9129

>  <SCORE.INTRA.POLAR>
0

>  <SCORE.INTRA.POLAR.0>
0

>  <SCORE.INTRA.REPUL>
0

>  <SCORE.INTRA.REPUL.0>
0

>  <SCORE.INTRA.SOLV>
-0.756896

>  <SCORE.INTRA.SOLV.lig_0>
-75.7056

>  <SCORE.INTRA.VDW>
2.1427

>  <SCORE.INTRA.VDW.0>
-4.61812

>  <SCORE.INTRA.norm>
-0.0627003

>  <SCORE.RESTR>
0

>  <SCORE.RESTR.CAVITY>
0

>  <SCORE.RESTR.norm>
0

>  <SCORE.SYSTEM>
0

>  <SCORE.SYSTEM.CONST>
0

>  <SCORE.SYSTEM.DIHEDRAL>
0

>  <SCORE.SYSTEM.SOLV>
0

>  <SCORE.SYSTEM.norm>
0

>  <SCORE.heavy>
31

>  <SCORE.norm>
-0.448508

>  <RMSD>
9.409

$$$$
ligand
 OpenBabel11021811493D
libRbt.so/2013.1/901 2013/11/27
 31 33  0  0  0  0  0  0  0  0999 V2000
   26.1093  -11.3785   -2.8107 C   0  0  2  0  0  0  0  0  0  0  0  0
   27.2144  -11.3471   -3.7241 O   0  0  0  0  0  0  0  0  0  0  0  0
   27.5882   -9.7682   -7.6682 C   0  0  2  0  0  0  0  0  0  0  0  0
   27.3202   -9.5335   -9.0470 N   0  0  0  0  0  0  0  0  0  0  0  0
   25.7313   -7.4461   -8.3158 C   0  0  2  0  0  0  0  0  0  0  0  0
   26.7105  -11.4258   -1.3719 C   0  0  2  0  0  0  0  0  0  0  0  0
   27.5795  -10.2661   -1.1826 N   0  0  0  0  0  0  0  0  0  0  0  0
   27.9387  -11.2891   -7.4597 C   0  0  0  0  0  0  0  0  0  0  0  0
   25.6952   -5.9185   -8.0407 C   0  0  2  0  0  0  0  0  0  0  0  0
   26.9411   -5.5263   -7.5113 O   0  0  0  0  0  0  0  0  0  0  0  0
   27.4915  -12.7781   -1.1501 C   0  0  0  0  0  0  0  0  0  0  0  0
   28.2363  -11.5461   -5.9264 C   0  0  2  0  0  0  0  0  0  0  0  0
   28.5624  -12.9727   -5.7247 N   0  0  0  0  0  0  0  0  0  0  0  0
   24.5195   -5.6309   -7.0248 C   0  0  1  0  0  0  0  0  0  0  0  0
   24.4594   -4.1750   -6.7121 N   0  0  0  0  0  0  0  0  0  0  0  0
   26.8684  -13.9819   -1.9459 C   0  0  0  0  0  0  0  0  0  0  0  0
   26.9549  -11.1462   -5.0781 C   0  0  2  0  0  0  0  0  0  0  0  0
   23.1058   -6.1020   -7.6807 C   0  0  1  0  0  0  0  0  0  0  0  0
   22.7938   -5.4166   -8.8688 O   0  0  0  0  0  0  0  0  0  0  0  0
   25.8392  -13.8053   -2.7878 C   0  0  1  0  0  0  0  0  0  0  0  0
   25.2534  -12.5366   -3.0038 O   0  0  0  0  0  0  0  0  0  0  0  0
   26.6152   -9.6306   -5.3199 C   0  0  2  0  0  0  0  0  0  0  0  0
   25.4567   -9.2835   -4.5635 O   0  0  0  0  0  0  0  0  0  0  0  0
   23.1845   -7.6248   -8.0103 C   0  0  0  0  0  0  0  0  0  0  0  0
   24.4054   -7.9163   -8.8596 O   0  0  0  0  0  0  0  0  0  0  0  0
   25.2127  -14.9591   -3.5950 C   0  0  0  0  0  0  0  0  0  0  0  0
   23.8123  -15.0634   -3.2483 N   0  0  0  0  0  0  0  0  0  0  0  0
   26.3330   -9.3957   -6.8519 C   0  0  1  0  0  0  0  0  0  0  0  0
   26.0451   -8.0410   -7.0387 O   0  0  0  0  0  0  0  0  0  0  0  0
   21.8599   -5.8858   -6.8099 C   0  0  0  0  0  0  0  0  0  0  0  0
   24.8500   -3.7878   -5.3478 C   0  0  0  0  0  0  0  0  0  0  0  0
  1  2  1  6  0  0  0
  1  6  1  0  0  0  0
  1 21  1  0  0  0  0
  3  4  1  6  0  0  0
  3  8  1  0  0  0  0
  3 28  1  0  0  0  0
  5  9  1  0  0  0  0
  5 25  1  0  0  0  0
  5 29  1  1  0  0  0
  6  7  1  6  0  0  0
  6 11  1  0  0  0  0
  8 12  1  0  0  0  0
  9 10  1  1  0  0  0
  9 14  1  0  0  0  0
 11 16  1  0  0  0  0
 12 13  1  6  0  0  0
 12 17  1  0  0  0  0
 14 15  1  6  0  0  0
 14 18  1  0  0  0  0
 15 31  1  0  0  0  0
 16 20  1  0  0  0  0
 17  2  1  1  0  0  0
 17 22  1  0  0  0  0
 18 19  1  6  0  0  0
 18 24  1  0  0  0  0
 18 30  1  0  0  0  0
 20 21  1  0  0  0  0
 20 26  1  6  0  0  0
 22 23  1  1  0  0  0
 22 28  1  0  0  0  0
 24 25  1  0  0  0  0
 26 27  1  0  0  0  0
 28 29  1  1  0  0  0
M  END
>  <CHROM.1>
-172.67154919,-172.10622046,-110.51788159,-164.36895709,120.88955446,61.02865503
25.80320108,-9.49356538,-5.58385262,1.16276985,-0.93433363,2.22156261

>  <Name>
ligand

>  <RI>
0

>  <Rbt.Current_Directory>
/home/itssahil/PROJECTS/Mol_Feturizer/New_Systems/rnas/4F8V

>  <Rbt.Executable>
rbdock ($Id: //depot/dev/client3/rdock/2013.1/src/exe/rbdock.cxx#4 $)

>  <Rbt.Library>
libRbt.so (2013.1, Build901 2013/11/27)

>  <Rbt.Parameter_File>
/export/apps/rDock/src/rDock_2013.1_src/data/scripts/dock_solv.prm

>  <Rbt.Receptor>
prm/pocket_docking_7.prm

>  <SCORE>
-9.35045

>  <SCORE.INTER>
-4.54511

>  <SCORE.INTER.CONST>
1

>  <SCORE.INTER.POLAR>
0

>  <SCORE.INTER.ROT>
6

>  <SCORE.INTER.SOLV>
5.00002

>  <SCORE.INTER.VDW>
-12.2967

>  <SCORE.INTER.norm>
-0.146617

>  <SCORE.INTRA>
-4.80534

>  <SCORE.INTRA.DIHEDRAL>
-11.391

>  <SCORE.INTRA.DIHEDRAL.0>
15.9129

>  <SCORE.INTRA.POLAR>
0

>  <SCORE.INTRA.POLAR.0>
0

>  <SCORE.INTRA.REPUL>
0

>  <SCORE.INTRA.REPUL.0>
0

>  <SCORE.INTRA.SOLV>
-1.73467

>  <SCORE.INTRA.SOLV.lig_0>
-75.7056

>  <SCORE.INTRA.VDW>
1.75748

>  <SCORE.INTRA.VDW.0>
-4.61812

>  <SCORE.INTRA.norm>
-0.155011

>  <SCORE.RESTR>
0

>  <SCORE.RESTR.CAVITY>
0

>  <SCORE.RESTR.norm>
0

>  <SCORE.SYSTEM>
0

>  <SCORE.SYSTEM.CONST>
0

>  <SCORE.SYSTEM.DIHEDRAL>
0

>  <SCORE.SYSTEM.SOLV>
0

>  <SCORE.SYSTEM.norm>
0

>  <SCORE.heavy>
31

>  <SCORE.norm>
-0.301627

>  <RMSD>
9.439

$$$$
ligand
 OpenBabel11021811493D
libRbt.so/2013.1/901 2013/11/27
 31 33  0  0  0  0  0  0  0  0999 V2000
   20.7565  -10.6022   -7.7119 C   0  0  2  0  0  0  0  0  0  0  0  0
   21.4261   -9.6322   -6.8951 O   0  0  0  0  0  0  0  0  0  0  0  0
   20.7849   -5.5133   -5.9939 C   0  0  2  0  0  0  0  0  0  0  0  0
   20.4731   -4.1359   -6.1769 N   0  0  0  0  0  0  0  0  0  0  0  0
   17.1133   -6.4435   -5.9448 C   0  0  2  0  0  0  0  0  0  0  0  0
   20.9995  -11.9956   -7.0538 C   0  0  2  0  0  0  0  0  0  0  0  0
   20.5056  -11.9632   -5.6786 N   0  0  0  0  0  0  0  0  0  0  0  0
   22.0490   -5.8781   -6.8592 C   0  0  0  0  0  0  0  0  0  0  0  0
   16.3349   -5.1192   -6.1701 C   0  0  2  0  0  0  0  0  0  0  0  0
   16.9554   -4.4035   -7.2137 O   0  0  0  0  0  0  0  0  0  0  0  0
   22.5313  -12.3675   -7.1111 C   0  0  0  0  0  0  0  0  0  0  0  0
   22.3928   -7.4094   -6.6530 C   0  0  2  0  0  0  0  0  0  0  0  0
   23.5763   -7.7578   -7.4655 N   0  0  0  0  0  0  0  0  0  0  0  0
   16.3556   -4.3022   -4.8175 C   0  0  1  0  0  0  0  0  0  0  0  0
   15.6370   -3.0082   -4.9916 N   0  0  0  0  0  0  0  0  0  0  0  0
   23.2528  -11.7932   -8.3841 C   0  0  0  0  0  0  0  0  0  0  0  0
   21.1422   -8.2828   -7.0942 C   0  0  2  0  0  0  0  0  0  0  0  0
   15.6307   -5.1701   -3.6462 C   0  0  1  0  0  0  0  0  0  0  0  0
   14.2828   -5.4578   -3.9273 O   0  0  0  0  0  0  0  0  0  0  0  0
   22.6115  -10.9950   -9.2506 C   0  0  1  0  0  0  0  0  0  0  0  0
   21.2567  -10.6298   -9.0758 O   0  0  0  0  0  0  0  0  0  0  0  0
   19.8908   -7.8849   -6.2302 C   0  0  2  0  0  0  0  0  0  0  0  0
   18.7701   -8.6659   -6.6411 O   0  0  0  0  0  0  0  0  0  0  0  0
   16.3871   -6.5243   -3.4796 C   0  0  0  0  0  0  0  0  0  0  0  0
   16.4988   -7.2316   -4.8152 O   0  0  0  0  0  0  0  0  0  0  0  0
   23.2909  -10.4024  -10.5006 C   0  0  0  0  0  0  0  0  0  0  0  0
   24.4992  -11.1497  -10.7724 N   0  0  0  0  0  0  0  0  0  0  0  0
   19.5731   -6.3566   -6.4423 C   0  0  1  0  0  0  0  0  0  0  0  0
   18.4654   -6.0291   -5.6557 O   0  0  0  0  0  0  0  0  0  0  0  0
   15.5699   -4.5064   -2.2630 C   0  0  0  0  0  0  0  0  0  0  0  0
   16.4666   -1.8493   -5.3558 C   0  0  0  0  0  0  0  0  0  0  0  0
  1  2  1  1  0  0  0
  1  6  1  0  0  0  0
  1 21  1  0  0  0  0
  3  4  1  6  0  0  0
  3  8  1  0  0  0  0
  3 28  1  0  0  0  0
  5  9  1  0  0  0  0
  5 25  1  0  0  0  0
  5 29  1  1  0  0  0
  6  7  1  1  0  0  0
  6 11  1  0  0  0  0
  8 12  1  0  0  0  0
  9 10  1  6  0  0  0
  9 14  1  0  0  0  0
 11 16  1  0  0  0  0
 12 13  1  6  0  0  0
 12 17  1  0  0  0  0
 14 15  1  6  0  0  0
 14 18  1  0  0  0  0
 15 31  1  0  0  0  0
 16 20  1  0  0  0  0
 17  2  1  1  0  0  0
 17 22  1  0  0  0  0
 18 19  1  6  0  0  0
 18 24  1  0  0  0  0
 18 30  1  0  0  0  0
 20 21  1  0  0  0  0
 20 26  1  1  0  0  0
 22 23  1  6  0  0  0
 22 28  1  0  0  0  0
 24 25  1  0  0  0  0
 26 27  1  0  0  0  0
 28 29  1  1  0  0  0
M  END
>  <CHROM.1>
-166.78433372,-117.78992388,-93.50704388,-153.16691779,17.22744872,168.54319097
19.48502823,-7.51402924,-6.45117384,0.67039654,-0.57130097,3.09144357

>  <Name>
ligand

>  <RI>
0

>  <Rbt.Current_Directory>
/home/itssahil/PROJECTS/Mol_Feturizer/New_Systems/rnas/4F8V

>  <Rbt.Executable>
rbdock ($Id: //depot/dev/client3/rdock/2013.1/src/exe/rbdock.cxx#4 $)

>  <Rbt.Library>
libRbt.so (2013.1, Build901 2013/11/27)

>  <Rbt.Parameter_File>
/export/apps/rDock/src/rDock_2013.1_src/data/scripts/dock_solv.prm

>  <Rbt.Receptor>
prm/pocket_docking_6.prm

>  <SCORE>
-10.3722

>  <SCORE.INTER>
-10.7711

>  <SCORE.INTER.CONST>
1

>  <SCORE.INTER.POLAR>
0

>  <SCORE.INTER.ROT>
6

>  <SCORE.INTER.SOLV>
18.8674

>  <SCORE.INTER.VDW>
-21.0698

>  <SCORE.INTER.norm>
-0.347454

>  <SCORE.INTRA>
0.398892

>  <SCORE.INTRA.DIHEDRAL>
-1.51603

>  <SCORE.INTRA.DIHEDRAL.0>
15.9129

>  <SCORE.INTRA.POLAR>
0

>  <SCORE.INTRA.POLAR.0>
0

>  <SCORE.INTRA.REPUL>
0

>  <SCORE.INTRA.REPUL.0>
0

>  <SCORE.INTRA.SOLV>
-1.14577

>  <SCORE.INTRA.SOLV.lig_0>
-75.7056

>  <SCORE.INTRA.VDW>
1.72979

>  <SCORE.INTRA.VDW.0>
-4.61812

>  <SCORE.INTRA.norm>
0.0128675

>  <SCORE.RESTR>
0

>  <SCORE.RESTR.CAVITY>
0

>  <SCORE.RESTR.norm>
0

>  <SCORE.SYSTEM>
0

>  <SCORE.SYSTEM.CONST>
0

>  <SCORE.SYSTEM.DIHEDRAL>
0

>  <SCORE.SYSTEM.SOLV>
0

>  <SCORE.SYSTEM.norm>
0

>  <SCORE.heavy>
31

>  <SCORE.norm>
-0.334586

>  <RMSD>
9.480

$$$$
ligand
 OpenBabel11021811493D
libRbt.so/2013.1/901 2013/11/27
 31 33  0  0  0  0  0  0  0  0999 V2000
   22.0248  -10.4092   -7.8554 C   0  0  2  0  0  0  0  0  0  0  0  0
   20.9853   -9.8541   -7.0383 O   0  0  0  0  0  0  0  0  0  0  0  0
   20.4642   -5.7446   -6.0238 C   0  0  2  0  0  0  0  0  0  0  0  0
   20.1246   -4.3674   -6.1500 N   0  0  0  0  0  0  0  0  0  0  0  0
   16.8185   -6.5903   -5.5169 C   0  0  2  0  0  0  0  0  0  0  0  0
   21.5704  -11.8477   -8.2532 C   0  0  2  0  0  0  0  0  0  0  0  0
   20.2824  -11.7655   -8.9392 N   0  0  0  0  0  0  0  0  0  0  0  0
   21.5935   -6.0975   -7.0628 C   0  0  0  0  0  0  0  0  0  0  0  0
   16.1507   -5.2447   -5.9093 C   0  0  2  0  0  0  0  0  0  0  0  0
   16.7659   -4.7611   -7.0815 O   0  0  0  0  0  0  0  0  0  0  0  0
   21.4889  -12.7683   -6.9750 C   0  0  0  0  0  0  0  0  0  0  0  0
   21.9686   -7.6286   -6.9193 C   0  0  2  0  0  0  0  0  0  0  0  0
   23.0257   -7.9659   -7.8945 N   0  0  0  0  0  0  0  0  0  0  0  0
   16.3314   -4.2381   -4.7047 C   0  0  1  0  0  0  0  0  0  0  0  0
   15.7236   -2.9205   -5.0447 N   0  0  0  0  0  0  0  0  0  0  0  0
   22.5513  -12.3898   -5.8800 C   0  0  0  0  0  0  0  0  0  0  0  0
   20.6711   -8.5047   -7.1847 C   0  0  2  0  0  0  0  0  0  0  0  0
   15.6068   -4.8416   -3.3775 C   0  0  1  0  0  0  0  0  0  0  0  0
   14.2232   -5.0332   -3.5439 O   0  0  0  0  0  0  0  0  0  0  0  0
   23.3552  -11.3258   -6.0244 C   0  0  1  0  0  0  0  0  0  0  0  0
   23.3001  -10.4906   -7.1640 O   0  0  0  0  0  0  0  0  0  0  0  0
   19.5540   -8.1186   -6.1484 C   0  0  2  0  0  0  0  0  0  0  0  0
   18.3890   -8.9019   -6.4016 O   0  0  0  0  0  0  0  0  0  0  0  0
   16.2462   -6.2233   -3.0372 C   0  0  0  0  0  0  0  0  0  0  0  0
   16.2081   -7.1328   -4.2489 O   0  0  0  0  0  0  0  0  0  0  0  0
   24.3977  -10.9167   -4.9655 C   0  0  0  0  0  0  0  0  0  0  0  0
   25.7138  -10.9682   -5.5634 N   0  0  0  0  0  0  0  0  0  0  0  0
   19.2039   -6.5903   -6.3015 C   0  0  1  0  0  0  0  0  0  0  0  0
   18.2182   -6.2735   -5.3629 O   0  0  0  0  0  0  0  0  0  0  0  0
   15.6945   -3.9729   -2.1146 C   0  0  0  0  0  0  0  0  0  0  0  0
   16.6362   -1.9089   -5.5995 C   0  0  0  0  0  0  0  0  0  0  0  0
  1  2  1  1  0  0  0
  1  6  1  0  0  0  0
  1 21  1  0  0  0  0
  3  4  1  6  0  0  0
  3  8  1  0  0  0  0
  3 28  1  0  0  0  0
  5  9  1  0  0  0  0
  5 25  1  0  0  0  0
  5 29  1  1  0  0  0
  6  7  1  1  0  0  0
  6 11  1  0  0  0  0
  8 12  1  0  0  0  0
  9 10  1  6  0  0  0
  9 14  1  0  0  0  0
 11 16  1  0  0  0  0
 12 13  1  6  0  0  0
 12 17  1  0  0  0  0
 14 15  1  6  0  0  0
 14 18  1  0  0  0  0
 15 31  1  0  0  0  0
 16 20  1  0  0  0  0
 17  2  1  1  0  0  0
 17 22  1  0  0  0  0
 18 19  1  6  0  0  0
 18 24  1  0  0  0  0
 18 30  1  0  0  0  0
 20 21  1  0  0  0  0
 20 26  1  1  0  0  0
 22 23  1  6  0  0  0
 22 28  1  0  0  0  0
 24 25  1  0  0  0  0
 26 27  1  0  0  0  0
 28 29  1  1  0  0  0
M  END
>  <CHROM.1>
-141.92146363,-103.54708003,-94.78629675,-57.68786983,119.11362931,162.84271699
19.48124256,-7.58804398,-5.93072534,-0.72579877,0.36767463,-0.03578844

>  <Name>
ligand

>  <RI>
0

>  <Rbt.Current_Directory>
/home/itssahil/PROJECTS/Mol_Feturizer/New_Systems/rnas/4F8V

>  <Rbt.Executable>
rbdock ($Id: //depot/dev/client3/rdock/2013.1/src/exe/rbdock.cxx#4 $)

>  <Rbt.Library>
libRbt.so (2013.1, Build901 2013/11/27)

>  <Rbt.Parameter_File>
/export/apps/rDock/src/rDock_2013.1_src/data/scripts/dock_solv.prm

>  <Rbt.Receptor>
prm/pocket_docking_6.prm

>  <SCORE>
-6.68226

>  <SCORE.INTER>
-8.50837

>  <SCORE.INTER.CONST>
1

>  <SCORE.INTER.POLAR>
0

>  <SCORE.INTER.ROT>
6

>  <SCORE.INTER.SOLV>
18.1814

>  <SCORE.INTER.VDW>
-19.3327

>  <SCORE.INTER.norm>
-0.274463

>  <SCORE.INTRA>
1.82611

>  <SCORE.INTRA.DIHEDRAL>
-1.07481

>  <SCORE.INTRA.DIHEDRAL.0>
15.9129

>  <SCORE.INTRA.POLAR>
0

>  <SCORE.INTRA.POLAR.0>
0

>  <SCORE.INTRA.REPUL>
0

>  <SCORE.INTRA.REPUL.0>
0

>  <SCORE.INTRA.SOLV>
0.124749

>  <SCORE.INTRA.SOLV.lig_0>
-75.7056

>  <SCORE.INTRA.VDW>
2.30114

>  <SCORE.INTRA.VDW.0>
-4.61812

>  <SCORE.INTRA.norm>
0.0589066

>  <SCORE.RESTR>
0

>  <SCORE.RESTR.CAVITY>
0

>  <SCORE.RESTR.norm>
0

>  <SCORE.SYSTEM>
0

>  <SCORE.SYSTEM.CONST>
0

>  <SCORE.SYSTEM.DIHEDRAL>
0

>  <SCORE.SYSTEM.SOLV>
0

>  <SCORE.SYSTEM.norm>
0

>  <SCORE.heavy>
31

>  <SCORE.norm>
-0.215557

>  <RMSD>
9.488

$$$$
ligand
 OpenBabel11021811493D
libRbt.so/2013.1/901 2013/11/27
 31 33  0  0  0  0  0  0  0  0999 V2000
   22.6422   -4.7752   -6.1550 C   0  0  2  0  0  0  0  0  0  0  0  0
   22.1353   -6.0218   -6.6505 O   0  0  0  0  0  0  0  0  0  0  0  0
   18.2266   -7.7113   -6.4136 C   0  0  2  0  0  0  0  0  0  0  0  0
   17.0197   -8.2196   -5.8541 N   0  0  0  0  0  0  0  0  0  0  0  0
   16.9150   -4.2621   -5.7189 C   0  0  2  0  0  0  0  0  0  0  0  0
   23.9071   -4.4310   -7.0006 C   0  0  2  0  0  0  0  0  0  0  0  0
   23.5339   -4.3787   -8.4127 N   0  0  0  0  0  0  0  0  0  0  0  0
   19.4334   -8.6071   -5.9440 C   0  0  0  0  0  0  0  0  0  0  0  0
   16.0676   -4.7396   -4.5087 C   0  0  2  0  0  0  0  0  0  0  0  0
   16.8673   -5.5702   -3.6982 O   0  0  0  0  0  0  0  0  0  0  0  0
   25.0443   -5.4926   -6.7402 C   0  0  0  0  0  0  0  0  0  0  0  0
   20.7728   -8.0394   -6.5681 C   0  0  2  0  0  0  0  0  0  0  0  0
   21.9091   -8.8745   -6.1278 N   0  0  0  0  0  0  0  0  0  0  0  0
   14.8093   -5.5156   -5.0670 C   0  0  1  0  0  0  0  0  0  0  0  0
   13.9744   -6.0142   -3.9377 N   0  0  0  0  0  0  0  0  0  0  0  0
   25.0223   -6.0658   -5.2767 C   0  0  0  0  0  0  0  0  0  0  0  0
   20.9702   -6.5387   -6.0880 C   0  0  2  0  0  0  0  0  0  0  0  0
   13.9213   -4.5159   -5.9960 C   0  0  1  0  0  0  0  0  0  0  0  0
   13.4324   -3.3997   -5.2934 O   0  0  0  0  0  0  0  0  0  0  0  0
   24.0577   -5.7278   -4.4081 C   0  0  1  0  0  0  0  0  0  0  0  0
   23.0141   -4.8378   -4.7518 O   0  0  0  0  0  0  0  0  0  0  0  0
   19.7437   -5.6718   -6.5515 C   0  0  2  0  0  0  0  0  0  0  0  0
   19.9241   -4.3288   -6.1060 O   0  0  0  0  0  0  0  0  0  0  0  0
   14.8085   -3.9954   -7.1689 C   0  0  0  0  0  0  0  0  0  0  0  0
   16.0890   -3.3895   -6.6305 O   0  0  0  0  0  0  0  0  0  0  0  0
   23.9964   -6.2812   -2.9709 C   0  0  0  0  0  0  0  0  0  0  0  0
   24.3479   -5.2233   -2.0491 N   0  0  0  0  0  0  0  0  0  0  0  0
   18.4219   -6.2599   -5.9279 C   0  0  1  0  0  0  0  0  0  0  0  0
   17.3492   -5.4777   -6.3646 O   0  0  0  0  0  0  0  0  0  0  0  0
   12.6559   -5.1266   -6.6150 C   0  0  0  0  0  0  0  0  0  0  0  0
   14.0398   -7.4593   -3.6713 C   0  0  0  0  0  0  0  0  0  0  0  0
  1  2  1  6  0  0  0
  1  6  1  0  0  0  0
  1 21  1  0  0  0  0
  3  4  1  1  0  0  0
  3  8  1  0  0  0  0
  3 28  1  0  0  0  0
  5  9  1  0  0  0  0
  5 25  1  0  0  0  0
  5 29  1  6  0  0  0
  6  7  1  6  0  0  0
  6 11  1  0  0  0  0
  8 12  1  0  0  0  0
  9 10  1  1  0  0  0
  9 14  1  0  0  0  0
 11 16  1  0  0  0  0
 12 13  1  1  0  0  0
 12 17  1  0  0  0  0
 14 15  1  1  0  0  0
 14 18  1  0  0  0  0
 15 31  1  0  0  0  0
 16 20  1  0  0  0  0
 17  2  1  6  0  0  0
 17 22  1  0  0  0  0
 18 19  1  1  0  0  0
 18 24  1  0  0  0  0
 18 30  1  0  0  0  0
 20 21  1  0  0  0  0
 20 26  1  6  0  0  0
 22 23  1  1  0  0  0
 22 28  1  0  0  0  0
 24 25  1  0  0  0  0
 26 27  1  0  0  0  0
 28 29  1  6  0  0  0
M  END
>  <CHROM.1>
-177.97620582,-79.95150554,-105.96889019,-168.27785042,108.13963439,155.30964217
19.15491321,-5.68282414,-5.62520492,-0.05300672,0.03493510,-0.52307337

>  <Name>
ligand

>  <RI>
0

>  <Rbt.Current_Directory>
/home/itssahil/PROJECTS/Mol_Feturizer/New_Systems/rnas/4F8V

>  <Rbt.Executable>
rbdock ($Id: //depot/dev/client3/rdock/2013.1/src/exe/rbdock.cxx#4 $)

>  <Rbt.Library>
libRbt.so (2013.1, Build901 2013/11/27)

>  <Rbt.Parameter_File>
/export/apps/rDock/src/rDock_2013.1_src/data/scripts/dock_solv.prm

>  <Rbt.Receptor>
prm/pocket_docking_8.prm

>  <SCORE>
-14.2227

>  <SCORE.INTER>
-10.9853

>  <SCORE.INTER.CONST>
1

>  <SCORE.INTER.POLAR>
0

>  <SCORE.INTER.ROT>
6

>  <SCORE.INTER.SOLV>
21.8796

>  <SCORE.INTER.VDW>
-22.2167

>  <SCORE.INTER.norm>
-0.354364

>  <SCORE.INTRA>
-3.23742

>  <SCORE.INTRA.DIHEDRAL>
-7.92719

>  <SCORE.INTRA.DIHEDRAL.0>
15.9129

>  <SCORE.INTRA.POLAR>
0

>  <SCORE.INTRA.POLAR.0>
0

>  <SCORE.INTRA.REPUL>
0

>  <SCORE.INTRA.REPUL.0>
0

>  <SCORE.INTRA.SOLV>
-1.00375

>  <SCORE.INTRA.SOLV.lig_0>
-75.7056

>  <SCORE.INTRA.VDW>
1.22805

>  <SCORE.INTRA.VDW.0>
-4.61812

>  <SCORE.INTRA.norm>
-0.104433

>  <SCORE.RESTR>
0

>  <SCORE.RESTR.CAVITY>
0

>  <SCORE.RESTR.norm>
0

>  <SCORE.SYSTEM>
0

>  <SCORE.SYSTEM.CONST>
0

>  <SCORE.SYSTEM.DIHEDRAL>
0

>  <SCORE.SYSTEM.SOLV>
0

>  <SCORE.SYSTEM.norm>
0

>  <SCORE.heavy>
31

>  <SCORE.norm>
-0.458797

>  <RMSD>
9.858

$$$$
ligand
 OpenBabel11021811493D
libRbt.so/2013.1/901 2013/11/27
 31 33  0  0  0  0  0  0  0  0999 V2000
   16.8256   -7.1585   -5.6327 C   0  0  2  0  0  0  0  0  0  0  0  0
   16.8289   -6.7495   -4.2583 O   0  0  0  0  0  0  0  0  0  0  0  0
   13.7488   -6.2345   -1.3537 C   0  0  2  0  0  0  0  0  0  0  0  0
   12.5198   -5.8212   -0.7649 N   0  0  0  0  0  0  0  0  0  0  0  0
   11.2699   -8.3207   -2.3070 C   0  0  2  0  0  0  0  0  0  0  0  0
   18.2892   -7.5638   -5.9895 C   0  0  2  0  0  0  0  0  0  0  0  0
   18.7250   -8.6192   -5.0772 N   0  0  0  0  0  0  0  0  0  0  0  0
   14.5831   -4.9621   -1.7594 C   0  0  0  0  0  0  0  0  0  0  0  0
   10.8192   -8.7227   -0.8766 C   0  0  2  0  0  0  0  0  0  0  0  0
   11.2737   -7.7447    0.0307 O   0  0  0  0  0  0  0  0  0  0  0  0
   19.2380   -6.3059   -5.9165 C   0  0  0  0  0  0  0  0  0  0  0  0
   15.9484   -5.4253   -2.4130 C   0  0  2  0  0  0  0  0  0  0  0  0
   16.7338   -4.2351   -2.7986 N   0  0  0  0  0  0  0  0  0  0  0  0
   11.4319  -10.1424   -0.5505 C   0  0  1  0  0  0  0  0  0  0  0  0
   11.0436  -10.5621    0.8258 N   0  0  0  0  0  0  0  0  0  0  0  0
   18.5124   -4.9688   -6.3122 C   0  0  0  0  0  0  0  0  0  0  0  0
   15.6333   -6.3174   -3.6883 C   0  0  2  0  0  0  0  0  0  0  0  0
   10.8792  -11.2337   -1.6249 C   0  0  1  0  0  0  0  0  0  0  0  0
    9.4802  -11.3774   -1.5946 O   0  0  0  0  0  0  0  0  0  0  0  0
   17.1987   -4.9397   -6.5817 C   0  0  1  0  0  0  0  0  0  0  0  0
   16.3949   -6.1020   -6.5324 O   0  0  0  0  0  0  0  0  0  0  0  0
   14.7834   -7.5681   -3.2592 C   0  0  2  0  0  0  0  0  0  0  0  0
   14.4955   -8.3570   -4.4123 O   0  0  0  0  0  0  0  0  0  0  0  0
   11.2852  -10.7789   -3.0609 C   0  0  0  0  0  0  0  0  0  0  0  0
   10.8273   -9.3559   -3.3106 O   0  0  0  0  0  0  0  0  0  0  0  0
   16.4518   -3.6454   -6.9587 C   0  0  0  0  0  0  0  0  0  0  0  0
   15.3162   -3.4892   -6.0763 N   0  0  0  0  0  0  0  0  0  0  0  0
   13.4355   -7.0845   -2.6027 C   0  0  1  0  0  0  0  0  0  0  0  0
   12.7068   -8.2146   -2.2221 O   0  0  0  0  0  0  0  0  0  0  0  0
   11.3867  -12.6708   -1.4391 C   0  0  0  0  0  0  0  0  0  0  0  0
   11.8898  -11.5884    1.4541 C   0  0  0  0  0  0  0  0  0  0  0  0
  1  2  1  1  0  0  0
  1  6  1  0  0  0  0
  1 21  1  0  0  0  0
  3  4  1  6  0  0  0
  3  8  1  0  0  0  0
  3 28  1  0  0  0  0
  5  9  1  0  0  0  0
  5 25  1  0  0  0  0
  5 29  1  1  0  0  0
  6  7  1  1  0  0  0
  6 11  1  0  0  0  0
  8 12  1  0  0  0  0
  9 10  1  1  0  0  0
  9 14  1  0  0  0  0
 11 16  1  0  0  0  0
 12 13  1  6  0  0  0
 12 17  1  0  0  0  0
 14 15  1  1  0  0  0
 14 18  1  0  0  0  0
 15 31  1  0  0  0  0
 16 20  1  0  0  0  0
 17  2  1  1  0  0  0
 17 22  1  0  0  0  0
 18 19  1  1  0  0  0
 18 24  1  0  0  0  0
 18 30  1  0  0  0  0
 20 21  1  0  0  0  0
 20 26  1  1  0  0  0
 22 23  1  6  0  0  0
 22 28  1  0  0  0  0
 24 25  1  0  0  0  0
 26 27  1  0  0  0  0
 28 29  1  1  0  0  0
M  END
>  <CHROM.1>
179.20415058,-125.89305248,-158.93152049,-158.66288322,-126.57326617,97.66594463
14.15484310,-7.65621562,-3.12348390,-0.36743367,-0.75124472,-2.86883662

>  <Name>
ligand

>  <RI>
0

>  <Rbt.Current_Directory>
/home/itssahil/PROJECTS/Mol_Feturizer/New_Systems/rnas/4F8V

>  <Rbt.Executable>
rbdock ($Id: //depot/dev/client3/rdock/2013.1/src/exe/rbdock.cxx#4 $)

>  <Rbt.Library>
libRbt.so (2013.1, Build901 2013/11/27)

>  <Rbt.Parameter_File>
/export/apps/rDock/src/rDock_2013.1_src/data/scripts/dock_solv.prm

>  <Rbt.Receptor>
prm/blind_docking_100.prm

>  <SCORE>
-0.304366

>  <SCORE.INTER>
-9.76848

>  <SCORE.INTER.CONST>
1

>  <SCORE.INTER.POLAR>
0

>  <SCORE.INTER.ROT>
6

>  <SCORE.INTER.SOLV>
19.2443

>  <SCORE.INTER.VDW>
-20.5271

>  <SCORE.INTER.norm>
-0.315112

>  <SCORE.INTRA>
3.62419

>  <SCORE.INTRA.DIHEDRAL>
0.213714

>  <SCORE.INTRA.DIHEDRAL.0>
15.9129

>  <SCORE.INTRA.POLAR>
0

>  <SCORE.INTRA.POLAR.0>
0

>  <SCORE.INTRA.REPUL>
0

>  <SCORE.INTRA.REPUL.0>
0

>  <SCORE.INTRA.SOLV>
1.97773

>  <SCORE.INTRA.SOLV.lig_0>
-75.7056

>  <SCORE.INTRA.VDW>
2.52846

>  <SCORE.INTRA.VDW.0>
-4.61812

>  <SCORE.INTRA.norm>
0.116909

>  <SCORE.RESTR>
5.83992

>  <SCORE.RESTR.CAVITY>
5.83992

>  <SCORE.RESTR.norm>
0.188385

>  <SCORE.SYSTEM>
0

>  <SCORE.SYSTEM.CONST>
0

>  <SCORE.SYSTEM.DIHEDRAL>
0

>  <SCORE.SYSTEM.SOLV>
0

>  <SCORE.SYSTEM.norm>
0

>  <SCORE.heavy>
31

>  <SCORE.norm>
-0.00981826

>  <RMSD>
9.917

$$$$
ligand
 OpenBabel11021811493D
libRbt.so/2013.1/901 2013/11/27
 31 33  0  0  0  0  0  0  0  0999 V2000
   16.7996   -7.1442   -5.6786 C   0  0  2  0  0  0  0  0  0  0  0  0
   16.8316   -6.7598   -4.2974 O   0  0  0  0  0  0  0  0  0  0  0  0
   13.7976   -6.2919   -1.3369 C   0  0  2  0  0  0  0  0  0  0  0  0
   12.5829   -5.8791   -0.7187 N   0  0  0  0  0  0  0  0  0  0  0  0
   11.2802   -8.3320   -2.3864 C   0  0  2  0  0  0  0  0  0  0  0  0
   18.2547   -7.5464   -6.0718 C   0  0  2  0  0  0  0  0  0  0  0  0
   18.7058   -8.6189   -5.1873 N   0  0  0  0  0  0  0  0  0  0  0  0
   14.6464   -5.0199   -1.7127 C   0  0  0  0  0  0  0  0  0  0  0  0
   10.7821   -8.7303   -0.9708 C   0  0  2  0  0  0  0  0  0  0  0  0
   11.2070   -7.7504   -0.0512 O   0  0  0  0  0  0  0  0  0  0  0  0
   19.2081   -6.2922   -5.9955 C   0  0  0  0  0  0  0  0  0  0  0  0
   15.9957   -5.4825   -2.3990 C   0  0  2  0  0  0  0  0  0  0  0  0
   16.7946   -4.2925   -2.7569 N   0  0  0  0  0  0  0  0  0  0  0  0
   11.3823  -10.1497   -0.6212 C   0  0  1  0  0  0  0  0  0  0  0  0
   10.9483  -10.5658    0.7425 N   0  0  0  0  0  0  0  0  0  0  0  0
   18.4783   -4.9466   -6.3527 C   0  0  0  0  0  0  0  0  0  0  0  0
   15.6503   -6.3281   -3.6980 C   0  0  2  0  0  0  0  0  0  0  0  0
   10.8647  -11.2431   -1.7107 C   0  0  1  0  0  0  0  0  0  0  0  0
    9.4653  -11.3856   -1.7265 O   0  0  0  0  0  0  0  0  0  0  0  0
   17.1596   -4.9097   -6.5953 C   0  0  1  0  0  0  0  0  0  0  0  0
   16.3539   -6.0708   -6.5505 O   0  0  0  0  0  0  0  0  0  0  0  0
   14.7866   -7.5790   -3.2978 C   0  0  2  0  0  0  0  0  0  0  0  0
   14.4716   -8.3258   -4.4716 O   0  0  0  0  0  0  0  0  0  0  0  0
   11.3184  -10.7920   -3.1336 C   0  0  0  0  0  0  0  0  0  0  0  0
   10.8703   -9.3693   -3.4017 O   0  0  0  0  0  0  0  0  0  0  0  0
   16.4087   -3.6071   -6.9340 C   0  0  0  0  0  0  0  0  0  0  0  0
   15.2521   -3.4986   -6.0721 N   0  0  0  0  0  0  0  0  0  0  0  0
   13.4550   -7.0964   -2.6081 C   0  0  1  0  0  0  0  0  0  0  0  0
   12.7137   -8.2269   -2.2542 O   0  0  0  0  0  0  0  0  0  0  0  0
   11.3644  -12.6801   -1.5048 C   0  0  0  0  0  0  0  0  0  0  0  0
   11.8262  -11.5175    1.4405 C   0  0  0  0  0  0  0  0  0  0  0  0
  1  2  1  1  0  0  0
  1  6  1  0  0  0  0
  1 21  1  0  0  0  0
  3  4  1  6  0  0  0
  3  8  1  0  0  0  0
  3 28  1  0  0  0  0
  5  9  1  0  0  0  0
  5 25  1  0  0  0  0
  5 29  1  1  0  0  0
  6  7  1  1  0  0  0
  6 11  1  0  0  0  0
  8 12  1  0  0  0  0
  9 10  1  1  0  0  0
  9 14  1  0  0  0  0
 11 16  1  0  0  0  0
 12 13  1  6  0  0  0
 12 17  1  0  0  0  0
 14 15  1  1  0  0  0
 14 18  1  0  0  0  0
 15 31  1  0  0  0  0
 16 20  1  0  0  0  0
 17  2  1  1  0  0  0
 17 22  1  0  0  0  0
 18 19  1  1  0  0  0
 18 24  1  0  0  0  0
 18 30  1  0  0  0  0
 20 21  1  0  0  0  0
 20 26  1  1  0  0  0
 22 23  1  6  0  0  0
 22 28  1  0  0  0  0
 24 25  1  0  0  0  0
 26 27  1  0  0  0  0
 28 29  1  1  0  0  0
M  END
>  <CHROM.1>
178.85595589,-125.62657240,-154.60916733,-159.62916469,-129.48164972,100.92175211
14.14477098,-7.66124831,-3.16443301,-0.32601505,-0.76393400,-2.80590420

>  <Name>
ligand

>  <RI>
0

>  <Rbt.Current_Directory>
/home/itssahil/PROJECTS/Mol_Feturizer/New_Systems/rnas/4F8V

>  <Rbt.Executable>
rbdock ($Id: //depot/dev/client3/rdock/2013.1/src/exe/rbdock.cxx#4 $)

>  <Rbt.Library>
libRbt.so (2013.1, Build901 2013/11/27)

>  <Rbt.Parameter_File>
/export/apps/rDock/src/rDock_2013.1_src/data/scripts/dock_solv.prm

>  <Rbt.Receptor>
prm/blind_docking_100.prm

>  <SCORE>
0.774567

>  <SCORE.INTER>
-8.4393

>  <SCORE.INTER.CONST>
1

>  <SCORE.INTER.POLAR>
0

>  <SCORE.INTER.ROT>
6

>  <SCORE.INTER.SOLV>
19.652

>  <SCORE.INTER.VDW>
-19.7769

>  <SCORE.INTER.norm>
-0.272235

>  <SCORE.INTRA>
3.49715

>  <SCORE.INTRA.DIHEDRAL>
0.798064

>  <SCORE.INTRA.DIHEDRAL.0>
15.9129

>  <SCORE.INTRA.POLAR>
0

>  <SCORE.INTRA.POLAR.0>
0

>  <SCORE.INTRA.REPUL>
0

>  <SCORE.INTRA.REPUL.0>
0

>  <SCORE.INTRA.SOLV>
1.73389

>  <SCORE.INTRA.SOLV.lig_0>
-75.7056

>  <SCORE.INTRA.VDW>
2.23117

>  <SCORE.INTRA.VDW.0>
-4.61812

>  <SCORE.INTRA.norm>
0.112811

>  <SCORE.RESTR>
5.71672

>  <SCORE.RESTR.CAVITY>
5.71672

>  <SCORE.RESTR.norm>
0.18441

>  <SCORE.SYSTEM>
0

>  <SCORE.SYSTEM.CONST>
0

>  <SCORE.SYSTEM.DIHEDRAL>
0

>  <SCORE.SYSTEM.SOLV>
0

>  <SCORE.SYSTEM.norm>
0

>  <SCORE.heavy>
31

>  <SCORE.norm>
0.024986

>  <RMSD>
9.917

$$$$
ligand
 OpenBabel11021811493D
libRbt.so/2013.1/901 2013/11/27
 31 33  0  0  0  0  0  0  0  0999 V2000
   16.7927   -7.1368   -5.6811 C   0  0  2  0  0  0  0  0  0  0  0  0
   16.8067   -6.7550   -4.2989 O   0  0  0  0  0  0  0  0  0  0  0  0
   13.7584   -6.2474   -1.3597 C   0  0  2  0  0  0  0  0  0  0  0  0
   12.5364   -5.8346   -0.7562 N   0  0  0  0  0  0  0  0  0  0  0  0
   11.2679   -8.3350   -2.3210 C   0  0  2  0  0  0  0  0  0  0  0  0
   18.2488   -7.5578   -6.0507 C   0  0  2  0  0  0  0  0  0  0  0  0
   18.6706   -8.6376   -5.1606 N   0  0  0  0  0  0  0  0  0  0  0  0
   14.5906   -4.9747   -1.7686 C   0  0  0  0  0  0  0  0  0  0  0  0
   10.8087   -8.7365   -0.8933 C   0  0  2  0  0  0  0  0  0  0  0  0
   11.2517   -7.7546    0.0156 O   0  0  0  0  0  0  0  0  0  0  0  0
   19.2173   -6.3166   -5.9562 C   0  0  0  0  0  0  0  0  0  0  0  0
   15.9480   -5.4374   -2.4386 C   0  0  2  0  0  0  0  0  0  0  0  0
   16.7315   -4.2469   -2.8273 N   0  0  0  0  0  0  0  0  0  0  0  0
   11.4256  -10.1526   -0.5599 C   0  0  1  0  0  0  0  0  0  0  0  0
   11.0293  -10.5716    0.8143 N   0  0  0  0  0  0  0  0  0  0  0  0
   18.5116   -4.9608   -6.3232 C   0  0  0  0  0  0  0  0  0  0  0  0
   15.6179   -6.3233   -3.7145 C   0  0  2  0  0  0  0  0  0  0  0  0
   10.8862  -11.2485   -1.6362 C   0  0  1  0  0  0  0  0  0  0  0  0
    9.4877  -11.3988   -1.6160 O   0  0  0  0  0  0  0  0  0  0  0  0
   17.1978   -4.9060   -6.5878 C   0  0  1  0  0  0  0  0  0  0  0  0
   16.3760   -6.0562   -6.5585 O   0  0  0  0  0  0  0  0  0  0  0  0
   14.7704   -7.5744   -3.2819 C   0  0  2  0  0  0  0  0  0  0  0  0
   14.4689   -8.3577   -4.4353 O   0  0  0  0  0  0  0  0  0  0  0  0
   11.3005  -10.7945   -3.0701 C   0  0  0  0  0  0  0  0  0  0  0  0
   10.8377   -9.3742   -3.3259 O   0  0  0  0  0  0  0  0  0  0  0  0
   16.4701   -3.5930   -6.9368 C   0  0  0  0  0  0  0  0  0  0  0  0
   15.2930   -3.4773   -6.1041 N   0  0  0  0  0  0  0  0  0  0  0  0
   13.4303   -7.0914   -2.6090 C   0  0  1  0  0  0  0  0  0  0  0  0
   12.7037   -8.2219   -2.2257 O   0  0  0  0  0  0  0  0  0  0  0  0
   11.3991  -12.6828   -1.4440 C   0  0  0  0  0  0  0  0  0  0  0  0
   11.8865  -11.5788    1.4581 C   0  0  0  0  0  0  0  0  0  0  0  0
  1  2  1  1  0  0  0
  1  6  1  0  0  0  0
  1 21  1  0  0  0  0
  3  4  1  6  0  0  0
  3  8  1  0  0  0  0
  3 28  1  0  0  0  0
  5  9  1  0  0  0  0
  5 25  1  0  0  0  0
  5 29  1  1  0  0  0
  6  7  1  1  0  0  0
  6 11  1  0  0  0  0
  8 12  1  0  0  0  0
  9 10  1  1  0  0  0
  9 14  1  0  0  0  0
 11 16  1  0  0  0  0
 12 13  1  6  0  0  0
 12 17  1  0  0  0  0
 14 15  1  1  0  0  0
 14 18  1  0  0  0  0
 15 31  1  0  0  0  0
 16 20  1  0  0  0  0
 17  2  1  1  0  0  0
 17 22  1  0  0  0  0
 18 19  1  1  0  0  0
 18 24  1  0  0  0  0
 18 30  1  0  0  0  0
 20 21  1  0  0  0  0
 20 26  1  1  0  0  0
 22 23  1  6  0  0  0
 22 28  1  0  0  0  0
 24 25  1  0  0  0  0
 26 27  1  0  0  0  0
 28 29  1  1  0  0  0
M  END
>  <CHROM.1>
179.59270877,-126.21139651,-158.10666131,-157.64305036,-130.08181033,98.96755410
14.14725098,-7.65859041,-3.14243556,-0.36275312,-0.75770958,-2.85946160

>  <Name>
ligand

>  <RI>
0

>  <Rbt.Current_Directory>
/home/itssahil/PROJECTS/Mol_Feturizer/New_Systems/rnas/4F8V

>  <Rbt.Executable>
rbdock ($Id: //depot/dev/client3/rdock/2013.1/src/exe/rbdock.cxx#4 $)

>  <Rbt.Library>
libRbt.so (2013.1, Build901 2013/11/27)

>  <Rbt.Parameter_File>
/export/apps/rDock/src/rDock_2013.1_src/data/scripts/dock_solv.prm

>  <Rbt.Receptor>
prm/blind_docking_100.prm

>  <SCORE>
0.142267

>  <SCORE.INTER>
-9.30915

>  <SCORE.INTER.CONST>
1

>  <SCORE.INTER.POLAR>
0

>  <SCORE.INTER.ROT>
6

>  <SCORE.INTER.SOLV>
19.332

>  <SCORE.INTER.VDW>
-20.2501

>  <SCORE.INTER.norm>
-0.300295

>  <SCORE.INTRA>
3.69659

>  <SCORE.INTRA.DIHEDRAL>
0.687286

>  <SCORE.INTRA.DIHEDRAL.0>
15.9129

>  <SCORE.INTRA.POLAR>
0

>  <SCORE.INTRA.POLAR.0>
0

>  <SCORE.INTRA.REPUL>
0

>  <SCORE.INTRA.REPUL.0>
0

>  <SCORE.INTRA.SOLV>
2.00648

>  <SCORE.INTRA.SOLV.lig_0>
-75.7056

>  <SCORE.INTRA.VDW>
2.34971

>  <SCORE.INTRA.VDW.0>
-4.61812

>  <SCORE.INTRA.norm>
0.119245

>  <SCORE.RESTR>
5.75483

>  <SCORE.RESTR.CAVITY>
5.75483

>  <SCORE.RESTR.norm>
0.18564

>  <SCORE.SYSTEM>
0

>  <SCORE.SYSTEM.CONST>
0

>  <SCORE.SYSTEM.DIHEDRAL>
0

>  <SCORE.SYSTEM.SOLV>
0

>  <SCORE.SYSTEM.norm>
0

>  <SCORE.heavy>
31

>  <SCORE.norm>
0.00458925

>  <RMSD>
9.917

$$$$
ligand
 OpenBabel11021811493D
libRbt.so/2013.1/901 2013/11/27
 31 33  0  0  0  0  0  0  0  0999 V2000
   16.8286   -7.1500   -5.6443 C   0  0  2  0  0  0  0  0  0  0  0  0
   16.8338   -6.7579   -4.2649 O   0  0  0  0  0  0  0  0  0  0  0  0
   13.7575   -6.2602   -1.3533 C   0  0  2  0  0  0  0  0  0  0  0  0
   12.5305   -5.8480   -0.7596 N   0  0  0  0  0  0  0  0  0  0  0  0
   11.2709   -8.3327   -2.3434 C   0  0  2  0  0  0  0  0  0  0  0  0
   18.3003   -7.5049   -6.0210 C   0  0  2  0  0  0  0  0  0  0  0  0
   18.7783   -8.5572   -5.1265 N   0  0  0  0  0  0  0  0  0  0  0  0
   14.5968   -4.9872   -1.7463 C   0  0  0  0  0  0  0  0  0  0  0  0
   10.8034   -8.7352   -0.9186 C   0  0  2  0  0  0  0  0  0  0  0  0
   11.2473   -7.7576   -0.0055 O   0  0  0  0  0  0  0  0  0  0  0  0
   19.2101   -6.2189   -5.9420 C   0  0  0  0  0  0  0  0  0  0  0  0
   15.9598   -5.4492   -2.4055 C   0  0  2  0  0  0  0  0  0  0  0  0
   16.7499   -4.2583   -2.7793 N   0  0  0  0  0  0  0  0  0  0  0  0
   11.4118  -10.1551   -0.5858 C   0  0  1  0  0  0  0  0  0  0  0  0
   11.0073  -10.5754    0.7856 N   0  0  0  0  0  0  0  0  0  0  0  0
   18.4391   -4.9004   -6.3135 C   0  0  0  0  0  0  0  0  0  0  0  0
   15.6403   -6.3267   -3.6898 C   0  0  2  0  0  0  0  0  0  0  0  0
   10.8717  -11.2459   -1.6671 C   0  0  1  0  0  0  0  0  0  0  0  0
    9.4724  -11.3892   -1.6535 O   0  0  0  0  0  0  0  0  0  0  0  0
   17.1224   -4.9092   -6.5692 C   0  0  1  0  0  0  0  0  0  0  0  0
   16.3557   -6.0965   -6.5261 O   0  0  0  0  0  0  0  0  0  0  0  0
   14.7855   -7.5783   -3.2732 C   0  0  2  0  0  0  0  0  0  0  0  0
   14.4937   -8.3540   -4.4341 O   0  0  0  0  0  0  0  0  0  0  0  0
   11.2946  -10.7905   -3.0981 C   0  0  0  0  0  0  0  0  0  0  0  0
   10.8400   -9.3674   -3.3526 O   0  0  0  0  0  0  0  0  0  0  0  0
   16.3315   -3.6344   -6.9222 C   0  0  0  0  0  0  0  0  0  0  0  0
   15.2300   -3.4978   -5.9947 N   0  0  0  0  0  0  0  0  0  0  0  0
   13.4400   -7.0960   -2.6108 C   0  0  1  0  0  0  0  0  0  0  0  0
   12.7068   -8.2270   -2.2415 O   0  0  0  0  0  0  0  0  0  0  0  0
   11.3766  -12.6831   -1.4760 C   0  0  0  0  0  0  0  0  0  0  0  0
   11.8595  -11.5848    1.4327 C   0  0  0  0  0  0  0  0  0  0  0  0
  1  2  1  1  0  0  0
  1  6  1  0  0  0  0
  1 21  1  0  0  0  0
  3  4  1  6  0  0  0
  3  8  1  0  0  0  0
  3 28  1  0  0  0  0
  5  9  1  0  0  0  0
  5 25  1  0  0  0  0
  5 29  1  1  0  0  0
  6  7  1  1  0  0  0
  6 11  1  0  0  0  0
  8 12  1  0  0  0  0
  9 10  1  1  0  0  0
  9 14  1  0  0  0  0
 11 16  1  0  0  0  0
 12 13  1  6  0  0  0
 12 17  1  0  0  0  0
 14 15  1  1  0  0  0
 14 18  1  0  0  0  0
 15 31  1  0  0  0  0
 16 20  1  0  0  0  0
 17  2  1  1  0  0  0
 17 22  1  0  0  0  0
 18 19  1  1  0  0  0
 18 24  1  0  0  0  0
 18 30  1  0  0  0  0
 20 21  1  0  0  0  0
 20 26  1  1  0  0  0
 22 23  1  6  0  0  0
 22 28  1  0  0  0  0
 24 25  1  0  0  0  0
 26 27  1  0  0  0  0
 28 29  1  1  0  0  0
M  END
>  <CHROM.1>
177.04097304,-125.77613856,-157.89361309,-158.53616825,-124.45577438,98.53069662
14.14152862,-7.65538528,-3.13786674,-0.36065033,-0.75393723,-2.85123679

>  <Name>
ligand

>  <RI>
0

>  <Rbt.Current_Directory>
/home/itssahil/PROJECTS/Mol_Feturizer/New_Systems/rnas/4F8V

>  <Rbt.Executable>
rbdock ($Id: //depot/dev/client3/rdock/2013.1/src/exe/rbdock.cxx#4 $)

>  <Rbt.Library>
libRbt.so (2013.1, Build901 2013/11/27)

>  <Rbt.Parameter_File>
/export/apps/rDock/src/rDock_2013.1_src/data/scripts/dock_solv.prm

>  <Rbt.Receptor>
prm/blind_docking_100.prm

>  <SCORE>
-0.0163764

>  <SCORE.INTER>
-9.50412

>  <SCORE.INTER.CONST>
1

>  <SCORE.INTER.POLAR>
0

>  <SCORE.INTER.ROT>
6

>  <SCORE.INTER.SOLV>
19.039

>  <SCORE.INTER.VDW>
-20.2824

>  <SCORE.INTER.norm>
-0.306584

>  <SCORE.INTRA>
3.68655

>  <SCORE.INTRA.DIHEDRAL>
0.429707

>  <SCORE.INTRA.DIHEDRAL.0>
15.9129

>  <SCORE.INTRA.POLAR>
0

>  <SCORE.INTRA.POLAR.0>
0

>  <SCORE.INTRA.REPUL>
0

>  <SCORE.INTRA.REPUL.0>
0

>  <SCORE.INTRA.SOLV>
2.09155

>  <SCORE.INTRA.SOLV.lig_0>
-75.7056

>  <SCORE.INTRA.VDW>
2.42592

>  <SCORE.INTRA.VDW.0>
-4.61812

>  <SCORE.INTRA.norm>
0.118921

>  <SCORE.RESTR>
5.8012

>  <SCORE.RESTR.CAVITY>
5.8012

>  <SCORE.RESTR.norm>
0.187135

>  <SCORE.SYSTEM>
0

>  <SCORE.SYSTEM.CONST>
0

>  <SCORE.SYSTEM.DIHEDRAL>
0

>  <SCORE.SYSTEM.SOLV>
0

>  <SCORE.SYSTEM.norm>
0

>  <SCORE.heavy>
31

>  <SCORE.norm>
-0.000528272

>  <RMSD>
9.917

$$$$
ligand
 OpenBabel11021811493D
libRbt.so/2013.1/901 2013/11/27
 31 33  0  0  0  0  0  0  0  0999 V2000
   16.8074   -7.1366   -5.6747 C   0  0  2  0  0  0  0  0  0  0  0  0
   16.8164   -6.7552   -4.2923 O   0  0  0  0  0  0  0  0  0  0  0  0
   13.7613   -6.2304   -1.3632 C   0  0  2  0  0  0  0  0  0  0  0  0
   12.5381   -5.8138   -0.7647 N   0  0  0  0  0  0  0  0  0  0  0  0
   11.2716   -8.3194   -2.3123 C   0  0  2  0  0  0  0  0  0  0  0  0
   18.2712   -7.5262   -6.0479 C   0  0  2  0  0  0  0  0  0  0  0  0
   18.7183   -8.5970   -5.1593 N   0  0  0  0  0  0  0  0  0  0  0  0
   14.5951   -4.9603   -1.7770 C   0  0  0  0  0  0  0  0  0  0  0  0
   10.8156   -8.7212   -0.8836 C   0  0  2  0  0  0  0  0  0  0  0  0
   11.2631   -7.7409    0.0248 O   0  0  0  0  0  0  0  0  0  0  0  0
   19.2132   -6.2644   -5.9550 C   0  0  0  0  0  0  0  0  0  0  0  0
   15.9539   -5.4272   -2.4413 C   0  0  2  0  0  0  0  0  0  0  0  0
   16.7388   -4.2391   -2.8346 N   0  0  0  0  0  0  0  0  0  0  0  0
   11.4308  -10.1387   -0.5530 C   0  0  1  0  0  0  0  0  0  0  0  0
   11.0375  -10.5581    0.8219 N   0  0  0  0  0  0  0  0  0  0  0  0
   18.4777   -4.9239   -6.3197 C   0  0  0  0  0  0  0  0  0  0  0  0
   15.6264   -6.3199   -3.7131 C   0  0  2  0  0  0  0  0  0  0  0  0
   10.8863  -11.2328   -1.6288 C   0  0  1  0  0  0  0  0  0  0  0  0
    9.4876  -11.3804   -1.6048 O   0  0  0  0  0  0  0  0  0  0  0  0
   17.1623   -4.8972   -6.5811 C   0  0  1  0  0  0  0  0  0  0  0  0
   16.3655   -6.0648   -6.5505 O   0  0  0  0  0  0  0  0  0  0  0  0
   14.7773   -7.5683   -3.2757 C   0  0  2  0  0  0  0  0  0  0  0  0
   14.4782   -8.3577   -4.4256 O   0  0  0  0  0  0  0  0  0  0  0  0
   11.2975  -10.7783   -3.0634 C   0  0  0  0  0  0  0  0  0  0  0  0
   10.8367   -9.3570   -3.3168 O   0  0  0  0  0  0  0  0  0  0  0  0
   16.4058   -3.6000   -6.9278 C   0  0  0  0  0  0  0  0  0  0  0  0
   15.2587   -3.4823   -6.0545 N   0  0  0  0  0  0  0  0  0  0  0  0
   13.4359   -7.0810   -2.6086 C   0  0  1  0  0  0  0  0  0  0  0  0
   12.7079   -8.2091   -2.2209 O   0  0  0  0  0  0  0  0  0  0  0  0
   11.3970  -12.6682   -1.4391 C   0  0  0  0  0  0  0  0  0  0  0  0
   11.8961  -11.5655    1.4635 C   0  0  0  0  0  0  0  0  0  0  0  0
  1  2  1  1  0  0  0
  1  6  1  0  0  0  0
  1 21  1  0  0  0  0
  3  4  1  6  0  0  0
  3  8  1  0  0  0  0
  3 28  1  0  0  0  0
  5  9  1  0  0  0  0
  5 25  1  0  0  0  0
  5 29  1  1  0  0  0
  6  7  1  1  0  0  0
  6 11  1  0  0  0  0
  8 12  1  0  0  0  0
  9 10  1  1  0  0  0
  9 14  1  0  0  0  0
 11 16  1  0  0  0  0
 12 13  1  6  0  0  0
 12 17  1  0  0  0  0
 14 15  1  1  0  0  0
 14 18  1  0  0  0  0
 15 31  1  0  0  0  0
 16 20  1  0  0  0  0
 17  2  1  1  0  0  0
 17 22  1  0  0  0  0
 18 19  1  1  0  0  0
 18 24  1  0  0  0  0
 18 30  1  0  0  0  0
 20 21  1  0  0  0  0
 20 26  1  1  0  0  0
 22 23  1  6  0  0  0
 22 28  1  0  0  0  0
 24 25  1  0  0  0  0
 26 27  1  0  0  0  0
 28 29  1  1  0  0  0
M  END
>  <CHROM.1>
178.12626952,-126.38807750,-157.99046313,-157.25960748,-127.75238033,98.61802690
14.14750320,-7.64521012,-3.13669906,-0.36682557,-0.75613556,-2.86548890

>  <Name>
ligand

>  <RI>
0

>  <Rbt.Current_Directory>
/home/itssahil/PROJECTS/Mol_Feturizer/New_Systems/rnas/4F8V

>  <Rbt.Executable>
rbdock ($Id: //depot/dev/client3/rdock/2013.1/src/exe/rbdock.cxx#4 $)

>  <Rbt.Library>
libRbt.so (2013.1, Build901 2013/11/27)

>  <Rbt.Parameter_File>
/export/apps/rDock/src/rDock_2013.1_src/data/scripts/dock_solv.prm

>  <Rbt.Receptor>
prm/blind_docking_100.prm

>  <SCORE>
-0.0572771

>  <SCORE.INTER>
-9.50909

>  <SCORE.INTER.CONST>
1

>  <SCORE.INTER.POLAR>
0

>  <SCORE.INTER.ROT>
6

>  <SCORE.INTER.SOLV>
19.0881

>  <SCORE.INTER.VDW>
-20.3021

>  <SCORE.INTER.norm>
-0.306745

>  <SCORE.INTRA>
3.66647

>  <SCORE.INTRA.DIHEDRAL>
0.65176

>  <SCORE.INTRA.DIHEDRAL.0>
15.9129

>  <SCORE.INTRA.POLAR>
0

>  <SCORE.INTRA.POLAR.0>
0

>  <SCORE.INTRA.REPUL>
0

>  <SCORE.INTRA.REPUL.0>
0

>  <SCORE.INTRA.SOLV>
2.14571

>  <SCORE.INTRA.SOLV.lig_0>
-75.7056

>  <SCORE.INTRA.VDW>
2.26773

>  <SCORE.INTRA.VDW.0>
-4.61812

>  <SCORE.INTRA.norm>
0.118273

>  <SCORE.RESTR>
5.78535

>  <SCORE.RESTR.CAVITY>
5.78535

>  <SCORE.RESTR.norm>
0.186624

>  <SCORE.SYSTEM>
0

>  <SCORE.SYSTEM.CONST>
0

>  <SCORE.SYSTEM.DIHEDRAL>
0

>  <SCORE.SYSTEM.SOLV>
0

>  <SCORE.SYSTEM.norm>
0

>  <SCORE.heavy>
31

>  <SCORE.norm>
-0.00184765

>  <RMSD>
9.918

$$$$
ligand
 OpenBabel11021811493D
libRbt.so/2013.1/901 2013/11/27
 31 33  0  0  0  0  0  0  0  0999 V2000
   16.8042   -7.1391   -5.6504 C   0  0  2  0  0  0  0  0  0  0  0  0
   16.8109   -6.7406   -4.2729 O   0  0  0  0  0  0  0  0  0  0  0  0
   13.7442   -6.2304   -1.3534 C   0  0  2  0  0  0  0  0  0  0  0  0
   12.5172   -5.8195   -0.7587 N   0  0  0  0  0  0  0  0  0  0  0  0
   11.2677   -8.3329   -2.3162 C   0  0  2  0  0  0  0  0  0  0  0  0
   18.2666   -7.5430   -6.0135 C   0  0  2  0  0  0  0  0  0  0  0  0
   18.7034   -8.6057   -5.1101 N   0  0  0  0  0  0  0  0  0  0  0  0
   14.5734   -4.9564   -1.7643 C   0  0  0  0  0  0  0  0  0  0  0  0
   10.8037   -8.7330   -0.8896 C   0  0  2  0  0  0  0  0  0  0  0  0
   11.2387   -7.7474    0.0190 O   0  0  0  0  0  0  0  0  0  0  0  0
   19.2167   -6.2865   -5.9329 C   0  0  0  0  0  0  0  0  0  0  0  0
   15.9364   -5.4169   -2.4243 C   0  0  2  0  0  0  0  0  0  0  0  0
   16.7170   -4.2251   -2.8149 N   0  0  0  0  0  0  0  0  0  0  0  0
   11.4249  -10.1459   -0.5503 C   0  0  1  0  0  0  0  0  0  0  0  0
   11.0241  -10.5635    0.8230 N   0  0  0  0  0  0  0  0  0  0  0  0
   18.4915   -4.9458   -6.3169 C   0  0  0  0  0  0  0  0  0  0  0  0
   15.6171   -6.3108   -3.6973 C   0  0  2  0  0  0  0  0  0  0  0  0
   10.8946  -11.2464   -1.6266 C   0  0  1  0  0  0  0  0  0  0  0  0
    9.4967  -11.4023   -1.6123 O   0  0  0  0  0  0  0  0  0  0  0  0
   17.1773   -4.9135   -6.5833 C   0  0  1  0  0  0  0  0  0  0  0  0
   16.3725   -6.0753   -6.5410 O   0  0  0  0  0  0  0  0  0  0  0  0
   14.7724   -7.5632   -3.2629 C   0  0  2  0  0  0  0  0  0  0  0  0
   14.4806   -8.3538   -4.4138 O   0  0  0  0  0  0  0  0  0  0  0  0
   11.3136  -10.7939   -3.0596 C   0  0  0  0  0  0  0  0  0  0  0  0
   10.8462   -9.3760   -3.3206 O   0  0  0  0  0  0  0  0  0  0  0  0
   16.4307   -3.6157   -6.9487 C   0  0  0  0  0  0  0  0  0  0  0  0
   15.3268   -3.4392   -6.0309 N   0  0  0  0  0  0  0  0  0  0  0  0
   13.4266   -7.0823   -2.6000 C   0  0  1  0  0  0  0  0  0  0  0  0
   12.7026   -8.2138   -2.2148 O   0  0  0  0  0  0  0  0  0  0  0  0
   11.4125  -12.6782   -1.4289 C   0  0  0  0  0  0  0  0  0  0  0  0
   11.8653  -11.5876    1.4612 C   0  0  0  0  0  0  0  0  0  0  0  0
  1  2  1  1  0  0  0
  1  6  1  0  0  0  0
  1 21  1  0  0  0  0
  3  4  1  6  0  0  0
  3  8  1  0  0  0  0
  3 28  1  0  0  0  0
  5  9  1  0  0  0  0
  5 25  1  0  0  0  0
  5 29  1  1  0  0  0
  6  7  1  1  0  0  0
  6 11  1  0  0  0  0
  8 12  1  0  0  0  0
  9 10  1  1  0  0  0
  9 14  1  0  0  0  0
 11 16  1  0  0  0  0
 12 13  1  6  0  0  0
 12 17  1  0  0  0  0
 14 15  1  1  0  0  0
 14 18  1  0  0  0  0
 15 31  1  0  0  0  0
 16 20  1  0  0  0  0
 17  2  1  1  0  0  0
 17 22  1  0  0  0  0
 18 19  1  1  0  0  0
 18 24  1  0  0  0  0
 18 30  1  0  0  0  0
 20 21  1  0  0  0  0
 20 26  1  1  0  0  0
 22 23  1  6  0  0  0
 22 28  1  0  0  0  0
 24 25  1  0  0  0  0
 26 27  1  0  0  0  0
 28 29  1  1  0  0  0
M  END
>  <CHROM.1>
179.15931617,-126.35209719,-159.41423977,-158.09703865,-124.45505697,98.90355768
14.14585795,-7.65073157,-3.12806251,-0.37090398,-0.75405694,-2.86891975

>  <Name>
ligand

>  <RI>
0

>  <Rbt.Current_Directory>
/home/itssahil/PROJECTS/Mol_Feturizer/New_Systems/rnas/4F8V

>  <Rbt.Executable>
rbdock ($Id: //depot/dev/client3/rdock/2013.1/src/exe/rbdock.cxx#4 $)

>  <Rbt.Library>
libRbt.so (2013.1, Build901 2013/11/27)

>  <Rbt.Parameter_File>
/export/apps/rDock/src/rDock_2013.1_src/data/scripts/dock_solv.prm

>  <Rbt.Receptor>
prm/blind_docking_100.prm

>  <SCORE>
-0.157588

>  <SCORE.INTER>
-9.67856

>  <SCORE.INTER.CONST>
1

>  <SCORE.INTER.POLAR>
0

>  <SCORE.INTER.ROT>
6

>  <SCORE.INTER.SOLV>
19.0634

>  <SCORE.INTER.VDW>
-20.4069

>  <SCORE.INTER.norm>
-0.312212

>  <SCORE.INTRA>
3.71966

>  <SCORE.INTRA.DIHEDRAL>
0.451324

>  <SCORE.INTRA.DIHEDRAL.0>
15.9129

>  <SCORE.INTRA.POLAR>
0

>  <SCORE.INTRA.POLAR.0>
0

>  <SCORE.INTRA.REPUL>
0

>  <SCORE.INTRA.REPUL.0>
0

>  <SCORE.INTRA.SOLV>
2.09945

>  <SCORE.INTRA.SOLV.lig_0>
-75.7056

>  <SCORE.INTRA.VDW>
2.44428

>  <SCORE.INTRA.VDW.0>
-4.61812

>  <SCORE.INTRA.norm>
0.119989

>  <SCORE.RESTR>
5.80131

>  <SCORE.RESTR.CAVITY>
5.80131

>  <SCORE.RESTR.norm>
0.187139

>  <SCORE.SYSTEM>
0

>  <SCORE.SYSTEM.CONST>
0

>  <SCORE.SYSTEM.DIHEDRAL>
0

>  <SCORE.SYSTEM.SOLV>
0

>  <SCORE.SYSTEM.norm>
0

>  <SCORE.heavy>
31

>  <SCORE.norm>
-0.00508347

>  <RMSD>
9.922

$$$$
ligand
 OpenBabel11021811493D
libRbt.so/2013.1/901 2013/11/27
 31 33  0  0  0  0  0  0  0  0999 V2000
   16.8162   -7.1252   -5.6255 C   0  0  2  0  0  0  0  0  0  0  0  0
   16.8202   -6.7135   -4.2519 O   0  0  0  0  0  0  0  0  0  0  0  0
   13.7384   -6.2181   -1.3457 C   0  0  2  0  0  0  0  0  0  0  0  0
   12.5084   -5.8101   -0.7553 N   0  0  0  0  0  0  0  0  0  0  0  0
   11.2653   -8.3098   -2.3193 C   0  0  2  0  0  0  0  0  0  0  0  0
   18.2878   -7.4878   -5.9953 C   0  0  2  0  0  0  0  0  0  0  0  0
   18.7630   -8.5279   -5.0852 N   0  0  0  0  0  0  0  0  0  0  0  0
   14.5700   -4.9421   -1.7456 C   0  0  0  0  0  0  0  0  0  0  0  0
   10.8055   -8.7173   -0.8935 C   0  0  2  0  0  0  0  0  0  0  0  0
   11.2479   -7.7391    0.0196 O   0  0  0  0  0  0  0  0  0  0  0  0
   19.1995   -6.2022   -5.9334 C   0  0  0  0  0  0  0  0  0  0  0  0
   15.9364   -5.3993   -2.4010 C   0  0  2  0  0  0  0  0  0  0  0  0
   16.7192   -4.2057   -2.7813 N   0  0  0  0  0  0  0  0  0  0  0  0
   11.4228  -10.1346   -0.5656 C   0  0  1  0  0  0  0  0  0  0  0  0
   11.0259  -10.5594    0.8066 N   0  0  0  0  0  0  0  0  0  0  0  0
   18.4310   -4.8879   -6.3247 C   0  0  0  0  0  0  0  0  0  0  0  0
   15.6235   -6.2865   -3.6803 C   0  0  2  0  0  0  0  0  0  0  0  0
   10.8841  -11.2263   -1.6468 C   0  0  1  0  0  0  0  0  0  0  0  0
    9.4857  -11.3771   -1.6278 O   0  0  0  0  0  0  0  0  0  0  0  0
   17.1146   -4.8984   -6.5820 C   0  0  1  0  0  0  0  0  0  0  0  0
   16.3460   -6.0838   -6.5230 O   0  0  0  0  0  0  0  0  0  0  0  0
   14.7764   -7.5410   -3.2568 C   0  0  2  0  0  0  0  0  0  0  0  0
   14.4904   -8.3255   -4.4134 O   0  0  0  0  0  0  0  0  0  0  0  0
   11.2990  -10.7662   -3.0785 C   0  0  0  0  0  0  0  0  0  0  0  0
   10.8359   -9.3450   -3.3287 O   0  0  0  0  0  0  0  0  0  0  0  0
   16.3261   -3.6275   -6.9542 C   0  0  0  0  0  0  0  0  0  0  0  0
   15.1358   -3.5612   -6.1349 N   0  0  0  0  0  0  0  0  0  0  0  0
   13.4273   -7.0633   -2.5984 C   0  0  1  0  0  0  0  0  0  0  0  0
   12.7010   -8.1967   -2.2229 O   0  0  0  0  0  0  0  0  0  0  0  0
   11.3973  -12.6612   -1.4602 C   0  0  0  0  0  0  0  0  0  0  0  0
   11.8660  -11.5904    1.4351 C   0  0  0  0  0  0  0  0  0  0  0  0
  1  2  1  1  0  0  0
  1  6  1  0  0  0  0
  1 21  1  0  0  0  0
  3  4  1  6  0  0  0
  3  8  1  0  0  0  0
  3 28  1  0  0  0  0
  5  9  1  0  0  0  0
  5 25  1  0  0  0  0
  5 29  1  1  0  0  0
  6  7  1  1  0  0  0
  6 11  1  0  0  0  0
  8 12  1  0  0  0  0
  9 10  1  1  0  0  0
  9 14  1  0  0  0  0
 11 16  1  0  0  0  0
 12 13  1  6  0  0  0
 12 17  1  0  0  0  0
 14 15  1  1  0  0  0
 14 18  1  0  0  0  0
 15 31  1  0  0  0  0
 16 20  1  0  0  0  0
 17  2  1  1  0  0  0
 17 22  1  0  0  0  0
 18 19  1  1  0  0  0
 18 24  1  0  0  0  0
 18 30  1  0  0  0  0
 20 21  1  0  0  0  0
 20 26  1  1  0  0  0
 22 23  1  6  0  0  0
 22 28  1  0  0  0  0
 24 25  1  0  0  0  0
 26 27  1  0  0  0  0
 28 29  1  1  0  0  0
M  END
>  <CHROM.1>
177.74975034,-126.06168729,-159.39597632,-159.08804681,-131.20167300,98.22378697
14.13271798,-7.63298016,-3.13029585,-0.36757989,-0.75557250,-2.86274610

>  <Name>
ligand

>  <RI>
0

>  <Rbt.Current_Directory>
/home/itssahil/PROJECTS/Mol_Feturizer/New_Systems/rnas/4F8V

>  <Rbt.Executable>
rbdock ($Id: //depot/dev/client3/rdock/2013.1/src/exe/rbdock.cxx#4 $)

>  <Rbt.Library>
libRbt.so (2013.1, Build901 2013/11/27)

>  <Rbt.Parameter_File>
/export/apps/rDock/src/rDock_2013.1_src/data/scripts/dock_solv.prm

>  <Rbt.Receptor>
prm/blind_docking_100.prm

>  <SCORE>
-0.567651

>  <SCORE.INTER>
-10.1361

>  <SCORE.INTER.CONST>
1

>  <SCORE.INTER.POLAR>
0

>  <SCORE.INTER.ROT>
6

>  <SCORE.INTER.SOLV>
18.8746

>  <SCORE.INTER.VDW>
-20.6489

>  <SCORE.INTER.norm>
-0.326969

>  <SCORE.INTRA>
3.63723

>  <SCORE.INTRA.DIHEDRAL>
0.34094

>  <SCORE.INTRA.DIHEDRAL.0>
15.9129

>  <SCORE.INTRA.POLAR>
0

>  <SCORE.INTRA.POLAR.0>
0

>  <SCORE.INTRA.REPUL>
0

>  <SCORE.INTRA.REPUL.0>
0

>  <SCORE.INTRA.SOLV>
1.7689

>  <SCORE.INTRA.SOLV.lig_0>
-75.7056

>  <SCORE.INTRA.VDW>
2.58231

>  <SCORE.INTRA.VDW.0>
-4.61812

>  <SCORE.INTRA.norm>
0.11733

>  <SCORE.RESTR>
5.93117

>  <SCORE.RESTR.CAVITY>
5.93117

>  <SCORE.RESTR.norm>
0.191328

>  <SCORE.SYSTEM>
0

>  <SCORE.SYSTEM.CONST>
0

>  <SCORE.SYSTEM.DIHEDRAL>
0

>  <SCORE.SYSTEM.SOLV>
0

>  <SCORE.SYSTEM.norm>
0

>  <SCORE.heavy>
31

>  <SCORE.norm>
-0.0183113

>  <RMSD>
9.927

$$$$
ligand
 OpenBabel11021811493D
libRbt.so/2013.1/901 2013/11/27
 31 33  0  0  0  0  0  0  0  0999 V2000
   16.9425   -7.2500   -5.4497 C   0  0  2  0  0  0  0  0  0  0  0  0
   16.8972   -6.7194   -4.1183 O   0  0  0  0  0  0  0  0  0  0  0  0
   13.6846   -6.1930   -1.3631 C   0  0  2  0  0  0  0  0  0  0  0  0
   12.4245   -5.7878   -0.8380 N   0  0  0  0  0  0  0  0  0  0  0  0
   11.2774   -8.3199   -2.3219 C   0  0  2  0  0  0  0  0  0  0  0  0
   18.4459   -7.3182   -5.8606 C   0  0  2  0  0  0  0  0  0  0  0  0
   19.1661   -8.1398   -4.8899 N   0  0  0  0  0  0  0  0  0  0  0  0
   14.5154   -4.9159   -1.7609 C   0  0  0  0  0  0  0  0  0  0  0  0
   10.8216   -8.7219   -0.8933 C   0  0  2  0  0  0  0  0  0  0  0  0
   11.2689   -7.7416    0.0152 O   0  0  0  0  0  0  0  0  0  0  0  0
   19.0533   -5.8655   -5.9546 C   0  0  0  0  0  0  0  0  0  0  0  0
   15.9153   -5.3700   -2.3437 C   0  0  2  0  0  0  0  0  0  0  0  0
   16.6977   -4.1754   -2.7218 N   0  0  0  0  0  0  0  0  0  0  0  0
   11.4372  -10.1394   -0.5630 C   0  0  1  0  0  0  0  0  0  0  0  0
   11.0441  -10.5590    0.8120 N   0  0  0  0  0  0  0  0  0  0  0  0
   18.0024   -4.7921   -6.4178 C   0  0  0  0  0  0  0  0  0  0  0  0
   15.6709   -6.2952   -3.6109 C   0  0  2  0  0  0  0  0  0  0  0  0
   10.8928  -11.2334   -1.6388 C   0  0  1  0  0  0  0  0  0  0  0  0
    9.4942  -11.3814   -1.6147 O   0  0  0  0  0  0  0  0  0  0  0  0
   16.7136   -5.1119   -6.6068 C   0  0  1  0  0  0  0  0  0  0  0  0
   16.2274   -6.4248   -6.4082 O   0  0  0  0  0  0  0  0  0  0  0  0
   14.8232   -7.5505   -3.1909 C   0  0  2  0  0  0  0  0  0  0  0  0
   14.5989   -8.3694   -4.3371 O   0  0  0  0  0  0  0  0  0  0  0  0
   11.3038  -10.7787   -3.0734 C   0  0  0  0  0  0  0  0  0  0  0  0
   10.8427   -9.3575   -3.3265 O   0  0  0  0  0  0  0  0  0  0  0  0
   15.6534   -4.0832   -7.0463 C   0  0  0  0  0  0  0  0  0  0  0  0
   16.0188   -2.7853   -6.5225 N   0  0  0  0  0  0  0  0  0  0  0  0
   13.4401   -7.0756   -2.6048 C   0  0  1  0  0  0  0  0  0  0  0  0
   12.7137   -8.2093   -2.2307 O   0  0  0  0  0  0  0  0  0  0  0  0
   11.4039  -12.6688   -1.4494 C   0  0  0  0  0  0  0  0  0  0  0  0
   11.8965  -11.5747    1.4489 C   0  0  0  0  0  0  0  0  0  0  0  0
  1  2  1  1  0  0  0
  1  6  1  0  0  0  0
  1 21  1  0  0  0  0
  3  4  1  6  0  0  0
  3  8  1  0  0  0  0
  3 28  1  0  0  0  0
  5  9  1  0  0  0  0
  5 25  1  0  0  0  0
  5 29  1  1  0  0  0
  6  7  1  1  0  0  0
  6 11  1  0  0  0  0
  8 12  1  0  0  0  0
  9 10  1  1  0  0  0
  9 14  1  0  0  0  0
 11 16  1  0  0  0  0
 12 13  1  6  0  0  0
 12 17  1  0  0  0  0
 14 15  1  1  0  0  0
 14 18  1  0  0  0  0
 15 31  1  0  0  0  0
 16 20  1  0  0  0  0
 17  2  1  1  0  0  0
 17 22  1  0  0  0  0
 18 19  1  1  0  0  0
 18 24  1  0  0  0  0
 18 30  1  0  0  0  0
 20 21  1  0  0  0  0
 20 26  1  1  0  0  0
 22 23  1  6  0  0  0
 22 28  1  0  0  0  0
 24 25  1  0  0  0  0
 26 27  1  0  0  0  0
 28 29  1  1  0  0  0
M  END
>  <CHROM.1>
166.88450728,-125.66438255,-158.49033577,-163.15331319,-30.98196689,94.86729575
14.13401787,-7.61459311,-3.11737637,-0.38582098,-0.75724917,-2.87381561

>  <Name>
ligand

>  <RI>
0

>  <Rbt.Current_Directory>
/home/itssahil/PROJECTS/Mol_Feturizer/New_Systems/rnas/4F8V

>  <Rbt.Executable>
rbdock ($Id: //depot/dev/client3/rdock/2013.1/src/exe/rbdock.cxx#4 $)

>  <Rbt.Library>
libRbt.so (2013.1, Build901 2013/11/27)

>  <Rbt.Parameter_File>
/export/apps/rDock/src/rDock_2013.1_src/data/scripts/dock_solv.prm

>  <Rbt.Receptor>
prm/blind_docking_100.prm

>  <SCORE>
1.1749

>  <SCORE.INTER>
-8.7985

>  <SCORE.INTER.CONST>
1

>  <SCORE.INTER.POLAR>
0

>  <SCORE.INTER.ROT>
6

>  <SCORE.INTER.SOLV>
18.8413

>  <SCORE.INTER.VDW>
-19.7461

>  <SCORE.INTER.norm>
-0.283823

>  <SCORE.INTRA>
3.81691

>  <SCORE.INTRA.DIHEDRAL>
0.794234

>  <SCORE.INTRA.DIHEDRAL.0>
15.9129

>  <SCORE.INTRA.POLAR>
0

>  <SCORE.INTRA.POLAR.0>
0

>  <SCORE.INTRA.REPUL>
0

>  <SCORE.INTRA.REPUL.0>
0

>  <SCORE.INTRA.SOLV>
-0.0857591

>  <SCORE.INTRA.SOLV.lig_0>
-75.7056

>  <SCORE.INTRA.VDW>
3.46267

>  <SCORE.INTRA.VDW.0>
-4.61812

>  <SCORE.INTRA.norm>
0.123126

>  <SCORE.RESTR>
6.15649

>  <SCORE.RESTR.CAVITY>
6.15649

>  <SCORE.RESTR.norm>
0.198597

>  <SCORE.SYSTEM>
0

>  <SCORE.SYSTEM.CONST>
0

>  <SCORE.SYSTEM.DIHEDRAL>
0

>  <SCORE.SYSTEM.SOLV>
0

>  <SCORE.SYSTEM.norm>
0

>  <SCORE.heavy>
31

>  <SCORE.norm>
0.0379001

>  <RMSD>
9.927

$$$$
ligand
 OpenBabel11021811493D
libRbt.so/2013.1/901 2013/11/27
 31 33  0  0  0  0  0  0  0  0999 V2000
   16.7868   -7.1453   -5.6077 C   0  0  2  0  0  0  0  0  0  0  0  0
   16.7996   -6.7222   -4.2375 O   0  0  0  0  0  0  0  0  0  0  0  0
   13.7413   -6.1759   -1.3157 C   0  0  2  0  0  0  0  0  0  0  0  0
   12.5164   -5.7571   -0.7224 N   0  0  0  0  0  0  0  0  0  0  0  0
   11.2607   -8.2885   -2.2523 C   0  0  2  0  0  0  0  0  0  0  0  0
   18.2541   -7.5221   -5.9804 C   0  0  2  0  0  0  0  0  0  0  0  0
   18.7252   -8.5582   -5.0635 N   0  0  0  0  0  0  0  0  0  0  0  0
   14.5707   -4.9074   -1.7433 C   0  0  0  0  0  0  0  0  0  0  0  0
   10.8005   -8.7139   -0.8318 C   0  0  2  0  0  0  0  0  0  0  0  0
   11.2351   -7.7428    0.0926 O   0  0  0  0  0  0  0  0  0  0  0  0
   19.1757   -6.2430   -5.9329 C   0  0  0  0  0  0  0  0  0  0  0  0
   15.9315   -5.3767   -2.4018 C   0  0  2  0  0  0  0  0  0  0  0  0
   16.7121   -4.1902   -2.8080 N   0  0  0  0  0  0  0  0  0  0  0  0
   11.4256  -10.1309   -0.5178 C   0  0  1  0  0  0  0  0  0  0  0  0
   11.0285  -10.5727    0.8491 N   0  0  0  0  0  0  0  0  0  0  0  0
   18.4156   -4.9262   -6.3320 C   0  0  0  0  0  0  0  0  0  0  0  0
   15.6078   -6.2847   -3.6636 C   0  0  2  0  0  0  0  0  0  0  0  0
   10.8957  -11.2142   -1.6115 C   0  0  1  0  0  0  0  0  0  0  0  0
    9.4981  -11.3736   -1.5971 O   0  0  0  0  0  0  0  0  0  0  0  0
   17.0981   -4.9288   -6.5839 C   0  0  1  0  0  0  0  0  0  0  0  0
   16.3209   -6.1078   -6.5119 O   0  0  0  0  0  0  0  0  0  0  0  0
   14.7631   -7.5313   -3.2128 C   0  0  2  0  0  0  0  0  0  0  0  0
   14.4674   -8.3345   -4.3538 O   0  0  0  0  0  0  0  0  0  0  0  0
   11.3106  -10.7364   -3.0375 C   0  0  0  0  0  0  0  0  0  0  0  0
   10.8395   -9.3155   -3.2734 O   0  0  0  0  0  0  0  0  0  0  0  0
   16.3178   -3.6551   -6.9635 C   0  0  0  0  0  0  0  0  0  0  0  0
   15.1975   -3.5087   -6.0602 N   0  0  0  0  0  0  0  0  0  0  0  0
   13.4196   -7.0415   -2.5517 C   0  0  1  0  0  0  0  0  0  0  0  0
   12.6955   -8.1678   -2.1517 O   0  0  0  0  0  0  0  0  0  0  0  0
   11.4172  -12.6479   -1.4392 C   0  0  0  0  0  0  0  0  0  0  0  0
   11.8926  -11.5813    1.4815 C   0  0  0  0  0  0  0  0  0  0  0  0
  1  2  1  1  0  0  0
  1  6  1  0  0  0  0
  1 21  1  0  0  0  0
  3  4  1  6  0  0  0
  3  8  1  0  0  0  0
  3 28  1  0  0  0  0
  5  9  1  0  0  0  0
  5 25  1  0  0  0  0
  5 29  1  1  0  0  0
  6  7  1  1  0  0  0
  6 11  1  0  0  0  0
  8 12  1  0  0  0  0
  9 10  1  1  0  0  0
  9 14  1  0  0  0  0
 11 16  1  0  0  0  0
 12 13  1  6  0  0  0
 12 17  1  0  0  0  0
 14 15  1  1  0  0  0
 14 18  1  0  0  0  0
 15 31  1  0  0  0  0
 16 20  1  0  0  0  0
 17  2  1  1  0  0  0
 17 22  1  0  0  0  0
 18 19  1  1  0  0  0
 18 24  1  0  0  0  0
 18 30  1  0  0  0  0
 20 21  1  0  0  0  0
 20 26  1  1  0  0  0
 22 23  1  6  0  0  0
 22 28  1  0  0  0  0
 24 25  1  0  0  0  0
 26 27  1  0  0  0  0
 28 29  1  1  0  0  0
M  END
>  <CHROM.1>
177.91642009,-128.10481077,-157.95164865,-158.53528963,-126.09938598,99.13306098
14.12806270,-7.62891906,-3.09972275,-0.36878153,-0.75847596,-2.86933203

>  <Name>
ligand

>  <RI>
0

>  <Rbt.Current_Directory>
/home/itssahil/PROJECTS/Mol_Feturizer/New_Systems/rnas/4F8V

>  <Rbt.Executable>
rbdock ($Id: //depot/dev/client3/rdock/2013.1/src/exe/rbdock.cxx#4 $)

>  <Rbt.Library>
libRbt.so (2013.1, Build901 2013/11/27)

>  <Rbt.Parameter_File>
/export/apps/rDock/src/rDock_2013.1_src/data/scripts/dock_solv.prm

>  <Rbt.Receptor>
prm/blind_docking_100.prm

>  <SCORE>
-0.722697

>  <SCORE.INTER>
-9.84457

>  <SCORE.INTER.CONST>
1

>  <SCORE.INTER.POLAR>
0

>  <SCORE.INTER.ROT>
6

>  <SCORE.INTER.SOLV>
18.8033

>  <SCORE.INTER.VDW>
-20.4308

>  <SCORE.INTER.norm>
-0.317567

>  <SCORE.INTRA>
3.15581

>  <SCORE.INTRA.DIHEDRAL>
0.374428

>  <SCORE.INTRA.DIHEDRAL.0>
15.9129

>  <SCORE.INTRA.POLAR>
0

>  <SCORE.INTRA.POLAR.0>
0

>  <SCORE.INTRA.REPUL>
0

>  <SCORE.INTRA.REPUL.0>
0

>  <SCORE.INTRA.SOLV>
1.91158

>  <SCORE.INTRA.SOLV.lig_0>
-75.7056

>  <SCORE.INTRA.VDW>
2.0128

>  <SCORE.INTRA.VDW.0>
-4.61812

>  <SCORE.INTRA.norm>
0.1018

>  <SCORE.RESTR>
5.96607

>  <SCORE.RESTR.CAVITY>
5.96607

>  <SCORE.RESTR.norm>
0.192454

>  <SCORE.SYSTEM>
0

>  <SCORE.SYSTEM.CONST>
0

>  <SCORE.SYSTEM.DIHEDRAL>
0

>  <SCORE.SYSTEM.SOLV>
0

>  <SCORE.SYSTEM.norm>
0

>  <SCORE.heavy>
31

>  <SCORE.norm>
-0.0233128

>  <RMSD>
9.933

$$$$
ligand
 OpenBabel11021811493D
libRbt.so/2013.1/901 2013/11/27
 31 33  0  0  0  0  0  0  0  0999 V2000
   16.7387   -7.1211   -5.6811 C   0  0  2  0  0  0  0  0  0  0  0  0
   16.7747   -6.7465   -4.2973 O   0  0  0  0  0  0  0  0  0  0  0  0
   13.7775   -6.1978   -1.3133 C   0  0  2  0  0  0  0  0  0  0  0  0
   12.5691   -5.7708   -0.6926 N   0  0  0  0  0  0  0  0  0  0  0  0
   11.2572   -8.2841   -2.2704 C   0  0  2  0  0  0  0  0  0  0  0  0
   18.1883   -7.5415   -6.0757 C   0  0  2  0  0  0  0  0  0  0  0  0
   18.6230   -8.6263   -5.1980 N   0  0  0  0  0  0  0  0  0  0  0  0
   14.6152   -4.9347   -1.7406 C   0  0  0  0  0  0  0  0  0  0  0  0
   10.7812   -8.7135   -0.8563 C   0  0  2  0  0  0  0  0  0  0  0  0
   11.2073   -7.7461    0.0758 O   0  0  0  0  0  0  0  0  0  0  0  0
   19.1594   -6.3016   -5.9900 C   0  0  0  0  0  0  0  0  0  0  0  0
   15.9576   -5.4130   -2.4296 C   0  0  2  0  0  0  0  0  0  0  0  0
   16.7460   -4.2316   -2.8357 N   0  0  0  0  0  0  0  0  0  0  0  0
   11.4010  -10.1324   -0.5403 C   0  0  1  0  0  0  0  0  0  0  0  0
   10.9887  -10.5781    0.8207 N   0  0  0  0  0  0  0  0  0  0  0  0
   18.4494   -4.9433   -6.3388 C   0  0  0  0  0  0  0  0  0  0  0  0
   15.5993   -6.3011   -3.6963 C   0  0  2  0  0  0  0  0  0  0  0  0
   10.8813  -11.2114   -1.6433 C   0  0  1  0  0  0  0  0  0  0  0  0
    9.4835  -11.3688   -1.6443 O   0  0  0  0  0  0  0  0  0  0  0  0
   17.1316   -4.8859   -6.5823 C   0  0  1  0  0  0  0  0  0  0  0  0
   16.3092   -6.0356   -6.5461 O   0  0  0  0  0  0  0  0  0  0  0  0
   14.7469   -7.5424   -3.2452 C   0  0  2  0  0  0  0  0  0  0  0  0
   14.4201   -8.3276   -4.3903 O   0  0  0  0  0  0  0  0  0  0  0  0
   11.3122  -10.7295   -3.0631 C   0  0  0  0  0  0  0  0  0  0  0  0
   10.8456   -9.3071   -3.2994 O   0  0  0  0  0  0  0  0  0  0  0  0
   16.3997   -3.5705   -6.9131 C   0  0  0  0  0  0  0  0  0  0  0  0
   15.2063   -3.4844   -6.1002 N   0  0  0  0  0  0  0  0  0  0  0  0
   13.4222   -7.0439   -2.5536 C   0  0  1  0  0  0  0  0  0  0  0  0
   12.6910   -8.1658   -2.1541 O   0  0  0  0  0  0  0  0  0  0  0  0
   11.3990  -12.6464   -1.4701 C   0  0  0  0  0  0  0  0  0  0  0  0
   11.8496  -11.5833    1.4628 C   0  0  0  0  0  0  0  0  0  0  0  0
  1  2  1  1  0  0  0
  1  6  1  0  0  0  0
  1 21  1  0  0  0  0
  3  4  1  6  0  0  0
  3  8  1  0  0  0  0
  3 28  1  0  0  0  0
  5  9  1  0  0  0  0
  5 25  1  0  0  0  0
  5 29  1  1  0  0  0
  6  7  1  1  0  0  0
  6 11  1  0  0  0  0
  8 12  1  0  0  0  0
  9 10  1  1  0  0  0
  9 14  1  0  0  0  0
 11 16  1  0  0  0  0
 12 13  1  6  0  0  0
 12 17  1  0  0  0  0
 14 15  1  1  0  0  0
 14 18  1  0  0  0  0
 15 31  1  0  0  0  0
 16 20  1  0  0  0  0
 17  2  1  1  0  0  0
 17 22  1  0  0  0  0
 18 19  1  1  0  0  0
 18 24  1  0  0  0  0
 18 30  1  0  0  0  0
 20 21  1  0  0  0  0
 20 26  1  1  0  0  0
 22 23  1  6  0  0  0
 22 28  1  0  0  0  0
 24 25  1  0  0  0  0
 26 27  1  0  0  0  0
 28 29  1  1  0  0  0
M  END
>  <CHROM.1>
178.81229897,-128.70135796,-157.55153239,-157.01689385,-132.40822796,101.26105626
14.12157721,-7.63123780,-3.12770741,-0.34890927,-0.76674042,-2.84149857

>  <Name>
ligand

>  <RI>
0

>  <Rbt.Current_Directory>
/home/itssahil/PROJECTS/Mol_Feturizer/New_Systems/rnas/4F8V

>  <Rbt.Executable>
rbdock ($Id: //depot/dev/client3/rdock/2013.1/src/exe/rbdock.cxx#4 $)

>  <Rbt.Library>
libRbt.so (2013.1, Build901 2013/11/27)

>  <Rbt.Parameter_File>
/export/apps/rDock/src/rDock_2013.1_src/data/scripts/dock_solv.prm

>  <Rbt.Receptor>
prm/blind_docking_100.prm

>  <SCORE>
-0.222246

>  <SCORE.INTER>
-9.46789

>  <SCORE.INTER.CONST>
1

>  <SCORE.INTER.POLAR>
0

>  <SCORE.INTER.ROT>
6

>  <SCORE.INTER.SOLV>
19.2102

>  <SCORE.INTER.VDW>
-20.3153

>  <SCORE.INTER.norm>
-0.305416

>  <SCORE.INTRA>
3.3508

>  <SCORE.INTRA.DIHEDRAL>
1.07761

>  <SCORE.INTRA.DIHEDRAL.0>
15.9129

>  <SCORE.INTRA.POLAR>
0

>  <SCORE.INTRA.POLAR.0>
0

>  <SCORE.INTRA.REPUL>
0

>  <SCORE.INTRA.REPUL.0>
0

>  <SCORE.INTRA.SOLV>
1.90134

>  <SCORE.INTRA.SOLV.lig_0>
-75.7056

>  <SCORE.INTRA.VDW>
1.86132

>  <SCORE.INTRA.VDW.0>
-4.61812

>  <SCORE.INTRA.norm>
0.10809

>  <SCORE.RESTR>
5.89484

>  <SCORE.RESTR.CAVITY>
5.89484

>  <SCORE.RESTR.norm>
0.190156

>  <SCORE.SYSTEM>
0

>  <SCORE.SYSTEM.CONST>
0

>  <SCORE.SYSTEM.DIHEDRAL>
0

>  <SCORE.SYSTEM.SOLV>
0

>  <SCORE.SYSTEM.norm>
0

>  <SCORE.heavy>
31

>  <SCORE.norm>
-0.00716921

>  <RMSD>
9.940

$$$$
ligand
 OpenBabel11021811493D
libRbt.so/2013.1/901 2013/11/27
 31 33  0  0  0  0  0  0  0  0999 V2000
   16.7635   -7.1268   -5.6416 C   0  0  2  0  0  0  0  0  0  0  0  0
   16.7895   -6.7255   -4.2651 O   0  0  0  0  0  0  0  0  0  0  0  0
   13.7592   -6.1899   -1.3123 C   0  0  2  0  0  0  0  0  0  0  0  0
   12.5423   -5.7686   -0.7042 N   0  0  0  0  0  0  0  0  0  0  0  0
   11.2567   -8.2805   -2.2735 C   0  0  2  0  0  0  0  0  0  0  0  0
   18.2245   -7.5120   -6.0299 C   0  0  2  0  0  0  0  0  0  0  0  0
   18.6914   -8.5670   -5.1326 N   0  0  0  0  0  0  0  0  0  0  0  0
   14.5950   -4.9230   -1.7317 C   0  0  0  0  0  0  0  0  0  0  0  0
   10.7860   -8.7099   -0.8576 C   0  0  2  0  0  0  0  0  0  0  0  0
   11.2169   -7.7431    0.0731 O   0  0  0  0  0  0  0  0  0  0  0  0
   19.1591   -6.2429   -5.9685 C   0  0  0  0  0  0  0  0  0  0  0  0
   15.9467   -5.3950   -2.4067 C   0  0  2  0  0  0  0  0  0  0  0  0
   16.7333   -4.2099   -2.8054 N   0  0  0  0  0  0  0  0  0  0  0  0
   11.4056  -10.1295   -0.5445 C   0  0  1  0  0  0  0  0  0  0  0  0
   10.9983  -10.5751    0.8181 N   0  0  0  0  0  0  0  0  0  0  0  0
   18.4095   -4.9127   -6.3419 C   0  0  0  0  0  0  0  0  0  0  0  0
   15.6058   -6.2856   -3.6764 C   0  0  2  0  0  0  0  0  0  0  0  0
   10.8803  -11.2076   -1.6457 C   0  0  1  0  0  0  0  0  0  0  0  0
    9.4823  -11.3635   -1.6411 O   0  0  0  0  0  0  0  0  0  0  0  0
   17.0904   -4.8984   -6.5849 C   0  0  1  0  0  0  0  0  0  0  0  0
   16.3020   -6.0707   -6.5263 O   0  0  0  0  0  0  0  0  0  0  0  0
   14.7550   -7.5307   -3.2333 C   0  0  2  0  0  0  0  0  0  0  0  0
   14.4438   -8.3182   -4.3812 O   0  0  0  0  0  0  0  0  0  0  0  0
   11.3059  -10.7257   -3.0671 C   0  0  0  0  0  0  0  0  0  0  0  0
   10.8398   -9.3028   -3.3011 O   0  0  0  0  0  0  0  0  0  0  0  0
   16.3203   -3.6112   -6.9393 C   0  0  0  0  0  0  0  0  0  0  0  0
   15.2091   -3.4666   -6.0246 N   0  0  0  0  0  0  0  0  0  0  0  0
   13.4207   -7.0384   -2.5556 C   0  0  1  0  0  0  0  0  0  0  0  0
   12.6911   -8.1637   -2.1630 O   0  0  0  0  0  0  0  0  0  0  0  0
   11.3971  -12.6432   -1.4750 C   0  0  0  0  0  0  0  0  0  0  0  0
   11.8918  -11.5383    1.4797 C   0  0  0  0  0  0  0  0  0  0  0  0
  1  2  1  1  0  0  0
  1  6  1  0  0  0  0
  1 21  1  0  0  0  0
  3  4  1  6  0  0  0
  3  8  1  0  0  0  0
  3 28  1  0  0  0  0
  5  9  1  0  0  0  0
  5 25  1  0  0  0  0
  5 29  1  1  0  0  0
  6  7  1  1  0  0  0
  6 11  1  0  0  0  0
  8 12  1  0  0  0  0
  9 10  1  1  0  0  0
  9 14  1  0  0  0  0
 11 16  1  0  0  0  0
 12 13  1  6  0  0  0
 12 17  1  0  0  0  0
 14 15  1  1  0  0  0
 14 18  1  0  0  0  0
 15 31  1  0  0  0  0
 16 20  1  0  0  0  0
 17  2  1  1  0  0  0
 17 22  1  0  0  0  0
 18 19  1  1  0  0  0
 18 24  1  0  0  0  0
 18 30  1  0  0  0  0
 20 21  1  0  0  0  0
 20 26  1  1  0  0  0
 22 23  1  6  0  0  0
 22 28  1  0  0  0  0
 24 25  1  0  0  0  0
 26 27  1  0  0  0  0
 28 29  1  1  0  0  0
M  END
>  <CHROM.1>
177.92317816,-128.18798888,-155.03491182,-158.26680440,-125.97892908,100.19042497
14.12119431,-7.62133787,-3.11676033,-0.35238314,-0.76419222,-2.84432242

>  <Name>
ligand

>  <RI>
0

>  <Rbt.Current_Directory>
/home/itssahil/PROJECTS/Mol_Feturizer/New_Systems/rnas/4F8V

>  <Rbt.Executable>
rbdock ($Id: //depot/dev/client3/rdock/2013.1/src/exe/rbdock.cxx#4 $)

>  <Rbt.Library>
libRbt.so (2013.1, Build901 2013/11/27)

>  <Rbt.Parameter_File>
/export/apps/rDock/src/rDock_2013.1_src/data/scripts/dock_solv.prm

>  <Rbt.Receptor>
prm/blind_docking_100.prm

>  <SCORE>
-0.620434

>  <SCORE.INTER>
-9.63025

>  <SCORE.INTER.CONST>
1

>  <SCORE.INTER.POLAR>
0

>  <SCORE.INTER.ROT>
6

>  <SCORE.INTER.SOLV>
18.8371

>  <SCORE.INTER.VDW>
-20.2992

>  <SCORE.INTER.norm>
-0.310653

>  <SCORE.INTRA>
3.0329

>  <SCORE.INTRA.DIHEDRAL>
0.6722

>  <SCORE.INTRA.DIHEDRAL.0>
15.9129

>  <SCORE.INTRA.POLAR>
0

>  <SCORE.INTRA.POLAR.0>
0

>  <SCORE.INTRA.REPUL>
0

>  <SCORE.INTRA.REPUL.0>
0

>  <SCORE.INTRA.SOLV>
1.94735

>  <SCORE.INTRA.SOLV.lig_0>
-75.7056

>  <SCORE.INTRA.VDW>
1.72312

>  <SCORE.INTRA.VDW.0>
-4.61812

>  <SCORE.INTRA.norm>
0.0978354

>  <SCORE.RESTR>
5.97692

>  <SCORE.RESTR.CAVITY>
5.97692

>  <SCORE.RESTR.norm>
0.192804

>  <SCORE.SYSTEM>
0

>  <SCORE.SYSTEM.CONST>
0

>  <SCORE.SYSTEM.DIHEDRAL>
0

>  <SCORE.SYSTEM.SOLV>
0

>  <SCORE.SYSTEM.norm>
0

>  <SCORE.heavy>
31

>  <SCORE.norm>
-0.020014

>  <RMSD>
9.940

$$$$
ligand
 OpenBabel11021811493D
libRbt.so/2013.1/901 2013/11/27
 31 33  0  0  0  0  0  0  0  0999 V2000
   16.8782   -7.2312   -5.4720 C   0  0  2  0  0  0  0  0  0  0  0  0
   16.8694   -6.7007   -4.1398 O   0  0  0  0  0  0  0  0  0  0  0  0
   13.7150   -6.1932   -1.3148 C   0  0  2  0  0  0  0  0  0  0  0  0
   12.4701   -5.7835   -0.7578 N   0  0  0  0  0  0  0  0  0  0  0  0
   11.2683   -8.2895   -2.3291 C   0  0  2  0  0  0  0  0  0  0  0  0
   18.3717   -7.3271   -5.9128 C   0  0  2  0  0  0  0  0  0  0  0  0
   19.0956   -8.1627   -4.9569 N   0  0  0  0  0  0  0  0  0  0  0  0
   14.5549   -4.9184   -1.7007 C   0  0  0  0  0  0  0  0  0  0  0  0
   10.7843   -8.7155   -0.9168 C   0  0  2  0  0  0  0  0  0  0  0  0
   11.2110   -7.7493    0.0164 O   0  0  0  0  0  0  0  0  0  0  0  0
   19.0040   -5.8859   -6.0186 C   0  0  0  0  0  0  0  0  0  0  0  0
   15.9379   -5.3775   -2.3190 C   0  0  2  0  0  0  0  0  0  0  0  0
   16.7287   -4.1850   -2.6861 N   0  0  0  0  0  0  0  0  0  0  0  0
   11.3960  -10.1371   -0.5970 C   0  0  1  0  0  0  0  0  0  0  0  0
   10.9758  -10.5797    0.7626 N   0  0  0  0  0  0  0  0  0  0  0  0
   17.9643   -4.7928   -6.4603 C   0  0  0  0  0  0  0  0  0  0  0  0
   15.6583   -6.2721   -3.6008 C   0  0  2  0  0  0  0  0  0  0  0  0
   10.8759  -11.2144   -1.7013 C   0  0  1  0  0  0  0  0  0  0  0  0
    9.4774  -11.3653   -1.7082 O   0  0  0  0  0  0  0  0  0  0  0  0
   16.6662   -5.0885   -6.6237 C   0  0  1  0  0  0  0  0  0  0  0  0
   16.1597   -6.3921   -6.4158 O   0  0  0  0  0  0  0  0  0  0  0  0
   14.8021   -7.5253   -3.1918 C   0  0  2  0  0  0  0  0  0  0  0  0
   14.5462   -8.3165   -4.3509 O   0  0  0  0  0  0  0  0  0  0  0  0
   11.3151  -10.7358   -3.1197 C   0  0  0  0  0  0  0  0  0  0  0  0
   10.8562   -9.3114   -3.3591 O   0  0  0  0  0  0  0  0  0  0  0  0
   15.6169   -4.0398   -7.0416 C   0  0  0  0  0  0  0  0  0  0  0  0
   15.9903   -2.7590   -6.4827 N   0  0  0  0  0  0  0  0  0  0  0  0
   13.4364   -7.0457   -2.5702 C   0  0  1  0  0  0  0  0  0  0  0  0
   12.7022   -8.1779   -2.2068 O   0  0  0  0  0  0  0  0  0  0  0  0
   11.3860  -12.6518   -1.5248 C   0  0  0  0  0  0  0  0  0  0  0  0
   11.8674  -11.5347    1.4384 C   0  0  0  0  0  0  0  0  0  0  0  0
  1  2  1  1  0  0  0
  1  6  1  0  0  0  0
  1 21  1  0  0  0  0
  3  4  1  6  0  0  0
  3  8  1  0  0  0  0
  3 28  1  0  0  0  0
  5  9  1  0  0  0  0
  5 25  1  0  0  0  0
  5 29  1  1  0  0  0
  6  7  1  1  0  0  0
  6 11  1  0  0  0  0
  8 12  1  0  0  0  0
  9 10  1  1  0  0  0
  9 14  1  0  0  0  0
 11 16  1  0  0  0  0
 12 13  1  6  0  0  0
 12 17  1  0  0  0  0
 14 15  1  1  0  0  0
 14 18  1  0  0  0  0
 15 31  1  0  0  0  0
 16 20  1  0  0  0  0
 17  2  1  1  0  0  0
 17 22  1  0  0  0  0
 18 19  1  1  0  0  0
 18 24  1  0  0  0  0
 18 30  1  0  0  0  0
 20 21  1  0  0  0  0
 20 26  1  1  0  0  0
 22 23  1  6  0  0  0
 22 28  1  0  0  0  0
 24 25  1  0  0  0  0
 26 27  1  0  0  0  0
 28 29  1  1  0  0  0
M  END
>  <CHROM.1>
167.80506721,-126.87178440,-154.41896168,-164.54290678,-33.10391864,97.72867598
14.11093323,-7.59961191,-3.13003147,-0.34386156,-0.77405033,-2.81287889

>  <Name>
ligand

>  <RI>
0

>  <Rbt.Current_Directory>
/home/itssahil/PROJECTS/Mol_Feturizer/New_Systems/rnas/4F8V

>  <Rbt.Executable>
rbdock ($Id: //depot/dev/client3/rdock/2013.1/src/exe/rbdock.cxx#4 $)

>  <Rbt.Library>
libRbt.so (2013.1, Build901 2013/11/27)

>  <Rbt.Parameter_File>
/export/apps/rDock/src/rDock_2013.1_src/data/scripts/dock_solv.prm

>  <Rbt.Receptor>
prm/blind_docking_100.prm

>  <SCORE>
1.13625

>  <SCORE.INTER>
-8.44767

>  <SCORE.INTER.CONST>
1

>  <SCORE.INTER.POLAR>
0

>  <SCORE.INTER.ROT>
6

>  <SCORE.INTER.SOLV>
18.944

>  <SCORE.INTER.VDW>
-19.5464

>  <SCORE.INTER.norm>
-0.272505

>  <SCORE.INTRA>
3.31475

>  <SCORE.INTRA.DIHEDRAL>
1.154

>  <SCORE.INTRA.DIHEDRAL.0>
15.9129

>  <SCORE.INTRA.POLAR>
0

>  <SCORE.INTRA.POLAR.0>
0

>  <SCORE.INTRA.REPUL>
0

>  <SCORE.INTRA.REPUL.0>
0

>  <SCORE.INTRA.SOLV>
-0.279459

>  <SCORE.INTRA.SOLV.lig_0>
-75.7056

>  <SCORE.INTRA.VDW>
2.87748

>  <SCORE.INTRA.VDW.0>
-4.61812

>  <SCORE.INTRA.norm>
0.106927

>  <SCORE.RESTR>
6.26917

>  <SCORE.RESTR.CAVITY>
6.26917

>  <SCORE.RESTR.norm>
0.202231

>  <SCORE.SYSTEM>
0

>  <SCORE.SYSTEM.CONST>
0

>  <SCORE.SYSTEM.DIHEDRAL>
0

>  <SCORE.SYSTEM.SOLV>
0

>  <SCORE.SYSTEM.norm>
0

>  <SCORE.heavy>
31

>  <SCORE.norm>
0.0366531

>  <RMSD>
9.944

$$$$
ligand
 OpenBabel11021811493D
libRbt.so/2013.1/901 2013/11/27
 31 33  0  0  0  0  0  0  0  0999 V2000
   12.2628   -9.9072   -1.6713 C   0  0  2  0  0  0  0  0  0  0  0  0
   11.8474   -8.5521   -1.8894 O   0  0  0  0  0  0  0  0  0  0  0  0
   14.1058   -4.9648   -2.3587 C   0  0  2  0  0  0  0  0  0  0  0  0
   15.0325   -3.9204   -2.0791 N   0  0  0  0  0  0  0  0  0  0  0  0
   15.7189   -6.9530   -4.6382 C   0  0  2  0  0  0  0  0  0  0  0  0
   11.4349  -10.7987   -2.6478 C   0  0  2  0  0  0  0  0  0  0  0  0
   11.6632  -10.3411   -4.0169 N   0  0  0  0  0  0  0  0  0  0  0  0
   12.9901   -4.9793   -1.2475 C   0  0  0  0  0  0  0  0  0  0  0  0
   16.8838   -7.9792   -4.6557 C   0  0  2  0  0  0  0  0  0  0  0  0
   16.7527   -8.8291   -3.5390 O   0  0  0  0  0  0  0  0  0  0  0  0
    9.9048  -10.7505   -2.2678 C   0  0  0  0  0  0  0  0  0  0  0  0
   11.9618   -6.1409   -1.5617 C   0  0  2  0  0  0  0  0  0  0  0  0
   10.9146   -6.1611   -0.5200 N   0  0  0  0  0  0  0  0  0  0  0  0
   18.2446   -7.1769   -4.6143 C   0  0  1  0  0  0  0  0  0  0  0  0
   19.3956   -8.1236   -4.6070 N   0  0  0  0  0  0  0  0  0  0  0  0
    9.6632  -10.5759   -0.7244 C   0  0  0  0  0  0  0  0  0  0  0  0
   12.7400   -7.5248   -1.5908 C   0  0  2  0  0  0  0  0  0  0  0  0
   18.3470   -6.2110   -5.9209 C   0  0  1  0  0  0  0  0  0  0  0  0
   18.3305   -6.9220   -7.1346 O   0  0  0  0  0  0  0  0  0  0  0  0
   10.6839  -10.3939    0.1267 C   0  0  1  0  0  0  0  0  0  0  0  0
   12.0285  -10.3545   -0.3089 O   0  0  0  0  0  0  0  0  0  0  0  0
   13.8597   -7.4763   -2.6929 C   0  0  2  0  0  0  0  0  0  0  0  0
   14.5606   -8.7187   -2.7039 O   0  0  0  0  0  0  0  0  0  0  0  0
   17.1333   -5.2310   -5.9209 C   0  0  0  0  0  0  0  0  0  0  0  0
   15.8344   -6.0031   -5.8039 O   0  0  0  0  0  0  0  0  0  0  0  0
   10.4835  -10.2048    1.6431 C   0  0  0  0  0  0  0  0  0  0  0  0
   10.9597  -11.3873    2.3268 N   0  0  0  0  0  0  0  0  0  0  0  0
   14.8649   -6.3080   -2.3666 C   0  0  1  0  0  0  0  0  0  0  0  0
   15.8410   -6.2818   -3.3663 O   0  0  0  0  0  0  0  0  0  0  0  0
   19.6216   -5.3614   -6.0259 C   0  0  0  0  0  0  0  0  0  0  0  0
   19.7179   -8.7431   -3.3123 C   0  0  0  0  0  0  0  0  0  0  0  0
  1  2  1  1  0  0  0
  1  6  1  0  0  0  0
  1 21  1  0  0  0  0
  3  4  1  1  0  0  0
  3  8  1  0  0  0  0
  3 28  1  0  0  0  0
  5  9  1  0  0  0  0
  5 25  1  0  0  0  0
  5 29  1  1  0  0  0
  6  7  1  6  0  0  0
  6 11  1  0  0  0  0
  8 12  1  0  0  0  0
  9 10  1  1  0  0  0
  9 14  1  0  0  0  0
 11 16  1  0  0  0  0
 12 13  1  1  0  0  0
 12 17  1  0  0  0  0
 14 15  1  6  0  0  0
 14 18  1  0  0  0  0
 15 31  1  0  0  0  0
 16 20  1  0  0  0  0
 17  2  1  6  0  0  0
 17 22  1  0  0  0  0
 18 19  1  6  0  0  0
 18 24  1  0  0  0  0
 18 30  1  0  0  0  0
 20 21  1  0  0  0  0
 20 26  1  6  0  0  0
 22 23  1  1  0  0  0
 22 28  1  0  0  0  0
 24 25  1  0  0  0  0
 26 27  1  0  0  0  0
 28 29  1  6  0  0  0
M  END
>  <CHROM.1>
-154.18119393,-118.12368055,-79.52919504,-166.02432404,109.45437353,-103.45760432
14.35518680,-7.85633805,-2.79981661,-2.77648474,0.59064107,-0.00118927

>  <Name>
ligand

>  <RI>
0

>  <Rbt.Current_Directory>
/home/itssahil/PROJECTS/Mol_Feturizer/New_Systems/rnas/4F8V

>  <Rbt.Executable>
rbdock ($Id: //depot/dev/client3/rdock/2013.1/src/exe/rbdock.cxx#4 $)

>  <Rbt.Library>
libRbt.so (2013.1, Build901 2013/11/27)

>  <Rbt.Parameter_File>
/export/apps/rDock/src/rDock_2013.1_src/data/scripts/dock_solv.prm

>  <Rbt.Receptor>
prm/blind_docking_100.prm

>  <SCORE>
12.7259

>  <SCORE.INTER>
-1.16068

>  <SCORE.INTER.CONST>
1

>  <SCORE.INTER.POLAR>
0

>  <SCORE.INTER.ROT>
6

>  <SCORE.INTER.SOLV>
23.3985

>  <SCORE.INTER.VDW>
-16.1733

>  <SCORE.INTER.norm>
-0.0374411

>  <SCORE.INTRA>
5.32391

>  <SCORE.INTRA.DIHEDRAL>
3.04878

>  <SCORE.INTRA.DIHEDRAL.0>
15.9129

>  <SCORE.INTRA.POLAR>
0

>  <SCORE.INTRA.POLAR.0>
0

>  <SCORE.INTRA.REPUL>
0

>  <SCORE.INTRA.REPUL.0>
0

>  <SCORE.INTRA.SOLV>
-2.25979

>  <SCORE.INTRA.SOLV.lig_0>
-75.7056

>  <SCORE.INTRA.VDW>
4.92941

>  <SCORE.INTRA.VDW.0>
-4.61812

>  <SCORE.INTRA.norm>
0.171739

>  <SCORE.RESTR>
8.56268

>  <SCORE.RESTR.CAVITY>
8.56268

>  <SCORE.RESTR.norm>
0.276215

>  <SCORE.SYSTEM>
0

>  <SCORE.SYSTEM.CONST>
0

>  <SCORE.SYSTEM.DIHEDRAL>
0

>  <SCORE.SYSTEM.SOLV>
0

>  <SCORE.SYSTEM.norm>
0

>  <SCORE.heavy>
31

>  <SCORE.norm>
0.410513

>  <RMSD>
9.947

$$$$
ligand
 OpenBabel11021811493D
libRbt.so/2013.1/901 2013/11/27
 31 33  0  0  0  0  0  0  0  0999 V2000
   16.7465   -7.0866   -5.6513 C   0  0  2  0  0  0  0  0  0  0  0  0
   16.7680   -6.7189   -4.2654 O   0  0  0  0  0  0  0  0  0  0  0  0
   13.7484   -6.1694   -1.3041 C   0  0  2  0  0  0  0  0  0  0  0  0
   12.5336   -5.7455   -0.6937 N   0  0  0  0  0  0  0  0  0  0  0  0
   11.2488   -8.2852   -2.2899 C   0  0  2  0  0  0  0  0  0  0  0  0
   18.1995   -7.5084   -6.0318 C   0  0  2  0  0  0  0  0  0  0  0  0
   18.6220   -8.5985   -5.1547 N   0  0  0  0  0  0  0  0  0  0  0  0
   14.5822   -4.9043   -1.7331 C   0  0  0  0  0  0  0  0  0  0  0  0
   10.7464   -8.7207   -0.8869 C   0  0  2  0  0  0  0  0  0  0  0  0
   11.1381   -7.7475    0.0543 O   0  0  0  0  0  0  0  0  0  0  0  0
   19.1724   -6.2712   -5.9292 C   0  0  0  0  0  0  0  0  0  0  0  0
   15.9316   -5.3793   -2.4107 C   0  0  2  0  0  0  0  0  0  0  0  0
   16.7163   -4.1960   -2.8182 N   0  0  0  0  0  0  0  0  0  0  0  0
   11.3774  -10.1312   -0.5561 C   0  0  1  0  0  0  0  0  0  0  0  0
   10.9401  -10.5820    0.7954 N   0  0  0  0  0  0  0  0  0  0  0  0
   18.4693   -4.9095   -6.2791 C   0  0  0  0  0  0  0  0  0  0  0  0
   15.5863   -6.2764   -3.6746 C   0  0  2  0  0  0  0  0  0  0  0  0
   10.8974  -11.2171   -1.6701 C   0  0  1  0  0  0  0  0  0  0  0  0
    9.5022  -11.3930   -1.7030 O   0  0  0  0  0  0  0  0  0  0  0  0
   17.1545   -4.8479   -6.5371 C   0  0  1  0  0  0  0  0  0  0  0  0
   16.3292   -5.9958   -6.5157 O   0  0  0  0  0  0  0  0  0  0  0  0
   14.7376   -7.5196   -3.2220 C   0  0  2  0  0  0  0  0  0  0  0  0
   14.4225   -8.3130   -4.3648 O   0  0  0  0  0  0  0  0  0  0  0  0
   11.3542  -10.7298   -3.0800 C   0  0  0  0  0  0  0  0  0  0  0  0
   10.8743   -9.3137   -3.3275 O   0  0  0  0  0  0  0  0  0  0  0  0
   16.4294   -3.5292   -6.8694 C   0  0  0  0  0  0  0  0  0  0  0  0
   15.1527   -3.8393   -7.4746 N   0  0  0  0  0  0  0  0  0  0  0  0
   13.4057   -7.0243   -2.5419 C   0  0  1  0  0  0  0  0  0  0  0  0
   12.6778   -8.1479   -2.1409 O   0  0  0  0  0  0  0  0  0  0  0  0
   11.4300  -12.6451   -1.4845 C   0  0  0  0  0  0  0  0  0  0  0  0
   11.8203  -11.5455    1.4743 C   0  0  0  0  0  0  0  0  0  0  0  0
  1  2  1  1  0  0  0
  1  6  1  0  0  0  0
  1 21  1  0  0  0  0
  3  4  1  6  0  0  0
  3  8  1  0  0  0  0
  3 28  1  0  0  0  0
  5  9  1  0  0  0  0
  5 25  1  0  0  0  0
  5 29  1  1  0  0  0
  6  7  1  1  0  0  0
  6 11  1  0  0  0  0
  8 12  1  0  0  0  0
  9 10  1  1  0  0  0
  9 14  1  0  0  0  0
 11 16  1  0  0  0  0
 12 13  1  6  0  0  0
 12 17  1  0  0  0  0
 14 15  1  1  0  0  0
 14 18  1  0  0  0  0
 15 31  1  0  0  0  0
 16 20  1  0  0  0  0
 17  2  1  1  0  0  0
 17 22  1  0  0  0  0
 18 19  1  1  0  0  0
 18 24  1  0  0  0  0
 18 30  1  0  0  0  0
 20 21  1  0  0  0  0
 20 26  1  1  0  0  0
 22 23  1  6  0  0  0
 22 28  1  0  0  0  0
 24 25  1  0  0  0  0
 26 27  1  0  0  0  0
 28 29  1  1  0  0  0
M  END
>  <CHROM.1>
178.94485557,-129.67723155,-155.79730556,-156.29741433,163.09496497,102.53203846
14.11473691,-7.62509996,-3.16266121,-0.31361557,-0.78585693,-2.79751536

>  <Name>
ligand

>  <RI>
0

>  <Rbt.Current_Directory>
/home/itssahil/PROJECTS/Mol_Feturizer/New_Systems/rnas/4F8V

>  <Rbt.Executable>
rbdock ($Id: //depot/dev/client3/rdock/2013.1/src/exe/rbdock.cxx#4 $)

>  <Rbt.Library>
libRbt.so (2013.1, Build901 2013/11/27)

>  <Rbt.Parameter_File>
/export/apps/rDock/src/rDock_2013.1_src/data/scripts/dock_solv.prm

>  <Rbt.Receptor>
prm/blind_docking_100.prm

>  <SCORE>
0.181391

>  <SCORE.INTER>
-9.14253

>  <SCORE.INTER.CONST>
1

>  <SCORE.INTER.POLAR>
0

>  <SCORE.INTER.ROT>
6

>  <SCORE.INTER.SOLV>
20.9763

>  <SCORE.INTER.VDW>
-20.6871

>  <SCORE.INTER.norm>
-0.29492

>  <SCORE.INTRA>
3.32916

>  <SCORE.INTRA.DIHEDRAL>
2.7394

>  <SCORE.INTRA.DIHEDRAL.0>
15.9129

>  <SCORE.INTRA.POLAR>
0

>  <SCORE.INTRA.POLAR.0>
0

>  <SCORE.INTRA.REPUL>
0

>  <SCORE.INTRA.REPUL.0>
0

>  <SCORE.INTRA.SOLV>
0.0047413

>  <SCORE.INTRA.SOLV.lig_0>
-75.7056

>  <SCORE.INTRA.VDW>
1.95709

>  <SCORE.INTRA.VDW.0>
-4.61812

>  <SCORE.INTRA.norm>
0.107392

>  <SCORE.RESTR>
5.99476

>  <SCORE.RESTR.CAVITY>
5.99476

>  <SCORE.RESTR.norm>
0.193379

>  <SCORE.SYSTEM>
0

>  <SCORE.SYSTEM.CONST>
0

>  <SCORE.SYSTEM.DIHEDRAL>
0

>  <SCORE.SYSTEM.SOLV>
0

>  <SCORE.SYSTEM.norm>
0

>  <SCORE.heavy>
31

>  <SCORE.norm>
0.00585133

>  <RMSD>
9.952

$$$$
ligand
 OpenBabel11021811493D
libRbt.so/2013.1/901 2013/11/27
 31 33  0  0  0  0  0  0  0  0999 V2000
   11.8269   -9.8705   -2.4356 C   0  0  2  0  0  0  0  0  0  0  0  0
   11.7295   -8.4862   -2.0741 O   0  0  0  0  0  0  0  0  0  0  0  0
   14.8455   -5.7002   -2.9211 C   0  0  2  0  0  0  0  0  0  0  0  0
   16.0557   -4.9626   -2.7824 N   0  0  0  0  0  0  0  0  0  0  0  0
   15.7812   -6.9574   -5.3817 C   0  0  2  0  0  0  0  0  0  0  0  0
   10.4375  -10.2891   -3.0086 C   0  0  2  0  0  0  0  0  0  0  0  0
   10.1097   -9.4219   -4.1385 N   0  0  0  0  0  0  0  0  0  0  0  0
   13.9032   -5.3850   -1.6995 C   0  0  0  0  0  0  0  0  0  0  0  0
   16.6883   -7.8222   -6.2980 C   0  0  2  0  0  0  0  0  0  0  0  0
   16.3379   -9.1770   -6.1301 O   0  0  0  0  0  0  0  0  0  0  0  0
    9.3365  -10.2144   -1.8817 C   0  0  0  0  0  0  0  0  0  0  0  0
   12.5592   -6.2062   -1.8573 C   0  0  2  0  0  0  0  0  0  0  0  0
   11.6726   -5.9167   -0.7117 N   0  0  0  0  0  0  0  0  0  0  0  0
   18.1918   -7.5594   -5.8884 C   0  0  1  0  0  0  0  0  0  0  0  0
   19.1022   -8.3876   -6.7288 N   0  0  0  0  0  0  0  0  0  0  0  0
    9.9003  -10.5475   -0.4527 C   0  0  0  0  0  0  0  0  0  0  0  0
   12.9044   -7.7552   -1.9122 C   0  0  2  0  0  0  0  0  0  0  0  0
   18.5457   -5.9842   -6.0982 C   0  0  1  0  0  0  0  0  0  0  0  0
   18.4074   -5.5611   -7.4326 O   0  0  0  0  0  0  0  0  0  0  0  0
   11.2076  -10.7703   -0.2517 C   0  0  1  0  0  0  0  0  0  0  0  0
   12.1491  -10.7251   -1.3056 O   0  0  0  0  0  0  0  0  0  0  0  0
   13.8612   -8.0388   -3.1266 C   0  0  2  0  0  0  0  0  0  0  0  0
   14.1750   -9.4299   -3.1610 O   0  0  0  0  0  0  0  0  0  0  0  0
   17.5812   -5.1285   -5.2198 C   0  0  0  0  0  0  0  0  0  0  0  0
   16.1402   -5.4980   -5.5088 O   0  0  0  0  0  0  0  0  0  0  0  0
   11.7975  -11.0851    1.1370 C   0  0  0  0  0  0  0  0  0  0  0  0
   10.7129  -11.3792    2.0478 N   0  0  0  0  0  0  0  0  0  0  0  0
   15.1865   -7.2046   -2.9546 C   0  0  1  0  0  0  0  0  0  0  0  0
   16.0117   -7.4675   -4.0513 O   0  0  0  0  0  0  0  0  0  0  0  0
   19.9800   -5.5681   -5.7418 C   0  0  0  0  0  0  0  0  0  0  0  0
   19.4805   -9.6981   -6.1779 C   0  0  0  0  0  0  0  0  0  0  0  0
  1  2  1  1  0  0  0
  1  6  1  0  0  0  0
  1 21  1  0  0  0  0
  3  4  1  1  0  0  0
  3  8  1  0  0  0  0
  3 28  1  0  0  0  0
  5  9  1  0  0  0  0
  5 25  1  0  0  0  0
  5 29  1  1  0  0  0
  6  7  1  6  0  0  0
  6 11  1  0  0  0  0
  8 12  1  0  0  0  0
  9 10  1  1  0  0  0
  9 14  1  0  0  0  0
 11 16  1  0  0  0  0
 12 13  1  1  0  0  0
 12 17  1  0  0  0  0
 14 15  1  6  0  0  0
 14 18  1  0  0  0  0
 15 31  1  0  0  0  0
 16 20  1  0  0  0  0
 17  2  1  6  0  0  0
 17 22  1  0  0  0  0
 18 19  1  6  0  0  0
 18 24  1  0  0  0  0
 18 30  1  0  0  0  0
 20 21  1  0  0  0  0
 20 26  1  1  0  0  0
 22 23  1  1  0  0  0
 22 28  1  0  0  0  0
 24 25  1  0  0  0  0
 26 27  1  0  0  0  0
 28 29  1  6  0  0  0
M  END
>  <CHROM.1>
-161.19163298,-164.39797604,-92.88708784,166.72892184,12.39366243,-45.57348691
14.44270128,-8.01509028,-3.38900401,-2.93723000,0.67770574,0.24381864

>  <Name>
ligand

>  <RI>
0

>  <Rbt.Current_Directory>
/home/itssahil/PROJECTS/Mol_Feturizer/New_Systems/rnas/4F8V

>  <Rbt.Executable>
rbdock ($Id: //depot/dev/client3/rdock/2013.1/src/exe/rbdock.cxx#4 $)

>  <Rbt.Library>
libRbt.so (2013.1, Build901 2013/11/27)

>  <Rbt.Parameter_File>
/export/apps/rDock/src/rDock_2013.1_src/data/scripts/dock_solv.prm

>  <Rbt.Receptor>
prm/blind_docking_100.prm

>  <SCORE>
40.3725

>  <SCORE.INTER>
31.6201

>  <SCORE.INTER.CONST>
1

>  <SCORE.INTER.POLAR>
0

>  <SCORE.INTER.ROT>
6

>  <SCORE.INTER.SOLV>
26.1045

>  <SCORE.INTER.VDW>
4.77858

>  <SCORE.INTER.norm>
1.02

>  <SCORE.INTRA>
0.950077

>  <SCORE.INTRA.DIHEDRAL>
-8.78493

>  <SCORE.INTRA.DIHEDRAL.0>
15.9129

>  <SCORE.INTRA.POLAR>
0

>  <SCORE.INTRA.POLAR.0>
0

>  <SCORE.INTRA.REPUL>
0

>  <SCORE.INTRA.REPUL.0>
0

>  <SCORE.INTRA.SOLV>
-0.904061

>  <SCORE.INTRA.SOLV.lig_0>
-75.7056

>  <SCORE.INTRA.VDW>
5.79457

>  <SCORE.INTRA.VDW.0>
-4.61812

>  <SCORE.INTRA.norm>
0.0306476

>  <SCORE.RESTR>
7.80231

>  <SCORE.RESTR.CAVITY>
7.80231

>  <SCORE.RESTR.norm>
0.251687

>  <SCORE.SYSTEM>
0

>  <SCORE.SYSTEM.CONST>
0

>  <SCORE.SYSTEM.DIHEDRAL>
0

>  <SCORE.SYSTEM.SOLV>
0

>  <SCORE.SYSTEM.norm>
0

>  <SCORE.heavy>
31

>  <SCORE.norm>
1.30234

>  <RMSD>
9.960

$$$$
ligand
 OpenBabel11021811493D
libRbt.so/2013.1/901 2013/11/27
 31 33  0  0  0  0  0  0  0  0999 V2000
   16.9598   -7.1479   -5.4987 C   0  0  2  0  0  0  0  0  0  0  0  0
   16.8990   -6.6411   -4.1585 O   0  0  0  0  0  0  0  0  0  0  0  0
   13.6733   -6.1908   -1.4052 C   0  0  2  0  0  0  0  0  0  0  0  0
   12.4044   -5.8137   -0.8801 N   0  0  0  0  0  0  0  0  0  0  0  0
   11.3059   -8.3223   -2.2539 C   0  0  2  0  0  0  0  0  0  0  0  0
   18.4606   -7.4440   -5.8045 C   0  0  2  0  0  0  0  0  0  0  0  0
   18.9703   -8.3863   -4.8104 N   0  0  0  0  0  0  0  0  0  0  0  0
   14.4776   -4.8953   -1.7981 C   0  0  0  0  0  0  0  0  0  0  0  0
   10.9664   -8.7487   -0.8002 C   0  0  2  0  0  0  0  0  0  0  0  0
   11.4962   -7.7896    0.0863 O   0  0  0  0  0  0  0  0  0  0  0  0
   19.2917   -6.1035   -5.8126 C   0  0  0  0  0  0  0  0  0  0  0  0
   15.8873   -5.3182   -2.3808 C   0  0  2  0  0  0  0  0  0  0  0  0
   16.6448   -4.1063   -2.7543 N   0  0  0  0  0  0  0  0  0  0  0  0
   11.5944  -10.1769   -0.5488 C   0  0  1  0  0  0  0  0  0  0  0  0
   11.3127  -10.6202    0.8459 N   0  0  0  0  0  0  0  0  0  0  0  0
   18.4578   -4.8699   -6.3165 C   0  0  0  0  0  0  0  0  0  0  0  0
   15.6636   -6.2443   -3.6512 C   0  0  2  0  0  0  0  0  0  0  0  0
   10.9529  -11.2456   -1.5961 C   0  0  1  0  0  0  0  0  0  0  0  0
    9.5598  -11.3837   -1.4588 O   0  0  0  0  0  0  0  0  0  0  0  0
   17.1525   -4.9796   -6.6051 C   0  0  1  0  0  0  0  0  0  0  0  0
   16.4548   -6.2031   -6.4802 O   0  0  0  0  0  0  0  0  0  0  0  0
   14.8419   -7.5184   -3.2360 C   0  0  2  0  0  0  0  0  0  0  0  0
   14.6360   -8.3381   -4.3850 O   0  0  0  0  0  0  0  0  0  0  0  0
   11.2477  -10.7662   -3.0511 C   0  0  0  0  0  0  0  0  0  0  0  0
   10.7800   -9.3368   -3.2383 O   0  0  0  0  0  0  0  0  0  0  0  0
   16.3007   -3.7891   -7.0874 C   0  0  0  0  0  0  0  0  0  0  0  0
   15.2259   -3.5729   -6.1438 N   0  0  0  0  0  0  0  0  0  0  0  0
   13.4486   -7.0744   -2.6499 C   0  0  1  0  0  0  0  0  0  0  0  0
   12.7457   -8.2242   -2.2802 O   0  0  0  0  0  0  0  0  0  0  0  0
   11.4649  -12.6882   -1.4768 C   0  0  0  0  0  0  0  0  0  0  0  0
    9.9095  -10.5429    1.2804 C   0  0  0  0  0  0  0  0  0  0  0  0
  1  2  1  1  0  0  0
  1  6  1  0  0  0  0
  1 21  1  0  0  0  0
  3  4  1  6  0  0  0
  3  8  1  0  0  0  0
  3 28  1  0  0  0  0
  5  9  1  0  0  0  0
  5 25  1  0  0  0  0
  5 29  1  1  0  0  0
  6  7  1  1  0  0  0
  6 11  1  0  0  0  0
  8 12  1  0  0  0  0
  9 10  1  1  0  0  0
  9 14  1  0  0  0  0
 11 16  1  0  0  0  0
 12 13  1  6  0  0  0
 12 17  1  0  0  0  0
 14 15  1  1  0  0  0
 14 18  1  0  0  0  0
 15 31  1  0  0  0  0
 16 20  1  0  0  0  0
 17  2  1  1  0  0  0
 17 22  1  0  0  0  0
 18 19  1  1  0  0  0
 18 24  1  0  0  0  0
 18 30  1  0  0  0  0
 20 21  1  0  0  0  0
 20 26  1  1  0  0  0
 22 23  1  6  0  0  0
 22 28  1  0  0  0  0
 24 25  1  0  0  0  0
 26 27  1  0  0  0  0
 28 29  1  1  0  0  0
M  END
>  <CHROM.1>
177.47862597,-123.46162459,50.98707376,-162.23818891,-119.85239777,88.77894439
14.12666486,-7.59760130,-3.10046368,-0.33563588,-0.73746443,-2.84224020

>  <Name>
ligand

>  <RI>
0

>  <Rbt.Current_Directory>
/home/itssahil/PROJECTS/Mol_Feturizer/New_Systems/rnas/4F8V

>  <Rbt.Executable>
rbdock ($Id: //depot/dev/client3/rdock/2013.1/src/exe/rbdock.cxx#4 $)

>  <Rbt.Library>
libRbt.so (2013.1, Build901 2013/11/27)

>  <Rbt.Parameter_File>
/export/apps/rDock/src/rDock_2013.1_src/data/scripts/dock_solv.prm

>  <Rbt.Receptor>
prm/blind_docking_100.prm

>  <SCORE>
0.730688

>  <SCORE.INTER>
-8.99345

>  <SCORE.INTER.CONST>
1

>  <SCORE.INTER.POLAR>
0

>  <SCORE.INTER.ROT>
6

>  <SCORE.INTER.SOLV>
18.3939

>  <SCORE.INTER.VDW>
-19.7269

>  <SCORE.INTER.norm>
-0.290111

>  <SCORE.INTRA>
3.83762

>  <SCORE.INTRA.DIHEDRAL>
-2.1764

>  <SCORE.INTRA.DIHEDRAL.0>
15.9129

>  <SCORE.INTRA.POLAR>
0

>  <SCORE.INTRA.POLAR.0>
0

>  <SCORE.INTRA.REPUL>
0

>  <SCORE.INTRA.REPUL.0>
0

>  <SCORE.INTRA.SOLV>
1.97894

>  <SCORE.INTRA.SOLV.lig_0>
-75.7056

>  <SCORE.INTRA.VDW>
3.93635

>  <SCORE.INTRA.VDW.0>
-4.61812

>  <SCORE.INTRA.norm>
0.123794

>  <SCORE.RESTR>
5.88652

>  <SCORE.RESTR.CAVITY>
5.88652

>  <SCORE.RESTR.norm>
0.189888

>  <SCORE.SYSTEM>
0

>  <SCORE.SYSTEM.CONST>
0

>  <SCORE.SYSTEM.DIHEDRAL>
0

>  <SCORE.SYSTEM.SOLV>
0

>  <SCORE.SYSTEM.norm>
0

>  <SCORE.heavy>
31

>  <SCORE.norm>
0.0235706

>  <RMSD>
9.987

$$$$
ligand
 OpenBabel11021811493D
libRbt.so/2013.1/901 2013/11/27
 31 33  0  0  0  0  0  0  0  0999 V2000
   21.8915   -5.2409   -6.5805 C   0  0  2  0  0  0  0  0  0  0  0  0
   21.3473   -6.5356   -6.8705 O   0  0  0  0  0  0  0  0  0  0  0  0
   17.4198   -8.0064   -6.0961 C   0  0  2  0  0  0  0  0  0  0  0  0
   16.2663   -8.4279   -5.3751 N   0  0  0  0  0  0  0  0  0  0  0  0
   15.3481   -5.8287   -5.4560 C   0  0  2  0  0  0  0  0  0  0  0  0
   23.1059   -5.0339   -7.5377 C   0  0  2  0  0  0  0  0  0  0  0  0
   22.6491   -5.1687   -8.9195 N   0  0  0  0  0  0  0  0  0  0  0  0
   18.6305   -8.9451   -5.7321 C   0  0  0  0  0  0  0  0  0  0  0  0
   14.6693   -4.4694   -5.7753 C   0  0  2  0  0  0  0  0  0  0  0  0
   14.6629   -4.2860   -7.1727 O   0  0  0  0  0  0  0  0  0  0  0  0
   24.2492   -6.0672   -7.2016 C   0  0  0  0  0  0  0  0  0  0  0  0
   19.9104   -8.4739   -6.5355 C   0  0  2  0  0  0  0  0  0  0  0  0
   21.0505   -9.3494   -6.1950 N   0  0  0  0  0  0  0  0  0  0  0  0
   15.4868   -3.3300   -5.0469 C   0  0  1  0  0  0  0  0  0  0  0  0
   14.8838   -1.9997   -5.3431 N   0  0  0  0  0  0  0  0  0  0  0  0
   24.3111   -6.4356   -5.6747 C   0  0  0  0  0  0  0  0  0  0  0  0
   20.2352   -6.9678   -6.1512 C   0  0  2  0  0  0  0  0  0  0  0  0
   15.4657   -3.5876   -3.4394 C   0  0  1  0  0  0  0  0  0  0  0  0
   14.1687   -3.5694   -2.8952 O   0  0  0  0  0  0  0  0  0  0  0  0
   23.4027   -5.9681   -4.8056 C   0  0  1  0  0  0  0  0  0  0  0  0
   22.3465   -5.1176   -5.2062 O   0  0  0  0  0  0  0  0  0  0  0  0
   19.0044   -6.0566   -6.5054 C   0  0  2  0  0  0  0  0  0  0  0  0
   19.3007   -4.7083   -6.1462 O   0  0  0  0  0  0  0  0  0  0  0  0
   16.0919   -4.9855   -3.1437 C   0  0  0  0  0  0  0  0  0  0  0  0
   15.4016   -6.0552   -3.9658 O   0  0  0  0  0  0  0  0  0  0  0  0
   23.4238   -6.3198   -3.3052 C   0  0  0  0  0  0  0  0  0  0  0  0
   24.0227   -5.2222   -2.5779 N   0  0  0  0  0  0  0  0  0  0  0  0
   17.7408   -6.5492   -5.7037 C   0  0  1  0  0  0  0  0  0  0  0  0
   16.6618   -5.7296   -6.0457 O   0  0  0  0  0  0  0  0  0  0  0  0
   16.2214   -2.5578   -2.5875 C   0  0  0  0  0  0  0  0  0  0  0  0
   15.6258   -1.1461   -6.2836 C   0  0  0  0  0  0  0  0  0  0  0  0
  1  2  1  1  0  0  0
  1  6  1  0  0  0  0
  1 21  1  0  0  0  0
  3  4  1  1  0  0  0
  3  8  1  0  0  0  0
  3 28  1  0  0  0  0
  5  9  1  0  0  0  0
  5 25  1  0  0  0  0
  5 29  1  1  0  0  0
  6  7  1  6  0  0  0
  6 11  1  0  0  0  0
  8 12  1  0  0  0  0
  9 10  1  6  0  0  0
  9 14  1  0  0  0  0
 11 16  1  0  0  0  0
 12 13  1  1  0  0  0
 12 17  1  0  0  0  0
 14 15  1  1  0  0  0
 14 18  1  0  0  0  0
 15 31  1  0  0  0  0
 16 20  1  0  0  0  0
 17  2  1  6  0  0  0
 17 22  1  0  0  0  0
 18 19  1  1  0  0  0
 18 24  1  0  0  0  0
 18 30  1  0  0  0  0
 20 21  1  0  0  0  0
 20 26  1  6  0  0  0
 22 23  1  1  0  0  0
 22 28  1  0  0  0  0
 24 25  1  0  0  0  0
 26 27  1  0  0  0  0
 28 29  1  6  0  0  0
M  END
>  <CHROM.1>
-179.61351283,161.55056868,-106.07963187,-174.12207519,99.79810509,64.44636518
18.83427399,-5.52067201,-5.48331946,-0.31775655,0.04802090,0.33135045

>  <Name>
ligand

>  <RI>
0

>  <Rbt.Current_Directory>
/home/itssahil/PROJECTS/Mol_Feturizer/New_Systems/rnas/4F8V

>  <Rbt.Executable>
rbdock ($Id: //depot/dev/client3/rdock/2013.1/src/exe/rbdock.cxx#4 $)

>  <Rbt.Library>
libRbt.so (2013.1, Build901 2013/11/27)

>  <Rbt.Parameter_File>
/export/apps/rDock/src/rDock_2013.1_src/data/scripts/dock_solv.prm

>  <Rbt.Receptor>
prm/pocket_docking_8.prm

>  <SCORE>
-15.5514

>  <SCORE.INTER>
-11.3146

>  <SCORE.INTER.CONST>
1

>  <SCORE.INTER.POLAR>
0

>  <SCORE.INTER.ROT>
6

>  <SCORE.INTER.SOLV>
24.8934

>  <SCORE.INTER.VDW>
-23.4409

>  <SCORE.INTER.norm>
-0.364988

>  <SCORE.INTRA>
-4.31217

>  <SCORE.INTRA.DIHEDRAL>
-10.8753

>  <SCORE.INTRA.DIHEDRAL.0>
15.9129

>  <SCORE.INTRA.POLAR>
0

>  <SCORE.INTRA.POLAR.0>
0

>  <SCORE.INTRA.REPUL>
0

>  <SCORE.INTRA.REPUL.0>
0

>  <SCORE.INTRA.SOLV>
-2.01932

>  <SCORE.INTRA.SOLV.lig_0>
-75.7056

>  <SCORE.INTRA.VDW>
2.13513

>  <SCORE.INTRA.VDW.0>
-4.61812

>  <SCORE.INTRA.norm>
-0.139102

>  <SCORE.RESTR>
0.0753922

>  <SCORE.RESTR.CAVITY>
0.0753922

>  <SCORE.RESTR.norm>
0.00243201

>  <SCORE.SYSTEM>
0

>  <SCORE.SYSTEM.CONST>
0

>  <SCORE.SYSTEM.DIHEDRAL>
0

>  <SCORE.SYSTEM.SOLV>
0

>  <SCORE.SYSTEM.norm>
0

>  <SCORE.heavy>
31

>  <SCORE.norm>
-0.501659

>  <RMSD>
9.987

$$$$
ligand
 OpenBabel11021811493D
libRbt.so/2013.1/901 2013/11/27
 31 33  0  0  0  0  0  0  0  0999 V2000
   16.9027   -7.1132   -5.5766 C   0  0  2  0  0  0  0  0  0  0  0  0
   16.8709   -6.6576   -4.2172 O   0  0  0  0  0  0  0  0  0  0  0  0
   13.7149   -6.2001   -1.3854 C   0  0  2  0  0  0  0  0  0  0  0  0
   12.4623   -5.8156   -0.8277 N   0  0  0  0  0  0  0  0  0  0  0  0
   11.3078   -8.3131   -2.2289 C   0  0  2  0  0  0  0  0  0  0  0  0
   18.3970   -7.3924   -5.9271 C   0  0  2  0  0  0  0  0  0  0  0  0
   18.9315   -8.3697   -4.9810 N   0  0  0  0  0  0  0  0  0  0  0  0
   14.5221   -4.9089   -1.7866 C   0  0  0  0  0  0  0  0  0  0  0  0
   10.9677   -8.7459   -0.7771 C   0  0  2  0  0  0  0  0  0  0  0  0
   11.4994   -7.7920    0.1139 O   0  0  0  0  0  0  0  0  0  0  0  0
   19.2242   -6.0496   -5.9031 C   0  0  0  0  0  0  0  0  0  0  0  0
   15.9136   -5.3401   -2.4056 C   0  0  2  0  0  0  0  0  0  0  0  0
   16.6738   -4.1322   -2.7870 N   0  0  0  0  0  0  0  0  0  0  0  0
   11.5932  -10.1764   -0.5327 C   0  0  1  0  0  0  0  0  0  0  0  0
   11.3110  -10.6259    0.8599 N   0  0  0  0  0  0  0  0  0  0  0  0
   18.3760   -4.8008   -6.3411 C   0  0  0  0  0  0  0  0  0  0  0  0
   15.6515   -6.2535   -3.6778 C   0  0  2  0  0  0  0  0  0  0  0  0
   10.9497  -11.2390   -1.5850 C   0  0  1  0  0  0  0  0  0  0  0  0
    9.5564  -11.3752   -1.4482 O   0  0  0  0  0  0  0  0  0  0  0  0
   17.0648   -4.9040   -6.6043 C   0  0  1  0  0  0  0  0  0  0  0  0
   16.3732   -6.1337   -6.5101 O   0  0  0  0  0  0  0  0  0  0  0  0
   14.8277   -7.5233   -3.2538 C   0  0  2  0  0  0  0  0  0  0  0  0
   14.5872   -8.3315   -4.4043 O   0  0  0  0  0  0  0  0  0  0  0  0
   11.2452  -10.7530   -3.0377 C   0  0  0  0  0  0  0  0  0  0  0  0
   10.7801   -9.3220   -3.2180 O   0  0  0  0  0  0  0  0  0  0  0  0
   16.1992   -3.6991   -7.0219 C   0  0  0  0  0  0  0  0  0  0  0  0
   15.0471   -3.6288   -6.1502 N   0  0  0  0  0  0  0  0  0  0  0  0
   13.4528   -7.0712   -2.6316 C   0  0  1  0  0  0  0  0  0  0  0  0
   12.7478   -8.2174   -2.2548 O   0  0  0  0  0  0  0  0  0  0  0  0
   11.4592  -12.6829   -1.4726 C   0  0  0  0  0  0  0  0  0  0  0  0
    9.9102  -10.5350    1.2996 C   0  0  0  0  0  0  0  0  0  0  0  0
  1  2  1  1  0  0  0
  1  6  1  0  0  0  0
  1 21  1  0  0  0  0
  3  4  1  6  0  0  0
  3  8  1  0  0  0  0
  3 28  1  0  0  0  0
  5  9  1  0  0  0  0
  5 25  1  0  0  0  0
  5 29  1  1  0  0  0
  6  7  1  1  0  0  0
  6 11  1  0  0  0  0
  8 12  1  0  0  0  0
  9 10  1  1  0  0  0
  9 14  1  0  0  0  0
 11 16  1  0  0  0  0
 12 13  1  6  0  0  0
 12 17  1  0  0  0  0
 14 15  1  1  0  0  0
 14 18  1  0  0  0  0
 15 31  1  0  0  0  0
 16 20  1  0  0  0  0
 17  2  1  1  0  0  0
 17 22  1  0  0  0  0
 18 19  1  1  0  0  0
 18 24  1  0  0  0  0
 18 30  1  0  0  0  0
 20 21  1  0  0  0  0
 20 26  1  1  0  0  0
 22 23  1  6  0  0  0
 22 28  1  0  0  0  0
 24 25  1  0  0  0  0
 26 27  1  0  0  0  0
 28 29  1  1  0  0  0
M  END
>  <CHROM.1>
175.93157055,-124.11451561,50.37399190,-160.25531790,-127.30112989,90.45758515
14.10498015,-7.58536486,-3.11057162,-0.32188715,-0.75274494,-2.82136882

>  <Name>
ligand

>  <RI>
0

>  <Rbt.Current_Directory>
/home/itssahil/PROJECTS/Mol_Feturizer/New_Systems/rnas/4F8V

>  <Rbt.Executable>
rbdock ($Id: //depot/dev/client3/rdock/2013.1/src/exe/rbdock.cxx#4 $)

>  <Rbt.Library>
libRbt.so (2013.1, Build901 2013/11/27)

>  <Rbt.Parameter_File>
/export/apps/rDock/src/rDock_2013.1_src/data/scripts/dock_solv.prm

>  <Rbt.Receptor>
prm/blind_docking_100.prm

>  <SCORE>
1.01365

>  <SCORE.INTER>
-8.81875

>  <SCORE.INTER.CONST>
1

>  <SCORE.INTER.POLAR>
0

>  <SCORE.INTER.ROT>
6

>  <SCORE.INTER.SOLV>
18.3938

>  <SCORE.INTER.VDW>
-19.6104

>  <SCORE.INTER.norm>
-0.284476

>  <SCORE.INTRA>
4.03063

>  <SCORE.INTRA.DIHEDRAL>
-1.44646

>  <SCORE.INTRA.DIHEDRAL.0>
15.9129

>  <SCORE.INTRA.POLAR>
0

>  <SCORE.INTRA.POLAR.0>
0

>  <SCORE.INTRA.REPUL>
0

>  <SCORE.INTRA.REPUL.0>
0

>  <SCORE.INTRA.SOLV>
2.10326

>  <SCORE.INTRA.SOLV.lig_0>
-75.7056

>  <SCORE.INTRA.VDW>
3.70223

>  <SCORE.INTRA.VDW.0>
-4.61812

>  <SCORE.INTRA.norm>
0.13002

>  <SCORE.RESTR>
5.80177

>  <SCORE.RESTR.CAVITY>
5.80177

>  <SCORE.RESTR.norm>
0.187154

>  <SCORE.SYSTEM>
0

>  <SCORE.SYSTEM.CONST>
0

>  <SCORE.SYSTEM.DIHEDRAL>
0

>  <SCORE.SYSTEM.SOLV>
0

>  <SCORE.SYSTEM.norm>
0

>  <SCORE.heavy>
31

>  <SCORE.norm>
0.0326983

>  <RMSD>
9.990

$$$$
ligand
 OpenBabel11021811493D
libRbt.so/2013.1/901 2013/11/27
 31 33  0  0  0  0  0  0  0  0999 V2000
   16.9141   -7.1246   -5.5618 C   0  0  2  0  0  0  0  0  0  0  0  0
   16.8762   -6.6562   -4.2070 O   0  0  0  0  0  0  0  0  0  0  0  0
   13.7008   -6.2139   -1.3946 C   0  0  2  0  0  0  0  0  0  0  0  0
   12.4442   -5.8329   -0.8436 N   0  0  0  0  0  0  0  0  0  0  0  0
   11.3008   -8.3195   -2.2485 C   0  0  2  0  0  0  0  0  0  0  0  0
   18.4099   -7.4076   -5.9029 C   0  0  2  0  0  0  0  0  0  0  0  0
   18.9397   -8.3761   -4.9452 N   0  0  0  0  0  0  0  0  0  0  0  0
   14.5098   -4.9204   -1.7842 C   0  0  0  0  0  0  0  0  0  0  0  0
   10.9652   -8.7546   -0.7965 C   0  0  2  0  0  0  0  0  0  0  0  0
   11.5030   -7.8042    0.0946 O   0  0  0  0  0  0  0  0  0  0  0  0
   19.2374   -6.0649   -5.8879 C   0  0  0  0  0  0  0  0  0  0  0  0
   15.9058   -5.3478   -2.3958 C   0  0  2  0  0  0  0  0  0  0  0  0
   16.6677   -4.1376   -2.7664 N   0  0  0  0  0  0  0  0  0  0  0  0
   11.5876  -10.1873   -0.5577 C   0  0  1  0  0  0  0  0  0  0  0  0
   11.3095  -10.6392    0.8350 N   0  0  0  0  0  0  0  0  0  0  0  0
   18.3915   -4.8201   -6.3416 C   0  0  0  0  0  0  0  0  0  0  0  0
   15.6530   -6.2554   -3.6740 C   0  0  2  0  0  0  0  0  0  0  0  0
   10.9369  -11.2457   -1.6099 C   0  0  1  0  0  0  0  0  0  0  0  0
    9.5437  -11.3783   -1.4679 O   0  0  0  0  0  0  0  0  0  0  0  0
   17.0815   -4.9254   -6.6097 C   0  0  1  0  0  0  0  0  0  0  0  0
   16.3891   -6.1539   -6.5069 O   0  0  0  0  0  0  0  0  0  0  0  0
   14.8271   -7.5277   -3.2615 C   0  0  2  0  0  0  0  0  0  0  0  0
   14.5950   -8.3307   -4.4174 O   0  0  0  0  0  0  0  0  0  0  0  0
   11.2281  -10.7574   -3.0626 C   0  0  0  0  0  0  0  0  0  0  0  0
   10.7663   -9.3246   -3.2379 O   0  0  0  0  0  0  0  0  0  0  0  0
   16.2183   -3.7242   -7.0426 C   0  0  0  0  0  0  0  0  0  0  0  0
   15.0872   -3.6168   -6.1474 N   0  0  0  0  0  0  0  0  0  0  0  0
   13.4477   -7.0794   -2.6466 C   0  0  1  0  0  0  0  0  0  0  0  0
   12.7409   -8.2278   -2.2799 O   0  0  0  0  0  0  0  0  0  0  0  0
   11.4428  -12.6914   -1.5027 C   0  0  0  0  0  0  0  0  0  0  0  0
    9.9103  -10.5471    1.2798 C   0  0  0  0  0  0  0  0  0  0  0  0
  1  2  1  1  0  0  0
  1  6  1  0  0  0  0
  1 21  1  0  0  0  0
  3  4  1  6  0  0  0
  3  8  1  0  0  0  0
  3 28  1  0  0  0  0
  5  9  1  0  0  0  0
  5 25  1  0  0  0  0
  5 29  1  1  0  0  0
  6  7  1  1  0  0  0
  6 11  1  0  0  0  0
  8 12  1  0  0  0  0
  9 10  1  1  0  0  0
  9 14  1  0  0  0  0
 11 16  1  0  0  0  0
 12 13  1  6  0  0  0
 12 17  1  0  0  0  0
 14 15  1  1  0  0  0
 14 18  1  0  0  0  0
 15 31  1  0  0  0  0
 16 20  1  0  0  0  0
 17  2  1  1  0  0  0
 17 22  1  0  0  0  0
 18 19  1  1  0  0  0
 18 24  1  0  0  0  0
 18 30  1  0  0  0  0
 20 21  1  0  0  0  0
 20 26  1  1  0  0  0
 22 23  1  6  0  0  0
 22 28  1  0  0  0  0
 24 25  1  0  0  0  0
 26 27  1  0  0  0  0
 28 29  1  1  0  0  0
M  END
>  <CHROM.1>
176.37027470,-123.57669927,50.45649206,-161.19174268,-125.29086046,89.66915245
14.10535289,-7.59461763,-3.11780533,-0.32067304,-0.74945950,-2.81825618

>  <Name>
ligand

>  <RI>
0

>  <Rbt.Current_Directory>
/home/itssahil/PROJECTS/Mol_Feturizer/New_Systems/rnas/4F8V

>  <Rbt.Executable>
rbdock ($Id: //depot/dev/client3/rdock/2013.1/src/exe/rbdock.cxx#4 $)

>  <Rbt.Library>
libRbt.so (2013.1, Build901 2013/11/27)

>  <Rbt.Parameter_File>
/export/apps/rDock/src/rDock_2013.1_src/data/scripts/dock_solv.prm

>  <Rbt.Receptor>
prm/blind_docking_100.prm

>  <SCORE>
0.882995

>  <SCORE.INTER>
-8.95074

>  <SCORE.INTER.CONST>
1

>  <SCORE.INTER.POLAR>
0

>  <SCORE.INTER.ROT>
6

>  <SCORE.INTER.SOLV>
18.4057

>  <SCORE.INTER.VDW>
-19.7024

>  <SCORE.INTER.norm>
-0.288734

>  <SCORE.INTRA>
4.00287

>  <SCORE.INTRA.DIHEDRAL>
-1.77434

>  <SCORE.INTRA.DIHEDRAL.0>
15.9129

>  <SCORE.INTRA.POLAR>
0

>  <SCORE.INTRA.POLAR.0>
0

>  <SCORE.INTRA.REPUL>
0

>  <SCORE.INTRA.REPUL.0>
0

>  <SCORE.INTRA.SOLV>
2.03427

>  <SCORE.INTRA.SOLV.lig_0>
-75.7056

>  <SCORE.INTRA.VDW>
3.87291

>  <SCORE.INTRA.VDW.0>
-4.61812

>  <SCORE.INTRA.norm>
0.129125

>  <SCORE.RESTR>
5.83087

>  <SCORE.RESTR.CAVITY>
5.83087

>  <SCORE.RESTR.norm>
0.188093

>  <SCORE.SYSTEM>
0

>  <SCORE.SYSTEM.CONST>
0

>  <SCORE.SYSTEM.DIHEDRAL>
0

>  <SCORE.SYSTEM.SOLV>
0

>  <SCORE.SYSTEM.norm>
0

>  <SCORE.heavy>
31

>  <SCORE.norm>
0.0284837

>  <RMSD>
9.990

$$$$
ligand
 OpenBabel11021811493D
libRbt.so/2013.1/901 2013/11/27
 31 33  0  0  0  0  0  0  0  0999 V2000
   22.1925   -5.1481   -6.5102 C   0  0  2  0  0  0  0  0  0  0  0  0
   21.5704   -6.4071   -6.8003 O   0  0  0  0  0  0  0  0  0  0  0  0
   17.5368   -7.5855   -6.0723 C   0  0  2  0  0  0  0  0  0  0  0  0
   16.3489   -7.9268   -5.3649 N   0  0  0  0  0  0  0  0  0  0  0  0
   15.5905   -5.3508   -5.5311 C   0  0  2  0  0  0  0  0  0  0  0  0
   23.4383   -5.0318   -7.4420 C   0  0  2  0  0  0  0  0  0  0  0  0
   23.0036   -5.1510   -8.8322 N   0  0  0  0  0  0  0  0  0  0  0  0
   18.6701   -8.6172   -5.7107 C   0  0  0  0  0  0  0  0  0  0  0  0
   15.0488   -3.8977   -5.6061 C   0  0  2  0  0  0  0  0  0  0  0  0
   15.1731   -3.4382   -6.9326 O   0  0  0  0  0  0  0  0  0  0  0  0
   24.5034   -6.1344   -7.0708 C   0  0  0  0  0  0  0  0  0  0  0  0
   19.9885   -8.2349   -6.4990 C   0  0  2  0  0  0  0  0  0  0  0  0
   21.0564   -9.1980   -6.1607 N   0  0  0  0  0  0  0  0  0  0  0  0
   15.8894   -3.0089   -4.6057 C   0  0  1  0  0  0  0  0  0  0  0  0
   15.4188   -1.5958   -4.6592 N   0  0  0  0  0  0  0  0  0  0  0  0
   24.5077   -6.4897   -5.5396 C   0  0  0  0  0  0  0  0  0  0  0  0
   20.4230   -6.7622   -6.0943 C   0  0  2  0  0  0  0  0  0  0  0  0
   15.7145   -3.5802   -3.0912 C   0  0  1  0  0  0  0  0  0  0  0  0
   14.3821   -3.5503   -2.6412 O   0  0  0  0  0  0  0  0  0  0  0  0
   23.6135   -5.9540   -4.6953 C   0  0  1  0  0  0  0  0  0  0  0  0
   22.6248   -5.0402   -5.1272 O   0  0  0  0  0  0  0  0  0  0  0  0
   19.2673   -5.7566   -6.4466 C   0  0  2  0  0  0  0  0  0  0  0  0
   19.6616   -4.4387   -6.0691 O   0  0  0  0  0  0  0  0  0  0  0  0
   16.2028   -5.0613   -3.0506 C   0  0  0  0  0  0  0  0  0  0  0  0
   15.5019   -5.8753   -4.1197 O   0  0  0  0  0  0  0  0  0  0  0  0
   23.5789   -6.2903   -3.1916 C   0  0  0  0  0  0  0  0  0  0  0  0
   24.0628   -5.1481   -2.4477 N   0  0  0  0  0  0  0  0  0  0  0  0
   17.9637   -6.1613   -5.6601 C   0  0  1  0  0  0  0  0  0  0  0  0
   16.9525   -5.2587   -6.0001 O   0  0  0  0  0  0  0  0  0  0  0  0
   16.4747   -2.8173   -1.9970 C   0  0  0  0  0  0  0  0  0  0  0  0
   16.4666   -0.5643   -4.7034 C   0  0  0  0  0  0  0  0  0  0  0  0
  1  2  1  1  0  0  0
  1  6  1  0  0  0  0
  1 21  1  0  0  0  0
  3  4  1  1  0  0  0
  3  8  1  0  0  0  0
  3 28  1  0  0  0  0
  5  9  1  0  0  0  0
  5 25  1  0  0  0  0
  5 29  1  1  0  0  0
  6  7  1  6  0  0  0
  6 11  1  0  0  0  0
  8 12  1  0  0  0  0
  9 10  1  6  0  0  0
  9 14  1  0  0  0  0
 11 16  1  0  0  0  0
 12 13  1  1  0  0  0
 12 17  1  0  0  0  0
 14 15  1  1  0  0  0
 14 18  1  0  0  0  0
 15 31  1  0  0  0  0
 16 20  1  0  0  0  0
 17  2  1  6  0  0  0
 17 22  1  0  0  0  0
 18 19  1  1  0  0  0
 18 24  1  0  0  0  0
 18 30  1  0  0  0  0
 20 21  1  0  0  0  0
 20 26  1  6  0  0  0
 22 23  1  1  0  0  0
 22 28  1  0  0  0  0
 24 25  1  0  0  0  0
 26 27  1  0  0  0  0
 28 29  1  6  0  0  0
M  END
>  <CHROM.1>
179.87639083,155.19988249,-135.67021524,-175.39980169,107.66969384,57.48383457
19.08933014,-5.30431773,-5.29994070,-0.36950105,0.03686640,0.46195468

>  <Name>
ligand

>  <RI>
0

>  <Rbt.Current_Directory>
/home/itssahil/PROJECTS/Mol_Feturizer/New_Systems/rnas/4F8V

>  <Rbt.Executable>
rbdock ($Id: //depot/dev/client3/rdock/2013.1/src/exe/rbdock.cxx#4 $)

>  <Rbt.Library>
libRbt.so (2013.1, Build901 2013/11/27)

>  <Rbt.Parameter_File>
/export/apps/rDock/src/rDock_2013.1_src/data/scripts/dock_solv.prm

>  <Rbt.Receptor>
prm/pocket_docking_7.prm

>  <SCORE>
-16.1062

>  <SCORE.INTER>
-13.3945

>  <SCORE.INTER.CONST>
1

>  <SCORE.INTER.POLAR>
0

>  <SCORE.INTER.ROT>
6

>  <SCORE.INTER.SOLV>
22.4596

>  <SCORE.INTER.VDW>
-24.0162

>  <SCORE.INTER.norm>
-0.432081

>  <SCORE.INTRA>
-2.71171

>  <SCORE.INTRA.DIHEDRAL>
-10.2616

>  <SCORE.INTRA.DIHEDRAL.0>
15.9129

>  <SCORE.INTRA.POLAR>
0

>  <SCORE.INTRA.POLAR.0>
0

>  <SCORE.INTRA.REPUL>
0

>  <SCORE.INTRA.REPUL.0>
0

>  <SCORE.INTRA.SOLV>
-1.56294

>  <SCORE.INTRA.SOLV.lig_0>
-75.7056

>  <SCORE.INTRA.VDW>
3.20055

>  <SCORE.INTRA.VDW.0>
-4.61812

>  <SCORE.INTRA.norm>
-0.0874747

>  <SCORE.RESTR>
0

>  <SCORE.RESTR.CAVITY>
0

>  <SCORE.RESTR.norm>
0

>  <SCORE.SYSTEM>
0

>  <SCORE.SYSTEM.CONST>
0

>  <SCORE.SYSTEM.DIHEDRAL>
0

>  <SCORE.SYSTEM.SOLV>
0

>  <SCORE.SYSTEM.norm>
0

>  <SCORE.heavy>
31

>  <SCORE.norm>
-0.519556

>  <RMSD>
9.992

$$$$
ligand
 OpenBabel11021811493D
libRbt.so/2013.1/901 2013/11/27
 31 33  0  0  0  0  0  0  0  0999 V2000
   16.8160   -7.1171   -5.6490 C   0  0  2  0  0  0  0  0  0  0  0  0
   16.8202   -6.6892   -4.2803 O   0  0  0  0  0  0  0  0  0  0  0  0
   13.7392   -6.2407   -1.3656 C   0  0  2  0  0  0  0  0  0  0  0  0
   12.5044   -5.8521   -0.7721 N   0  0  0  0  0  0  0  0  0  0  0  0
   11.2915   -8.3296   -2.2084 C   0  0  2  0  0  0  0  0  0  0  0  0
   18.2818   -7.5158   -6.0046 C   0  0  2  0  0  0  0  0  0  0  0  0
   18.7285   -8.5550   -5.0791 N   0  0  0  0  0  0  0  0  0  0  0  0
   14.5487   -4.9518   -1.7694 C   0  0  0  0  0  0  0  0  0  0  0  0
   10.9548   -8.7781   -0.7606 C   0  0  2  0  0  0  0  0  0  0  0  0
   11.4913   -7.8357    0.1396 O   0  0  0  0  0  0  0  0  0  0  0  0
   19.2208   -6.2496   -5.9517 C   0  0  0  0  0  0  0  0  0  0  0  0
   15.9204   -5.3875   -2.4283 C   0  0  2  0  0  0  0  0  0  0  0  0
   16.6826   -4.1817   -2.8122 N   0  0  0  0  0  0  0  0  0  0  0  0
   11.5777  -10.2127   -0.5344 C   0  0  1  0  0  0  0  0  0  0  0  0
   11.2985  -10.6775    0.8538 N   0  0  0  0  0  0  0  0  0  0  0  0
   18.4835   -4.9238   -6.3636 C   0  0  0  0  0  0  0  0  0  0  0  0
   15.6184   -6.2811   -3.7057 C   0  0  2  0  0  0  0  0  0  0  0  0
   10.9285  -11.2618   -1.5968 C   0  0  1  0  0  0  0  0  0  0  0  0
    9.5352  -11.3963   -1.4574 O   0  0  0  0  0  0  0  0  0  0  0  0
   17.1689   -4.9088   -6.6295 C   0  0  1  0  0  0  0  0  0  0  0  0
   16.3744   -6.0765   -6.5617 O   0  0  0  0  0  0  0  0  0  0  0  0
   14.7930   -7.5488   -3.2783 C   0  0  2  0  0  0  0  0  0  0  0  0
   14.5165   -8.3391   -4.4331 O   0  0  0  0  0  0  0  0  0  0  0  0
   11.2208  -10.7600   -3.0448 C   0  0  0  0  0  0  0  0  0  0  0  0
   10.7584   -9.3259   -3.2074 O   0  0  0  0  0  0  0  0  0  0  0  0
   16.4107   -3.6257   -7.0220 C   0  0  0  0  0  0  0  0  0  0  0  0
   15.2844   -3.4589   -6.1298 N   0  0  0  0  0  0  0  0  0  0  0  0
   13.4382   -7.0924   -2.6165 C   0  0  1  0  0  0  0  0  0  0  0  0
   12.7316   -8.2370   -2.2376 O   0  0  0  0  0  0  0  0  0  0  0  0
   11.4349  -12.7081   -1.5025 C   0  0  0  0  0  0  0  0  0  0  0  0
    9.9020  -10.5739    1.3042 C   0  0  0  0  0  0  0  0  0  0  0  0
  1  2  1  1  0  0  0
  1  6  1  0  0  0  0
  1 21  1  0  0  0  0
  3  4  1  6  0  0  0
  3  8  1  0  0  0  0
  3 28  1  0  0  0  0
  5  9  1  0  0  0  0
  5 25  1  0  0  0  0
  5 29  1  1  0  0  0
  6  7  1  1  0  0  0
  6 11  1  0  0  0  0
  8 12  1  0  0  0  0
  9 10  1  1  0  0  0
  9 14  1  0  0  0  0
 11 16  1  0  0  0  0
 12 13  1  6  0  0  0
 12 17  1  0  0  0  0
 14 15  1  1  0  0  0
 14 18  1  0  0  0  0
 15 31  1  0  0  0  0
 16 20  1  0  0  0  0
 17  2  1  1  0  0  0
 17 22  1  0  0  0  0
 18 19  1  1  0  0  0
 18 24  1  0  0  0  0
 18 30  1  0  0  0  0
 20 21  1  0  0  0  0
 20 26  1  1  0  0  0
 22 23  1  6  0  0  0
 22 28  1  0  0  0  0
 24 25  1  0  0  0  0
 26 27  1  0  0  0  0
 28 29  1  1  0  0  0
M  END
>  <CHROM.1>
-179.67249300,-124.79261599,49.69404416,-159.79096402,-125.99661068,92.02112121
14.10317689,-7.61655149,-3.12442547,-0.30580801,-0.76056608,-2.80127608

>  <Name>
ligand

>  <RI>
0

>  <Rbt.Current_Directory>
/home/itssahil/PROJECTS/Mol_Feturizer/New_Systems/rnas/4F8V

>  <Rbt.Executable>
rbdock ($Id: //depot/dev/client3/rdock/2013.1/src/exe/rbdock.cxx#4 $)

>  <Rbt.Library>
libRbt.so (2013.1, Build901 2013/11/27)

>  <Rbt.Parameter_File>
/export/apps/rDock/src/rDock_2013.1_src/data/scripts/dock_solv.prm

>  <Rbt.Receptor>
prm/blind_docking_100.prm

>  <SCORE>
1.4982

>  <SCORE.INTER>
-8.26606

>  <SCORE.INTER.CONST>
1

>  <SCORE.INTER.POLAR>
0

>  <SCORE.INTER.ROT>
6

>  <SCORE.INTER.SOLV>
19.0526

>  <SCORE.INTER.VDW>
-19.4616

>  <SCORE.INTER.norm>
-0.266647

>  <SCORE.INTRA>
4.05859

>  <SCORE.INTRA.DIHEDRAL>
-1.19888

>  <SCORE.INTRA.DIHEDRAL.0>
15.9129

>  <SCORE.INTRA.POLAR>
0

>  <SCORE.INTRA.POLAR.0>
0

>  <SCORE.INTRA.REPUL>
0

>  <SCORE.INTRA.REPUL.0>
0

>  <SCORE.INTRA.SOLV>
2.10711

>  <SCORE.INTRA.SOLV.lig_0>
-75.7056

>  <SCORE.INTRA.VDW>
3.60447

>  <SCORE.INTRA.VDW.0>
-4.61812

>  <SCORE.INTRA.norm>
0.130922

>  <SCORE.RESTR>
5.70567

>  <SCORE.RESTR.CAVITY>
5.70567

>  <SCORE.RESTR.norm>
0.184054

>  <SCORE.SYSTEM>
0

>  <SCORE.SYSTEM.CONST>
0

>  <SCORE.SYSTEM.DIHEDRAL>
0

>  <SCORE.SYSTEM.SOLV>
0

>  <SCORE.SYSTEM.norm>
0

>  <SCORE.heavy>
31

>  <SCORE.norm>
0.0483291

>  <RMSD>
9.994

$$$$
ligand
 OpenBabel11021811493D
libRbt.so/2013.1/901 2013/11/27
 31 33  0  0  0  0  0  0  0  0999 V2000
   16.8134   -7.0884   -5.6827 C   0  0  2  0  0  0  0  0  0  0  0  0
   16.8180   -6.7008   -4.3021 O   0  0  0  0  0  0  0  0  0  0  0  0
   13.7525   -6.2478   -1.3719 C   0  0  2  0  0  0  0  0  0  0  0  0
   12.5218   -5.8565   -0.7717 N   0  0  0  0  0  0  0  0  0  0  0  0
   11.2942   -8.3316   -2.2185 C   0  0  2  0  0  0  0  0  0  0  0  0
   18.2838   -7.4508   -6.0575 C   0  0  2  0  0  0  0  0  0  0  0  0
   18.7536   -8.5088   -5.1653 N   0  0  0  0  0  0  0  0  0  0  0  0
   14.5640   -4.9607   -1.7773 C   0  0  0  0  0  0  0  0  0  0  0  0
   10.9517   -8.7729   -0.7699 C   0  0  2  0  0  0  0  0  0  0  0  0
   11.4850   -7.8263    0.1278 O   0  0  0  0  0  0  0  0  0  0  0  0
   19.2011   -6.1706   -5.9723 C   0  0  0  0  0  0  0  0  0  0  0  0
   15.9312   -5.3996   -2.4435 C   0  0  2  0  0  0  0  0  0  0  0  0
   16.6953   -4.1955   -2.8289 N   0  0  0  0  0  0  0  0  0  0  0  0
   11.5733  -10.2066   -0.5342 C   0  0  1  0  0  0  0  0  0  0  0  0
   11.2887  -10.6645    0.8552 N   0  0  0  0  0  0  0  0  0  0  0  0
   18.4387   -4.8463   -6.3412 C   0  0  0  0  0  0  0  0  0  0  0  0
   15.6202   -6.2900   -3.7210 C   0  0  2  0  0  0  0  0  0  0  0  0
   10.9281  -11.2606   -1.5940 C   0  0  1  0  0  0  0  0  0  0  0  0
    9.5343  -11.3942   -1.4594 O   0  0  0  0  0  0  0  0  0  0  0  0
   17.1225   -4.8465   -6.5997 C   0  0  1  0  0  0  0  0  0  0  0  0
   16.3488   -6.0293   -6.5622 O   0  0  0  0  0  0  0  0  0  0  0  0
   14.7930   -7.5558   -3.2919 C   0  0  2  0  0  0  0  0  0  0  0  0
   14.5085   -8.3432   -4.4468 O   0  0  0  0  0  0  0  0  0  0  0  0
   11.2261  -10.7660   -3.0433 C   0  0  0  0  0  0  0  0  0  0  0  0
   10.7648   -9.3326   -3.2147 O   0  0  0  0  0  0  0  0  0  0  0  0
   16.3400   -3.5658   -6.9503 C   0  0  0  0  0  0  0  0  0  0  0  0
   15.0681   -3.9407   -7.5284 N   0  0  0  0  0  0  0  0  0  0  0  0
   13.4428   -7.0963   -2.6227 C   0  0  1  0  0  0  0  0  0  0  0  0
   12.7345   -8.2394   -2.2425 O   0  0  0  0  0  0  0  0  0  0  0  0
   11.4338  -12.7066   -1.4906 C   0  0  0  0  0  0  0  0  0  0  0  0
    9.8991  -10.5174    1.3148 C   0  0  0  0  0  0  0  0  0  0  0  0
  1  2  1  1  0  0  0
  1  6  1  0  0  0  0
  1 21  1  0  0  0  0
  3  4  1  6  0  0  0
  3  8  1  0  0  0  0
  3 28  1  0  0  0  0
  5  9  1  0  0  0  0
  5 25  1  0  0  0  0
  5 29  1  1  0  0  0
  6  7  1  1  0  0  0
  6 11  1  0  0  0  0
  8 12  1  0  0  0  0
  9 10  1  1  0  0  0
  9 14  1  0  0  0  0
 11 16  1  0  0  0  0
 12 13  1  6  0  0  0
 12 17  1  0  0  0  0
 14 15  1  1  0  0  0
 14 18  1  0  0  0  0
 15 31  1  0  0  0  0
 16 20  1  0  0  0  0
 17  2  1  1  0  0  0
 17 22  1  0  0  0  0
 18 19  1  1  0  0  0
 18 24  1  0  0  0  0
 18 30  1  0  0  0  0
 20 21  1  0  0  0  0
 20 26  1  1  0  0  0
 22 23  1  6  0  0  0
 22 28  1  0  0  0  0
 24 25  1  0  0  0  0
 26 27  1  0  0  0  0
 28 29  1  1  0  0  0
M  END
>  <CHROM.1>
178.31239855,-124.71604471,47.75807794,-157.96309279,164.13725044,92.62580081
14.09201518,-7.61718447,-3.17564519,-0.24874005,-0.78871117,-2.73221412

>  <Name>
ligand

>  <RI>
0

>  <Rbt.Current_Directory>
/home/itssahil/PROJECTS/Mol_Feturizer/New_Systems/rnas/4F8V

>  <Rbt.Executable>
rbdock ($Id: //depot/dev/client3/rdock/2013.1/src/exe/rbdock.cxx#4 $)

>  <Rbt.Library>
libRbt.so (2013.1, Build901 2013/11/27)

>  <Rbt.Parameter_File>
/export/apps/rDock/src/rDock_2013.1_src/data/scripts/dock_solv.prm

>  <Rbt.Receptor>
prm/blind_docking_100.prm

>  <SCORE>
2.71511

>  <SCORE.INTER>
-7.5514

>  <SCORE.INTER.CONST>
1

>  <SCORE.INTER.POLAR>
0

>  <SCORE.INTER.ROT>
6

>  <SCORE.INTER.SOLV>
21.1977

>  <SCORE.INTER.VDW>
-19.7002

>  <SCORE.INTER.norm>
-0.243593

>  <SCORE.INTRA>
4.61483

>  <SCORE.INTRA.DIHEDRAL>
0.835245

>  <SCORE.INTRA.DIHEDRAL.0>
15.9129

>  <SCORE.INTRA.POLAR>
0

>  <SCORE.INTRA.POLAR.0>
0

>  <SCORE.INTRA.REPUL>
0

>  <SCORE.INTRA.REPUL.0>
0

>  <SCORE.INTRA.SOLV>
0.390479

>  <SCORE.INTRA.SOLV.lig_0>
-75.7056

>  <SCORE.INTRA.VDW>
4.00197

>  <SCORE.INTRA.VDW.0>
-4.61812

>  <SCORE.INTRA.norm>
0.148866

>  <SCORE.RESTR>
5.65168

>  <SCORE.RESTR.CAVITY>
5.65168

>  <SCORE.RESTR.norm>
0.182312

>  <SCORE.SYSTEM>
0

>  <SCORE.SYSTEM.CONST>
0

>  <SCORE.SYSTEM.DIHEDRAL>
0

>  <SCORE.SYSTEM.SOLV>
0

>  <SCORE.SYSTEM.norm>
0

>  <SCORE.heavy>
31

>  <SCORE.norm>
0.0875842

>  <RMSD>
9.995

$$$$
ligand
 OpenBabel11021811493D
libRbt.so/2013.1/901 2013/11/27
 31 33  0  0  0  0  0  0  0  0999 V2000
   16.9251   -7.1560   -5.5323 C   0  0  2  0  0  0  0  0  0  0  0  0
   16.8750   -6.6659   -4.1855 O   0  0  0  0  0  0  0  0  0  0  0  0
   13.6777   -6.1894   -1.4037 C   0  0  2  0  0  0  0  0  0  0  0  0
   12.4154   -5.8048   -0.8683 N   0  0  0  0  0  0  0  0  0  0  0  0
   11.2939   -8.3191   -2.2298 C   0  0  2  0  0  0  0  0  0  0  0  0
   18.4207   -7.4696   -5.8462 C   0  0  2  0  0  0  0  0  0  0  0  0
   18.9195   -8.4318   -4.8657 N   0  0  0  0  0  0  0  0  0  0  0  0
   14.4833   -4.8990   -1.8106 C   0  0  0  0  0  0  0  0  0  0  0  0
   10.9576   -8.7477   -0.7759 C   0  0  2  0  0  0  0  0  0  0  0  0
   11.4915   -7.7913    0.1110 O   0  0  0  0  0  0  0  0  0  0  0  0
   19.2708   -6.1410   -5.8392 C   0  0  0  0  0  0  0  0  0  0  0  0
   15.8856   -5.3304   -2.4047 C   0  0  2  0  0  0  0  0  0  0  0  0
   16.6443   -4.1233   -2.7914 N   0  0  0  0  0  0  0  0  0  0  0  0
   11.5839  -10.1774   -0.5290 C   0  0  1  0  0  0  0  0  0  0  0  0
   11.3054  -10.6230    0.8656 N   0  0  0  0  0  0  0  0  0  0  0  0
   18.4533   -4.8893   -6.3247 C   0  0  0  0  0  0  0  0  0  0  0  0
   15.6461   -6.2618   -3.6683 C   0  0  2  0  0  0  0  0  0  0  0  0
   10.9378  -11.2431   -1.5766 C   0  0  1  0  0  0  0  0  0  0  0  0
    9.5448  -11.3791   -1.4357 O   0  0  0  0  0  0  0  0  0  0  0  0
   17.1458   -4.9766   -6.6111 C   0  0  1  0  0  0  0  0  0  0  0  0
   16.4310   -6.1915   -6.5001 O   0  0  0  0  0  0  0  0  0  0  0  0
   14.8235   -7.5305   -3.2391 C   0  0  2  0  0  0  0  0  0  0  0  0
   14.6033   -8.3550   -4.3820 O   0  0  0  0  0  0  0  0  0  0  0  0
   11.2294  -10.7613   -3.0314 C   0  0  0  0  0  0  0  0  0  0  0  0
   10.7636   -9.3309   -3.2146 O   0  0  0  0  0  0  0  0  0  0  0  0
   16.3099   -3.7679   -7.0755 C   0  0  0  0  0  0  0  0  0  0  0  0
   15.2049   -3.5863   -6.1598 N   0  0  0  0  0  0  0  0  0  0  0  0
   13.4376   -7.0781   -2.6419 C   0  0  1  0  0  0  0  0  0  0  0  0
   12.7337   -8.2233   -2.2597 O   0  0  0  0  0  0  0  0  0  0  0  0
   11.4478  -12.6867   -1.4614 C   0  0  0  0  0  0  0  0  0  0  0  0
    9.9072  -10.5228    1.3117 C   0  0  0  0  0  0  0  0  0  0  0  0
  1  2  1  1  0  0  0
  1  6  1  0  0  0  0
  1 21  1  0  0  0  0
  3  4  1  6  0  0  0
  3  8  1  0  0  0  0
  3 28  1  0  0  0  0
  5  9  1  0  0  0  0
  5 25  1  0  0  0  0
  5 29  1  1  0  0  0
  6  7  1  1  0  0  0
  6 11  1  0  0  0  0
  8 12  1  0  0  0  0
  9 10  1  1  0  0  0
  9 14  1  0  0  0  0
 11 16  1  0  0  0  0
 12 13  1  6  0  0  0
 12 17  1  0  0  0  0
 14 15  1  1  0  0  0
 14 18  1  0  0  0  0
 15 31  1  0  0  0  0
 16 20  1  0  0  0  0
 17  2  1  1  0  0  0
 17 22  1  0  0  0  0
 18 19  1  1  0  0  0
 18 24  1  0  0  0  0
 18 30  1  0  0  0  0
 20 21  1  0  0  0  0
 20 26  1  1  0  0  0
 22 23  1  6  0  0  0
 22 28  1  0  0  0  0
 24 25  1  0  0  0  0
 26 27  1  0  0  0  0
 28 29  1  1  0  0  0
M  END
>  <CHROM.1>
177.65927166,-124.12184634,49.98736502,-161.08823429,-122.44148459,89.31029018
14.11311283,-7.60299855,-3.10096504,-0.33219612,-0.74140616,-2.84247526

>  <Name>
ligand

>  <RI>
0

>  <Rbt.Current_Directory>
/home/itssahil/PROJECTS/Mol_Feturizer/New_Systems/rnas/4F8V

>  <Rbt.Executable>
rbdock ($Id: //depot/dev/client3/rdock/2013.1/src/exe/rbdock.cxx#4 $)

>  <Rbt.Library>
libRbt.so (2013.1, Build901 2013/11/27)

>  <Rbt.Parameter_File>
/export/apps/rDock/src/rDock_2013.1_src/data/scripts/dock_solv.prm

>  <Rbt.Receptor>
prm/blind_docking_100.prm

>  <SCORE>
0.604129

>  <SCORE.INTER>
-9.06791

>  <SCORE.INTER.CONST>
1

>  <SCORE.INTER.POLAR>
0

>  <SCORE.INTER.ROT>
6

>  <SCORE.INTER.SOLV>
18.3499

>  <SCORE.INTER.VDW>
-19.7619

>  <SCORE.INTER.norm>
-0.292513

>  <SCORE.INTRA>
3.77348

>  <SCORE.INTRA.DIHEDRAL>
-1.90525

>  <SCORE.INTRA.DIHEDRAL.0>
15.9129

>  <SCORE.INTRA.POLAR>
0

>  <SCORE.INTRA.POLAR.0>
0

>  <SCORE.INTRA.REPUL>
0

>  <SCORE.INTRA.REPUL.0>
0

>  <SCORE.INTRA.SOLV>
2.06346

>  <SCORE.INTRA.SOLV.lig_0>
-75.7056

>  <SCORE.INTRA.VDW>
3.69437

>  <SCORE.INTRA.VDW.0>
-4.61812

>  <SCORE.INTRA.norm>
0.121725

>  <SCORE.RESTR>
5.89856

>  <SCORE.RESTR.CAVITY>
5.89856

>  <SCORE.RESTR.norm>
0.190276

>  <SCORE.SYSTEM>
0

>  <SCORE.SYSTEM.CONST>
0

>  <SCORE.SYSTEM.DIHEDRAL>
0

>  <SCORE.SYSTEM.SOLV>
0

>  <SCORE.SYSTEM.norm>
0

>  <SCORE.heavy>
31

>  <SCORE.norm>
0.019488

>  <RMSD>
9.996

$$$$
ligand
 OpenBabel11021811493D
libRbt.so/2013.1/901 2013/11/27
 31 33  0  0  0  0  0  0  0  0999 V2000
   16.8510   -7.1040   -5.6331 C   0  0  2  0  0  0  0  0  0  0  0  0
   16.8360   -6.6889   -4.2605 O   0  0  0  0  0  0  0  0  0  0  0  0
   13.7231   -6.2386   -1.3803 C   0  0  2  0  0  0  0  0  0  0  0  0
   12.4810   -5.8515   -0.8012 N   0  0  0  0  0  0  0  0  0  0  0  0
   11.2905   -8.3339   -2.2291 C   0  0  2  0  0  0  0  0  0  0  0  0
   18.3324   -7.4385   -5.9902 C   0  0  2  0  0  0  0  0  0  0  0  0
   18.8207   -8.4668   -5.0736 N   0  0  0  0  0  0  0  0  0  0  0  0
   14.5331   -4.9489   -1.7803 C   0  0  0  0  0  0  0  0  0  0  0  0
   10.9494   -8.7594   -0.7754 C   0  0  2  0  0  0  0  0  0  0  0  0
   11.4828   -7.8025    0.1112 O   0  0  0  0  0  0  0  0  0  0  0  0
   19.2181   -6.1350   -5.9245 C   0  0  0  0  0  0  0  0  0  0  0  0
   15.9130   -5.3830   -2.4230 C   0  0  2  0  0  0  0  0  0  0  0  0
   16.6756   -4.1763   -2.8033 N   0  0  0  0  0  0  0  0  0  0  0  0
   11.5722  -10.1899   -0.5244 C   0  0  1  0  0  0  0  0  0  0  0  0
   11.2889  -10.6326    0.8702 N   0  0  0  0  0  0  0  0  0  0  0  0
   18.4271   -4.8372   -6.3253 C   0  0  0  0  0  0  0  0  0  0  0  0
   15.6270   -6.2822   -3.7001 C   0  0  2  0  0  0  0  0  0  0  0  0
   10.9267  -11.2561   -1.5719 C   0  0  1  0  0  0  0  0  0  0  0  0
    9.5331  -11.3890   -1.4346 O   0  0  0  0  0  0  0  0  0  0  0  0
   17.1132   -4.8741   -6.5930 C   0  0  1  0  0  0  0  0  0  0  0  0
   16.3677   -6.0743   -6.5370 O   0  0  0  0  0  0  0  0  0  0  0  0
   14.8009   -7.5507   -3.2768 C   0  0  2  0  0  0  0  0  0  0  0  0
   14.5389   -8.3461   -4.4315 O   0  0  0  0  0  0  0  0  0  0  0  0
   11.2233  -10.7774   -3.0268 C   0  0  0  0  0  0  0  0  0  0  0  0
   10.7608   -9.3463   -3.2137 O   0  0  0  0  0  0  0  0  0  0  0  0
   16.3029   -3.6199   -6.9748 C   0  0  0  0  0  0  0  0  0  0  0  0
   15.1997   -3.4788   -6.0500 N   0  0  0  0  0  0  0  0  0  0  0  0
   13.4378   -7.0958   -2.6310 C   0  0  1  0  0  0  0  0  0  0  0  0
   12.7306   -8.2411   -2.2553 O   0  0  0  0  0  0  0  0  0  0  0  0
   11.4334  -12.7005   -1.4529 C   0  0  0  0  0  0  0  0  0  0  0  0
    9.8940  -10.5073    1.3200 C   0  0  0  0  0  0  0  0  0  0  0  0
  1  2  1  1  0  0  0
  1  6  1  0  0  0  0
  1 21  1  0  0  0  0
  3  4  1  6  0  0  0
  3  8  1  0  0  0  0
  3 28  1  0  0  0  0
  5  9  1  0  0  0  0
  5 25  1  0  0  0  0
  5 29  1  1  0  0  0
  6  7  1  1  0  0  0
  6 11  1  0  0  0  0
  8 12  1  0  0  0  0
  9 10  1  1  0  0  0
  9 14  1  0  0  0  0
 11 16  1  0  0  0  0
 12 13  1  6  0  0  0
 12 17  1  0  0  0  0
 14 15  1  1  0  0  0
 14 18  1  0  0  0  0
 15 31  1  0  0  0  0
 16 20  1  0  0  0  0
 17  2  1  1  0  0  0
 17 22  1  0  0  0  0
 18 19  1  1  0  0  0
 18 24  1  0  0  0  0
 18 30  1  0  0  0  0
 20 21  1  0  0  0  0
 20 26  1  1  0  0  0
 22 23  1  6  0  0  0
 22 28  1  0  0  0  0
 24 25  1  0  0  0  0
 26 27  1  0  0  0  0
 28 29  1  1  0  0  0
M  END
>  <CHROM.1>
177.65422436,-123.78225234,48.98341955,-158.92960179,-123.77265167,91.41992804
14.09711721,-7.59860729,-3.11370460,-0.31804935,-0.75520500,-2.81574434

>  <Name>
ligand

>  <RI>
0

>  <Rbt.Current_Directory>
/home/itssahil/PROJECTS/Mol_Feturizer/New_Systems/rnas/4F8V

>  <Rbt.Executable>
rbdock ($Id: //depot/dev/client3/rdock/2013.1/src/exe/rbdock.cxx#4 $)

>  <Rbt.Library>
libRbt.so (2013.1, Build901 2013/11/27)

>  <Rbt.Parameter_File>
/export/apps/rDock/src/rDock_2013.1_src/data/scripts/dock_solv.prm

>  <Rbt.Receptor>
prm/blind_docking_100.prm

>  <SCORE>
1.25991

>  <SCORE.INTER>
-8.93925

>  <SCORE.INTER.CONST>
1

>  <SCORE.INTER.POLAR>
0

>  <SCORE.INTER.ROT>
6

>  <SCORE.INTER.SOLV>
18.5213

>  <SCORE.INTER.VDW>
-19.7333

>  <SCORE.INTER.norm>
-0.288363

>  <SCORE.INTRA>
4.45482

>  <SCORE.INTRA.DIHEDRAL>
-1.11562

>  <SCORE.INTRA.DIHEDRAL.0>
15.9129

>  <SCORE.INTRA.POLAR>
0

>  <SCORE.INTRA.POLAR.0>
0

>  <SCORE.INTRA.REPUL>
0

>  <SCORE.INTRA.REPUL.0>
0

>  <SCORE.INTRA.SOLV>
2.3858

>  <SCORE.INTRA.SOLV.lig_0>
-75.7056

>  <SCORE.INTRA.VDW>
3.81973

>  <SCORE.INTRA.VDW.0>
-4.61812

>  <SCORE.INTRA.norm>
0.143704

>  <SCORE.RESTR>
5.74434

>  <SCORE.RESTR.CAVITY>
5.74434

>  <SCORE.RESTR.norm>
0.185301

>  <SCORE.SYSTEM>
0

>  <SCORE.SYSTEM.CONST>
0

>  <SCORE.SYSTEM.DIHEDRAL>
0

>  <SCORE.SYSTEM.SOLV>
0

>  <SCORE.SYSTEM.norm>
0

>  <SCORE.heavy>
31

>  <SCORE.norm>
0.0406422

>  <RMSD>
10.000

$$$$
ligand
 OpenBabel11021811493D
libRbt.so/2013.1/901 2013/11/27
 31 33  0  0  0  0  0  0  0  0999 V2000
   22.2998   -7.2868   -6.5228 C   0  0  2  0  0  0  0  0  0  0  0  0
   21.0144   -6.8514   -6.9860 O   0  0  0  0  0  0  0  0  0  0  0  0
   17.0172   -7.9359   -5.9689 C   0  0  2  0  0  0  0  0  0  0  0  0
   15.8586   -8.1903   -5.1810 N   0  0  0  0  0  0  0  0  0  0  0  0
   16.2564   -4.2651   -5.6793 C   0  0  2  0  0  0  0  0  0  0  0  0
   23.0675   -6.0135   -6.0504 C   0  0  2  0  0  0  0  0  0  0  0  0
   22.2817   -5.3419   -5.0172 N   0  0  0  0  0  0  0  0  0  0  0  0
   18.1686   -8.9159   -5.5294 C   0  0  0  0  0  0  0  0  0  0  0  0
   15.7184   -4.4202   -4.2312 C   0  0  2  0  0  0  0  0  0  0  0  0
   16.6402   -5.1838   -3.4872 O   0  0  0  0  0  0  0  0  0  0  0  0
   23.3508   -5.0604   -7.2748 C   0  0  0  0  0  0  0  0  0  0  0  0
   19.4543   -8.6306   -6.4074 C   0  0  2  0  0  0  0  0  0  0  0  0
   20.5391   -9.5454   -5.9967 N   0  0  0  0  0  0  0  0  0  0  0  0
   14.3080   -5.1290   -4.3055 C   0  0  1  0  0  0  0  0  0  0  0  0
   13.7597   -5.3203   -2.9329 N   0  0  0  0  0  0  0  0  0  0  0  0
   23.5706   -5.8424   -8.6206 C   0  0  0  0  0  0  0  0  0  0  0  0
   19.8962   -7.1196   -6.1994 C   0  0  2  0  0  0  0  0  0  0  0  0
   13.2823   -4.2106   -5.1745 C   0  0  1  0  0  0  0  0  0  0  0  0
   13.0696   -2.9389   -4.6122 O   0  0  0  0  0  0  0  0  0  0  0  0
   23.4257   -7.1743   -8.6867 C   0  0  1  0  0  0  0  0  0  0  0  0
   23.0751   -7.9497   -7.5575 O   0  0  0  0  0  0  0  0  0  0  0  0
   18.7230   -6.1643   -6.6258 C   0  0  2  0  0  0  0  0  0  0  0  0
   19.1245   -4.8104   -6.4246 O   0  0  0  0  0  0  0  0  0  0  0  0
   13.8712   -4.0116   -6.6054 C   0  0  0  0  0  0  0  0  0  0  0  0
   15.2861   -3.4751   -6.5214 O   0  0  0  0  0  0  0  0  0  0  0  0
   23.6189   -7.9718   -9.9913 C   0  0  0  0  0  0  0  0  0  0  0  0
   24.7682   -8.8373   -9.8421 N   0  0  0  0  0  0  0  0  0  0  0  0
   17.4520   -6.4722   -5.7474 C   0  0  1  0  0  0  0  0  0  0  0  0
   16.4241   -5.6176   -6.1547 O   0  0  0  0  0  0  0  0  0  0  0  0
   11.8609   -4.7676   -5.3377 C   0  0  0  0  0  0  0  0  0  0  0  0
   13.8722   -6.6757   -2.3725 C   0  0  0  0  0  0  0  0  0  0  0  0
  1  2  1  6  0  0  0
  1  6  1  0  0  0  0
  1 21  1  0  0  0  0
  3  4  1  1  0  0  0
  3  8  1  0  0  0  0
  3 28  1  0  0  0  0
  5  9  1  0  0  0  0
  5 25  1  0  0  0  0
  5 29  1  6  0  0  0
  6  7  1  1  0  0  0
  6 11  1  0  0  0  0
  8 12  1  0  0  0  0
  9 10  1  1  0  0  0
  9 14  1  0  0  0  0
 11 16  1  0  0  0  0
 12 13  1  1  0  0  0
 12 17  1  0  0  0  0
 14 15  1  1  0  0  0
 14 18  1  0  0  0  0
 15 31  1  0  0  0  0
 16 20  1  0  0  0  0
 17  2  1  6  0  0  0
 17 22  1  0  0  0  0
 18 19  1  1  0  0  0
 18 24  1  0  0  0  0
 18 30  1  0  0  0  0
 20 21  1  0  0  0  0
 20 26  1  6  0  0  0
 22 23  1  1  0  0  0
 22 28  1  0  0  0  0
 24 25  1  0  0  0  0
 26 27  1  0  0  0  0
 28 29  1  6  0  0  0
M  END
>  <CHROM.1>
-106.72920518,-73.97146488,-102.04917452,-79.12289618,114.40317371,156.83731955
18.38805165,-6.16920965,-6.05738692,0.16228925,-0.39654140,2.88648988

>  <Name>
ligand

>  <RI>
0

>  <Rbt.Current_Directory>
/home/itssahil/PROJECTS/Mol_Feturizer/New_Systems/rnas/4F8V

>  <Rbt.Executable>
rbdock ($Id: //depot/dev/client3/rdock/2013.1/src/exe/rbdock.cxx#4 $)

>  <Rbt.Library>
libRbt.so (2013.1, Build901 2013/11/27)

>  <Rbt.Parameter_File>
/export/apps/rDock/src/rDock_2013.1_src/data/scripts/dock_solv.prm

>  <Rbt.Receptor>
prm/pocket_docking_8.prm

>  <SCORE>
-12.4911

>  <SCORE.INTER>
-13.1543

>  <SCORE.INTER.CONST>
1

>  <SCORE.INTER.POLAR>
0

>  <SCORE.INTER.ROT>
6

>  <SCORE.INTER.SOLV>
18.3054

>  <SCORE.INTER.VDW>
-22.4714

>  <SCORE.INTER.norm>
-0.424334

>  <SCORE.INTRA>
0.663251

>  <SCORE.INTRA.DIHEDRAL>
-1.95389

>  <SCORE.INTRA.DIHEDRAL.0>
15.9129

>  <SCORE.INTRA.POLAR>
0

>  <SCORE.INTRA.POLAR.0>
0

>  <SCORE.INTRA.REPUL>
0

>  <SCORE.INTRA.REPUL.0>
0

>  <SCORE.INTRA.SOLV>
1.09759

>  <SCORE.INTRA.SOLV.lig_0>
-75.7056

>  <SCORE.INTRA.VDW>
1.0914

>  <SCORE.INTRA.VDW.0>
-4.61812

>  <SCORE.INTRA.norm>
0.0213952

>  <SCORE.RESTR>
0

>  <SCORE.RESTR.CAVITY>
0

>  <SCORE.RESTR.norm>
0

>  <SCORE.SYSTEM>
0

>  <SCORE.SYSTEM.CONST>
0

>  <SCORE.SYSTEM.DIHEDRAL>
0

>  <SCORE.SYSTEM.SOLV>
0

>  <SCORE.SYSTEM.norm>
0

>  <SCORE.heavy>
31

>  <SCORE.norm>
-0.402939

>  <RMSD>
10.013

$$$$
ligand
 OpenBabel11021811493D
libRbt.so/2013.1/901 2013/11/27
 31 33  0  0  0  0  0  0  0  0999 V2000
   17.5769   -6.1490   -4.3675 C   0  0  2  0  0  0  0  0  0  0  0  0
   16.2861   -6.6976   -4.6660 O   0  0  0  0  0  0  0  0  0  0  0  0
   13.6639   -6.1998   -1.3396 C   0  0  2  0  0  0  0  0  0  0  0  0
   12.5370   -5.7855   -0.5738 N   0  0  0  0  0  0  0  0  0  0  0  0
   11.0588   -8.3403   -2.1499 C   0  0  2  0  0  0  0  0  0  0  0  0
   18.2277   -5.7523   -5.7287 C   0  0  2  0  0  0  0  0  0  0  0  0
   17.3484   -4.8100   -6.4180 N   0  0  0  0  0  0  0  0  0  0  0  0
   14.4425   -4.9282   -1.8459 C   0  0  0  0  0  0  0  0  0  0  0  0
   10.6384   -8.7746   -0.7198 C   0  0  2  0  0  0  0  0  0  0  0  0
   11.0468   -7.7802    0.1917 O   0  0  0  0  0  0  0  0  0  0  0  0
   18.4972   -7.0384   -6.6011 C   0  0  0  0  0  0  0  0  0  0  0  0
   15.6943   -5.3924   -2.6962 C   0  0  2  0  0  0  0  0  0  0  0  0
   16.4266   -4.2028   -3.1766 N   0  0  0  0  0  0  0  0  0  0  0  0
   11.3261  -10.1625   -0.4069 C   0  0  1  0  0  0  0  0  0  0  0  0
   10.9687  -10.6109    0.9687 N   0  0  0  0  0  0  0  0  0  0  0  0
   18.8349   -8.3056   -5.7345 C   0  0  0  0  0  0  0  0  0  0  0  0
   15.1896   -6.2645   -3.9235 C   0  0  2  0  0  0  0  0  0  0  0  0
   10.8245  -11.2741   -1.4856 C   0  0  1  0  0  0  0  0  0  0  0  0
    9.4351  -11.4906   -1.4483 O   0  0  0  0  0  0  0  0  0  0  0  0
   18.7902   -8.2679   -4.3944 C   0  0  1  0  0  0  0  0  0  0  0  0
   18.4452   -7.0939   -3.6860 O   0  0  0  0  0  0  0  0  0  0  0  0
   14.3993   -7.5147   -3.3915 C   0  0  2  0  0  0  0  0  0  0  0  0
   13.9401   -8.2855   -4.5004 O   0  0  0  0  0  0  0  0  0  0  0  0
   11.1975  -10.7893   -2.9207 C   0  0  0  0  0  0  0  0  0  0  0  0
   10.6646   -9.3906   -3.1580 O   0  0  0  0  0  0  0  0  0  0  0  0
   19.1008   -9.4939   -3.5135 C   0  0  0  0  0  0  0  0  0  0  0  0
   19.5569  -10.5732   -4.3617 N   0  0  0  0  0  0  0  0  0  0  0  0
   13.1652   -7.0303   -2.5405 C   0  0  1  0  0  0  0  0  0  0  0  0
   12.4888   -8.1600   -2.0725 O   0  0  0  0  0  0  0  0  0  0  0  0
   11.4072  -12.6840   -1.3126 C   0  0  0  0  0  0  0  0  0  0  0  0
   11.8537  -11.6184    1.5732 C   0  0  0  0  0  0  0  0  0  0  0  0
  1  2  1  6  0  0  0
  1  6  1  0  0  0  0
  1 21  1  0  0  0  0
  3  4  1  6  0  0  0
  3  8  1  0  0  0  0
  3 28  1  0  0  0  0
  5  9  1  0  0  0  0
  5 25  1  0  0  0  0
  5 29  1  1  0  0  0
  6  7  1  6  0  0  0
  6 11  1  0  0  0  0
  8 12  1  0  0  0  0
  9 10  1  1  0  0  0
  9 14  1  0  0  0  0
 11 16  1  0  0  0  0
 12 13  1  6  0  0  0
 12 17  1  0  0  0  0
 14 15  1  1  0  0  0
 14 18  1  0  0  0  0
 15 31  1  0  0  0  0
 16 20  1  0  0  0  0
 17  2  1  1  0  0  0
 17 22  1  0  0  0  0
 18 19  1  1  0  0  0
 18 24  1  0  0  0  0
 18 30  1  0  0  0  0
 20 21  1  0  0  0  0
 20 26  1  6  0  0  0
 22 23  1  6  0  0  0
 22 28  1  0  0  0  0
 24 25  1  0  0  0  0
 26 27  1  0  0  0  0
 28 29  1  1  0  0  0
M  END
>  <CHROM.1>
-133.18938872,-130.83158343,-160.26850156,-9.71434215,5.70219008,108.14587329
14.31828884,-8.12782567,-2.77660280,0.40169723,0.51332242,-0.02412687

>  <Name>
ligand

>  <RI>
0

>  <Rbt.Current_Directory>
/home/itssahil/PROJECTS/Mol_Feturizer/New_Systems/rnas/4F8V

>  <Rbt.Executable>
rbdock ($Id: //depot/dev/client3/rdock/2013.1/src/exe/rbdock.cxx#4 $)

>  <Rbt.Library>
libRbt.so (2013.1, Build901 2013/11/27)

>  <Rbt.Parameter_File>
/export/apps/rDock/src/rDock_2013.1_src/data/scripts/dock_solv.prm

>  <Rbt.Receptor>
prm/blind_docking_100.prm

>  <SCORE>
12.807

>  <SCORE.INTER>
-9.35586

>  <SCORE.INTER.CONST>
1

>  <SCORE.INTER.POLAR>
0

>  <SCORE.INTER.ROT>
6

>  <SCORE.INTER.SOLV>
23.0264

>  <SCORE.INTER.VDW>
-21.5127

>  <SCORE.INTER.norm>
-0.301802

>  <SCORE.INTRA>
14.6986

>  <SCORE.INTRA.DIHEDRAL>
12.3851

>  <SCORE.INTRA.DIHEDRAL.0>
15.9129

>  <SCORE.INTRA.POLAR>
0

>  <SCORE.INTRA.POLAR.0>
0

>  <SCORE.INTRA.REPUL>
0

>  <SCORE.INTRA.REPUL.0>
0

>  <SCORE.INTRA.SOLV>
1.63734

>  <SCORE.INTRA.SOLV.lig_0>
-75.7056

>  <SCORE.INTRA.VDW>
7.68741

>  <SCORE.INTRA.VDW.0>
-4.61812

>  <SCORE.INTRA.norm>
0.474149

>  <SCORE.RESTR>
7.46422

>  <SCORE.RESTR.CAVITY>
7.46422

>  <SCORE.RESTR.norm>
0.240781

>  <SCORE.SYSTEM>
0

>  <SCORE.SYSTEM.CONST>
0

>  <SCORE.SYSTEM.DIHEDRAL>
0

>  <SCORE.SYSTEM.SOLV>
0

>  <SCORE.SYSTEM.norm>
0

>  <SCORE.heavy>
31

>  <SCORE.norm>
0.413129

>  <RMSD>
10.055

$$$$
ligand
 OpenBabel11021811493D
libRbt.so/2013.1/901 2013/11/27
 31 33  0  0  0  0  0  0  0  0999 V2000
   12.1968   -9.9574   -1.6971 C   0  0  2  0  0  0  0  0  0  0  0  0
   11.8512   -8.5774   -1.8776 O   0  0  0  0  0  0  0  0  0  0  0  0
   13.9751   -4.8976   -2.2464 C   0  0  2  0  0  0  0  0  0  0  0  0
   14.9828   -3.9090   -2.0583 N   0  0  0  0  0  0  0  0  0  0  0  0
   16.5206   -5.2505   -4.1757 C   0  0  2  0  0  0  0  0  0  0  0  0
   11.2913  -10.7825   -2.6631 C   0  0  2  0  0  0  0  0  0  0  0  0
   11.5033  -10.3112   -4.0303 N   0  0  0  0  0  0  0  0  0  0  0  0
   13.2795   -5.1982   -0.8661 C   0  0  0  0  0  0  0  0  0  0  0  0
   17.1099   -5.8422   -5.4846 C   0  0  2  0  0  0  0  0  0  0  0  0
   16.2102   -5.5881   -6.5393 O   0  0  0  0  0  0  0  0  0  0  0  0
    9.7785  -10.6575   -2.2347 C   0  0  0  0  0  0  0  0  0  0  0  0
   12.1601   -6.2968   -1.0792 C   0  0  2  0  0  0  0  0  0  0  0  0
   11.5064   -6.5852    0.2138 N   0  0  0  0  0  0  0  0  0  0  0  0
   17.3237   -7.3930   -5.2687 C   0  0  1  0  0  0  0  0  0  0  0  0
   17.8691   -8.0110   -6.5104 N   0  0  0  0  0  0  0  0  0  0  0  0
    9.5937  -10.5002   -0.6816 C   0  0  0  0  0  0  0  0  0  0  0  0
   12.8320   -7.6111   -1.6647 C   0  0  2  0  0  0  0  0  0  0  0  0
   18.3667   -7.6332   -4.0419 C   0  0  1  0  0  0  0  0  0  0  0  0
   19.6363   -7.0766   -4.2807 O   0  0  0  0  0  0  0  0  0  0  0  0
   10.6482  -10.3917    0.1403 C   0  0  1  0  0  0  0  0  0  0  0  0
   11.9792  -10.4179   -0.3364 O   0  0  0  0  0  0  0  0  0  0  0  0
   13.5357   -7.2792   -3.0305 C   0  0  2  0  0  0  0  0  0  0  0  0
   14.1459   -8.4623   -3.5430 O   0  0  0  0  0  0  0  0  0  0  0  0
   17.7881   -6.9752   -2.7510 C   0  0  0  0  0  0  0  0  0  0  0  0
   17.4401   -5.5235   -3.0118 O   0  0  0  0  0  0  0  0  0  0  0  0
   10.5046  -10.2219    1.6654 C   0  0  0  0  0  0  0  0  0  0  0  0
   10.9210  -11.4471    2.3117 N   0  0  0  0  0  0  0  0  0  0  0  0
   14.6375   -6.1776   -2.7973 C   0  0  1  0  0  0  0  0  0  0  0  0
   15.2377   -5.8952   -4.0273 O   0  0  0  0  0  0  0  0  0  0  0  0
   18.6799   -9.0987   -3.7079 C   0  0  0  0  0  0  0  0  0  0  0  0
   19.2944   -7.7701   -6.7829 C   0  0  0  0  0  0  0  0  0  0  0  0
  1  2  1  1  0  0  0
  1  6  1  0  0  0  0
  1 21  1  0  0  0  0
  3  4  1  1  0  0  0
  3  8  1  0  0  0  0
  3 28  1  0  0  0  0
  5  9  1  0  0  0  0
  5 25  1  0  0  0  0
  5 29  1  1  0  0  0
  6  7  1  6  0  0  0
  6 11  1  0  0  0  0
  8 12  1  0  0  0  0
  9 10  1  6  0  0  0
  9 14  1  0  0  0  0
 11 16  1  0  0  0  0
 12 13  1  1  0  0  0
 12 17  1  0  0  0  0
 14 15  1  6  0  0  0
 14 18  1  0  0  0  0
 15 31  1  0  0  0  0
 16 20  1  0  0  0  0
 17  2  1  6  0  0  0
 17 22  1  0  0  0  0
 18 19  1  6  0  0  0
 18 24  1  0  0  0  0
 18 30  1  0  0  0  0
 20 21  1  0  0  0  0
 20 26  1  6  0  0  0
 22 23  1  1  0  0  0
 22 28  1  0  0  0  0
 24 25  1  0  0  0  0
 26 27  1  0  0  0  0
 28 29  1  6  0  0  0
M  END
>  <CHROM.1>
-150.44176198,148.96130897,75.85688556,-146.79825233,108.84722002,79.77666711
14.32757713,-7.79691260,-2.70575135,-2.94375571,0.65011462,0.29975617

>  <Name>
ligand

>  <RI>
0

>  <Rbt.Current_Directory>
/home/itssahil/PROJECTS/Mol_Feturizer/New_Systems/rnas/4F8V

>  <Rbt.Executable>
rbdock ($Id: //depot/dev/client3/rdock/2013.1/src/exe/rbdock.cxx#4 $)

>  <Rbt.Library>
libRbt.so (2013.1, Build901 2013/11/27)

>  <Rbt.Parameter_File>
/export/apps/rDock/src/rDock_2013.1_src/data/scripts/dock_solv.prm

>  <Rbt.Receptor>
prm/blind_docking_100.prm

>  <SCORE>
15.7111

>  <SCORE.INTER>
3.20103

>  <SCORE.INTER.CONST>
1

>  <SCORE.INTER.POLAR>
0

>  <SCORE.INTER.ROT>
6

>  <SCORE.INTER.SOLV>
26.0309

>  <SCORE.INTER.VDW>
-14.1429

>  <SCORE.INTER.norm>
0.103259

>  <SCORE.INTRA>
4.60712

>  <SCORE.INTRA.DIHEDRAL>
-0.601293

>  <SCORE.INTRA.DIHEDRAL.0>
15.9129

>  <SCORE.INTRA.POLAR>
0

>  <SCORE.INTRA.POLAR.0>
0

>  <SCORE.INTRA.REPUL>
0

>  <SCORE.INTRA.REPUL.0>
0

>  <SCORE.INTRA.SOLV>
0.178931

>  <SCORE.INTRA.SOLV.lig_0>
-75.7056

>  <SCORE.INTRA.VDW>
4.8183

>  <SCORE.INTRA.VDW.0>
-4.61812

>  <SCORE.INTRA.norm>
0.148617

>  <SCORE.RESTR>
7.90298

>  <SCORE.RESTR.CAVITY>
7.90298

>  <SCORE.RESTR.norm>
0.254935

>  <SCORE.SYSTEM>
0

>  <SCORE.SYSTEM.CONST>
0

>  <SCORE.SYSTEM.DIHEDRAL>
0

>  <SCORE.SYSTEM.SOLV>
0

>  <SCORE.SYSTEM.norm>
0

>  <SCORE.heavy>
31

>  <SCORE.norm>
0.506811

>  <RMSD>
10.068

$$$$
ligand
 OpenBabel11021811493D
libRbt.so/2013.1/901 2013/11/27
 31 33  0  0  0  0  0  0  0  0999 V2000
   17.6506   -6.1251   -4.4749 C   0  0  2  0  0  0  0  0  0  0  0  0
   16.3585   -6.6535   -4.8030 O   0  0  0  0  0  0  0  0  0  0  0  0
   13.7495   -6.2131   -1.4582 C   0  0  2  0  0  0  0  0  0  0  0  0
   12.6206   -5.8211   -0.6836 N   0  0  0  0  0  0  0  0  0  0  0  0
   11.1688   -8.3341   -2.1222 C   0  0  2  0  0  0  0  0  0  0  0  0
   18.3440   -5.7520   -5.8217 C   0  0  2  0  0  0  0  0  0  0  0  0
   17.5002   -4.8005   -6.5419 N   0  0  0  0  0  0  0  0  0  0  0  0
   14.5030   -4.9265   -1.9644 C   0  0  0  0  0  0  0  0  0  0  0  0
   10.8880   -8.7886   -0.6644 C   0  0  2  0  0  0  0  0  0  0  0  0
   11.4150   -7.8241    0.2179 O   0  0  0  0  0  0  0  0  0  0  0  0
   18.6135   -7.0503   -6.6758 C   0  0  0  0  0  0  0  0  0  0  0  0
   15.7571   -5.3660   -2.8244 C   0  0  2  0  0  0  0  0  0  0  0  0
   16.4660   -4.1623   -3.3049 N   0  0  0  0  0  0  0  0  0  0  0  0
   11.5675  -10.1992   -0.4511 C   0  0  1  0  0  0  0  0  0  0  0  0
   11.3432  -10.6681    0.9456 N   0  0  0  0  0  0  0  0  0  0  0  0
   18.9056   -8.3155   -5.7899 C   0  0  0  0  0  0  0  0  0  0  0  0
   15.2596   -6.2420   -4.0518 C   0  0  2  0  0  0  0  0  0  0  0  0
   10.9273  -11.2748   -1.4922 C   0  0  1  0  0  0  0  0  0  0  0  0
    9.5441  -11.4583   -1.3141 O   0  0  0  0  0  0  0  0  0  0  0  0
   18.8262   -8.2652   -4.4518 C   0  0  1  0  0  0  0  0  0  0  0  0
   18.4836   -7.0791   -3.7627 O   0  0  0  0  0  0  0  0  0  0  0  0
   14.4941   -7.5076   -3.5197 C   0  0  2  0  0  0  0  0  0  0  0  0
   14.0411   -8.2819   -4.6287 O   0  0  0  0  0  0  0  0  0  0  0  0
   11.1618  -10.7687   -2.9491 C   0  0  0  0  0  0  0  0  0  0  0  0
   10.6444   -9.3526   -3.1032 O   0  0  0  0  0  0  0  0  0  0  0  0
   19.0915   -9.4886   -3.5528 C   0  0  0  0  0  0  0  0  0  0  0  0
   19.8754  -10.4511   -4.2954 N   0  0  0  0  0  0  0  0  0  0  0  0
   13.2574   -7.0475   -2.6591 C   0  0  1  0  0  0  0  0  0  0  0  0
   12.6034   -8.1904   -2.1912 O   0  0  0  0  0  0  0  0  0  0  0  0
   11.4874  -12.7019   -1.4075 C   0  0  0  0  0  0  0  0  0  0  0  0
    9.9542  -10.6275    1.4284 C   0  0  0  0  0  0  0  0  0  0  0  0
  1  2  1  6  0  0  0
  1  6  1  0  0  0  0
  1 21  1  0  0  0  0
  3  4  1  1  0  0  0
  3  8  1  0  0  0  0
  3 28  1  0  0  0  0
  5  9  1  0  0  0  0
  5 25  1  0  0  0  0
  5 29  1  1  0  0  0
  6  7  1  6  0  0  0
  6 11  1  0  0  0  0
  8 12  1  0  0  0  0
  9 10  1  1  0  0  0
  9 14  1  0  0  0  0
 11 16  1  0  0  0  0
 12 13  1  6  0  0  0
 12 17  1  0  0  0  0
 14 15  1  1  0  0  0
 14 18  1  0  0  0  0
 15 31  1  0  0  0  0
 16 20  1  0  0  0  0
 17  2  1  1  0  0  0
 17 22  1  0  0  0  0
 18 19  1  1  0  0  0
 18 24  1  0  0  0  0
 18 30  1  0  0  0  0
 20 21  1  0  0  0  0
 20 26  1  6  0  0  0
 22 23  1  6  0  0  0
 22 28  1  0  0  0  0
 24 25  1  0  0  0  0
 26 27  1  0  0  0  0
 28 29  1  1  0  0  0
M  END
>  <CHROM.1>
-136.17341037,-128.29883082,50.39788752,-7.20861531,20.83538411,100.89351807
14.36139821,-8.08930967,-2.83938172,0.36391906,0.52700236,0.01510375

>  <Name>
ligand

>  <RI>
0

>  <Rbt.Current_Directory>
/home/itssahil/PROJECTS/Mol_Feturizer/New_Systems/rnas/4F8V

>  <Rbt.Executable>
rbdock ($Id: //depot/dev/client3/rdock/2013.1/src/exe/rbdock.cxx#4 $)

>  <Rbt.Library>
libRbt.so (2013.1, Build901 2013/11/27)

>  <Rbt.Parameter_File>
/export/apps/rDock/src/rDock_2013.1_src/data/scripts/dock_solv.prm

>  <Rbt.Receptor>
prm/blind_docking_100.prm

>  <SCORE>
15.0711

>  <SCORE.INTER>
-7.23937

>  <SCORE.INTER.CONST>
1

>  <SCORE.INTER.POLAR>
0

>  <SCORE.INTER.ROT>
6

>  <SCORE.INTER.SOLV>
22.9679

>  <SCORE.INTER.VDW>
-20.0822

>  <SCORE.INTER.norm>
-0.233528

>  <SCORE.INTRA>
15.2558

>  <SCORE.INTRA.DIHEDRAL>
11.6989

>  <SCORE.INTRA.DIHEDRAL.0>
15.9129

>  <SCORE.INTRA.POLAR>
0

>  <SCORE.INTRA.POLAR.0>
0

>  <SCORE.INTRA.REPUL>
0

>  <SCORE.INTRA.REPUL.0>
0

>  <SCORE.INTRA.SOLV>
1.90985

>  <SCORE.INTRA.SOLV.lig_0>
-75.7056

>  <SCORE.INTRA.VDW>
8.45145

>  <SCORE.INTRA.VDW.0>
-4.61812

>  <SCORE.INTRA.norm>
0.492124

>  <SCORE.RESTR>
7.05465

>  <SCORE.RESTR.CAVITY>
7.05465

>  <SCORE.RESTR.norm>
0.227569

>  <SCORE.SYSTEM>
0

>  <SCORE.SYSTEM.CONST>
0

>  <SCORE.SYSTEM.DIHEDRAL>
0

>  <SCORE.SYSTEM.SOLV>
0

>  <SCORE.SYSTEM.norm>
0

>  <SCORE.heavy>
31

>  <SCORE.norm>
0.486165

>  <RMSD>
10.068

$$$$
ligand
 OpenBabel11021811493D
libRbt.so/2013.1/901 2013/11/27
 31 33  0  0  0  0  0  0  0  0999 V2000
   21.8143   -5.2149   -6.5506 C   0  0  2  0  0  0  0  0  0  0  0  0
   21.1892   -6.4578   -6.8983 O   0  0  0  0  0  0  0  0  0  0  0  0
   17.2583   -7.8881   -6.0670 C   0  0  2  0  0  0  0  0  0  0  0  0
   16.1102   -8.2954   -5.3294 N   0  0  0  0  0  0  0  0  0  0  0  0
   15.2207   -5.6758   -5.3979 C   0  0  2  0  0  0  0  0  0  0  0  0
   23.0355   -5.0381   -7.5050 C   0  0  2  0  0  0  0  0  0  0  0  0
   22.5659   -5.0777   -8.8885 N   0  0  0  0  0  0  0  0  0  0  0  0
   18.4647   -8.8364   -5.7139 C   0  0  0  0  0  0  0  0  0  0  0  0
   14.5594   -4.3063   -5.7106 C   0  0  2  0  0  0  0  0  0  0  0  0
   14.5245   -4.1312   -7.1086 O   0  0  0  0  0  0  0  0  0  0  0  0
   24.1134   -6.1555   -7.2263 C   0  0  0  0  0  0  0  0  0  0  0  0
   19.7386   -8.3810   -6.5358 C   0  0  2  0  0  0  0  0  0  0  0  0
   20.8747   -9.2655   -6.2055 N   0  0  0  0  0  0  0  0  0  0  0  0
   15.4137   -3.1776   -5.0082 C   0  0  1  0  0  0  0  0  0  0  0  0
   14.8282   -1.8384   -5.2993 N   0  0  0  0  0  0  0  0  0  0  0  0
   24.1579   -6.5999   -5.7192 C   0  0  0  0  0  0  0  0  0  0  0  0
   20.0823   -6.8762   -6.1628 C   0  0  2  0  0  0  0  0  0  0  0  0
   15.4247   -3.4250   -3.3991 C   0  0  1  0  0  0  0  0  0  0  0  0
   14.1409   -3.3799   -2.8257 O   0  0  0  0  0  0  0  0  0  0  0  0
   23.2838   -6.1191   -4.8226 C   0  0  1  0  0  0  0  0  0  0  0  0
   22.2813   -5.1863   -5.1750 O   0  0  0  0  0  0  0  0  0  0  0  0
   18.8556   -5.9552   -6.5057 C   0  0  2  0  0  0  0  0  0  0  0  0
   19.1690   -4.6081   -6.1568 O   0  0  0  0  0  0  0  0  0  0  0  0
   16.0321   -4.8322   -3.1086 C   0  0  0  0  0  0  0  0  0  0  0  0
   15.3040   -5.8941   -3.9079 O   0  0  0  0  0  0  0  0  0  0  0  0
   23.2886   -6.5431   -3.3409 C   0  0  0  0  0  0  0  0  0  0  0  0
   23.8348   -5.4628   -2.5491 N   0  0  0  0  0  0  0  0  0  0  0  0
   17.5979   -6.4321   -5.6857 C   0  0  1  0  0  0  0  0  0  0  0  0
   16.5222   -5.6041   -6.0179 O   0  0  0  0  0  0  0  0  0  0  0  0
   16.2180   -2.4040   -2.5712 C   0  0  0  0  0  0  0  0  0  0  0  0
   15.4269   -1.0984   -6.4208 C   0  0  0  0  0  0  0  0  0  0  0  0
  1  2  1  6  0  0  0
  1  6  1  0  0  0  0
  1 21  1  0  0  0  0
  3  4  1  1  0  0  0
  3  8  1  0  0  0  0
  3 28  1  0  0  0  0
  5  9  1  0  0  0  0
  5 25  1  0  0  0  0
  5 29  1  1  0  0  0
  6  7  1  6  0  0  0
  6 11  1  0  0  0  0
  8 12  1  0  0  0  0
  9 10  1  6  0  0  0
  9 14  1  0  0  0  0
 11 16  1  0  0  0  0
 12 13  1  1  0  0  0
 12 17  1  0  0  0  0
 14 15  1  1  0  0  0
 14 18  1  0  0  0  0
 15 31  1  0  0  0  0
 16 20  1  0  0  0  0
 17  2  1  6  0  0  0
 17 22  1  0  0  0  0
 18 19  1  1  0  0  0
 18 24  1  0  0  0  0
 18 30  1  0  0  0  0
 20 21  1  0  0  0  0
 20 26  1  6  0  0  0
 22 23  1  1  0  0  0
 22 28  1  0  0  0  0
 24 25  1  0  0  0  0
 26 27  1  0  0  0  0
 28 29  1  6  0  0  0
M  END
>  <CHROM.1>
178.21942101,160.87548812,-96.08360136,-169.22434524,105.53292957,65.35266875
18.71622219,-5.45615446,-5.46861543,-0.34488744,0.04955987,0.30722875

>  <Name>
ligand

>  <RI>
0

>  <Rbt.Current_Directory>
/home/itssahil/PROJECTS/Mol_Feturizer/New_Systems/rnas/4F8V

>  <Rbt.Executable>
rbdock ($Id: //depot/dev/client3/rdock/2013.1/src/exe/rbdock.cxx#4 $)

>  <Rbt.Library>
libRbt.so (2013.1, Build901 2013/11/27)

>  <Rbt.Parameter_File>
/export/apps/rDock/src/rDock_2013.1_src/data/scripts/dock_solv.prm

>  <Rbt.Receptor>
prm/pocket_docking_8.prm

>  <SCORE>
-15.5654

>  <SCORE.INTER>
-11.1638

>  <SCORE.INTER.CONST>
1

>  <SCORE.INTER.POLAR>
0

>  <SCORE.INTER.ROT>
6

>  <SCORE.INTER.SOLV>
25.0783

>  <SCORE.INTER.VDW>
-23.402

>  <SCORE.INTER.norm>
-0.360124

>  <SCORE.INTRA>
-4.43404

>  <SCORE.INTRA.DIHEDRAL>
-10.8078

>  <SCORE.INTRA.DIHEDRAL.0>
15.9129

>  <SCORE.INTRA.POLAR>
0

>  <SCORE.INTRA.POLAR.0>
0

>  <SCORE.INTRA.REPUL>
0

>  <SCORE.INTRA.REPUL.0>
0

>  <SCORE.INTRA.SOLV>
-1.71249

>  <SCORE.INTRA.SOLV.lig_0>
-75.7056

>  <SCORE.INTRA.VDW>
1.8261

>  <SCORE.INTRA.VDW.0>
-4.61812

>  <SCORE.INTRA.norm>
-0.143034

>  <SCORE.RESTR>
0.0324639

>  <SCORE.RESTR.CAVITY>
0.0324639

>  <SCORE.RESTR.norm>
0.00104722

>  <SCORE.SYSTEM>
0

>  <SCORE.SYSTEM.CONST>
0

>  <SCORE.SYSTEM.DIHEDRAL>
0

>  <SCORE.SYSTEM.SOLV>
0

>  <SCORE.SYSTEM.norm>
0

>  <SCORE.heavy>
31

>  <SCORE.norm>
-0.50211

>  <RMSD>
10.075

$$$$
ligand
 OpenBabel11021811493D
libRbt.so/2013.1/901 2013/11/27
 31 33  0  0  0  0  0  0  0  0999 V2000
   17.3381   -5.8258   -4.5933 C   0  0  2  0  0  0  0  0  0  0  0  0
   16.0985   -6.4643   -4.9280 O   0  0  0  0  0  0  0  0  0  0  0  0
   13.6008   -6.4866   -1.4711 C   0  0  2  0  0  0  0  0  0  0  0  0
   12.4641   -6.2753   -0.6397 N   0  0  0  0  0  0  0  0  0  0  0  0
   11.4400   -9.1576   -2.6347 C   0  0  2  0  0  0  0  0  0  0  0  0
   18.0732   -5.5287   -5.9368 C   0  0  2  0  0  0  0  0  0  0  0  0
   17.2095   -4.7017   -6.7772 N   0  0  0  0  0  0  0  0  0  0  0  0
   14.1531   -5.0946   -1.9577 C   0  0  0  0  0  0  0  0  0  0  0  0
   10.4842   -8.8931   -1.4402 C   0  0  2  0  0  0  0  0  0  0  0  0
   10.4301   -7.5045   -1.2051 O   0  0  0  0  0  0  0  0  0  0  0  0
   18.4634   -6.8770   -6.6562 C   0  0  0  0  0  0  0  0  0  0  0  0
   15.4165   -5.3333   -2.8811 C   0  0  2  0  0  0  0  0  0  0  0  0
   15.9368   -4.0303   -3.3433 N   0  0  0  0  0  0  0  0  0  0  0  0
   11.0437   -9.6703   -0.1832 C   0  0  1  0  0  0  0  0  0  0  0  0
   10.1683   -9.4278    0.9984 N   0  0  0  0  0  0  0  0  0  0  0  0
   18.7880   -8.0372   -5.6465 C   0  0  0  0  0  0  0  0  0  0  0  0
   14.9879   -6.2290   -4.1203 C   0  0  2  0  0  0  0  0  0  0  0  0
   11.0881  -11.2657   -0.5051 C   0  0  1  0  0  0  0  0  0  0  0  0
    9.8206  -11.8066   -0.7871 O   0  0  0  0  0  0  0  0  0  0  0  0
   18.6396   -7.8742   -4.3234 C   0  0  1  0  0  0  0  0  0  0  0  0
   18.1915   -6.6567   -3.7612 O   0  0  0  0  0  0  0  0  0  0  0  0
   14.4219   -7.6025   -3.6066 C   0  0  2  0  0  0  0  0  0  0  0  0
   14.0290   -8.3953   -4.7255 O   0  0  0  0  0  0  0  0  0  0  0  0
   12.0006  -11.5049   -1.7476 C   0  0  0  0  0  0  0  0  0  0  0  0
   11.5499  -10.6373   -2.9055 O   0  0  0  0  0  0  0  0  0  0  0  0
   18.9343   -8.9934   -3.3057 C   0  0  0  0  0  0  0  0  0  0  0  0
   19.4932  -10.1271   -4.0090 N   0  0  0  0  0  0  0  0  0  0  0  0
   13.1731   -7.3411   -2.6825 C   0  0  1  0  0  0  0  0  0  0  0  0
   12.6984   -8.5762   -2.2327 O   0  0  0  0  0  0  0  0  0  0  0  0
   11.6114  -12.1616    0.6266 C   0  0  0  0  0  0  0  0  0  0  0  0
    8.7538   -9.8016    0.8455 C   0  0  0  0  0  0  0  0  0  0  0  0
  1  2  1  6  0  0  0
  1  6  1  0  0  0  0
  1 21  1  0  0  0  0
  3  4  1  1  0  0  0
  3  8  1  0  0  0  0
  3 28  1  0  0  0  0
  5  9  1  0  0  0  0
  5 25  1  0  0  0  0
  5 29  1  1  0  0  0
  6  7  1  6  0  0  0
  6 11  1  0  0  0  0
  8 12  1  0  0  0  0
  9 10  1  1  0  0  0
  9 14  1  0  0  0  0
 11 16  1  0  0  0  0
 12 13  1  6  0  0  0
 12 17  1  0  0  0  0
 14 15  1  1  0  0  0
 14 18  1  0  0  0  0
 15 31  1  0  0  0  0
 16 20  1  0  0  0  0
 17  2  1  6  0  0  0
 17 22  1  0  0  0  0
 18 19  1  6  0  0  0
 18 24  1  0  0  0  0
 18 30  1  0  0  0  0
 20 21  1  0  0  0  0
 20 26  1  6  0  0  0
 22 23  1  6  0  0  0
 22 28  1  0  0  0  0
 24 25  1  0  0  0  0
 26 27  1  0  0  0  0
 28 29  1  1  0  0  0
M  END
>  <CHROM.1>
-146.85820204,-101.78801252,57.80252179,-4.31911653,5.40599668,129.59512745
14.17003395,-8.04474853,-2.78300238,0.45694964,0.50011392,-0.13644312

>  <Name>
ligand

>  <RI>
0

>  <Rbt.Current_Directory>
/home/itssahil/PROJECTS/Mol_Feturizer/New_Systems/rnas/4F8V

>  <Rbt.Executable>
rbdock ($Id: //depot/dev/client3/rdock/2013.1/src/exe/rbdock.cxx#4 $)

>  <Rbt.Library>
libRbt.so (2013.1, Build901 2013/11/27)

>  <Rbt.Parameter_File>
/export/apps/rDock/src/rDock_2013.1_src/data/scripts/dock_solv.prm

>  <Rbt.Receptor>
prm/blind_docking_100.prm

>  <SCORE>
18.0214

>  <SCORE.INTER>
-4.02634

>  <SCORE.INTER.CONST>
1

>  <SCORE.INTER.POLAR>
0

>  <SCORE.INTER.ROT>
6

>  <SCORE.INTER.SOLV>
22.5227

>  <SCORE.INTER.VDW>
-17.7918

>  <SCORE.INTER.norm>
-0.129882

>  <SCORE.INTRA>
14.5581

>  <SCORE.INTRA.DIHEDRAL>
9.5443

>  <SCORE.INTRA.DIHEDRAL.0>
15.9129

>  <SCORE.INTRA.POLAR>
0

>  <SCORE.INTRA.POLAR.0>
0

>  <SCORE.INTRA.REPUL>
0

>  <SCORE.INTRA.REPUL.0>
0

>  <SCORE.INTRA.SOLV>
1.88055

>  <SCORE.INTRA.SOLV.lig_0>
-75.7056

>  <SCORE.INTRA.VDW>
8.84569

>  <SCORE.INTRA.VDW.0>
-4.61812

>  <SCORE.INTRA.norm>
0.469617

>  <SCORE.RESTR>
7.48965

>  <SCORE.RESTR.CAVITY>
7.48965

>  <SCORE.RESTR.norm>
0.241602

>  <SCORE.SYSTEM>
0

>  <SCORE.SYSTEM.CONST>
0

>  <SCORE.SYSTEM.DIHEDRAL>
0

>  <SCORE.SYSTEM.SOLV>
0

>  <SCORE.SYSTEM.norm>
0

>  <SCORE.heavy>
31

>  <SCORE.norm>
0.581336

>  <RMSD>
10.242

$$$$
ligand
 OpenBabel11021811493D
libRbt.so/2013.1/901 2013/11/27
 31 33  0  0  0  0  0  0  0  0999 V2000
   16.4324   -7.1761   -5.7069 C   0  0  2  0  0  0  0  0  0  0  0  0
   16.5059   -6.8988   -4.3019 O   0  0  0  0  0  0  0  0  0  0  0  0
   13.6863   -6.1053   -1.2021 C   0  0  2  0  0  0  0  0  0  0  0  0
   12.5276   -5.6048   -0.5425 N   0  0  0  0  0  0  0  0  0  0  0  0
   11.3373   -8.6196   -2.5747 C   0  0  2  0  0  0  0  0  0  0  0  0
   17.8269   -7.7299   -6.1341 C   0  0  2  0  0  0  0  0  0  0  0  0
   18.1343   -8.9114   -5.3307 N   0  0  0  0  0  0  0  0  0  0  0  0
   14.5480   -4.8958   -1.7256 C   0  0  0  0  0  0  0  0  0  0  0  0
   10.2213   -8.6462   -1.4957 C   0  0  2  0  0  0  0  0  0  0  0  0
   10.0288   -7.3358   -1.0139 O   0  0  0  0  0  0  0  0  0  0  0  0
   18.9308   -6.6150   -5.9720 C   0  0  0  0  0  0  0  0  0  0  0  0
   15.8349   -5.4558   -2.4576 C   0  0  2  0  0  0  0  0  0  0  0  0
   16.6455   -4.3249   -2.9538 N   0  0  0  0  0  0  0  0  0  0  0  0
   10.6780   -9.6247   -0.3419 C   0  0  1  0  0  0  0  0  0  0  0  0
    9.6449   -9.6660    0.7314 N   0  0  0  0  0  0  0  0  0  0  0  0
   18.3788   -5.1658   -6.2287 C   0  0  0  0  0  0  0  0  0  0  0  0
   15.3799   -6.3820   -3.6645 C   0  0  2  0  0  0  0  0  0  0  0  0
   10.8881  -11.1209   -0.9483 C   0  0  1  0  0  0  0  0  0  0  0  0
    9.7127  -11.6623   -1.4996 O   0  0  0  0  0  0  0  0  0  0  0  0
   17.0765   -4.9452   -6.4625 C   0  0  1  0  0  0  0  0  0  0  0  0
   16.1302   -5.9952   -6.4977 O   0  0  0  0  0  0  0  0  0  0  0  0
   14.5056   -7.5682   -3.1174 C   0  0  2  0  0  0  0  0  0  0  0  0
   14.0920   -8.3878   -4.2092 O   0  0  0  0  0  0  0  0  0  0  0  0
   11.9654  -11.0624   -2.0752 C   0  0  0  0  0  0  0  0  0  0  0  0
   11.5966  -10.0092   -3.1006 O   0  0  0  0  0  0  0  0  0  0  0  0
   16.4981   -3.5372   -6.7038 C   0  0  0  0  0  0  0  0  0  0  0  0
   15.2397   -3.4237   -5.9996 N   0  0  0  0  0  0  0  0  0  0  0  0
   13.2371   -6.9886   -2.3847 C   0  0  1  0  0  0  0  0  0  0  0  0
   12.4856   -8.0626   -1.9004 O   0  0  0  0  0  0  0  0  0  0  0  0
   11.3341  -12.1928    0.0564 C   0  0  0  0  0  0  0  0  0  0  0  0
   10.0969  -10.1380    2.0492 C   0  0  0  0  0  0  0  0  0  0  0  0
  1  2  1  1  0  0  0
  1  6  1  0  0  0  0
  1 21  1  0  0  0  0
  3  4  1  6  0  0  0
  3  8  1  0  0  0  0
  3 28  1  0  0  0  0
  5  9  1  0  0  0  0
  5 25  1  0  0  0  0
  5 29  1  1  0  0  0
  6  7  1  1  0  0  0
  6 11  1  0  0  0  0
  8 12  1  0  0  0  0
  9 10  1  1  0  0  0
  9 14  1  0  0  0  0
 11 16  1  0  0  0  0
 12 13  1  6  0  0  0
 12 17  1  0  0  0  0
 14 15  1  1  0  0  0
 14 18  1  0  0  0  0
 15 31  1  0  0  0  0
 16 20  1  0  0  0  0
 17  2  1  1  0  0  0
 17 22  1  0  0  0  0
 18 19  1  6  0  0  0
 18 24  1  0  0  0  0
 18 30  1  0  0  0  0
 20 21  1  0  0  0  0
 20 26  1  1  0  0  0
 22 23  1  6  0  0  0
 22 28  1  0  0  0  0
 24 25  1  0  0  0  0
 26 27  1  0  0  0  0
 28 29  1  1  0  0  0
M  END
>  <CHROM.1>
179.70200912,-128.49727257,-159.64142986,-149.43196060,-138.74661886,143.16248417
13.88345290,-7.59053220,-3.01454133,-0.35398620,-0.73581857,-2.93479595

>  <Name>
ligand

>  <RI>
0

>  <Rbt.Current_Directory>
/home/itssahil/PROJECTS/Mol_Feturizer/New_Systems/rnas/4F8V

>  <Rbt.Executable>
rbdock ($Id: //depot/dev/client3/rdock/2013.1/src/exe/rbdock.cxx#4 $)

>  <Rbt.Library>
libRbt.so (2013.1, Build901 2013/11/27)

>  <Rbt.Parameter_File>
/export/apps/rDock/src/rDock_2013.1_src/data/scripts/dock_solv.prm

>  <Rbt.Receptor>
prm/blind_docking_100.prm

>  <SCORE>
4.05057

>  <SCORE.INTER>
-5.93444

>  <SCORE.INTER.CONST>
1

>  <SCORE.INTER.POLAR>
0

>  <SCORE.INTER.ROT>
6

>  <SCORE.INTER.SOLV>
17.9104

>  <SCORE.INTER.VDW>
-17.5264

>  <SCORE.INTER.norm>
-0.191434

>  <SCORE.INTRA>
3.35977

>  <SCORE.INTRA.DIHEDRAL>
1.91956

>  <SCORE.INTRA.DIHEDRAL.0>
15.9129

>  <SCORE.INTRA.POLAR>
0

>  <SCORE.INTRA.POLAR.0>
0

>  <SCORE.INTRA.REPUL>
0

>  <SCORE.INTRA.REPUL.0>
0

>  <SCORE.INTRA.SOLV>
2.04467

>  <SCORE.INTRA.SOLV.lig_0>
-75.7056

>  <SCORE.INTRA.VDW>
1.37765

>  <SCORE.INTRA.VDW.0>
-4.61812

>  <SCORE.INTRA.norm>
0.10838

>  <SCORE.RESTR>
6.62525

>  <SCORE.RESTR.CAVITY>
6.62525

>  <SCORE.RESTR.norm>
0.213718

>  <SCORE.SYSTEM>
0

>  <SCORE.SYSTEM.CONST>
0

>  <SCORE.SYSTEM.DIHEDRAL>
0

>  <SCORE.SYSTEM.SOLV>
0

>  <SCORE.SYSTEM.norm>
0

>  <SCORE.heavy>
31

>  <SCORE.norm>
0.130664

>  <RMSD>
10.258

$$$$
ligand
 OpenBabel11021811493D
libRbt.so/2013.1/901 2013/11/27
 31 33  0  0  0  0  0  0  0  0999 V2000
   16.4307   -7.2065   -5.7245 C   0  0  2  0  0  0  0  0  0  0  0  0
   16.5036   -6.9628   -4.3132 O   0  0  0  0  0  0  0  0  0  0  0  0
   13.7143   -6.1056   -1.2031 C   0  0  2  0  0  0  0  0  0  0  0  0
   12.5695   -5.5794   -0.5394 N   0  0  0  0  0  0  0  0  0  0  0  0
   11.3472   -8.6144   -2.5971 C   0  0  2  0  0  0  0  0  0  0  0  0
   17.8142   -7.7825   -6.1580 C   0  0  2  0  0  0  0  0  0  0  0  0
   18.0905   -8.9887   -5.3803 N   0  0  0  0  0  0  0  0  0  0  0  0
   14.6002   -4.9156   -1.7309 C   0  0  0  0  0  0  0  0  0  0  0  0
   10.2006   -8.6451   -1.5507 C   0  0  2  0  0  0  0  0  0  0  0  0
    9.9779   -7.3329   -1.0873 O   0  0  0  0  0  0  0  0  0  0  0  0
   18.9427   -6.6974   -5.9657 C   0  0  0  0  0  0  0  0  0  0  0  0
   15.8717   -5.5042   -2.4675 C   0  0  2  0  0  0  0  0  0  0  0  0
   16.7048   -4.3916   -2.9678 N   0  0  0  0  0  0  0  0  0  0  0  0
   10.6356   -9.6070   -0.3747 C   0  0  1  0  0  0  0  0  0  0  0  0
    9.5722   -9.6514    0.6685 N   0  0  0  0  0  0  0  0  0  0  0  0
   18.4253   -5.2304   -6.1919 C   0  0  0  0  0  0  0  0  0  0  0  0
   15.3918   -6.4211   -3.6718 C   0  0  2  0  0  0  0  0  0  0  0  0
   10.8818  -11.1060   -0.9604 C   0  0  1  0  0  0  0  0  0  0  0  0
    9.7297  -11.6673   -1.5403 O   0  0  0  0  0  0  0  0  0  0  0  0
   17.1297   -4.9745   -6.4263 C   0  0  1  0  0  0  0  0  0  0  0  0
   16.1597   -6.0014   -6.4896 O   0  0  0  0  0  0  0  0  0  0  0  0
   14.4938   -7.5874   -3.1204 C   0  0  2  0  0  0  0  0  0  0  0  0
   14.0582   -8.3986   -4.2099 O   0  0  0  0  0  0  0  0  0  0  0  0
   11.9906  -11.0444   -2.0560 C   0  0  0  0  0  0  0  0  0  0  0  0
   11.6389  -10.0054   -3.1018 O   0  0  0  0  0  0  0  0  0  0  0  0
   16.5849   -3.5484   -6.6381 C   0  0  0  0  0  0  0  0  0  0  0  0
   15.3282   -3.4205   -5.9334 N   0  0  0  0  0  0  0  0  0  0  0  0
   13.2412   -6.9797   -2.3832 C   0  0  1  0  0  0  0  0  0  0  0  0
   12.4683   -8.0367   -1.8952 O   0  0  0  0  0  0  0  0  0  0  0  0
   11.3116  -12.1628    0.0671 C   0  0  0  0  0  0  0  0  0  0  0  0
   10.0069  -10.0282    2.0223 C   0  0  0  0  0  0  0  0  0  0  0  0
  1  2  1  1  0  0  0
  1  6  1  0  0  0  0
  1 21  1  0  0  0  0
  3  4  1  6  0  0  0
  3  8  1  0  0  0  0
  3 28  1  0  0  0  0
  5  9  1  0  0  0  0
  5 25  1  0  0  0  0
  5 29  1  1  0  0  0
  6  7  1  1  0  0  0
  6 11  1  0  0  0  0
  8 12  1  0  0  0  0
  9 10  1  1  0  0  0
  9 14  1  0  0  0  0
 11 16  1  0  0  0  0
 12 13  1  6  0  0  0
 12 17  1  0  0  0  0
 14 15  1  1  0  0  0
 14 18  1  0  0  0  0
 15 31  1  0  0  0  0
 16 20  1  0  0  0  0
 17  2  1  1  0  0  0
 17 22  1  0  0  0  0
 18 19  1  6  0  0  0
 18 24  1  0  0  0  0
 18 30  1  0  0  0  0
 20 21  1  0  0  0  0
 20 26  1  1  0  0  0
 22 23  1  6  0  0  0
 22 28  1  0  0  0  0
 24 25  1  0  0  0  0
 26 27  1  0  0  0  0
 28 29  1  1  0  0  0
M  END
>  <CHROM.1>
179.00813444,-130.18678108,-156.12806893,-147.80501154,-138.55607527,146.51207347
13.88994976,-7.60118492,-3.02153585,-0.34112914,-0.72946873,-2.92478320

>  <Name>
ligand

>  <RI>
0

>  <Rbt.Current_Directory>
/home/itssahil/PROJECTS/Mol_Feturizer/New_Systems/rnas/4F8V

>  <Rbt.Executable>
rbdock ($Id: //depot/dev/client3/rdock/2013.1/src/exe/rbdock.cxx#4 $)

>  <Rbt.Library>
libRbt.so (2013.1, Build901 2013/11/27)

>  <Rbt.Parameter_File>
/export/apps/rDock/src/rDock_2013.1_src/data/scripts/dock_solv.prm

>  <Rbt.Receptor>
prm/blind_docking_100.prm

>  <SCORE>
4.09014

>  <SCORE.INTER>
-5.4241

>  <SCORE.INTER.CONST>
1

>  <SCORE.INTER.POLAR>
0

>  <SCORE.INTER.ROT>
6

>  <SCORE.INTER.SOLV>
18.4904

>  <SCORE.INTER.VDW>
-17.3795

>  <SCORE.INTER.norm>
-0.174971

>  <SCORE.INTRA>
2.84358

>  <SCORE.INTRA.DIHEDRAL>
1.56599

>  <SCORE.INTRA.DIHEDRAL.0>
15.9129

>  <SCORE.INTRA.POLAR>
0

>  <SCORE.INTRA.POLAR.0>
0

>  <SCORE.INTRA.REPUL>
0

>  <SCORE.INTRA.REPUL.0>
0

>  <SCORE.INTRA.SOLV>
2.16613

>  <SCORE.INTRA.SOLV.lig_0>
-75.7056

>  <SCORE.INTRA.VDW>
0.977517

>  <SCORE.INTRA.VDW.0>
-4.61812

>  <SCORE.INTRA.norm>
0.0917283

>  <SCORE.RESTR>
6.67066

>  <SCORE.RESTR.CAVITY>
6.67066

>  <SCORE.RESTR.norm>
0.215182

>  <SCORE.SYSTEM>
0

>  <SCORE.SYSTEM.CONST>
0

>  <SCORE.SYSTEM.DIHEDRAL>
0

>  <SCORE.SYSTEM.SOLV>
0

>  <SCORE.SYSTEM.norm>
0

>  <SCORE.heavy>
31

>  <SCORE.norm>
0.13194

>  <RMSD>
10.265

$$$$
ligand
 OpenBabel11021811493D
libRbt.so/2013.1/901 2013/11/27
 31 33  0  0  0  0  0  0  0  0999 V2000
   16.4234   -7.2154   -5.7859 C   0  0  2  0  0  0  0  0  0  0  0  0
   16.4729   -7.0738   -4.3597 O   0  0  0  0  0  0  0  0  0  0  0  0
   13.7461   -6.1180   -1.2229 C   0  0  2  0  0  0  0  0  0  0  0  0
   12.6249   -5.5550   -0.5493 N   0  0  0  0  0  0  0  0  0  0  0  0
   11.3232   -8.6009   -2.5969 C   0  0  2  0  0  0  0  0  0  0  0  0
   17.7872   -7.8299   -6.2288 C   0  0  2  0  0  0  0  0  0  0  0  0
   17.9840   -9.0995   -5.5320 N   0  0  0  0  0  0  0  0  0  0  0  0
   14.6599   -4.9573   -1.7682 C   0  0  0  0  0  0  0  0  0  0  0  0
   10.1748   -8.6506   -1.5532 C   0  0  2  0  0  0  0  0  0  0  0  0
    9.9373   -7.3439   -1.0817 O   0  0  0  0  0  0  0  0  0  0  0  0
   18.9626   -6.8196   -5.9366 C   0  0  0  0  0  0  0  0  0  0  0  0
   15.9051   -5.5868   -2.5157 C   0  0  2  0  0  0  0  0  0  0  0  0
   16.7642   -4.5018   -3.0324 N   0  0  0  0  0  0  0  0  0  0  0  0
   10.6175   -9.6156   -0.3827 C   0  0  1  0  0  0  0  0  0  0  0  0
    9.5524   -9.6781    0.6579 N   0  0  0  0  0  0  0  0  0  0  0  0
   18.5242   -5.3160   -6.0703 C   0  0  0  0  0  0  0  0  0  0  0  0
   15.3848   -6.4963   -3.7089 C   0  0  2  0  0  0  0  0  0  0  0  0
   10.8807  -11.1080   -0.9776 C   0  0  1  0  0  0  0  0  0  0  0  0
    9.7358  -11.6776   -1.5637 O   0  0  0  0  0  0  0  0  0  0  0  0
   17.2490   -4.9789   -6.3140 C   0  0  1  0  0  0  0  0  0  0  0  0
   16.2314   -5.9481   -6.4701 O   0  0  0  0  0  0  0  0  0  0  0  0
   14.4599   -7.6329   -3.1400 C   0  0  2  0  0  0  0  0  0  0  0  0
   13.9882   -8.4374   -4.2194 O   0  0  0  0  0  0  0  0  0  0  0  0
   11.9911  -11.0275   -2.0705 C   0  0  0  0  0  0  0  0  0  0  0  0
   11.6306   -9.9854   -3.1101 O   0  0  0  0  0  0  0  0  0  0  0  0
   16.7808   -3.5157   -6.4369 C   0  0  0  0  0  0  0  0  0  0  0  0
   15.8099   -3.4255   -7.5054 N   0  0  0  0  0  0  0  0  0  0  0  0
   13.2342   -6.9848   -2.3921 C   0  0  1  0  0  0  0  0  0  0  0  0
   12.4367   -8.0161   -1.8887 O   0  0  0  0  0  0  0  0  0  0  0  0
   11.3195  -12.1670    0.0438 C   0  0  0  0  0  0  0  0  0  0  0  0
    9.9856  -10.0745    2.0066 C   0  0  0  0  0  0  0  0  0  0  0  0
  1  2  1  1  0  0  0
  1  6  1  0  0  0  0
  1 21  1  0  0  0  0
  3  4  1  6  0  0  0
  3  8  1  0  0  0  0
  3 28  1  0  0  0  0
  5  9  1  0  0  0  0
  5 25  1  0  0  0  0
  5 29  1  1  0  0  0
  6  7  1  1  0  0  0
  6 11  1  0  0  0  0
  8 12  1  0  0  0  0
  9 10  1  1  0  0  0
  9 14  1  0  0  0  0
 11 16  1  0  0  0  0
 12 13  1  6  0  0  0
 12 17  1  0  0  0  0
 14 15  1  1  0  0  0
 14 18  1  0  0  0  0
 15 31  1  0  0  0  0
 16 20  1  0  0  0  0
 17  2  1  1  0  0  0
 17 22  1  0  0  0  0
 18 19  1  6  0  0  0
 18 24  1  0  0  0  0
 18 30  1  0  0  0  0
 20 21  1  0  0  0  0
 20 26  1  1  0  0  0
 22 23  1  6  0  0  0
 22 28  1  0  0  0  0
 24 25  1  0  0  0  0
 26 27  1  0  0  0  0
 28 29  1  1  0  0  0
M  END
>  <CHROM.1>
177.70136193,-132.96955734,-156.81454345,-142.38778807,140.44667166,149.06673969
13.91379486,-7.62791333,-3.07855940,-0.32779136,-0.73915974,-2.91639769

>  <Name>
ligand

>  <RI>
0

>  <Rbt.Current_Directory>
/home/itssahil/PROJECTS/Mol_Feturizer/New_Systems/rnas/4F8V

>  <Rbt.Executable>
rbdock ($Id: //depot/dev/client3/rdock/2013.1/src/exe/rbdock.cxx#4 $)

>  <Rbt.Library>
libRbt.so (2013.1, Build901 2013/11/27)

>  <Rbt.Parameter_File>
/export/apps/rDock/src/rDock_2013.1_src/data/scripts/dock_solv.prm

>  <Rbt.Receptor>
prm/blind_docking_100.prm

>  <SCORE>
4.74256

>  <SCORE.INTER>
-3.92192

>  <SCORE.INTER.CONST>
1

>  <SCORE.INTER.POLAR>
0

>  <SCORE.INTER.ROT>
6

>  <SCORE.INTER.SOLV>
21.9545

>  <SCORE.INTER.VDW>
-17.5328

>  <SCORE.INTER.norm>
-0.126513

>  <SCORE.INTRA>
2.1176

>  <SCORE.INTRA.DIHEDRAL>
1.85954

>  <SCORE.INTRA.DIHEDRAL.0>
15.9129

>  <SCORE.INTRA.POLAR>
0

>  <SCORE.INTRA.POLAR.0>
0

>  <SCORE.INTRA.REPUL>
0

>  <SCORE.INTRA.REPUL.0>
0

>  <SCORE.INTRA.SOLV>
-0.067541

>  <SCORE.INTRA.SOLV.lig_0>
-75.7056

>  <SCORE.INTRA.VDW>
1.2216

>  <SCORE.INTRA.VDW.0>
-4.61812

>  <SCORE.INTRA.norm>
0.0683097

>  <SCORE.RESTR>
6.54688

>  <SCORE.RESTR.CAVITY>
6.54688

>  <SCORE.RESTR.norm>
0.21119

>  <SCORE.SYSTEM>
0

>  <SCORE.SYSTEM.CONST>
0

>  <SCORE.SYSTEM.DIHEDRAL>
0

>  <SCORE.SYSTEM.SOLV>
0

>  <SCORE.SYSTEM.norm>
0

>  <SCORE.heavy>
31

>  <SCORE.norm>
0.152986

>  <RMSD>
10.269

$$$$
ligand
 OpenBabel11021811493D
libRbt.so/2013.1/901 2013/11/27
 31 33  0  0  0  0  0  0  0  0999 V2000
   16.4071   -7.3103   -5.7522 C   0  0  2  0  0  0  0  0  0  0  0  0
   16.4683   -7.0985   -4.3352 O   0  0  0  0  0  0  0  0  0  0  0  0
   13.6720   -6.2132   -1.2393 C   0  0  2  0  0  0  0  0  0  0  0  0
   12.5345   -5.6672   -0.5789 N   0  0  0  0  0  0  0  0  0  0  0  0
   11.1175   -8.4743   -2.5527 C   0  0  2  0  0  0  0  0  0  0  0  0
   17.7925   -7.8813   -6.1863 C   0  0  2  0  0  0  0  0  0  0  0  0
   18.0578   -9.1056   -5.4334 N   0  0  0  0  0  0  0  0  0  0  0  0
   14.5926   -5.0390   -1.7424 C   0  0  0  0  0  0  0  0  0  0  0  0
   10.1642   -8.6570   -1.3410 C   0  0  2  0  0  0  0  0  0  0  0  0
   10.1315   -7.4539   -0.6077 O   0  0  0  0  0  0  0  0  0  0  0  0
   18.9228   -6.8048   -5.9599 C   0  0  0  0  0  0  0  0  0  0  0  0
   15.8558   -5.6495   -2.4753 C   0  0  2  0  0  0  0  0  0  0  0  0
   16.7215   -4.5517   -2.9525 N   0  0  0  0  0  0  0  0  0  0  0  0
   10.7095   -9.8533   -0.4642 C   0  0  1  0  0  0  0  0  0  0  0  0
    9.8363  -10.0528    0.7270 N   0  0  0  0  0  0  0  0  0  0  0  0
   18.4124   -5.3313   -6.1577 C   0  0  0  0  0  0  0  0  0  0  0  0
   15.3644   -6.5375   -3.6966 C   0  0  2  0  0  0  0  0  0  0  0  0
   10.7294  -11.2161   -1.3547 C   0  0  1  0  0  0  0  0  0  0  0  0
    9.4539  -11.5947   -1.8115 O   0  0  0  0  0  0  0  0  0  0  0  0
   17.1197   -5.0657   -6.3977 C   0  0  1  0  0  0  0  0  0  0  0  0
   16.1469   -6.0874   -6.4925 O   0  0  0  0  0  0  0  0  0  0  0  0
   14.4321   -7.6881   -3.1697 C   0  0  2  0  0  0  0  0  0  0  0  0
   13.9865   -8.4730   -4.2743 O   0  0  0  0  0  0  0  0  0  0  0  0
   11.6398  -10.9915   -2.6014 C   0  0  0  0  0  0  0  0  0  0  0  0
   11.2045   -9.7496   -3.3532 O   0  0  0  0  0  0  0  0  0  0  0  0
   16.5816   -3.6333   -6.5823 C   0  0  0  0  0  0  0  0  0  0  0  0
   15.4322   -3.4532   -5.7228 N   0  0  0  0  0  0  0  0  0  0  0  0
   13.1883   -7.0588   -2.4357 C   0  0  1  0  0  0  0  0  0  0  0  0
   12.3843   -8.1024   -1.9695 O   0  0  0  0  0  0  0  0  0  0  0  0
   11.2368  -12.4755   -0.6380 C   0  0  0  0  0  0  0  0  0  0  0  0
   10.0351   -9.1139    1.8417 C   0  0  0  0  0  0  0  0  0  0  0  0
  1  2  1  1  0  0  0
  1  6  1  0  0  0  0
  1 21  1  0  0  0  0
  3  4  1  6  0  0  0
  3  8  1  0  0  0  0
  3 28  1  0  0  0  0
  5  9  1  0  0  0  0
  5 25  1  0  0  0  0
  5 29  1  1  0  0  0
  6  7  1  1  0  0  0
  6 11  1  0  0  0  0
  8 12  1  0  0  0  0
  9 10  1  1  0  0  0
  9 14  1  0  0  0  0
 11 16  1  0  0  0  0
 12 13  1  6  0  0  0
 12 17  1  0  0  0  0
 14 15  1  1  0  0  0
 14 18  1  0  0  0  0
 15 31  1  0  0  0  0
 16 20  1  0  0  0  0
 17  2  1  1  0  0  0
 17 22  1  0  0  0  0
 18 19  1  6  0  0  0
 18 24  1  0  0  0  0
 18 30  1  0  0  0  0
 20 21  1  0  0  0  0
 20 26  1  1  0  0  0
 22 23  1  6  0  0  0
 22 28  1  0  0  0  0
 24 25  1  0  0  0  0
 26 27  1  0  0  0  0
 28 29  1  1  0  0  0
M  END
>  <CHROM.1>
177.48976473,-134.32312621,-78.56100194,-147.27240812,-129.82975319,134.16140274
13.84053885,-7.65501316,-3.07999381,-0.25140406,-0.73025968,-2.80075517

>  <Name>
ligand

>  <RI>
0

>  <Rbt.Current_Directory>
/home/itssahil/PROJECTS/Mol_Feturizer/New_Systems/rnas/4F8V

>  <Rbt.Executable>
rbdock ($Id: //depot/dev/client3/rdock/2013.1/src/exe/rbdock.cxx#4 $)

>  <Rbt.Library>
libRbt.so (2013.1, Build901 2013/11/27)

>  <Rbt.Parameter_File>
/export/apps/rDock/src/rDock_2013.1_src/data/scripts/dock_solv.prm

>  <Rbt.Receptor>
prm/blind_docking_100.prm

>  <SCORE>
6.92676

>  <SCORE.INTER>
-3.26352

>  <SCORE.INTER.CONST>
1

>  <SCORE.INTER.POLAR>
0

>  <SCORE.INTER.ROT>
6

>  <SCORE.INTER.SOLV>
19.2735

>  <SCORE.INTER.VDW>
-16.2002

>  <SCORE.INTER.norm>
-0.105275

>  <SCORE.INTRA>
3.24114

>  <SCORE.INTRA.DIHEDRAL>
2.78306

>  <SCORE.INTRA.DIHEDRAL.0>
15.9129

>  <SCORE.INTRA.POLAR>
0

>  <SCORE.INTRA.POLAR.0>
0

>  <SCORE.INTRA.REPUL>
0

>  <SCORE.INTRA.REPUL.0>
0

>  <SCORE.INTRA.SOLV>
2.92021

>  <SCORE.INTRA.SOLV.lig_0>
-75.7056

>  <SCORE.INTRA.VDW>
0.389503

>  <SCORE.INTRA.VDW.0>
-4.61812

>  <SCORE.INTRA.norm>
0.104553

>  <SCORE.RESTR>
6.94913

>  <SCORE.RESTR.CAVITY>
6.94913

>  <SCORE.RESTR.norm>
0.224166

>  <SCORE.SYSTEM>
0

>  <SCORE.SYSTEM.CONST>
0

>  <SCORE.SYSTEM.DIHEDRAL>
0

>  <SCORE.SYSTEM.SOLV>
0

>  <SCORE.SYSTEM.norm>
0

>  <SCORE.heavy>
31

>  <SCORE.norm>
0.223444

>  <RMSD>
10.273

$$$$
ligand
 OpenBabel11021811493D
libRbt.so/2013.1/901 2013/11/27
 31 33  0  0  0  0  0  0  0  0999 V2000
   16.3824   -7.1869   -5.7789 C   0  0  2  0  0  0  0  0  0  0  0  0
   16.4540   -7.0195   -4.3565 O   0  0  0  0  0  0  0  0  0  0  0  0
   13.7297   -6.1231   -1.2000 C   0  0  2  0  0  0  0  0  0  0  0  0
   12.6062   -5.5771   -0.5162 N   0  0  0  0  0  0  0  0  0  0  0  0
   11.3187   -8.6049   -2.5933 C   0  0  2  0  0  0  0  0  0  0  0  0
   17.7456   -7.7937   -6.2340 C   0  0  2  0  0  0  0  0  0  0  0  0
   17.9687   -9.0484   -5.5184 N   0  0  0  0  0  0  0  0  0  0  0  0
   14.6324   -4.9486   -1.7343 C   0  0  0  0  0  0  0  0  0  0  0  0
   10.1710   -8.6561   -1.5490 C   0  0  2  0  0  0  0  0  0  0  0  0
    9.9356   -7.3504   -1.0735 O   0  0  0  0  0  0  0  0  0  0  0  0
   18.9140   -6.7652   -5.9794 C   0  0  0  0  0  0  0  0  0  0  0  0
   15.8802   -5.5591   -2.4931 C   0  0  2  0  0  0  0  0  0  0  0  0
   16.7289   -4.4611   -2.9996 N   0  0  0  0  0  0  0  0  0  0  0  0
   10.6132   -9.6250   -0.3816 C   0  0  1  0  0  0  0  0  0  0  0  0
    9.5488   -9.6891    0.6596 N   0  0  0  0  0  0  0  0  0  0  0  0
   18.4560   -5.2693   -6.1320 C   0  0  0  0  0  0  0  0  0  0  0  0
   15.3634   -6.4586   -3.6954 C   0  0  2  0  0  0  0  0  0  0  0  0
   10.8740  -11.1161   -0.9810 C   0  0  1  0  0  0  0  0  0  0  0  0
    9.7279  -11.6825   -1.5679 O   0  0  0  0  0  0  0  0  0  0  0  0
   17.1731   -4.9509   -6.3600 C   0  0  1  0  0  0  0  0  0  0  0  0
   16.1644   -5.9342   -6.4819 O   0  0  0  0  0  0  0  0  0  0  0  0
   14.4495   -7.6093   -3.1373 C   0  0  2  0  0  0  0  0  0  0  0  0
   13.9808   -8.4046   -4.2247 O   0  0  0  0  0  0  0  0  0  0  0  0
   11.9837  -11.0339   -2.0744 C   0  0  0  0  0  0  0  0  0  0  0  0
   11.6239   -9.9884   -3.1108 O   0  0  0  0  0  0  0  0  0  0  0  0
   16.6860   -3.4955   -6.5006 C   0  0  0  0  0  0  0  0  0  0  0  0
   15.6707   -3.4415   -7.5295 N   0  0  0  0  0  0  0  0  0  0  0  0
   13.2210   -6.9800   -2.3779 C   0  0  1  0  0  0  0  0  0  0  0  0
   12.4335   -8.0236   -1.8843 O   0  0  0  0  0  0  0  0  0  0  0  0
   11.3121  -12.1786    0.0371 C   0  0  0  0  0  0  0  0  0  0  0  0
    9.9805  -10.1006    2.0043 C   0  0  0  0  0  0  0  0  0  0  0  0
  1  2  1  1  0  0  0
  1  6  1  0  0  0  0
  1 21  1  0  0  0  0
  3  4  1  6  0  0  0
  3  8  1  0  0  0  0
  3 28  1  0  0  0  0
  5  9  1  0  0  0  0
  5 25  1  0  0  0  0
  5 29  1  1  0  0  0
  6  7  1  1  0  0  0
  6 11  1  0  0  0  0
  8 12  1  0  0  0  0
  9 10  1  1  0  0  0
  9 14  1  0  0  0  0
 11 16  1  0  0  0  0
 12 13  1  6  0  0  0
 12 17  1  0  0  0  0
 14 15  1  1  0  0  0
 14 18  1  0  0  0  0
 15 31  1  0  0  0  0
 16 20  1  0  0  0  0
 17  2  1  1  0  0  0
 17 22  1  0  0  0  0
 18 19  1  6  0  0  0
 18 24  1  0  0  0  0
 18 30  1  0  0  0  0
 20 21  1  0  0  0  0
 20 26  1  1  0  0  0
 22 23  1  6  0  0  0
 22 28  1  0  0  0  0
 24 25  1  0  0  0  0
 26 27  1  0  0  0  0
 28 29  1  1  0  0  0
M  END
>  <CHROM.1>
178.51159550,-132.08595240,-157.30087589,-144.50803002,141.96138087,148.77571139
13.88669519,-7.61636772,-3.08058297,-0.32627068,-0.74797597,-2.90832377

>  <Name>
ligand

>  <RI>
0

>  <Rbt.Current_Directory>
/home/itssahil/PROJECTS/Mol_Feturizer/New_Systems/rnas/4F8V

>  <Rbt.Executable>
rbdock ($Id: //depot/dev/client3/rdock/2013.1/src/exe/rbdock.cxx#4 $)

>  <Rbt.Library>
libRbt.so (2013.1, Build901 2013/11/27)

>  <Rbt.Parameter_File>
/export/apps/rDock/src/rDock_2013.1_src/data/scripts/dock_solv.prm

>  <Rbt.Receptor>
prm/blind_docking_100.prm

>  <SCORE>
4.25556

>  <SCORE.INTER>
-4.38788

>  <SCORE.INTER.CONST>
1

>  <SCORE.INTER.POLAR>
0

>  <SCORE.INTER.ROT>
6

>  <SCORE.INTER.SOLV>
21.6511

>  <SCORE.INTER.VDW>
-17.7423

>  <SCORE.INTER.norm>
-0.141545

>  <SCORE.INTRA>
2.04053

>  <SCORE.INTRA.DIHEDRAL>
1.67855

>  <SCORE.INTRA.DIHEDRAL.0>
15.9129

>  <SCORE.INTRA.POLAR>
0

>  <SCORE.INTRA.POLAR.0>
0

>  <SCORE.INTRA.REPUL>
0

>  <SCORE.INTRA.REPUL.0>
0

>  <SCORE.INTRA.SOLV>
-0.192228

>  <SCORE.INTRA.SOLV.lig_0>
-75.7056

>  <SCORE.INTRA.VDW>
1.29737

>  <SCORE.INTRA.VDW.0>
-4.61812

>  <SCORE.INTRA.norm>
0.0658235

>  <SCORE.RESTR>
6.60291

>  <SCORE.RESTR.CAVITY>
6.60291

>  <SCORE.RESTR.norm>
0.212997

>  <SCORE.SYSTEM>
0

>  <SCORE.SYSTEM.CONST>
0

>  <SCORE.SYSTEM.DIHEDRAL>
0

>  <SCORE.SYSTEM.SOLV>
0

>  <SCORE.SYSTEM.norm>
0

>  <SCORE.heavy>
31

>  <SCORE.norm>
0.137276

>  <RMSD>
10.278

$$$$
ligand
 OpenBabel11021811493D
libRbt.so/2013.1/901 2013/11/27
 31 33  0  0  0  0  0  0  0  0999 V2000
   16.4404   -7.1847   -5.6947 C   0  0  2  0  0  0  0  0  0  0  0  0
   16.5211   -6.8975   -4.2921 O   0  0  0  0  0  0  0  0  0  0  0  0
   13.7058   -6.0975   -1.1900 C   0  0  2  0  0  0  0  0  0  0  0  0
   12.5506   -5.5914   -0.5287 N   0  0  0  0  0  0  0  0  0  0  0  0
   11.3787   -8.6296   -2.6066 C   0  0  2  0  0  0  0  0  0  0  0  0
   17.8285   -7.7538   -6.1223 C   0  0  2  0  0  0  0  0  0  0  0  0
   18.1285   -8.9319   -5.3110 N   0  0  0  0  0  0  0  0  0  0  0  0
   14.5769   -4.8920   -1.7073 C   0  0  0  0  0  0  0  0  0  0  0  0
   10.2133   -8.6285   -1.5808 C   0  0  2  0  0  0  0  0  0  0  0  0
    9.9909   -7.3043   -1.1525 O   0  0  0  0  0  0  0  0  0  0  0  0
   18.9426   -6.6474   -5.9724 C   0  0  0  0  0  0  0  0  0  0  0  0
   15.8600   -5.4582   -2.4413 C   0  0  2  0  0  0  0  0  0  0  0  0
   16.6793   -4.3311   -2.9317 N   0  0  0  0  0  0  0  0  0  0  0  0
   10.6207   -9.5649   -0.3748 C   0  0  1  0  0  0  0  0  0  0  0  0
    9.5385   -9.5782    0.6497 N   0  0  0  0  0  0  0  0  0  0  0  0
   18.4023   -5.1954   -6.2383 C   0  0  0  0  0  0  0  0  0  0  0  0
   15.3987   -6.3753   -3.6528 C   0  0  2  0  0  0  0  0  0  0  0  0
   10.8675  -11.0789   -0.9205 C   0  0  1  0  0  0  0  0  0  0  0  0
    9.7224  -11.6467   -1.5078 O   0  0  0  0  0  0  0  0  0  0  0  0
   17.1012   -4.9653   -6.4694 C   0  0  1  0  0  0  0  0  0  0  0  0
   16.1457   -6.0073   -6.4934 O   0  0  0  0  0  0  0  0  0  0  0  0
   14.5151   -7.5574   -3.1119 C   0  0  2  0  0  0  0  0  0  0  0  0
   14.0960   -8.3687   -4.2077 O   0  0  0  0  0  0  0  0  0  0  0  0
   11.9963  -11.0500   -1.9970 C   0  0  0  0  0  0  0  0  0  0  0  0
   11.6702  -10.0339   -3.0731 O   0  0  0  0  0  0  0  0  0  0  0  0
   16.5341   -3.5542   -6.7195 C   0  0  0  0  0  0  0  0  0  0  0  0
   15.2564   -3.4405   -6.0510 N   0  0  0  0  0  0  0  0  0  0  0  0
   13.2506   -6.9717   -2.3770 C   0  0  1  0  0  0  0  0  0  0  0  0
   12.4908   -8.0424   -1.8983 O   0  0  0  0  0  0  0  0  0  0  0  0
   11.2718  -12.1137    0.1392 C   0  0  0  0  0  0  0  0  0  0  0  0
    9.9490   -9.9099    2.0228 C   0  0  0  0  0  0  0  0  0  0  0  0
  1  2  1  1  0  0  0
  1  6  1  0  0  0  0
  1 21  1  0  0  0  0
  3  4  1  6  0  0  0
  3  8  1  0  0  0  0
  3 28  1  0  0  0  0
  5  9  1  0  0  0  0
  5 25  1  0  0  0  0
  5 29  1  1  0  0  0
  6  7  1  1  0  0  0
  6 11  1  0  0  0  0
  8 12  1  0  0  0  0
  9 10  1  1  0  0  0
  9 14  1  0  0  0  0
 11 16  1  0  0  0  0
 12 13  1  6  0  0  0
 12 17  1  0  0  0  0
 14 15  1  1  0  0  0
 14 18  1  0  0  0  0
 15 31  1  0  0  0  0
 16 20  1  0  0  0  0
 17  2  1  1  0  0  0
 17 22  1  0  0  0  0
 18 19  1  6  0  0  0
 18 24  1  0  0  0  0
 18 30  1  0  0  0  0
 20 21  1  0  0  0  0
 20 26  1  1  0  0  0
 22 23  1  6  0  0  0
 22 28  1  0  0  0  0
 24 25  1  0  0  0  0
 26 27  1  0  0  0  0
 28 29  1  1  0  0  0
M  END
>  <CHROM.1>
-179.83549119,-127.89553628,-155.42477647,-150.27899832,-140.75242920,146.31774717
13.88463378,-7.57549419,-3.01814003,-0.34386401,-0.72991994,-2.93249978

>  <Name>
ligand

>  <RI>
0

>  <Rbt.Current_Directory>
/home/itssahil/PROJECTS/Mol_Feturizer/New_Systems/rnas/4F8V

>  <Rbt.Executable>
rbdock ($Id: //depot/dev/client3/rdock/2013.1/src/exe/rbdock.cxx#4 $)

>  <Rbt.Library>
libRbt.so (2013.1, Build901 2013/11/27)

>  <Rbt.Parameter_File>
/export/apps/rDock/src/rDock_2013.1_src/data/scripts/dock_solv.prm

>  <Rbt.Receptor>
prm/blind_docking_100.prm

>  <SCORE>
3.2859

>  <SCORE.INTER>
-6.20036

>  <SCORE.INTER.CONST>
1

>  <SCORE.INTER.POLAR>
0

>  <SCORE.INTER.ROT>
6

>  <SCORE.INTER.SOLV>
18.111

>  <SCORE.INTER.VDW>
-17.7706

>  <SCORE.INTER.norm>
-0.200012

>  <SCORE.INTRA>
2.61658

>  <SCORE.INTRA.DIHEDRAL>
1.44407

>  <SCORE.INTRA.DIHEDRAL.0>
15.9129

>  <SCORE.INTRA.POLAR>
0

>  <SCORE.INTRA.POLAR.0>
0

>  <SCORE.INTRA.REPUL>
0

>  <SCORE.INTRA.REPUL.0>
0

>  <SCORE.INTRA.SOLV>
1.73781

>  <SCORE.INTRA.SOLV.lig_0>
-75.7056

>  <SCORE.INTRA.VDW>
1.02564

>  <SCORE.INTRA.VDW.0>
-4.61812

>  <SCORE.INTRA.norm>
0.0844059

>  <SCORE.RESTR>
6.86968

>  <SCORE.RESTR.CAVITY>
6.86968

>  <SCORE.RESTR.norm>
0.221603

>  <SCORE.SYSTEM>
0

>  <SCORE.SYSTEM.CONST>
0

>  <SCORE.SYSTEM.DIHEDRAL>
0

>  <SCORE.SYSTEM.SOLV>
0

>  <SCORE.SYSTEM.norm>
0

>  <SCORE.heavy>
31

>  <SCORE.norm>
0.105997

>  <RMSD>
10.279

$$$$
ligand
 OpenBabel11021811493D
libRbt.so/2013.1/901 2013/11/27
 31 33  0  0  0  0  0  0  0  0999 V2000
   16.3944   -7.1506   -5.7830 C   0  0  2  0  0  0  0  0  0  0  0  0
   16.4626   -6.9671   -4.3624 O   0  0  0  0  0  0  0  0  0  0  0  0
   13.7133   -6.1068   -1.2176 C   0  0  2  0  0  0  0  0  0  0  0  0
   12.5783   -5.5780   -0.5393 N   0  0  0  0  0  0  0  0  0  0  0  0
   11.3328   -8.6169   -2.5974 C   0  0  2  0  0  0  0  0  0  0  0  0
   17.7695   -7.7348   -6.2320 C   0  0  2  0  0  0  0  0  0  0  0  0
   18.0175   -8.9774   -5.5035 N   0  0  0  0  0  0  0  0  0  0  0  0
   14.5971   -4.9188   -1.7533 C   0  0  0  0  0  0  0  0  0  0  0  0
   10.1873   -8.6474   -1.5498 C   0  0  2  0  0  0  0  0  0  0  0  0
    9.9602   -7.3340   -1.0918 O   0  0  0  0  0  0  0  0  0  0  0  0
   18.9172   -6.6807   -5.9882 C   0  0  0  0  0  0  0  0  0  0  0  0
   15.8577   -5.5102   -2.5061 C   0  0  2  0  0  0  0  0  0  0  0  0
   16.6888   -4.3995   -3.0139 N   0  0  0  0  0  0  0  0  0  0  0  0
   10.6270   -9.6026   -0.3702 C   0  0  1  0  0  0  0  0  0  0  0  0
    9.5647   -9.6466    0.6743 N   0  0  0  0  0  0  0  0  0  0  0  0
   18.4295   -5.1958   -6.1561 C   0  0  0  0  0  0  0  0  0  0  0  0
   15.3604   -6.4228   -3.7067 C   0  0  2  0  0  0  0  0  0  0  0  0
   10.8782  -11.1032   -0.9497 C   0  0  1  0  0  0  0  0  0  0  0  0
    9.7276  -11.6713   -1.5261 O   0  0  0  0  0  0  0  0  0  0  0  0
   17.1406   -4.9054   -6.3873 C   0  0  1  0  0  0  0  0  0  0  0  0
   16.1516   -5.9098   -6.4988 O   0  0  0  0  0  0  0  0  0  0  0  0
   14.4649   -7.5872   -3.1472 C   0  0  2  0  0  0  0  0  0  0  0  0
   14.0135   -8.3945   -4.2332 O   0  0  0  0  0  0  0  0  0  0  0  0
   11.9857  -11.0421   -2.0466 C   0  0  0  0  0  0  0  0  0  0  0  0
   11.6291  -10.0089   -3.0965 O   0  0  0  0  0  0  0  0  0  0  0  0
   16.6246   -3.4615   -6.5428 C   0  0  0  0  0  0  0  0  0  0  0  0
   15.5825   -3.4448   -7.5459 N   0  0  0  0  0  0  0  0  0  0  0  0
   13.2232   -6.9767   -2.3939 C   0  0  1  0  0  0  0  0  0  0  0  0
   12.4524   -8.0320   -1.8990 O   0  0  0  0  0  0  0  0  0  0  0  0
   11.3129  -12.1540    0.0819 C   0  0  0  0  0  0  0  0  0  0  0  0
   10.0103   -9.9639    2.0398 C   0  0  0  0  0  0  0  0  0  0  0  0
  1  2  1  1  0  0  0
  1  6  1  0  0  0  0
  1 21  1  0  0  0  0
  3  4  1  6  0  0  0
  3  8  1  0  0  0  0
  3 28  1  0  0  0  0
  5  9  1  0  0  0  0
  5 25  1  0  0  0  0
  5 29  1  1  0  0  0
  6  7  1  1  0  0  0
  6 11  1  0  0  0  0
  8 12  1  0  0  0  0
  9 10  1  1  0  0  0
  9 14  1  0  0  0  0
 11 16  1  0  0  0  0
 12 13  1  6  0  0  0
 12 17  1  0  0  0  0
 14 15  1  1  0  0  0
 14 18  1  0  0  0  0
 15 31  1  0  0  0  0
 16 20  1  0  0  0  0
 17  2  1  1  0  0  0
 17 22  1  0  0  0  0
 18 19  1  6  0  0  0
 18 24  1  0  0  0  0
 18 30  1  0  0  0  0
 20 21  1  0  0  0  0
 20 26  1  1  0  0  0
 22 23  1  6  0  0  0
 22 28  1  0  0  0  0
 24 25  1  0  0  0  0
 26 27  1  0  0  0  0
 28 29  1  1  0  0  0
M  END
>  <CHROM.1>
178.59588025,-130.37159064,-153.79336182,-144.99192724,143.52451298,147.43552050
13.88464553,-7.58650618,-3.08286733,-0.33485076,-0.75017349,-2.91985700

>  <Name>
ligand

>  <RI>
0

>  <Rbt.Current_Directory>
/home/itssahil/PROJECTS/Mol_Feturizer/New_Systems/rnas/4F8V

>  <Rbt.Executable>
rbdock ($Id: //depot/dev/client3/rdock/2013.1/src/exe/rbdock.cxx#4 $)

>  <Rbt.Library>
libRbt.so (2013.1, Build901 2013/11/27)

>  <Rbt.Parameter_File>
/export/apps/rDock/src/rDock_2013.1_src/data/scripts/dock_solv.prm

>  <Rbt.Receptor>
prm/blind_docking_100.prm

>  <SCORE>
3.64036

>  <SCORE.INTER>
-5.13595

>  <SCORE.INTER.CONST>
1

>  <SCORE.INTER.POLAR>
0

>  <SCORE.INTER.ROT>
6

>  <SCORE.INTER.SOLV>
20.9898

>  <SCORE.INTER.VDW>
-18.0206

>  <SCORE.INTER.norm>
-0.165676

>  <SCORE.INTRA>
2.04026

>  <SCORE.INTRA.DIHEDRAL>
2.19827

>  <SCORE.INTRA.DIHEDRAL.0>
15.9129

>  <SCORE.INTRA.POLAR>
0

>  <SCORE.INTRA.POLAR.0>
0

>  <SCORE.INTRA.REPUL>
0

>  <SCORE.INTRA.REPUL.0>
0

>  <SCORE.INTRA.SOLV>
-0.139135

>  <SCORE.INTRA.SOLV.lig_0>
-75.7056

>  <SCORE.INTRA.VDW>
1.01069

>  <SCORE.INTRA.VDW.0>
-4.61812

>  <SCORE.INTRA.norm>
0.0658147

>  <SCORE.RESTR>
6.73605

>  <SCORE.RESTR.CAVITY>
6.73605

>  <SCORE.RESTR.norm>
0.217292

>  <SCORE.SYSTEM>
0

>  <SCORE.SYSTEM.CONST>
0

>  <SCORE.SYSTEM.DIHEDRAL>
0

>  <SCORE.SYSTEM.SOLV>
0

>  <SCORE.SYSTEM.norm>
0

>  <SCORE.heavy>
31

>  <SCORE.norm>
0.117431

>  <RMSD>
10.283

$$$$
ligand
 OpenBabel11021811493D
libRbt.so/2013.1/901 2013/11/27
 31 33  0  0  0  0  0  0  0  0999 V2000
   16.4744   -7.5143   -5.4788 C   0  0  2  0  0  0  0  0  0  0  0  0
   16.5324   -7.0870   -4.1112 O   0  0  0  0  0  0  0  0  0  0  0  0
   13.5875   -6.1088   -1.1855 C   0  0  2  0  0  0  0  0  0  0  0  0
   12.4196   -5.5432   -0.5991 N   0  0  0  0  0  0  0  0  0  0  0  0
   11.0387   -8.3265   -2.4770 C   0  0  2  0  0  0  0  0  0  0  0  0
   17.9473   -7.6587   -5.9723 C   0  0  2  0  0  0  0  0  0  0  0  0
   18.6478   -8.6033   -5.1046 N   0  0  0  0  0  0  0  0  0  0  0  0
   14.5336   -4.9502   -1.6777 C   0  0  0  0  0  0  0  0  0  0  0  0
   10.1484   -8.6481   -1.2464 C   0  0  2  0  0  0  0  0  0  0  0  0
   10.1569   -7.5358   -0.3809 O   0  0  0  0  0  0  0  0  0  0  0  0
   18.6582   -6.2508   -5.9904 C   0  0  0  0  0  0  0  0  0  0  0  0
   15.8307   -5.5825   -2.3284 C   0  0  2  0  0  0  0  0  0  0  0  0
   16.7205   -4.4996   -2.7951 N   0  0  0  0  0  0  0  0  0  0  0  0
   10.7345   -9.9343   -0.5399 C   0  0  1  0  0  0  0  0  0  0  0  0
    9.9231  -10.2700    0.6643 N   0  0  0  0  0  0  0  0  0  0  0  0
   17.6714   -5.0715   -6.3166 C   0  0  0  0  0  0  0  0  0  0  0  0
   15.3991   -6.5071   -3.5452 C   0  0  2  0  0  0  0  0  0  0  0  0
   10.7047  -11.1874   -1.5788 C   0  0  1  0  0  0  0  0  0  0  0  0
    9.4065  -11.5156   -2.0095 O   0  0  0  0  0  0  0  0  0  0  0  0
   16.3545   -5.2817   -6.4606 C   0  0  1  0  0  0  0  0  0  0  0  0
   15.7798   -6.5674   -6.3344 O   0  0  0  0  0  0  0  0  0  0  0  0
   14.4402   -7.6413   -3.0306 C   0  0  2  0  0  0  0  0  0  0  0  0
   14.0487   -8.4593   -4.1317 O   0  0  0  0  0  0  0  0  0  0  0  0
   11.5506  -10.8204   -2.8372 C   0  0  0  0  0  0  0  0  0  0  0  0
   11.0809   -9.5028   -3.4202 O   0  0  0  0  0  0  0  0  0  0  0  0
   15.3562   -4.1479   -6.7660 C   0  0  0  0  0  0  0  0  0  0  0  0
   16.0011   -2.8784   -6.5117 N   0  0  0  0  0  0  0  0  0  0  0  0
   13.1624   -6.9902   -2.3784 C   0  0  1  0  0  0  0  0  0  0  0  0
   12.3349   -8.0193   -1.9212 O   0  0  0  0  0  0  0  0  0  0  0  0
   11.2447  -12.5184   -1.0364 C   0  0  0  0  0  0  0  0  0  0  0  0
   10.1981   -9.4784    1.8732 C   0  0  0  0  0  0  0  0  0  0  0  0
  1  2  1  1  0  0  0
  1  6  1  0  0  0  0
  1 21  1  0  0  0  0
  3  4  1  6  0  0  0
  3  8  1  0  0  0  0
  3 28  1  0  0  0  0
  5  9  1  0  0  0  0
  5 25  1  0  0  0  0
  5 29  1  1  0  0  0
  6  7  1  1  0  0  0
  6 11  1  0  0  0  0
  8 12  1  0  0  0  0
  9 10  1  1  0  0  0
  9 14  1  0  0  0  0
 11 16  1  0  0  0  0
 12 13  1  6  0  0  0
 12 17  1  0  0  0  0
 14 15  1  1  0  0  0
 14 18  1  0  0  0  0
 15 31  1  0  0  0  0
 16 20  1  0  0  0  0
 17  2  1  1  0  0  0
 17 22  1  0  0  0  0
 18 19  1  6  0  0  0
 18 24  1  0  0  0  0
 18 30  1  0  0  0  0
 20 21  1  0  0  0  0
 20 26  1  1  0  0  0
 22 23  1  6  0  0  0
 22 28  1  0  0  0  0
 24 25  1  0  0  0  0
 26 27  1  0  0  0  0
 28 29  1  1  0  0  0
M  END
>  <CHROM.1>
161.30741293,-139.55841292,-79.59536604,-155.93807373,-14.97419795,128.01900420
13.76868379,-7.61598942,-3.07721439,-0.24886445,-0.74761596,-2.76874211

>  <Name>
ligand

>  <RI>
0

>  <Rbt.Current_Directory>
/home/itssahil/PROJECTS/Mol_Feturizer/New_Systems/rnas/4F8V

>  <Rbt.Executable>
rbdock ($Id: //depot/dev/client3/rdock/2013.1/src/exe/rbdock.cxx#4 $)

>  <Rbt.Library>
libRbt.so (2013.1, Build901 2013/11/27)

>  <Rbt.Parameter_File>
/export/apps/rDock/src/rDock_2013.1_src/data/scripts/dock_solv.prm

>  <Rbt.Receptor>
prm/blind_docking_100.prm

>  <SCORE>
7.52797

>  <SCORE.INTER>
-2.85157

>  <SCORE.INTER.CONST>
1

>  <SCORE.INTER.POLAR>
0

>  <SCORE.INTER.ROT>
6

>  <SCORE.INTER.SOLV>
17.4072

>  <SCORE.INTER.VDW>
-15.3034

>  <SCORE.INTER.norm>
-0.0919862

>  <SCORE.INTRA>
2.90167

>  <SCORE.INTRA.DIHEDRAL>
2.78122

>  <SCORE.INTRA.DIHEDRAL.0>
15.9129

>  <SCORE.INTRA.POLAR>
0

>  <SCORE.INTRA.POLAR.0>
0

>  <SCORE.INTRA.REPUL>
0

>  <SCORE.INTRA.REPUL.0>
0

>  <SCORE.INTRA.SOLV>
-0.190543

>  <SCORE.INTRA.SOLV.lig_0>
-75.7056

>  <SCORE.INTRA.VDW>
1.60633

>  <SCORE.INTRA.VDW.0>
-4.61812

>  <SCORE.INTRA.norm>
0.0936024

>  <SCORE.RESTR>
7.47786

>  <SCORE.RESTR.CAVITY>
7.47786

>  <SCORE.RESTR.norm>
0.241221

>  <SCORE.SYSTEM>
0

>  <SCORE.SYSTEM.CONST>
0

>  <SCORE.SYSTEM.DIHEDRAL>
0

>  <SCORE.SYSTEM.SOLV>
0

>  <SCORE.SYSTEM.norm>
0

>  <SCORE.heavy>
31

>  <SCORE.norm>
0.242838

>  <RMSD>
10.286

$$$$
ligand
 OpenBabel11021811493D
libRbt.so/2013.1/901 2013/11/27
 31 33  0  0  0  0  0  0  0  0999 V2000
   16.4695   -7.4384   -5.4839 C   0  0  2  0  0  0  0  0  0  0  0  0
   16.5305   -7.0041   -4.1186 O   0  0  0  0  0  0  0  0  0  0  0  0
   13.5704   -6.1237   -1.1773 C   0  0  2  0  0  0  0  0  0  0  0  0
   12.3938   -5.5866   -0.5813 N   0  0  0  0  0  0  0  0  0  0  0  0
   11.0496   -8.3474   -2.4998 C   0  0  2  0  0  0  0  0  0  0  0  0
   17.9412   -7.5988   -5.9757 C   0  0  2  0  0  0  0  0  0  0  0  0
   18.6327   -8.5449   -5.1023 N   0  0  0  0  0  0  0  0  0  0  0  0
   14.4988   -4.9422   -1.6481 C   0  0  0  0  0  0  0  0  0  0  0  0
   10.1558   -8.6420   -1.2650 C   0  0  2  0  0  0  0  0  0  0  0  0
   10.1709   -7.5152   -0.4185 O   0  0  0  0  0  0  0  0  0  0  0  0
   18.6649   -6.1975   -6.0011 C   0  0  0  0  0  0  0  0  0  0  0  0
   15.8055   -5.5428   -2.3094 C   0  0  2  0  0  0  0  0  0  0  0  0
   16.6788   -4.4383   -2.7561 N   0  0  0  0  0  0  0  0  0  0  0  0
   10.7325   -9.9200   -0.5360 C   0  0  1  0  0  0  0  0  0  0  0  0
    9.9175  -10.2297    0.6727 N   0  0  0  0  0  0  0  0  0  0  0  0
   17.6891   -5.0112   -6.3343 C   0  0  0  0  0  0  0  0  0  0  0  0
   15.3883   -6.4518   -3.5428 C   0  0  2  0  0  0  0  0  0  0  0  0
   10.6953  -11.1903   -1.5535 C   0  0  1  0  0  0  0  0  0  0  0  0
    9.3953  -11.5170   -1.9801 O   0  0  0  0  0  0  0  0  0  0  0  0
   16.3703   -5.2102   -6.4779 C   0  0  1  0  0  0  0  0  0  0  0  0
   15.7840   -6.4899   -6.3451 O   0  0  0  0  0  0  0  0  0  0  0  0
   14.4468   -7.6096   -3.0492 C   0  0  2  0  0  0  0  0  0  0  0  0
   14.0680   -8.4136   -4.1649 O   0  0  0  0  0  0  0  0  0  0  0  0
   11.5450  -10.8505   -2.8170 C   0  0  0  0  0  0  0  0  0  0  0  0
   11.0848   -9.5398   -3.4228 O   0  0  0  0  0  0  0  0  0  0  0  0
   15.3825   -4.0691   -6.7902 C   0  0  0  0  0  0  0  0  0  0  0  0
   16.0176   -2.8063   -6.4832 N   0  0  0  0  0  0  0  0  0  0  0  0
   13.1591   -6.9900   -2.3860 C   0  0  1  0  0  0  0  0  0  0  0  0
   12.3472   -8.0396   -1.9478 O   0  0  0  0  0  0  0  0  0  0  0  0
   11.2256  -12.5155   -0.9879 C   0  0  0  0  0  0  0  0  0  0  0  0
   10.0713   -9.3115    1.8116 C   0  0  0  0  0  0  0  0  0  0  0  0
  1  2  1  1  0  0  0
  1  6  1  0  0  0  0
  1 21  1  0  0  0  0
  3  4  1  6  0  0  0
  3  8  1  0  0  0  0
  3 28  1  0  0  0  0
  5  9  1  0  0  0  0
  5 25  1  0  0  0  0
  5 29  1  1  0  0  0
  6  7  1  1  0  0  0
  6 11  1  0  0  0  0
  8 12  1  0  0  0  0
  9 10  1  1  0  0  0
  9 14  1  0  0  0  0
 11 16  1  0  0  0  0
 12 13  1  6  0  0  0
 12 17  1  0  0  0  0
 14 15  1  1  0  0  0
 14 18  1  0  0  0  0
 15 31  1  0  0  0  0
 16 20  1  0  0  0  0
 17  2  1  1  0  0  0
 17 22  1  0  0  0  0
 18 19  1  6  0  0  0
 18 24  1  0  0  0  0
 18 30  1  0  0  0  0
 20 21  1  0  0  0  0
 20 26  1  1  0  0  0
 22 23  1  6  0  0  0
 22 28  1  0  0  0  0
 24 25  1  0  0  0  0
 26 27  1  0  0  0  0
 28 29  1  1  0  0  0
M  END
>  <CHROM.1>
163.43127390,-136.86336491,-71.99943640,-157.47502671,-17.60783462,127.30524952
13.76208882,-7.58308920,-3.07901592,-0.25126190,-0.74860132,-2.76635011

>  <Name>
ligand

>  <RI>
0

>  <Rbt.Current_Directory>
/home/itssahil/PROJECTS/Mol_Feturizer/New_Systems/rnas/4F8V

>  <Rbt.Executable>
rbdock ($Id: //depot/dev/client3/rdock/2013.1/src/exe/rbdock.cxx#4 $)

>  <Rbt.Library>
libRbt.so (2013.1, Build901 2013/11/27)

>  <Rbt.Parameter_File>
/export/apps/rDock/src/rDock_2013.1_src/data/scripts/dock_solv.prm

>  <Rbt.Receptor>
prm/blind_docking_100.prm

>  <SCORE>
6.60897

>  <SCORE.INTER>
-4.42432

>  <SCORE.INTER.CONST>
1

>  <SCORE.INTER.POLAR>
0

>  <SCORE.INTER.ROT>
6

>  <SCORE.INTER.SOLV>
17.1782

>  <SCORE.INTER.VDW>
-16.2756

>  <SCORE.INTER.norm>
-0.14272

>  <SCORE.INTRA>
3.2819

>  <SCORE.INTRA.DIHEDRAL>
2.58155

>  <SCORE.INTRA.DIHEDRAL.0>
15.9129

>  <SCORE.INTRA.POLAR>
0

>  <SCORE.INTRA.POLAR.0>
0

>  <SCORE.INTRA.REPUL>
0

>  <SCORE.INTRA.REPUL.0>
0

>  <SCORE.INTRA.SOLV>
-0.261805

>  <SCORE.INTRA.SOLV.lig_0>
-75.7056

>  <SCORE.INTRA.VDW>
2.12202

>  <SCORE.INTRA.VDW.0>
-4.61812

>  <SCORE.INTRA.norm>
0.105868

>  <SCORE.RESTR>
7.75139

>  <SCORE.RESTR.CAVITY>
7.75139

>  <SCORE.RESTR.norm>
0.250045

>  <SCORE.SYSTEM>
0

>  <SCORE.SYSTEM.CONST>
0

>  <SCORE.SYSTEM.DIHEDRAL>
0

>  <SCORE.SYSTEM.SOLV>
0

>  <SCORE.SYSTEM.norm>
0

>  <SCORE.heavy>
31

>  <SCORE.norm>
0.213193

>  <RMSD>
10.303

$$$$
ligand
 OpenBabel11021811493D
libRbt.so/2013.1/901 2013/11/27
 31 33  0  0  0  0  0  0  0  0999 V2000
   16.0708   -7.3174   -5.3799 C   0  0  2  0  0  0  0  0  0  0  0  0
   15.9566   -6.8618   -4.0249 O   0  0  0  0  0  0  0  0  0  0  0  0
   12.6020   -7.0705   -1.3997 C   0  0  2  0  0  0  0  0  0  0  0  0
   11.2982   -6.8449   -0.8733 N   0  0  0  0  0  0  0  0  0  0  0  0
   12.3298  -10.0864   -2.0587 C   0  0  2  0  0  0  0  0  0  0  0  0
   17.5209   -7.8659   -5.5538 C   0  0  2  0  0  0  0  0  0  0  0  0
   17.7491   -8.9232   -4.5710 N   0  0  0  0  0  0  0  0  0  0  0  0
   13.3706   -5.6990   -1.4865 C   0  0  0  0  0  0  0  0  0  0  0  0
   11.3705  -11.2366   -2.4675 C   0  0  2  0  0  0  0  0  0  0  0  0
   11.3379  -11.3180   -3.8742 O   0  0  0  0  0  0  0  0  0  0  0  0
   18.5692   -6.6972   -5.4022 C   0  0  0  0  0  0  0  0  0  0  0  0
   14.8193   -5.9537   -2.0715 C   0  0  2  0  0  0  0  0  0  0  0  0
   15.5437   -4.6693   -2.1583 N   0  0  0  0  0  0  0  0  0  0  0  0
    9.9412  -10.9172   -1.8740 C   0  0  1  0  0  0  0  0  0  0  0  0
    8.9773  -11.9862   -2.2604 N   0  0  0  0  0  0  0  0  0  0  0  0
   18.0222   -5.3148   -5.9128 C   0  0  0  0  0  0  0  0  0  0  0  0
   14.6861   -6.6122   -3.5103 C   0  0  2  0  0  0  0  0  0  0  0  0
   10.0323  -10.8320   -0.2508 C   0  0  1  0  0  0  0  0  0  0  0  0
   10.4594  -12.0344    0.3412 O   0  0  0  0  0  0  0  0  0  0  0  0
   16.7562   -5.1766   -6.3339 C   0  0  1  0  0  0  0  0  0  0  0  0
   15.8463   -6.2588   -6.3495 O   0  0  0  0  0  0  0  0  0  0  0  0
   13.8984   -7.9678   -3.3983 C   0  0  2  0  0  0  0  0  0  0  0  0
   13.7736   -8.5460   -4.6963 O   0  0  0  0  0  0  0  0  0  0  0  0
   11.0495   -9.7156    0.1400 C   0  0  0  0  0  0  0  0  0  0  0  0
   12.3751   -9.9447   -0.5579 O   0  0  0  0  0  0  0  0  0  0  0  0
   16.1818   -3.8342   -6.8273 C   0  0  0  0  0  0  0  0  0  0  0  0
   15.0583   -3.4729   -5.9909 N   0  0  0  0  0  0  0  0  0  0  0  0
   12.4651   -7.6926   -2.8050 C   0  0  1  0  0  0  0  0  0  0  0  0
   11.7929   -8.9138   -2.7068 O   0  0  0  0  0  0  0  0  0  0  0  0
    8.7156  -10.5271    0.4776 C   0  0  0  0  0  0  0  0  0  0  0  0
    8.1675  -11.7267   -3.4607 C   0  0  0  0  0  0  0  0  0  0  0  0
  1  2  1  1  0  0  0
  1  6  1  0  0  0  0
  1 21  1  0  0  0  0
  3  4  1  6  0  0  0
  3  8  1  0  0  0  0
  3 28  1  0  0  0  0
  5  9  1  0  0  0  0
  5 25  1  0  0  0  0
  5 29  1  6  0  0  0
  6  7  1  1  0  0  0
  6 11  1  0  0  0  0
  8 12  1  0  0  0  0
  9 10  1  6  0  0  0
  9 14  1  0  0  0  0
 11 16  1  0  0  0  0
 12 13  1  6  0  0  0
 12 17  1  0  0  0  0
 14 15  1  1  0  0  0
 14 18  1  0  0  0  0
 15 31  1  0  0  0  0
 16 20  1  0  0  0  0
 17  2  1  1  0  0  0
 17 22  1  0  0  0  0
 18 19  1  1  0  0  0
 18 24  1  0  0  0  0
 18 30  1  0  0  0  0
 20 21  1  0  0  0  0
 20 26  1  1  0  0  0
 22 23  1  6  0  0  0
 22 28  1  0  0  0  0
 24 25  1  0  0  0  0
 26 27  1  0  0  0  0
 28 29  1  1  0  0  0
M  END
>  <CHROM.1>
-165.26778547,-168.40800357,-95.17236161,-173.07456225,-120.41344250,-67.33487358
13.41363615,-8.16612826,-3.13852365,-0.20215223,-0.76484969,-2.54325193

>  <Name>
ligand

>  <RI>
0

>  <Rbt.Current_Directory>
/home/itssahil/PROJECTS/Mol_Feturizer/New_Systems/rnas/4F8V

>  <Rbt.Executable>
rbdock ($Id: //depot/dev/client3/rdock/2013.1/src/exe/rbdock.cxx#4 $)

>  <Rbt.Library>
libRbt.so (2013.1, Build901 2013/11/27)

>  <Rbt.Parameter_File>
/export/apps/rDock/src/rDock_2013.1_src/data/scripts/dock_solv.prm

>  <Rbt.Receptor>
prm/blind_docking_100.prm

>  <SCORE>
0.121533

>  <SCORE.INTER>
-4.57838

>  <SCORE.INTER.CONST>
1

>  <SCORE.INTER.POLAR>
0

>  <SCORE.INTER.ROT>
6

>  <SCORE.INTER.SOLV>
19.5335

>  <SCORE.INTER.VDW>
-17.1634

>  <SCORE.INTER.norm>
-0.14769

>  <SCORE.INTRA>
-3.71917

>  <SCORE.INTRA.DIHEDRAL>
-11.3109

>  <SCORE.INTRA.DIHEDRAL.0>
15.9129

>  <SCORE.INTRA.POLAR>
0

>  <SCORE.INTRA.POLAR.0>
0

>  <SCORE.INTRA.REPUL>
0

>  <SCORE.INTRA.REPUL.0>
0

>  <SCORE.INTRA.SOLV>
0.14626

>  <SCORE.INTRA.SOLV.lig_0>
-75.7056

>  <SCORE.INTRA.VDW>
1.86315

>  <SCORE.INTRA.VDW.0>
-4.61812

>  <SCORE.INTRA.norm>
-0.119973

>  <SCORE.RESTR>
8.41908

>  <SCORE.RESTR.CAVITY>
8.41908

>  <SCORE.RESTR.norm>
0.271583

>  <SCORE.SYSTEM>
0

>  <SCORE.SYSTEM.CONST>
0

>  <SCORE.SYSTEM.DIHEDRAL>
0

>  <SCORE.SYSTEM.SOLV>
0

>  <SCORE.SYSTEM.norm>
0

>  <SCORE.heavy>
31

>  <SCORE.norm>
0.00392041

>  <RMSD>
10.490

$$$$
ligand
 OpenBabel11021811493D
libRbt.so/2013.1/901 2013/11/27
 31 33  0  0  0  0  0  0  0  0999 V2000
   16.6503   -6.4468   -4.0771 C   0  0  2  0  0  0  0  0  0  0  0  0
   15.8981   -7.3794   -3.2892 O   0  0  0  0  0  0  0  0  0  0  0  0
   12.3153   -6.8497   -1.0371 C   0  0  2  0  0  0  0  0  0  0  0  0
   10.9483   -6.5836   -0.7397 N   0  0  0  0  0  0  0  0  0  0  0  0
   10.6243   -9.8195   -1.9253 C   0  0  2  0  0  0  0  0  0  0  0  0
   16.1394   -6.5769   -5.5454 C   0  0  2  0  0  0  0  0  0  0  0  0
   14.7005   -6.3216   -5.5712 N   0  0  0  0  0  0  0  0  0  0  0  0
   12.9659   -5.5665   -1.6773 C   0  0  0  0  0  0  0  0  0  0  0  0
    9.7370  -10.0114   -0.6658 C   0  0  2  0  0  0  0  0  0  0  0  0
    9.5024   -8.7497   -0.0832 O   0  0  0  0  0  0  0  0  0  0  0  0
   16.4855   -8.0043   -6.1202 C   0  0  0  0  0  0  0  0  0  0  0  0
   14.4850   -5.8657   -2.0061 C   0  0  2  0  0  0  0  0  0  0  0  0
   15.0995   -4.6659   -2.6103 N   0  0  0  0  0  0  0  0  0  0  0  0
   10.4992  -10.9742    0.3289 C   0  0  1  0  0  0  0  0  0  0  0  0
    9.6934  -11.1712    1.5670 N   0  0  0  0  0  0  0  0  0  0  0  0
   17.8224   -8.5907   -5.5372 C   0  0  0  0  0  0  0  0  0  0  0  0
   14.5633   -7.0929   -3.0109 C   0  0  2  0  0  0  0  0  0  0  0  0
   10.7472  -12.4139   -0.3899 C   0  0  1  0  0  0  0  0  0  0  0  0
    9.5525  -13.0634   -0.7497 O   0  0  0  0  0  0  0  0  0  0  0  0
   18.5093   -7.9477   -4.5812 C   0  0  1  0  0  0  0  0  0  0  0  0
   18.0788   -6.7107   -4.0485 O   0  0  0  0  0  0  0  0  0  0  0  0
   13.8897   -8.3533   -2.3563 C   0  0  2  0  0  0  0  0  0  0  0  0
   13.9544   -9.4468   -3.2700 O   0  0  0  0  0  0  0  0  0  0  0  0
   11.5844  -12.1929   -1.6876 C   0  0  0  0  0  0  0  0  0  0  0  0
   10.9242  -11.1507   -2.5678 O   0  0  0  0  0  0  0  0  0  0  0  0
   19.8151   -8.4995   -3.9765 C   0  0  0  0  0  0  0  0  0  0  0  0
   19.5247   -9.0623   -2.6760 N   0  0  0  0  0  0  0  0  0  0  0  0
   12.3831   -8.0302   -2.0282 C   0  0  1  0  0  0  0  0  0  0  0  0
   11.8137   -9.1622   -1.4388 O   0  0  0  0  0  0  0  0  0  0  0  0
   11.4809  -13.4652    0.4550 C   0  0  0  0  0  0  0  0  0  0  0  0
    9.8035  -10.1173    2.5873 C   0  0  0  0  0  0  0  0  0  0  0  0
  1  2  1  1  0  0  0
  1  6  1  0  0  0  0
  1 21  1  0  0  0  0
  3  4  1  6  0  0  0
  3  8  1  0  0  0  0
  3 28  1  0  0  0  0
  5  9  1  0  0  0  0
  5 25  1  0  0  0  0
  5 29  1  1  0  0  0
  6  7  1  1  0  0  0
  6 11  1  0  0  0  0
  8 12  1  0  0  0  0
  9 10  1  1  0  0  0
  9 14  1  0  0  0  0
 11 16  1  0  0  0  0
 12 13  1  6  0  0  0
 12 17  1  0  0  0  0
 14 15  1  1  0  0  0
 14 18  1  0  0  0  0
 15 31  1  0  0  0  0
 16 20  1  0  0  0  0
 17  2  1  1  0  0  0
 17 22  1  0  0  0  0
 18 19  1  6  0  0  0
 18 24  1  0  0  0  0
 18 30  1  0  0  0  0
 20 21  1  0  0  0  0
 20 26  1  1  0  0  0
 22 23  1  6  0  0  0
 22 28  1  0  0  0  0
 24 25  1  0  0  0  0
 26 27  1  0  0  0  0
 28 29  1  1  0  0  0
M  END
>  <CHROM.1>
-72.83229150,-131.73475376,-82.16231298,-69.63344479,-102.85139410,116.04521087
13.52911152,-8.75547896,-2.20216098,0.46028379,0.51822351,-0.07340751

>  <Name>
ligand

>  <RI>
0

>  <Rbt.Current_Directory>
/home/itssahil/PROJECTS/Mol_Feturizer/New_Systems/rnas/4F8V

>  <Rbt.Executable>
rbdock ($Id: //depot/dev/client3/rdock/2013.1/src/exe/rbdock.cxx#4 $)

>  <Rbt.Library>
libRbt.so (2013.1, Build901 2013/11/27)

>  <Rbt.Parameter_File>
/export/apps/rDock/src/rDock_2013.1_src/data/scripts/dock_solv.prm

>  <Rbt.Receptor>
prm/blind_docking_100.prm

>  <SCORE>
31.0351

>  <SCORE.INTER>
17.4993

>  <SCORE.INTER.CONST>
1

>  <SCORE.INTER.POLAR>
0

>  <SCORE.INTER.ROT>
6

>  <SCORE.INTER.SOLV>
18.2155

>  <SCORE.INTER.VDW>
-2.0056

>  <SCORE.INTER.norm>
0.564495

>  <SCORE.INTRA>
4.59814

>  <SCORE.INTRA.DIHEDRAL>
1.38415

>  <SCORE.INTRA.DIHEDRAL.0>
15.9129

>  <SCORE.INTRA.POLAR>
0

>  <SCORE.INTRA.POLAR.0>
0

>  <SCORE.INTRA.REPUL>
0

>  <SCORE.INTRA.REPUL.0>
0

>  <SCORE.INTRA.SOLV>
3.13978

>  <SCORE.INTRA.SOLV.lig_0>
-75.7056

>  <SCORE.INTRA.VDW>
2.33618

>  <SCORE.INTRA.VDW.0>
-4.61812

>  <SCORE.INTRA.norm>
0.148327

>  <SCORE.RESTR>
8.93763

>  <SCORE.RESTR.CAVITY>
8.93763

>  <SCORE.RESTR.norm>
0.288311

>  <SCORE.SYSTEM>
0

>  <SCORE.SYSTEM.CONST>
0

>  <SCORE.SYSTEM.DIHEDRAL>
0

>  <SCORE.SYSTEM.SOLV>
0

>  <SCORE.SYSTEM.norm>
0

>  <SCORE.heavy>
31

>  <SCORE.norm>
1.00113

>  <RMSD>
10.517

$$$$
ligand
 OpenBabel11021811493D
libRbt.so/2013.1/901 2013/11/27
 31 33  0  0  0  0  0  0  0  0999 V2000
   16.6066   -5.7109   -3.7807 C   0  0  2  0  0  0  0  0  0  0  0  0
   15.8401   -6.7039   -3.0858 O   0  0  0  0  0  0  0  0  0  0  0  0
   12.3742   -6.3518   -0.6256 C   0  0  2  0  0  0  0  0  0  0  0  0
   11.0364   -6.0646   -0.2311 N   0  0  0  0  0  0  0  0  0  0  0  0
   10.3727   -8.9212   -1.7037 C   0  0  2  0  0  0  0  0  0  0  0  0
   15.9329   -5.5095   -5.1733 C   0  0  2  0  0  0  0  0  0  0  0  0
   14.5377   -5.1226   -4.9737 N   0  0  0  0  0  0  0  0  0  0  0  0
   13.0773   -5.0191   -1.0830 C   0  0  0  0  0  0  0  0  0  0  0  0
    9.8000   -9.5427   -0.4013 C   0  0  2  0  0  0  0  0  0  0  0  0
    9.8890   -8.5875    0.6311 O   0  0  0  0  0  0  0  0  0  0  0  0
   16.0522   -6.8260   -6.0338 C   0  0  0  0  0  0  0  0  0  0  0  0
   14.5639   -5.3421   -1.5203 C   0  0  2  0  0  0  0  0  0  0  0  0
   15.2273   -4.0953   -1.9538 N   0  0  0  0  0  0  0  0  0  0  0  0
   10.6414  -10.8373   -0.0646 C   0  0  1  0  0  0  0  0  0  0  0  0
   10.1410  -11.4584    1.1944 N   0  0  0  0  0  0  0  0  0  0  0  0
   17.3675   -7.6338   -5.7365 C   0  0  0  0  0  0  0  0  0  0  0  0
   14.5350   -6.3953   -2.7084 C   0  0  2  0  0  0  0  0  0  0  0  0
   10.5078  -11.9062   -1.2853 C   0  0  1  0  0  0  0  0  0  0  0  0
    9.1840  -12.3273   -1.5068 O   0  0  0  0  0  0  0  0  0  0  0  0
   18.2196   -7.2521   -4.7735 C   0  0  1  0  0  0  0  0  0  0  0  0
   17.9908   -6.1058   -3.9779 O   0  0  0  0  0  0  0  0  0  0  0  0
   13.8107   -7.7065   -2.2322 C   0  0  2  0  0  0  0  0  0  0  0  0
   13.7792   -8.6418   -3.3088 O   0  0  0  0  0  0  0  0  0  0  0  0
   11.0271  -11.2415   -2.5977 C   0  0  0  0  0  0  0  0  0  0  0  0
   10.3224   -9.9205   -2.8322 O   0  0  0  0  0  0  0  0  0  0  0  0
   19.5104   -8.0274   -4.4449 C   0  0  0  0  0  0  0  0  0  0  0  0
   19.1877   -9.1054   -3.5360 N   0  0  0  0  0  0  0  0  0  0  0  0
   12.3381   -7.3607   -1.7924 C   0  0  1  0  0  0  0  0  0  0  0  0
   11.7231   -8.5405   -1.3648 O   0  0  0  0  0  0  0  0  0  0  0  0
   11.2733  -13.2249   -1.1059 C   0  0  0  0  0  0  0  0  0  0  0  0
   11.1230  -11.6068    2.2795 C   0  0  0  0  0  0  0  0  0  0  0  0
  1  2  1  6  0  0  0
  1  6  1  0  0  0  0
  1 21  1  0  0  0  0
  3  4  1  6  0  0  0
  3  8  1  0  0  0  0
  3 28  1  0  0  0  0
  5  9  1  0  0  0  0
  5 25  1  0  0  0  0
  5 29  1  1  0  0  0
  6  7  1  1  0  0  0
  6 11  1  0  0  0  0
  8 12  1  0  0  0  0
  9 10  1  1  0  0  0
  9 14  1  0  0  0  0
 11 16  1  0  0  0  0
 12 13  1  6  0  0  0
 12 17  1  0  0  0  0
 14 15  1  1  0  0  0
 14 18  1  0  0  0  0
 15 31  1  0  0  0  0
 16 20  1  0  0  0  0
 17  2  1  1  0  0  0
 17 22  1  0  0  0  0
 18 19  1  6  0  0  0
 18 24  1  0  0  0  0
 18 30  1  0  0  0  0
 20 21  1  0  0  0  0
 20 26  1  1  0  0  0
 22 23  1  6  0  0  0
 22 28  1  0  0  0  0
 24 25  1  0  0  0  0
 26 27  1  0  0  0  0
 28 29  1  1  0  0  0
M  END
>  <CHROM.1>
-66.82268037,-140.17787267,-121.78753348,-71.28923103,-84.43220900,103.77689145
13.45914672,-8.20378840,-2.23935013,0.43611232,0.57346170,0.12389347

>  <Name>
ligand

>  <RI>
0

>  <Rbt.Current_Directory>
/home/itssahil/PROJECTS/Mol_Feturizer/New_Systems/rnas/4F8V

>  <Rbt.Executable>
rbdock ($Id: //depot/dev/client3/rdock/2013.1/src/exe/rbdock.cxx#4 $)

>  <Rbt.Library>
libRbt.so (2013.1, Build901 2013/11/27)

>  <Rbt.Parameter_File>
/export/apps/rDock/src/rDock_2013.1_src/data/scripts/dock_solv.prm

>  <Rbt.Receptor>
prm/blind_docking_100.prm

>  <SCORE>
10.4008

>  <SCORE.INTER>
-3.77288

>  <SCORE.INTER.CONST>
1

>  <SCORE.INTER.POLAR>
0

>  <SCORE.INTER.ROT>
6

>  <SCORE.INTER.SOLV>
14.7483

>  <SCORE.INTER.VDW>
-15.0313

>  <SCORE.INTER.norm>
-0.121706

>  <SCORE.INTRA>
4.14095

>  <SCORE.INTRA.DIHEDRAL>
0.387017

>  <SCORE.INTRA.DIHEDRAL.0>
15.9129

>  <SCORE.INTRA.POLAR>
0

>  <SCORE.INTRA.POLAR.0>
0

>  <SCORE.INTRA.REPUL>
0

>  <SCORE.INTRA.REPUL.0>
0

>  <SCORE.INTRA.SOLV>
3.23926

>  <SCORE.INTRA.SOLV.lig_0>
-75.7056

>  <SCORE.INTRA.VDW>
2.32781

>  <SCORE.INTRA.VDW.0>
-4.61812

>  <SCORE.INTRA.norm>
0.133579

>  <SCORE.RESTR>
10.0328

>  <SCORE.RESTR.CAVITY>
10.0328

>  <SCORE.RESTR.norm>
0.323638

>  <SCORE.SYSTEM>
0

>  <SCORE.SYSTEM.CONST>
0

>  <SCORE.SYSTEM.DIHEDRAL>
0

>  <SCORE.SYSTEM.SOLV>
0

>  <SCORE.SYSTEM.norm>
0

>  <SCORE.heavy>
31

>  <SCORE.norm>
0.335511

>  <RMSD>
10.588

$$$$
ligand
 OpenBabel11021811493D
libRbt.so/2013.1/901 2013/11/27
 31 33  0  0  0  0  0  0  0  0999 V2000
   15.5734   -7.4173   -5.0254 C   0  0  2  0  0  0  0  0  0  0  0  0
   15.4280   -6.8387   -3.7213 O   0  0  0  0  0  0  0  0  0  0  0  0
   12.1324   -7.1948   -1.0379 C   0  0  2  0  0  0  0  0  0  0  0  0
   10.8184   -7.0582   -0.5063 N   0  0  0  0  0  0  0  0  0  0  0  0
   12.1214  -10.2483   -1.4876 C   0  0  2  0  0  0  0  0  0  0  0  0
   17.0568   -7.8829   -5.1529 C   0  0  2  0  0  0  0  0  0  0  0  0
   17.3541   -8.8207   -4.0720 N   0  0  0  0  0  0  0  0  0  0  0  0
   12.7701   -5.7663   -1.2178 C   0  0  0  0  0  0  0  0  0  0  0  0
   11.2942  -11.5145   -1.8381 C   0  0  2  0  0  0  0  0  0  0  0  0
   11.3053  -11.6874   -3.2368 O   0  0  0  0  0  0  0  0  0  0  0  0
   18.0250   -6.6381   -5.1233 C   0  0  0  0  0  0  0  0  0  0  0  0
   14.2304   -5.9221   -1.8084 C   0  0  2  0  0  0  0  0  0  0  0  0
   14.8321   -4.5843   -1.9823 N   0  0  0  0  0  0  0  0  0  0  0  0
    9.8254  -11.3070   -1.2933 C   0  0  1  0  0  0  0  0  0  0  0  0
    8.9849  -12.4916   -1.6268 N   0  0  0  0  0  0  0  0  0  0  0  0
   17.3876   -5.3522   -5.7644 C   0  0  0  0  0  0  0  0  0  0  0  0
   14.1450   -6.6760   -3.2033 C   0  0  2  0  0  0  0  0  0  0  0  0
    9.8667  -11.1106    0.3224 C   0  0  1  0  0  0  0  0  0  0  0  0
   10.3985  -12.2230    0.9994 O   0  0  0  0  0  0  0  0  0  0  0  0
   16.1155   -5.3405   -6.1898 C   0  0  1  0  0  0  0  0  0  0  0  0
   15.2796   -6.4768   -6.0933 O   0  0  0  0  0  0  0  0  0  0  0  0
   13.4870   -8.0888   -2.9990 C   0  0  2  0  0  0  0  0  0  0  0  0
   13.4039   -8.7536   -4.2583 O   0  0  0  0  0  0  0  0  0  0  0  0
   10.7553   -9.8731    0.6581 C   0  0  0  0  0  0  0  0  0  0  0  0
   12.1144  -10.0083    0.0014 O   0  0  0  0  0  0  0  0  0  0  0  0
   15.4535   -4.0943   -6.8096 C   0  0  0  0  0  0  0  0  0  0  0  0
   14.0480   -4.0947   -6.4674 N   0  0  0  0  0  0  0  0  0  0  0  0
   12.0402   -7.9108   -2.4015 C   0  0  1  0  0  0  0  0  0  0  0  0
   11.4847   -9.1803   -2.2207 O   0  0  0  0  0  0  0  0  0  0  0  0
    8.5080  -10.8973    1.0048 C   0  0  0  0  0  0  0  0  0  0  0  0
    9.4428  -13.7832   -1.0919 C   0  0  0  0  0  0  0  0  0  0  0  0
  1  2  1  1  0  0  0
  1  6  1  0  0  0  0
  1 21  1  0  0  0  0
  3  4  1  6  0  0  0
  3  8  1  0  0  0  0
  3 28  1  0  0  0  0
  5  9  1  0  0  0  0
  5 25  1  0  0  0  0
  5 29  1  6  0  0  0
  6  7  1  1  0  0  0
  6 11  1  0  0  0  0
  8 12  1  0  0  0  0
  9 10  1  6  0  0  0
  9 14  1  0  0  0  0
 11 16  1  0  0  0  0
 12 13  1  6  0  0  0
 12 17  1  0  0  0  0
 14 15  1  1  0  0  0
 14 18  1  0  0  0  0
 15 31  1  0  0  0  0
 16 20  1  0  0  0  0
 17  2  1  1  0  0  0
 17 22  1  0  0  0  0
 18 19  1  1  0  0  0
 18 24  1  0  0  0  0
 18 30  1  0  0  0  0
 20 21  1  0  0  0  0
 20 26  1  1  0  0  0
 22 23  1  6  0  0  0
 22 28  1  0  0  0  0
 24 25  1  0  0  0  0
 26 27  1  0  0  0  0
 28 29  1  1  0  0  0
M  END
>  <CHROM.1>
-162.61499663,-167.49182930,59.30634743,-175.74927742,-147.61516791,-65.93793452
13.06314139,-8.40396311,-2.69183814,-0.42232691,-0.80944389,-2.84018524

>  <Name>
ligand

>  <RI>
0

>  <Rbt.Current_Directory>
/home/itssahil/PROJECTS/Mol_Feturizer/New_Systems/rnas/4F8V

>  <Rbt.Executable>
rbdock ($Id: //depot/dev/client3/rdock/2013.1/src/exe/rbdock.cxx#4 $)

>  <Rbt.Library>
libRbt.so (2013.1, Build901 2013/11/27)

>  <Rbt.Parameter_File>
/export/apps/rDock/src/rDock_2013.1_src/data/scripts/dock_solv.prm

>  <Rbt.Receptor>
prm/blind_docking_100.prm

>  <SCORE>
4.02475

>  <SCORE.INTER>
-2.0132

>  <SCORE.INTER.CONST>
1

>  <SCORE.INTER.POLAR>
0

>  <SCORE.INTER.ROT>
6

>  <SCORE.INTER.SOLV>
19.2206

>  <SCORE.INTER.VDW>
-15.349

>  <SCORE.INTER.norm>
-0.064942

>  <SCORE.INTRA>
-1.11417

>  <SCORE.INTRA.DIHEDRAL>
-10.9937

>  <SCORE.INTRA.DIHEDRAL.0>
15.9129

>  <SCORE.INTRA.POLAR>
0

>  <SCORE.INTRA.POLAR.0>
0

>  <SCORE.INTRA.REPUL>
0

>  <SCORE.INTRA.REPUL.0>
0

>  <SCORE.INTRA.SOLV>
-0.234821

>  <SCORE.INTRA.SOLV.lig_0>
-75.7056

>  <SCORE.INTRA.VDW>
4.50009

>  <SCORE.INTRA.VDW.0>
-4.61812

>  <SCORE.INTRA.norm>
-0.035941

>  <SCORE.RESTR>
7.15212

>  <SCORE.RESTR.CAVITY>
7.15212

>  <SCORE.RESTR.norm>
0.230714

>  <SCORE.SYSTEM>
0

>  <SCORE.SYSTEM.CONST>
0

>  <SCORE.SYSTEM.DIHEDRAL>
0

>  <SCORE.SYSTEM.SOLV>
0

>  <SCORE.SYSTEM.norm>
0

>  <SCORE.heavy>
31

>  <SCORE.norm>
0.129831

>  <RMSD>
10.611

$$$$
ligand
 OpenBabel11021811493D
libRbt.so/2013.1/901 2013/11/27
 31 33  0  0  0  0  0  0  0  0999 V2000
   15.4626   -7.2088   -5.1977 C   0  0  2  0  0  0  0  0  0  0  0  0
   15.3703   -6.8512   -3.8120 O   0  0  0  0  0  0  0  0  0  0  0  0
   12.1643   -7.2247   -1.0245 C   0  0  2  0  0  0  0  0  0  0  0  0
   10.8700   -7.0867   -0.4467 N   0  0  0  0  0  0  0  0  0  0  0  0
   12.0998  -10.2603   -1.4917 C   0  0  2  0  0  0  0  0  0  0  0  0
   16.9493   -7.5964   -5.4687 C   0  0  2  0  0  0  0  0  0  0  0  0
   17.3276   -8.6837   -4.5684 N   0  0  0  0  0  0  0  0  0  0  0  0
   12.8068   -5.7983   -1.2039 C   0  0  0  0  0  0  0  0  0  0  0  0
   11.2687  -11.5229   -1.8460 C   0  0  2  0  0  0  0  0  0  0  0  0
   11.2727  -11.6871   -3.2458 O   0  0  0  0  0  0  0  0  0  0  0  0
   17.8841   -6.3394   -5.2848 C   0  0  0  0  0  0  0  0  0  0  0  0
   14.2451   -5.9557   -1.8459 C   0  0  2  0  0  0  0  0  0  0  0  0
   14.8512   -4.6197   -2.0196 N   0  0  0  0  0  0  0  0  0  0  0  0
    9.8029  -11.3163   -1.2928 C   0  0  1  0  0  0  0  0  0  0  0  0
    8.9588  -12.4974   -1.6295 N   0  0  0  0  0  0  0  0  0  0  0  0
   17.1800   -4.9905   -5.6793 C   0  0  0  0  0  0  0  0  0  0  0  0
   14.1068   -6.6871   -3.2485 C   0  0  2  0  0  0  0  0  0  0  0  0
    9.8524  -11.1300    0.3238 C   0  0  1  0  0  0  0  0  0  0  0  0
   10.3856  -12.2476    0.9914 O   0  0  0  0  0  0  0  0  0  0  0  0
   15.8875   -4.9552   -6.0365 C   0  0  1  0  0  0  0  0  0  0  0  0
   15.0885   -6.1207   -6.0850 O   0  0  0  0  0  0  0  0  0  0  0  0
   13.4449   -8.0981   -3.0437 C   0  0  2  0  0  0  0  0  0  0  0  0
   13.3142   -8.7425   -4.3095 O   0  0  0  0  0  0  0  0  0  0  0  0
   10.7448   -9.8962    0.6630 C   0  0  0  0  0  0  0  0  0  0  0  0
   12.1005  -10.0296   -0.0012 O   0  0  0  0  0  0  0  0  0  0  0  0
   15.1610   -3.6498   -6.4154 C   0  0  0  0  0  0  0  0  0  0  0  0
   15.4859   -3.3167   -7.7850 N   0  0  0  0  0  0  0  0  0  0  0  0
   12.0205   -7.9186   -2.3950 C   0  0  1  0  0  0  0  0  0  0  0  0
   11.4614   -9.1867   -2.2150 O   0  0  0  0  0  0  0  0  0  0  0  0
    8.4974  -10.9187    1.0141 C   0  0  0  0  0  0  0  0  0  0  0  0
    9.4199  -13.7938   -1.1095 C   0  0  0  0  0  0  0  0  0  0  0  0
  1  2  1  1  0  0  0
  1  6  1  0  0  0  0
  1 21  1  0  0  0  0
  3  4  1  6  0  0  0
  3  8  1  0  0  0  0
  3 28  1  0  0  0  0
  5  9  1  0  0  0  0
  5 25  1  0  0  0  0
  5 29  1  6  0  0  0
  6  7  1  1  0  0  0
  6 11  1  0  0  0  0
  8 12  1  0  0  0  0
  9 10  1  6  0  0  0
  9 14  1  0  0  0  0
 11 16  1  0  0  0  0
 12 13  1  6  0  0  0
 12 17  1  0  0  0  0
 14 15  1  1  0  0  0
 14 18  1  0  0  0  0
 15 31  1  0  0  0  0
 16 20  1  0  0  0  0
 17  2  1  1  0  0  0
 17 22  1  0  0  0  0
 18 19  1  1  0  0  0
 18 24  1  0  0  0  0
 18 30  1  0  0  0  0
 20 21  1  0  0  0  0
 20 26  1  1  0  0  0
 22 23  1  6  0  0  0
 22 28  1  0  0  0  0
 24 25  1  0  0  0  0
 26 27  1  0  0  0  0
 28 29  1  1  0  0  0
M  END
>  <CHROM.1>
-168.95342372,-167.23129065,59.06898327,-166.04121486,80.39731298,-64.32635869
13.05615412,-8.31120102,-2.75764712,-0.37732714,-0.85927238,-2.75756306

>  <Name>
ligand

>  <RI>
0

>  <Rbt.Current_Directory>
/home/itssahil/PROJECTS/Mol_Feturizer/New_Systems/rnas/4F8V

>  <Rbt.Executable>
rbdock ($Id: //depot/dev/client3/rdock/2013.1/src/exe/rbdock.cxx#4 $)

>  <Rbt.Library>
libRbt.so (2013.1, Build901 2013/11/27)

>  <Rbt.Parameter_File>
/export/apps/rDock/src/rDock_2013.1_src/data/scripts/dock_solv.prm

>  <Rbt.Receptor>
prm/blind_docking_100.prm

>  <SCORE>
2.98477

>  <SCORE.INTER>
-2.23478

>  <SCORE.INTER.CONST>
1

>  <SCORE.INTER.POLAR>
0

>  <SCORE.INTER.ROT>
6

>  <SCORE.INTER.SOLV>
19.4982

>  <SCORE.INTER.VDW>
-15.5893

>  <SCORE.INTER.norm>
-0.0720896

>  <SCORE.INTRA>
-1.73812

>  <SCORE.INTRA.DIHEDRAL>
-10.4365

>  <SCORE.INTRA.DIHEDRAL.0>
15.9129

>  <SCORE.INTRA.POLAR>
0

>  <SCORE.INTRA.POLAR.0>
0

>  <SCORE.INTRA.REPUL>
0

>  <SCORE.INTRA.REPUL.0>
0

>  <SCORE.INTRA.SOLV>
-0.773026

>  <SCORE.INTRA.SOLV.lig_0>
-75.7056

>  <SCORE.INTRA.VDW>
3.86665

>  <SCORE.INTRA.VDW.0>
-4.61812

>  <SCORE.INTRA.norm>
-0.0560685

>  <SCORE.RESTR>
6.95767

>  <SCORE.RESTR.CAVITY>
6.95767

>  <SCORE.RESTR.norm>
0.224441

>  <SCORE.SYSTEM>
0

>  <SCORE.SYSTEM.CONST>
0

>  <SCORE.SYSTEM.DIHEDRAL>
0

>  <SCORE.SYSTEM.SOLV>
0

>  <SCORE.SYSTEM.norm>
0

>  <SCORE.heavy>
31

>  <SCORE.norm>
0.0962828

>  <RMSD>
10.645

$$$$
ligand
 OpenBabel11021811493D
libRbt.so/2013.1/901 2013/11/27
 31 33  0  0  0  0  0  0  0  0999 V2000
   15.5522   -7.4021   -5.0227 C   0  0  2  0  0  0  0  0  0  0  0  0
   15.4146   -6.8430   -3.7094 O   0  0  0  0  0  0  0  0  0  0  0  0
   12.1232   -7.2089   -1.0221 C   0  0  2  0  0  0  0  0  0  0  0  0
   10.8115   -7.0695   -0.4853 N   0  0  0  0  0  0  0  0  0  0  0  0
   12.0954  -10.2609   -1.5225 C   0  0  2  0  0  0  0  0  0  0  0  0
   17.0517   -7.7977   -5.1930 C   0  0  2  0  0  0  0  0  0  0  0  0
   17.4197   -8.7308   -4.1299 N   0  0  0  0  0  0  0  0  0  0  0  0
   12.7707   -5.7829   -1.1857 C   0  0  0  0  0  0  0  0  0  0  0  0
   11.2607  -11.5159   -1.8947 C   0  0  2  0  0  0  0  0  0  0  0  0
   11.2616  -11.6584   -3.2969 O   0  0  0  0  0  0  0  0  0  0  0  0
   17.9622   -6.5100   -5.1752 C   0  0  0  0  0  0  0  0  0  0  0  0
   14.2284   -5.9418   -1.7820 C   0  0  2  0  0  0  0  0  0  0  0  0
   14.8393   -4.6062   -1.9408 N   0  0  0  0  0  0  0  0  0  0  0  0
    9.7965  -11.3145   -1.3356 C   0  0  1  0  0  0  0  0  0  0  0  0
    8.9489  -12.4883   -1.6889 N   0  0  0  0  0  0  0  0  0  0  0  0
   17.2500   -5.2489   -5.7862 C   0  0  0  0  0  0  0  0  0  0  0  0
   14.1340   -6.6776   -3.1860 C   0  0  2  0  0  0  0  0  0  0  0  0
    9.8495  -11.1535    0.2837 C   0  0  1  0  0  0  0  0  0  0  0  0
   10.3814  -12.2825    0.9327 O   0  0  0  0  0  0  0  0  0  0  0  0
   15.9681   -5.2918   -6.1787 C   0  0  1  0  0  0  0  0  0  0  0  0
   15.1880   -6.4663   -6.0728 O   0  0  0  0  0  0  0  0  0  0  0  0
   13.4663   -8.0881   -2.9976 C   0  0  2  0  0  0  0  0  0  0  0  0
   13.3752   -8.7364   -4.2649 O   0  0  0  0  0  0  0  0  0  0  0  0
   10.7454   -9.9271    0.6402 C   0  0  0  0  0  0  0  0  0  0  0  0
   12.0995  -10.0533   -0.0287 O   0  0  0  0  0  0  0  0  0  0  0  0
   15.2338   -4.0718   -6.7684 C   0  0  0  0  0  0  0  0  0  0  0  0
   16.0252   -2.8869   -6.5196 N   0  0  0  0  0  0  0  0  0  0  0  0
   12.0224   -7.9071   -2.3943 C   0  0  1  0  0  0  0  0  0  0  0  0
   11.4582   -9.1747   -2.2279 O   0  0  0  0  0  0  0  0  0  0  0  0
    8.4963  -10.9498    0.9798 C   0  0  0  0  0  0  0  0  0  0  0  0
    7.9545  -12.2741   -2.7515 C   0  0  0  0  0  0  0  0  0  0  0  0
  1  2  1  1  0  0  0
  1  6  1  0  0  0  0
  1 21  1  0  0  0  0
  3  4  1  6  0  0  0
  3  8  1  0  0  0  0
  3 28  1  0  0  0  0
  5  9  1  0  0  0  0
  5 25  1  0  0  0  0
  5 29  1  6  0  0  0
  6  7  1  1  0  0  0
  6 11  1  0  0  0  0
  8 12  1  0  0  0  0
  9 10  1  6  0  0  0
  9 14  1  0  0  0  0
 11 16  1  0  0  0  0
 12 13  1  6  0  0  0
 12 17  1  0  0  0  0
 14 15  1  1  0  0  0
 14 18  1  0  0  0  0
 15 31  1  0  0  0  0
 16 20  1  0  0  0  0
 17  2  1  1  0  0  0
 17 22  1  0  0  0  0
 18 19  1  1  0  0  0
 18 24  1  0  0  0  0
 18 30  1  0  0  0  0
 20 21  1  0  0  0  0
 20 26  1  1  0  0  0
 22 23  1  6  0  0  0
 22 28  1  0  0  0  0
 24 25  1  0  0  0  0
 26 27  1  0  0  0  0
 28 29  1  1  0  0  0
M  END
>  <CHROM.1>
-166.03798927,-166.94320792,-106.41354686,-175.54450286,-13.41777007,-66.65698799
13.04337812,-8.30742371,-2.76269183,-0.24872099,-0.83147662,-2.59244531

>  <Name>
ligand

>  <RI>
0

>  <Rbt.Current_Directory>
/home/itssahil/PROJECTS/Mol_Feturizer/New_Systems/rnas/4F8V

>  <Rbt.Executable>
rbdock ($Id: //depot/dev/client3/rdock/2013.1/src/exe/rbdock.cxx#4 $)

>  <Rbt.Library>
libRbt.so (2013.1, Build901 2013/11/27)

>  <Rbt.Parameter_File>
/export/apps/rDock/src/rDock_2013.1_src/data/scripts/dock_solv.prm

>  <Rbt.Receptor>
prm/blind_docking_100.prm

>  <SCORE>
1.3914

>  <SCORE.INTER>
-3.52234

>  <SCORE.INTER.CONST>
1

>  <SCORE.INTER.POLAR>
0

>  <SCORE.INTER.ROT>
6

>  <SCORE.INTER.SOLV>
19.0395

>  <SCORE.INTER.VDW>
-16.2947

>  <SCORE.INTER.norm>
-0.113624

>  <SCORE.INTRA>
-3.14472

>  <SCORE.INTRA.DIHEDRAL>
-10.9066

>  <SCORE.INTRA.DIHEDRAL.0>
15.9129

>  <SCORE.INTRA.POLAR>
0

>  <SCORE.INTRA.POLAR.0>
0

>  <SCORE.INTRA.REPUL>
0

>  <SCORE.INTRA.REPUL.0>
0

>  <SCORE.INTRA.SOLV>
-1.22829

>  <SCORE.INTRA.SOLV.lig_0>
-75.7056

>  <SCORE.INTRA.VDW>
2.92273

>  <SCORE.INTRA.VDW.0>
-4.61812

>  <SCORE.INTRA.norm>
-0.101443

>  <SCORE.RESTR>
8.05847

>  <SCORE.RESTR.CAVITY>
8.05847

>  <SCORE.RESTR.norm>
0.25995

>  <SCORE.SYSTEM>
0

>  <SCORE.SYSTEM.CONST>
0

>  <SCORE.SYSTEM.DIHEDRAL>
0

>  <SCORE.SYSTEM.SOLV>
0

>  <SCORE.SYSTEM.norm>
0

>  <SCORE.heavy>
31

>  <SCORE.norm>
0.044884

>  <RMSD>
10.718

$$$$
ligand
 OpenBabel11021811493D
libRbt.so/2013.1/901 2013/11/27
 31 33  0  0  0  0  0  0  0  0999 V2000
   16.2252   -5.6841   -3.6584 C   0  0  2  0  0  0  0  0  0  0  0  0
   15.3624   -6.8290   -3.6236 O   0  0  0  0  0  0  0  0  0  0  0  0
   12.0554   -7.2444   -0.9628 C   0  0  2  0  0  0  0  0  0  0  0  0
   10.7386   -7.1213   -0.4347 N   0  0  0  0  0  0  0  0  0  0  0  0
   12.0569  -10.2905   -1.4760 C   0  0  2  0  0  0  0  0  0  0  0  0
   15.9736   -4.9671   -5.0209 C   0  0  2  0  0  0  0  0  0  0  0  0
   14.5569   -4.6220   -5.1207 N   0  0  0  0  0  0  0  0  0  0  0  0
   12.6902   -5.8112   -1.1123 C   0  0  0  0  0  0  0  0  0  0  0  0
   11.2091  -11.5442   -1.8225 C   0  0  2  0  0  0  0  0  0  0  0  0
   11.1913  -11.7034   -3.2227 O   0  0  0  0  0  0  0  0  0  0  0  0
   16.4317   -5.8885   -6.2163 C   0  0  0  0  0  0  0  0  0  0  0  0
   14.1536   -5.9521   -1.6990 C   0  0  2  0  0  0  0  0  0  0  0  0
   14.7528   -4.6097   -1.8445 N   0  0  0  0  0  0  0  0  0  0  0  0
    9.7534  -11.3259   -1.2474 C   0  0  1  0  0  0  0  0  0  0  0  0
    8.8935  -12.4979   -1.5759 N   0  0  0  0  0  0  0  0  0  0  0  0
   17.6575   -6.8016   -5.8496 C   0  0  0  0  0  0  0  0  0  0  0  0
   14.0765   -6.6794   -3.1085 C   0  0  2  0  0  0  0  0  0  0  0  0
    9.8280  -11.1458    0.3689 C   0  0  1  0  0  0  0  0  0  0  0  0
   10.3603  -12.2706    1.0249 O   0  0  0  0  0  0  0  0  0  0  0  0
   18.1628   -6.8276   -4.6074 C   0  0  1  0  0  0  0  0  0  0  0  0
   17.6314   -6.0371   -3.5625 O   0  0  0  0  0  0  0  0  0  0  0  0
   13.4212   -8.0974   -2.9343 C   0  0  2  0  0  0  0  0  0  0  0  0
   13.3455   -8.7382   -4.2065 O   0  0  0  0  0  0  0  0  0  0  0  0
   10.7366   -9.9215    0.6993 C   0  0  0  0  0  0  0  0  0  0  0  0
   12.0812  -10.0651    0.0151 O   0  0  0  0  0  0  0  0  0  0  0  0
   19.3539   -7.7208   -4.2087 C   0  0  0  0  0  0  0  0  0  0  0  0
   18.9024   -8.6929   -3.2373 N   0  0  0  0  0  0  0  0  0  0  0  0
   11.9713   -7.9344   -2.3402 C   0  0  1  0  0  0  0  0  0  0  0  0
   11.4182   -9.2085   -2.1863 O   0  0  0  0  0  0  0  0  0  0  0  0
    8.4851  -10.9244    1.0795 C   0  0  0  0  0  0  0  0  0  0  0  0
    9.3695  -13.8056   -1.0994 C   0  0  0  0  0  0  0  0  0  0  0  0
  1  2  1  6  0  0  0
  1  6  1  0  0  0  0
  1 21  1  0  0  0  0
  3  4  1  6  0  0  0
  3  8  1  0  0  0  0
  3 28  1  0  0  0  0
  5  9  1  0  0  0  0
  5 25  1  0  0  0  0
  5 29  1  6  0  0  0
  6  7  1  6  0  0  0
  6 11  1  0  0  0  0
  8 12  1  0  0  0  0
  9 10  1  6  0  0  0
  9 14  1  0  0  0  0
 11 16  1  0  0  0  0
 12 13  1  6  0  0  0
 12 17  1  0  0  0  0
 14 15  1  1  0  0  0
 14 18  1  0  0  0  0
 15 31  1  0  0  0  0
 16 20  1  0  0  0  0
 17  2  1  1  0  0  0
 17 22  1  0  0  0  0
 18 19  1  1  0  0  0
 18 24  1  0  0  0  0
 18 30  1  0  0  0  0
 20 21  1  0  0  0  0
 20 26  1  1  0  0  0
 22 23  1  6  0  0  0
 22 28  1  0  0  0  0
 24 25  1  0  0  0  0
 26 27  1  0  0  0  0
 28 29  1  1  0  0  0
M  END
>  <CHROM.1>
-89.00194858,-168.97428587,57.41472228,-49.98490377,-115.52814553,-66.22913445
13.29922813,-8.46462493,-2.35256926,0.50515449,0.58393682,0.14208226

>  <Name>
ligand

>  <RI>
0

>  <Rbt.Current_Directory>
/home/itssahil/PROJECTS/Mol_Feturizer/New_Systems/rnas/4F8V

>  <Rbt.Executable>
rbdock ($Id: //depot/dev/client3/rdock/2013.1/src/exe/rbdock.cxx#4 $)

>  <Rbt.Library>
libRbt.so (2013.1, Build901 2013/11/27)

>  <Rbt.Parameter_File>
/export/apps/rDock/src/rDock_2013.1_src/data/scripts/dock_solv.prm

>  <Rbt.Receptor>
prm/blind_docking_100.prm

>  <SCORE>
7.19255

>  <SCORE.INTER>
-2.62227

>  <SCORE.INTER.CONST>
1

>  <SCORE.INTER.POLAR>
0

>  <SCORE.INTER.ROT>
6

>  <SCORE.INTER.SOLV>
16.5213

>  <SCORE.INTER.VDW>
-14.8553

>  <SCORE.INTER.norm>
-0.0845895

>  <SCORE.INTRA>
2.60313

>  <SCORE.INTRA.DIHEDRAL>
-9.52881

>  <SCORE.INTRA.DIHEDRAL.0>
15.9129

>  <SCORE.INTRA.POLAR>
0

>  <SCORE.INTRA.POLAR.0>
0

>  <SCORE.INTRA.REPUL>
0

>  <SCORE.INTRA.REPUL.0>
0

>  <SCORE.INTRA.SOLV>
3.36872

>  <SCORE.INTRA.SOLV.lig_0>
-75.7056

>  <SCORE.INTRA.VDW>
5.68317

>  <SCORE.INTRA.VDW.0>
-4.61812

>  <SCORE.INTRA.norm>
0.0839719

>  <SCORE.RESTR>
7.2117

>  <SCORE.RESTR.CAVITY>
7.2117

>  <SCORE.RESTR.norm>
0.232635

>  <SCORE.SYSTEM>
0

>  <SCORE.SYSTEM.CONST>
0

>  <SCORE.SYSTEM.DIHEDRAL>
0

>  <SCORE.SYSTEM.SOLV>
0

>  <SCORE.SYSTEM.norm>
0

>  <SCORE.heavy>
31

>  <SCORE.norm>
0.232018

>  <RMSD>
10.733

$$$$
ligand
 OpenBabel11021811493D
libRbt.so/2013.1/901 2013/11/27
 31 33  0  0  0  0  0  0  0  0999 V2000
   16.2262   -5.8087   -3.7301 C   0  0  2  0  0  0  0  0  0  0  0  0
   15.2661   -6.8661   -3.8588 O   0  0  0  0  0  0  0  0  0  0  0  0
   12.1350   -7.2852   -0.9937 C   0  0  2  0  0  0  0  0  0  0  0  0
   10.8569   -7.1558   -0.3791 N   0  0  0  0  0  0  0  0  0  0  0  0
   12.0513  -10.3110   -1.5112 C   0  0  2  0  0  0  0  0  0  0  0  0
   16.4705   -5.2402   -5.1622 C   0  0  2  0  0  0  0  0  0  0  0  0
   15.1952   -4.7936   -5.7191 N   0  0  0  0  0  0  0  0  0  0  0  0
   12.7751   -5.8567   -1.1646 C   0  0  0  0  0  0  0  0  0  0  0  0
   11.2115  -11.5670   -1.8688 C   0  0  2  0  0  0  0  0  0  0  0  0
   11.1829  -11.7058   -3.2710 O   0  0  0  0  0  0  0  0  0  0  0  0
   17.1513   -6.3318   -6.0748 C   0  0  0  0  0  0  0  0  0  0  0  0
   14.1954   -6.0045   -1.8475 C   0  0  2  0  0  0  0  0  0  0  0  0
   14.7992   -4.6665   -2.0134 N   0  0  0  0  0  0  0  0  0  0  0  0
    9.7591  -11.3701   -1.2780 C   0  0  1  0  0  0  0  0  0  0  0  0
    8.9067  -12.5449   -1.6163 N   0  0  0  0  0  0  0  0  0  0  0  0
   18.1019   -7.2931   -5.2729 C   0  0  0  0  0  0  0  0  0  0  0  0
   14.0183   -6.7104   -3.2589 C   0  0  2  0  0  0  0  0  0  0  0  0
    9.8463  -11.2132    0.3401 C   0  0  1  0  0  0  0  0  0  0  0  0
   10.3942  -12.3426    0.9748 O   0  0  0  0  0  0  0  0  0  0  0  0
   18.2129   -7.2131   -3.9385 C   0  0  1  0  0  0  0  0  0  0  0  0
   17.4918   -6.2628   -3.1795 O   0  0  0  0  0  0  0  0  0  0  0  0
   13.3595   -8.1239   -3.0617 C   0  0  2  0  0  0  0  0  0  0  0  0
   13.1938   -8.7453   -4.3350 O   0  0  0  0  0  0  0  0  0  0  0  0
   10.7470   -9.9857    0.6807 C   0  0  0  0  0  0  0  0  0  0  0  0
   12.0867  -10.1073   -0.0172 O   0  0  0  0  0  0  0  0  0  0  0  0
   19.1234   -8.1480   -3.1185 C   0  0  0  0  0  0  0  0  0  0  0  0
   19.0793   -9.4707   -3.7023 N   0  0  0  0  0  0  0  0  0  0  0  0
   11.9533   -7.9542   -2.3721 C   0  0  1  0  0  0  0  0  0  0  0  0
   11.3969   -9.2245   -2.2000 O   0  0  0  0  0  0  0  0  0  0  0  0
    8.5078  -11.0142    1.0655 C   0  0  0  0  0  0  0  0  0  0  0  0
    7.8846  -12.3281   -2.6517 C   0  0  0  0  0  0  0  0  0  0  0  0
  1  2  1  6  0  0  0
  1  6  1  0  0  0  0
  1 21  1  0  0  0  0
  3  4  1  6  0  0  0
  3  8  1  0  0  0  0
  3 28  1  0  0  0  0
  5  9  1  0  0  0  0
  5 25  1  0  0  0  0
  5 29  1  6  0  0  0
  6  7  1  6  0  0  0
  6 11  1  0  0  0  0
  8 12  1  0  0  0  0
  9 10  1  6  0  0  0
  9 14  1  0  0  0  0
 11 16  1  0  0  0  0
 12 13  1  6  0  0  0
 12 17  1  0  0  0  0
 14 15  1  1  0  0  0
 14 18  1  0  0  0  0
 15 31  1  0  0  0  0
 16 20  1  0  0  0  0
 17  2  1  1  0  0  0
 17 22  1  0  0  0  0
 18 19  1  1  0  0  0
 18 24  1  0  0  0  0
 18 30  1  0  0  0  0
 20 21  1  0  0  0  0
 20 26  1  1  0  0  0
 22 23  1  6  0  0  0
 22 28  1  0  0  0  0
 24 25  1  0  0  0  0
 26 27  1  0  0  0  0
 28 29  1  1  0  0  0
M  END
>  <CHROM.1>
-115.03829478,-167.10997441,-106.73360802,-39.23640267,-37.28663830,-64.20687137
13.31633032,-8.54650407,-2.39934939,0.46319448,0.52500965,0.14599817

>  <Name>
ligand

>  <RI>
0

>  <Rbt.Current_Directory>
/home/itssahil/PROJECTS/Mol_Feturizer/New_Systems/rnas/4F8V

>  <Rbt.Executable>
rbdock ($Id: //depot/dev/client3/rdock/2013.1/src/exe/rbdock.cxx#4 $)

>  <Rbt.Library>
libRbt.so (2013.1, Build901 2013/11/27)

>  <Rbt.Parameter_File>
/export/apps/rDock/src/rDock_2013.1_src/data/scripts/dock_solv.prm

>  <Rbt.Receptor>
prm/blind_docking_100.prm

>  <SCORE>
7.04776

>  <SCORE.INTER>
-5.78731

>  <SCORE.INTER.CONST>
1

>  <SCORE.INTER.POLAR>
0

>  <SCORE.INTER.ROT>
6

>  <SCORE.INTER.SOLV>
18.1977

>  <SCORE.INTER.VDW>
-17.5241

>  <SCORE.INTER.norm>
-0.186687

>  <SCORE.INTRA>
4.80788

>  <SCORE.INTRA.DIHEDRAL>
-1.97254

>  <SCORE.INTRA.DIHEDRAL.0>
15.9129

>  <SCORE.INTRA.POLAR>
0

>  <SCORE.INTRA.POLAR.0>
0

>  <SCORE.INTRA.REPUL>
0

>  <SCORE.INTRA.REPUL.0>
0

>  <SCORE.INTRA.SOLV>
1.58405

>  <SCORE.INTRA.SOLV.lig_0>
-75.7056

>  <SCORE.INTRA.VDW>
5.00213

>  <SCORE.INTRA.VDW.0>
-4.61812

>  <SCORE.INTRA.norm>
0.155093

>  <SCORE.RESTR>
8.02719

>  <SCORE.RESTR.CAVITY>
8.02719

>  <SCORE.RESTR.norm>
0.258942

>  <SCORE.SYSTEM>
0

>  <SCORE.SYSTEM.CONST>
0

>  <SCORE.SYSTEM.DIHEDRAL>
0

>  <SCORE.SYSTEM.SOLV>
0

>  <SCORE.SYSTEM.norm>
0

>  <SCORE.heavy>
31

>  <SCORE.norm>
0.227347

>  <RMSD>
10.768

$$$$
ligand
 OpenBabel11021811493D
libRbt.so/2013.1/901 2013/11/27
 31 33  0  0  0  0  0  0  0  0999 V2000
   16.1966   -5.7147   -3.6172 C   0  0  2  0  0  0  0  0  0  0  0  0
   15.3494   -6.8687   -3.5325 O   0  0  0  0  0  0  0  0  0  0  0  0
   12.0180   -7.2798   -0.9017 C   0  0  2  0  0  0  0  0  0  0  0  0
   10.6978   -7.1514   -0.3836 N   0  0  0  0  0  0  0  0  0  0  0  0
   12.0276  -10.3384   -1.4844 C   0  0  2  0  0  0  0  0  0  0  0  0
   15.9197   -5.0485   -5.0004 C   0  0  2  0  0  0  0  0  0  0  0  0
   14.4975   -4.7253   -5.0950 N   0  0  0  0  0  0  0  0  0  0  0  0
   12.6636   -5.8499   -1.0362 C   0  0  0  0  0  0  0  0  0  0  0  0
   11.1543  -11.5734   -1.8348 C   0  0  2  0  0  0  0  0  0  0  0  0
   11.0876  -11.6950   -3.2373 O   0  0  0  0  0  0  0  0  0  0  0  0
   16.3760   -6.0047   -6.1688 C   0  0  0  0  0  0  0  0  0  0  0  0
   14.1308   -5.9967   -1.6119 C   0  0  2  0  0  0  0  0  0  0  0  0
   14.7401   -4.6574   -1.7434 N   0  0  0  0  0  0  0  0  0  0  0  0
    9.7214  -11.3552   -1.2051 C   0  0  1  0  0  0  0  0  0  0  0  0
    8.8376  -12.5090   -1.5349 N   0  0  0  0  0  0  0  0  0  0  0  0
   17.6180   -6.8889   -5.7858 C   0  0  0  0  0  0  0  0  0  0  0  0
   14.0604   -6.7139   -3.0270 C   0  0  2  0  0  0  0  0  0  0  0  0
    9.8524  -11.2192    0.4120 C   0  0  1  0  0  0  0  0  0  0  0  0
   10.3937  -12.3666    1.0197 O   0  0  0  0  0  0  0  0  0  0  0  0
   18.1380   -6.8654   -4.5496 C   0  0  1  0  0  0  0  0  0  0  0  0
   17.6083   -6.0460   -3.5262 O   0  0  0  0  0  0  0  0  0  0  0  0
   13.3942   -8.1286   -2.8678 C   0  0  2  0  0  0  0  0  0  0  0  0
   13.3247   -8.7602   -4.1449 O   0  0  0  0  0  0  0  0  0  0  0  0
   10.7856  -10.0137    0.7435 C   0  0  0  0  0  0  0  0  0  0  0  0
   12.1047  -10.1532    0.0104 O   0  0  0  0  0  0  0  0  0  0  0  0
   19.3453   -7.7289   -4.1348 C   0  0  0  0  0  0  0  0  0  0  0  0
   18.9287   -9.1127   -4.0725 N   0  0  0  0  0  0  0  0  0  0  0  0
   11.9406   -7.9598   -2.2846 C   0  0  1  0  0  0  0  0  0  0  0  0
   11.3777   -9.2312   -2.1439 O   0  0  0  0  0  0  0  0  0  0  0  0
    8.5368  -11.0027    1.1734 C   0  0  0  0  0  0  0  0  0  0  0  0
    7.9303  -12.3251   -2.6781 C   0  0  0  0  0  0  0  0  0  0  0  0
  1  2  1  6  0  0  0
  1  6  1  0  0  0  0
  1 21  1  0  0  0  0
  3  4  1  6  0  0  0
  3  8  1  0  0  0  0
  3 28  1  0  0  0  0
  5  9  1  0  0  0  0
  5 25  1  0  0  0  0
  5 29  1  6  0  0  0
  6  7  1  6  0  0  0
  6 11  1  0  0  0  0
  8 12  1  0  0  0  0
  9 10  1  6  0  0  0
  9 14  1  0  0  0  0
 11 16  1  0  0  0  0
 12 13  1  6  0  0  0
 12 17  1  0  0  0  0
 14 15  1  1  0  0  0
 14 18  1  0  0  0  0
 15 31  1  0  0  0  0
 16 20  1  0  0  0  0
 17  2  1  1  0  0  0
 17 22  1  0  0  0  0
 18 19  1  1  0  0  0
 18 24  1  0  0  0  0
 18 30  1  0  0  0  0
 20 21  1  0  0  0  0
 20 26  1  1  0  0  0
 22 23  1  6  0  0  0
 22 28  1  0  0  0  0
 24 25  1  0  0  0  0
 26 27  1  0  0  0  0
 28 29  1  1  0  0  0
M  END
>  <CHROM.1>
-88.00536579,-168.88188843,-97.88964967,-53.19248106,-70.68312071,-68.94991907
13.22912833,-8.47158294,-2.39011603,0.40475476,0.60516234,0.27470951

>  <Name>
ligand

>  <RI>
0

>  <Rbt.Current_Directory>
/home/itssahil/PROJECTS/Mol_Feturizer/New_Systems/rnas/4F8V

>  <Rbt.Executable>
rbdock ($Id: //depot/dev/client3/rdock/2013.1/src/exe/rbdock.cxx#4 $)

>  <Rbt.Library>
libRbt.so (2013.1, Build901 2013/11/27)

>  <Rbt.Parameter_File>
/export/apps/rDock/src/rDock_2013.1_src/data/scripts/dock_solv.prm

>  <Rbt.Receptor>
prm/blind_docking_100.prm

>  <SCORE>
6.92951

>  <SCORE.INTER>
-2.33854

>  <SCORE.INTER.CONST>
1

>  <SCORE.INTER.POLAR>
0

>  <SCORE.INTER.ROT>
6

>  <SCORE.INTER.SOLV>
16.2623

>  <SCORE.INTER.VDW>
-14.5798

>  <SCORE.INTER.norm>
-0.0754369

>  <SCORE.INTRA>
0.92577

>  <SCORE.INTRA.DIHEDRAL>
-7.18292

>  <SCORE.INTRA.DIHEDRAL.0>
15.9129

>  <SCORE.INTRA.POLAR>
0

>  <SCORE.INTRA.POLAR.0>
0

>  <SCORE.INTRA.REPUL>
0

>  <SCORE.INTRA.REPUL.0>
0

>  <SCORE.INTRA.SOLV>
2.65027

>  <SCORE.INTRA.SOLV.lig_0>
-75.7056

>  <SCORE.INTRA.VDW>
3.19209

>  <SCORE.INTRA.VDW.0>
-4.61812

>  <SCORE.INTRA.norm>
0.0298636

>  <SCORE.RESTR>
8.34228

>  <SCORE.RESTR.CAVITY>
8.34228

>  <SCORE.RESTR.norm>
0.269106

>  <SCORE.SYSTEM>
0

>  <SCORE.SYSTEM.CONST>
0

>  <SCORE.SYSTEM.DIHEDRAL>
0

>  <SCORE.SYSTEM.SOLV>
0

>  <SCORE.SYSTEM.norm>
0

>  <SCORE.heavy>
31

>  <SCORE.norm>
0.223533

>  <RMSD>
10.818

$$$$
ligand
 OpenBabel11021811493D
libRbt.so/2013.1/901 2013/11/27
 31 33  0  0  0  0  0  0  0  0999 V2000
   15.6513   -6.4849   -3.5211 C   0  0  2  0  0  0  0  0  0  0  0  0
   14.5880   -7.4370   -3.6603 O   0  0  0  0  0  0  0  0  0  0  0  0
   11.7820   -7.3555   -0.4497 C   0  0  2  0  0  0  0  0  0  0  0  0
   10.5629   -7.1521    0.2577 N   0  0  0  0  0  0  0  0  0  0  0  0
    9.7042   -9.8084   -0.7238 C   0  0  2  0  0  0  0  0  0  0  0  0
   15.6700   -5.6308   -4.8264 C   0  0  2  0  0  0  0  0  0  0  0  0
   14.3601   -5.0072   -5.0040 N   0  0  0  0  0  0  0  0  0  0  0  0
   12.3038   -5.9723   -0.9920 C   0  0  0  0  0  0  0  0  0  0  0  0
    9.8299  -10.5934    0.6098 C   0  0  2  0  0  0  0  0  0  0  0  0
   10.5599   -9.8105    1.5266 O   0  0  0  0  0  0  0  0  0  0  0  0
   16.0563   -6.5306   -6.0630 C   0  0  0  0  0  0  0  0  0  0  0  0
   13.6588   -6.2023   -1.7772 C   0  0  2  0  0  0  0  0  0  0  0  0
   14.1511   -4.9078   -2.2912 N   0  0  0  0  0  0  0  0  0  0  0  0
   10.5618  -11.9608    0.3068 C   0  0  1  0  0  0  0  0  0  0  0  0
   10.7259  -12.7421    1.5652 N   0  0  0  0  0  0  0  0  0  0  0  0
   17.0468   -7.6922   -5.6883 C   0  0  0  0  0  0  0  0  0  0  0  0
   13.3958   -7.2098   -2.9761 C   0  0  2  0  0  0  0  0  0  0  0  0
    9.6820  -12.8253   -0.7558 C   0  0  1  0  0  0  0  0  0  0  0  0
    8.3995  -13.1477   -0.2761 O   0  0  0  0  0  0  0  0  0  0  0  0
   17.4184   -7.9116   -4.4183 C   0  0  1  0  0  0  0  0  0  0  0  0
   16.9498   -7.1138   -3.3491 O   0  0  0  0  0  0  0  0  0  0  0  0
   12.8571   -8.5734   -2.4095 C   0  0  2  0  0  0  0  0  0  0  0  0
   12.6128   -9.4676   -3.4937 O   0  0  0  0  0  0  0  0  0  0  0  0
    9.5111  -11.9938   -2.0647 C   0  0  0  0  0  0  0  0  0  0  0  0
    8.9511  -10.6220   -1.7464 O   0  0  0  0  0  0  0  0  0  0  0  0
   18.3757   -9.0493   -4.0127 C   0  0  0  0  0  0  0  0  0  0  0  0
   19.7268   -8.5334   -3.9850 N   0  0  0  0  0  0  0  0  0  0  0  0
   11.5152   -8.3200   -1.6240 C   0  0  1  0  0  0  0  0  0  0  0  0
   11.0658   -9.5449   -1.1236 O   0  0  0  0  0  0  0  0  0  0  0  0
   10.2646  -14.1893   -1.1526 C   0  0  0  0  0  0  0  0  0  0  0  0
   11.7253  -13.8209    1.5335 C   0  0  0  0  0  0  0  0  0  0  0  0
  1  2  1  6  0  0  0
  1  6  1  0  0  0  0
  1 21  1  0  0  0  0
  3  4  1  6  0  0  0
  3  8  1  0  0  0  0
  3 28  1  0  0  0  0
  5  9  1  0  0  0  0
  5 25  1  0  0  0  0
  5 29  1  6  0  0  0
  6  7  1  6  0  0  0
  6 11  1  0  0  0  0
  8 12  1  0  0  0  0
  9 10  1  1  0  0  0
  9 14  1  0  0  0  0
 11 16  1  0  0  0  0
 12 13  1  6  0  0  0
 12 17  1  0  0  0  0
 14 15  1  1  0  0  0
 14 18  1  0  0  0  0
 15 31  1  0  0  0  0
 16 20  1  0  0  0  0
 17  2  1  1  0  0  0
 17 22  1  0  0  0  0
 18 19  1  1  0  0  0
 18 24  1  0  0  0  0
 18 30  1  0  0  0  0
 20 21  1  0  0  0  0
 20 26  1  1  0  0  0
 22 23  1  6  0  0  0
 22 28  1  0  0  0  0
 24 25  1  0  0  0  0
 26 27  1  0  0  0  0
 28 29  1  1  0  0  0
M  END
>  <CHROM.1>
-103.25080549,-136.69733424,-162.09270521,-20.34043107,93.17141244,81.17106447
12.86556640,-9.00050139,-2.00638717,0.64023566,0.50379512,-0.12591872

>  <Name>
ligand

>  <RI>
0

>  <Rbt.Current_Directory>
/home/itssahil/PROJECTS/Mol_Feturizer/New_Systems/rnas/4F8V

>  <Rbt.Executable>
rbdock ($Id: //depot/dev/client3/rdock/2013.1/src/exe/rbdock.cxx#4 $)

>  <Rbt.Library>
libRbt.so (2013.1, Build901 2013/11/27)

>  <Rbt.Parameter_File>
/export/apps/rDock/src/rDock_2013.1_src/data/scripts/dock_solv.prm

>  <Rbt.Receptor>
prm/blind_docking_100.prm

>  <SCORE>
20.2497

>  <SCORE.INTER>
-0.599673

>  <SCORE.INTER.CONST>
1

>  <SCORE.INTER.POLAR>
0

>  <SCORE.INTER.ROT>
6

>  <SCORE.INTER.SOLV>
11.9426

>  <SCORE.INTER.VDW>
-11.9806

>  <SCORE.INTER.norm>
-0.0193443

>  <SCORE.INTRA>
11.8108

>  <SCORE.INTRA.DIHEDRAL>
5.9628

>  <SCORE.INTRA.DIHEDRAL.0>
15.9129

>  <SCORE.INTRA.POLAR>
0

>  <SCORE.INTRA.POLAR.0>
0

>  <SCORE.INTRA.REPUL>
0

>  <SCORE.INTRA.REPUL.0>
0

>  <SCORE.INTRA.SOLV>
2.84476

>  <SCORE.INTRA.SOLV.lig_0>
-75.7056

>  <SCORE.INTRA.VDW>
7.40699

>  <SCORE.INTRA.VDW.0>
-4.61812

>  <SCORE.INTRA.norm>
0.380992

>  <SCORE.RESTR>
9.0386

>  <SCORE.RESTR.CAVITY>
9.0386

>  <SCORE.RESTR.norm>
0.291568

>  <SCORE.SYSTEM>
0

>  <SCORE.SYSTEM.CONST>
0

>  <SCORE.SYSTEM.DIHEDRAL>
0

>  <SCORE.SYSTEM.SOLV>
0

>  <SCORE.SYSTEM.norm>
0

>  <SCORE.heavy>
31

>  <SCORE.norm>
0.653216

>  <RMSD>
10.821

$$$$
ligand
 OpenBabel11021811493D
libRbt.so/2013.1/901 2013/11/27
 31 33  0  0  0  0  0  0  0  0999 V2000
   11.7333  -10.7222   -1.5374 C   0  0  2  0  0  0  0  0  0  0  0  0
   11.1427   -9.4163   -1.5868 O   0  0  0  0  0  0  0  0  0  0  0  0
   13.0505   -5.6170   -1.9248 C   0  0  2  0  0  0  0  0  0  0  0  0
   13.8676   -4.4962   -1.6026 N   0  0  0  0  0  0  0  0  0  0  0  0
   16.0822   -5.8884   -2.7996 C   0  0  2  0  0  0  0  0  0  0  0  0
   10.7493  -11.6932   -2.2604 C   0  0  2  0  0  0  0  0  0  0  0  0
   10.5264  -11.2147   -3.6233 N   0  0  0  0  0  0  0  0  0  0  0  0
   11.9250   -5.7689   -0.8340 C   0  0  0  0  0  0  0  0  0  0  0  0
   16.1328   -5.0724   -4.1196 C   0  0  2  0  0  0  0  0  0  0  0  0
   14.9203   -4.3680   -4.2609 O   0  0  0  0  0  0  0  0  0  0  0  0
    9.3973  -11.8009   -1.4552 C   0  0  0  0  0  0  0  0  0  0  0  0
   11.0186   -7.0152   -1.1956 C   0  0  2  0  0  0  0  0  0  0  0  0
    9.9629   -7.1643   -0.1732 N   0  0  0  0  0  0  0  0  0  0  0  0
   16.3556   -6.0840   -5.3130 C   0  0  1  0  0  0  0  0  0  0  0  0
   16.3890   -5.3468   -6.6078 N   0  0  0  0  0  0  0  0  0  0  0  0
    9.5963  -11.6519    0.0969 C   0  0  0  0  0  0  0  0  0  0  0  0
   11.9273   -8.3165   -1.2466 C   0  0  2  0  0  0  0  0  0  0  0  0
   17.7647   -6.8720   -5.1028 C   0  0  1  0  0  0  0  0  0  0  0  0
   18.8788   -6.0134   -5.0835 O   0  0  0  0  0  0  0  0  0  0  0  0
   10.7966  -11.3671    0.6235 C   0  0  1  0  0  0  0  0  0  0  0  0
   11.9474  -11.1911   -0.1790 O   0  0  0  0  0  0  0  0  0  0  0  0
   13.0533   -8.1305   -2.3275 C   0  0  2  0  0  0  0  0  0  0  0  0
   13.8711   -9.2989   -2.3580 O   0  0  0  0  0  0  0  0  0  0  0  0
   17.7199   -7.6325   -3.7415 C   0  0  0  0  0  0  0  0  0  0  0  0
   17.3523   -6.6816   -2.6201 O   0  0  0  0  0  0  0  0  0  0  0  0
   11.0257  -11.1995    2.1383 C   0  0  0  0  0  0  0  0  0  0  0  0
   11.2613  -12.5024    2.7207 N   0  0  0  0  0  0  0  0  0  0  0  0
   13.9359   -6.8802   -1.9539 C   0  0  1  0  0  0  0  0  0  0  0  0
   14.9197   -6.7330   -2.9354 O   0  0  0  0  0  0  0  0  0  0  0  0
   18.1261   -7.8963   -6.1879 C   0  0  0  0  0  0  0  0  0  0  0  0
   17.0774   -4.0469   -6.5967 C   0  0  0  0  0  0  0  0  0  0  0  0
  1  2  1  1  0  0  0
  1  6  1  0  0  0  0
  1 21  1  0  0  0  0
  3  4  1  1  0  0  0
  3  8  1  0  0  0  0
  3 28  1  0  0  0  0
  5  9  1  0  0  0  0
  5 25  1  0  0  0  0
  5 29  1  6  0  0  0
  6  7  1  6  0  0  0
  6 11  1  0  0  0  0
  8 12  1  0  0  0  0
  9 10  1  6  0  0  0
  9 14  1  0  0  0  0
 11 16  1  0  0  0  0
 12 13  1  1  0  0  0
 12 17  1  0  0  0  0
 14 15  1  6  0  0  0
 14 18  1  0  0  0  0
 15 31  1  0  0  0  0
 16 20  1  0  0  0  0
 17  2  1  6  0  0  0
 17 22  1  0  0  0  0
 18 19  1  1  0  0  0
 18 24  1  0  0  0  0
 18 30  1  0  0  0  0
 20 21  1  0  0  0  0
 20 26  1  6  0  0  0
 22 23  1  1  0  0  0
 22 28  1  0  0  0  0
 24 25  1  0  0  0  0
 26 27  1  0  0  0  0
 28 29  1  6  0  0  0
M  END
>  <CHROM.1>
-167.59973254,-131.76583480,38.86828706,-172.84337463,85.53525829,74.77754876
13.67492083,-7.99089331,-2.41020840,-2.57973298,0.66024992,0.02263690

>  <Name>
ligand

>  <RI>
0

>  <Rbt.Current_Directory>
/home/itssahil/PROJECTS/Mol_Feturizer/New_Systems/rnas/4F8V

>  <Rbt.Executable>
rbdock ($Id: //depot/dev/client3/rdock/2013.1/src/exe/rbdock.cxx#4 $)

>  <Rbt.Library>
libRbt.so (2013.1, Build901 2013/11/27)

>  <Rbt.Parameter_File>
/export/apps/rDock/src/rDock_2013.1_src/data/scripts/dock_solv.prm

>  <Rbt.Receptor>
prm/blind_docking_100.prm

>  <SCORE>
9.5681

>  <SCORE.INTER>
-1.05789

>  <SCORE.INTER.CONST>
1

>  <SCORE.INTER.POLAR>
0

>  <SCORE.INTER.ROT>
6

>  <SCORE.INTER.SOLV>
22.8897

>  <SCORE.INTER.VDW>
-15.9352

>  <SCORE.INTER.norm>
-0.0341255

>  <SCORE.INTRA>
1.59345

>  <SCORE.INTRA.DIHEDRAL>
-4.17369

>  <SCORE.INTRA.DIHEDRAL.0>
15.9129

>  <SCORE.INTRA.POLAR>
0

>  <SCORE.INTRA.POLAR.0>
0

>  <SCORE.INTRA.REPUL>
0

>  <SCORE.INTRA.REPUL.0>
0

>  <SCORE.INTRA.SOLV>
-1.27728

>  <SCORE.INTRA.SOLV.lig_0>
-75.7056

>  <SCORE.INTRA.VDW>
4.31894

>  <SCORE.INTRA.VDW.0>
-4.61812

>  <SCORE.INTRA.norm>
0.0514017

>  <SCORE.RESTR>
9.03254

>  <SCORE.RESTR.CAVITY>
9.03254

>  <SCORE.RESTR.norm>
0.291372

>  <SCORE.SYSTEM>
0

>  <SCORE.SYSTEM.CONST>
0

>  <SCORE.SYSTEM.DIHEDRAL>
0

>  <SCORE.SYSTEM.SOLV>
0

>  <SCORE.SYSTEM.norm>
0

>  <SCORE.heavy>
31

>  <SCORE.norm>
0.308649

>  <RMSD>
10.857

$$$$
ligand
 OpenBabel11021811493D
libRbt.so/2013.1/901 2013/11/27
 31 33  0  0  0  0  0  0  0  0999 V2000
   14.8653   -6.7140   -4.8190 C   0  0  2  0  0  0  0  0  0  0  0  0
   14.4793   -7.7992   -3.9647 O   0  0  0  0  0  0  0  0  0  0  0  0
   10.4070   -7.7887   -2.6979 C   0  0  2  0  0  0  0  0  0  0  0  0
    9.0336   -8.1533   -2.6035 N   0  0  0  0  0  0  0  0  0  0  0  0
    9.7089   -9.9253   -0.6151 C   0  0  2  0  0  0  0  0  0  0  0  0
   16.3413   -6.9780   -5.2497 C   0  0  2  0  0  0  0  0  0  0  0  0
   16.4179   -8.2815   -5.9064 N   0  0  0  0  0  0  0  0  0  0  0  0
   10.7125   -7.2935   -4.1611 C   0  0  0  0  0  0  0  0  0  0  0  0
    9.9434  -10.3769    0.8518 C   0  0  2  0  0  0  0  0  0  0  0  0
   10.4334   -9.2797    1.5883 O   0  0  0  0  0  0  0  0  0  0  0  0
   17.2979   -6.9023   -3.9978 C   0  0  0  0  0  0  0  0  0  0  0  0
   12.2395   -6.8888   -4.2622 C   0  0  2  0  0  0  0  0  0  0  0  0
   12.5324   -6.4266   -5.6344 N   0  0  0  0  0  0  0  0  0  0  0  0
   10.9779  -11.5714    0.8376 C   0  0  1  0  0  0  0  0  0  0  0  0
   11.2525  -12.0257    2.2302 N   0  0  0  0  0  0  0  0  0  0  0  0
   16.8069   -5.8750   -2.9142 C   0  0  0  0  0  0  0  0  0  0  0  0
   13.1327   -8.1510   -3.9010 C   0  0  2  0  0  0  0  0  0  0  0  0
   10.3675  -12.8100   -0.0249 C   0  0  1  0  0  0  0  0  0  0  0  0
    9.1687  -13.3160    0.5096 O   0  0  0  0  0  0  0  0  0  0  0  0
   15.6395   -5.2270   -3.0436 C   0  0  1  0  0  0  0  0  0  0  0  0
   14.7898   -5.4231   -4.1566 O   0  0  0  0  0  0  0  0  0  0  0  0
   12.7937   -8.6368   -2.4450 C   0  0  2  0  0  0  0  0  0  0  0  0
   13.5920   -9.7773   -2.1338 O   0  0  0  0  0  0  0  0  0  0  0  0
   10.0774  -12.3195   -1.4772 C   0  0  0  0  0  0  0  0  0  0  0  0
    9.2085  -11.0781   -1.4489 O   0  0  0  0  0  0  0  0  0  0  0  0
   15.1199   -4.2245   -1.9946 C   0  0  0  0  0  0  0  0  0  0  0  0
   14.4833   -4.9592   -0.9235 N   0  0  0  0  0  0  0  0  0  0  0  0
   11.2688   -9.0242   -2.3645 C   0  0  1  0  0  0  0  0  0  0  0  0
   10.9941   -9.4411   -1.0592 O   0  0  0  0  0  0  0  0  0  0  0  0
   11.2604  -14.0544   -0.1317 C   0  0  0  0  0  0  0  0  0  0  0  0
   10.0749  -12.3331    3.0564 C   0  0  0  0  0  0  0  0  0  0  0  0
  1  2  1  1  0  0  0
  1  6  1  0  0  0  0
  1 21  1  0  0  0  0
  3  4  1  6  0  0  0
  3  8  1  0  0  0  0
  3 28  1  0  0  0  0
  5  9  1  0  0  0  0
  5 25  1  0  0  0  0
  5 29  1  6  0  0  0
  6  7  1  1  0  0  0
  6 11  1  0  0  0  0
  8 12  1  0  0  0  0
  9 10  1  1  0  0  0
  9 14  1  0  0  0  0
 11 16  1  0  0  0  0
 12 13  1  6  0  0  0
 12 17  1  0  0  0  0
 14 15  1  1  0  0  0
 14 18  1  0  0  0  0
 15 31  1  0  0  0  0
 16 20  1  0  0  0  0
 17  2  1  1  0  0  0
 17 22  1  0  0  0  0
 18 19  1  1  0  0  0
 18 24  1  0  0  0  0
 18 30  1  0  0  0  0
 20 21  1  0  0  0  0
 20 26  1  1  0  0  0
 22 23  1  6  0  0  0
 22 28  1  0  0  0  0
 24 25  1  0  0  0  0
 26 27  1  0  0  0  0
 28 29  1  1  0  0  0
M  END
>  <CHROM.1>
-152.48374997,175.04657632,51.73054948,-25.93423057,-82.17854247,63.47454638
12.41328288,-8.84321162,-1.99228853,0.89869950,-0.38017315,-0.97425403

>  <Name>
ligand

>  <RI>
0

>  <Rbt.Current_Directory>
/home/itssahil/PROJECTS/Mol_Feturizer/New_Systems/rnas/4F8V

>  <Rbt.Executable>
rbdock ($Id: //depot/dev/client3/rdock/2013.1/src/exe/rbdock.cxx#4 $)

>  <Rbt.Library>
libRbt.so (2013.1, Build901 2013/11/27)

>  <Rbt.Parameter_File>
/export/apps/rDock/src/rDock_2013.1_src/data/scripts/dock_solv.prm

>  <Rbt.Receptor>
prm/blind_docking_100.prm

>  <SCORE>
21.6167

>  <SCORE.INTER>
3.76605

>  <SCORE.INTER.CONST>
1

>  <SCORE.INTER.POLAR>
0

>  <SCORE.INTER.ROT>
6

>  <SCORE.INTER.SOLV>
21.6835

>  <SCORE.INTER.VDW>
-12.3171

>  <SCORE.INTER.norm>
0.121485

>  <SCORE.INTRA>
5.66975

>  <SCORE.INTRA.DIHEDRAL>
-5.15706

>  <SCORE.INTRA.DIHEDRAL.0>
15.9129

>  <SCORE.INTRA.POLAR>
0

>  <SCORE.INTRA.POLAR.0>
0

>  <SCORE.INTRA.REPUL>
0

>  <SCORE.INTRA.REPUL.0>
0

>  <SCORE.INTRA.SOLV>
0.685145

>  <SCORE.INTRA.SOLV.lig_0>
-75.7056

>  <SCORE.INTRA.VDW>
7.90571

>  <SCORE.INTRA.VDW.0>
-4.61812

>  <SCORE.INTRA.norm>
0.182895

>  <SCORE.RESTR>
12.1809

>  <SCORE.RESTR.CAVITY>
12.1809

>  <SCORE.RESTR.norm>
0.392931

>  <SCORE.SYSTEM>
0

>  <SCORE.SYSTEM.CONST>
0

>  <SCORE.SYSTEM.DIHEDRAL>
0

>  <SCORE.SYSTEM.SOLV>
0

>  <SCORE.SYSTEM.norm>
0

>  <SCORE.heavy>
31

>  <SCORE.norm>
0.697312

>  <RMSD>
11.019

$$$$
ligand
 OpenBabel11021811493D
libRbt.so/2013.1/901 2013/11/27
 31 33  0  0  0  0  0  0  0  0999 V2000
   11.4657  -10.8191   -2.1483 C   0  0  2  0  0  0  0  0  0  0  0  0
   10.9890   -9.5013   -1.8440 O   0  0  0  0  0  0  0  0  0  0  0  0
   12.7565   -5.6200   -1.8407 C   0  0  2  0  0  0  0  0  0  0  0  0
   13.7092   -4.5832   -1.6276 N   0  0  0  0  0  0  0  0  0  0  0  0
   14.3547   -6.9187   -5.0302 C   0  0  2  0  0  0  0  0  0  0  0  0
   10.2286  -11.6574   -2.5961 C   0  0  2  0  0  0  0  0  0  0  0  0
    9.5962  -10.9977   -3.7366 N   0  0  0  0  0  0  0  0  0  0  0  0
   12.3253   -6.2216   -0.4508 C   0  0  0  0  0  0  0  0  0  0  0  0
   15.8142   -7.1917   -4.5765 C   0  0  2  0  0  0  0  0  0  0  0  0
   15.7828   -7.8781   -3.3459 O   0  0  0  0  0  0  0  0  0  0  0  0
    9.2216  -11.8303   -1.3945 C   0  0  0  0  0  0  0  0  0  0  0  0
   11.2662   -7.3731   -0.6916 C   0  0  2  0  0  0  0  0  0  0  0  0
   10.8607   -7.9435    0.6093 N   0  0  0  0  0  0  0  0  0  0  0  0
   16.5546   -5.8019   -4.4440 C   0  0  1  0  0  0  0  0  0  0  0  0
   17.9576   -6.0123   -3.9877 N   0  0  0  0  0  0  0  0  0  0  0  0
    9.9405  -11.8923    0.0020 C   0  0  0  0  0  0  0  0  0  0  0  0
   11.9211   -8.4933   -1.6069 C   0  0  2  0  0  0  0  0  0  0  0  0
   16.5624   -5.0495   -5.8878 C   0  0  1  0  0  0  0  0  0  0  0  0
   17.2374   -5.7769   -6.8848 O   0  0  0  0  0  0  0  0  0  0  0  0
   11.2653  -11.7145    0.1146 C   0  0  1  0  0  0  0  0  0  0  0  0
   12.0892  -11.4684   -1.0079 O   0  0  0  0  0  0  0  0  0  0  0  0
   12.3605   -7.8626   -2.9781 C   0  0  2  0  0  0  0  0  0  0  0  0
   12.9578   -8.8730   -3.7886 O   0  0  0  0  0  0  0  0  0  0  0  0
   15.0892   -4.8426   -6.3575 C   0  0  0  0  0  0  0  0  0  0  0  0
   14.3400   -6.1598   -6.3335 O   0  0  0  0  0  0  0  0  0  0  0  0
   12.0014  -11.7541    1.4681 C   0  0  0  0  0  0  0  0  0  0  0  0
   11.2740  -12.6215    2.3686 N   0  0  0  0  0  0  0  0  0  0  0  0
   13.4054   -6.7135   -2.7145 C   0  0  1  0  0  0  0  0  0  0  0  0
   13.7693   -6.1650   -3.9473 O   0  0  0  0  0  0  0  0  0  0  0  0
   17.2512   -3.6778   -5.9230 C   0  0  0  0  0  0  0  0  0  0  0  0
   18.7074   -7.0803   -4.6666 C   0  0  0  0  0  0  0  0  0  0  0  0
  1  2  1  1  0  0  0
  1  6  1  0  0  0  0
  1 21  1  0  0  0  0
  3  4  1  1  0  0  0
  3  8  1  0  0  0  0
  3 28  1  0  0  0  0
  5  9  1  0  0  0  0
  5 25  1  0  0  0  0
  5 29  1  1  0  0  0
  6  7  1  6  0  0  0
  6 11  1  0  0  0  0
  8 12  1  0  0  0  0
  9 10  1  1  0  0  0
  9 14  1  0  0  0  0
 11 16  1  0  0  0  0
 12 13  1  1  0  0  0
 12 17  1  0  0  0  0
 14 15  1  6  0  0  0
 14 18  1  0  0  0  0
 15 31  1  0  0  0  0
 16 20  1  0  0  0  0
 17  2  1  6  0  0  0
 17 22  1  0  0  0  0
 18 19  1  6  0  0  0
 18 24  1  0  0  0  0
 18 30  1  0  0  0  0
 20 21  1  0  0  0  0
 20 26  1  1  0  0  0
 22 23  1  6  0  0  0
 22 28  1  0  0  0  0
 24 25  1  0  0  0  0
 26 27  1  0  0  0  0
 28 29  1  6  0  0  0
M  END
>  <CHROM.1>
-170.64670385,-73.67559353,45.63762925,-154.68192348,28.63011932,-177.40239190
13.36052831,-8.07563074,-2.78719486,-3.08683107,0.91597686,0.77730959

>  <Name>
ligand

>  <RI>
0

>  <Rbt.Current_Directory>
/home/itssahil/PROJECTS/Mol_Feturizer/New_Systems/rnas/4F8V

>  <Rbt.Executable>
rbdock ($Id: //depot/dev/client3/rdock/2013.1/src/exe/rbdock.cxx#4 $)

>  <Rbt.Library>
libRbt.so (2013.1, Build901 2013/11/27)

>  <Rbt.Parameter_File>
/export/apps/rDock/src/rDock_2013.1_src/data/scripts/dock_solv.prm

>  <Rbt.Receptor>
prm/blind_docking_100.prm

>  <SCORE>
12.4642

>  <SCORE.INTER>
4.3941

>  <SCORE.INTER.CONST>
1

>  <SCORE.INTER.POLAR>
0

>  <SCORE.INTER.ROT>
6

>  <SCORE.INTER.SOLV>
23.4104

>  <SCORE.INTER.VDW>
-12.4741

>  <SCORE.INTER.norm>
0.141745

>  <SCORE.INTRA>
-0.324391

>  <SCORE.INTRA.DIHEDRAL>
-9.10794

>  <SCORE.INTRA.DIHEDRAL.0>
15.9129

>  <SCORE.INTRA.POLAR>
0

>  <SCORE.INTRA.POLAR.0>
0

>  <SCORE.INTRA.REPUL>
0

>  <SCORE.INTRA.REPUL.0>
0

>  <SCORE.INTRA.SOLV>
-1.22633

>  <SCORE.INTRA.SOLV.lig_0>
-75.7056

>  <SCORE.INTRA.VDW>
4.84275

>  <SCORE.INTRA.VDW.0>
-4.61812

>  <SCORE.INTRA.norm>
-0.0104642

>  <SCORE.RESTR>
8.39452

>  <SCORE.RESTR.CAVITY>
8.39452

>  <SCORE.RESTR.norm>
0.270791

>  <SCORE.SYSTEM>
0

>  <SCORE.SYSTEM.CONST>
0

>  <SCORE.SYSTEM.DIHEDRAL>
0

>  <SCORE.SYSTEM.SOLV>
0

>  <SCORE.SYSTEM.norm>
0

>  <SCORE.heavy>
31

>  <SCORE.norm>
0.402072

>  <RMSD>
11.044

$$$$
ligand
 OpenBabel11021811493D
libRbt.so/2013.1/901 2013/11/27
 31 33  0  0  0  0  0  0  0  0999 V2000
   15.4261   -7.2821   -3.2855 C   0  0  2  0  0  0  0  0  0  0  0  0
   14.4425   -7.0224   -4.2963 O   0  0  0  0  0  0  0  0  0  0  0  0
   10.4637   -7.7597   -2.9494 C   0  0  2  0  0  0  0  0  0  0  0  0
    9.1934   -8.3875   -2.8072 N   0  0  0  0  0  0  0  0  0  0  0  0
   12.0020  -10.3260   -0.6417 C   0  0  2  0  0  0  0  0  0  0  0  0
   15.8803   -5.8978   -2.7276 C   0  0  2  0  0  0  0  0  0  0  0  0
   14.7103   -5.1837   -2.2206 N   0  0  0  0  0  0  0  0  0  0  0  0
   10.6498   -7.2984   -4.4435 C   0  0  0  0  0  0  0  0  0  0  0  0
   11.2726  -11.5321   -1.2927 C   0  0  2  0  0  0  0  0  0  0  0  0
   11.4240  -11.4489   -2.6915 O   0  0  0  0  0  0  0  0  0  0  0  0
   16.6221   -5.0732   -3.8490 C   0  0  0  0  0  0  0  0  0  0  0  0
   12.0623   -6.6008   -4.5975 C   0  0  2  0  0  0  0  0  0  0  0  0
   12.2435   -6.1690   -5.9986 N   0  0  0  0  0  0  0  0  0  0  0  0
    9.7508  -11.4702   -0.8716 C   0  0  1  0  0  0  0  0  0  0  0  0
    9.0027  -12.5995   -1.4929 N   0  0  0  0  0  0  0  0  0  0  0  0
   17.4148   -5.9845   -4.8550 C   0  0  0  0  0  0  0  0  0  0  0  0
   13.1956   -7.6341   -4.1860 C   0  0  2  0  0  0  0  0  0  0  0  0
    9.6299  -11.5679    0.7490 C   0  0  1  0  0  0  0  0  0  0  0  0
   10.1476  -12.7681    1.2690 O   0  0  0  0  0  0  0  0  0  0  0  0
   17.3554   -7.3226   -4.7818 C   0  0  1  0  0  0  0  0  0  0  0  0
   16.5870   -7.9887   -3.7994 O   0  0  0  0  0  0  0  0  0  0  0  0
   12.9748   -8.0934   -2.6991 C   0  0  2  0  0  0  0  0  0  0  0  0
   13.9901   -9.0297   -2.3421 O   0  0  0  0  0  0  0  0  0  0  0  0
   10.4232  -10.3856    1.3868 C   0  0  0  0  0  0  0  0  0  0  0  0
   11.8431  -10.3595    0.8578 O   0  0  0  0  0  0  0  0  0  0  0  0
   18.1072   -8.2468   -5.7595 C   0  0  0  0  0  0  0  0  0  0  0  0
   19.0126   -9.0853   -5.0048 N   0  0  0  0  0  0  0  0  0  0  0  0
   11.5606   -8.7748   -2.5664 C   0  0  1  0  0  0  0  0  0  0  0  0
   11.3875   -9.1625   -1.2350 O   0  0  0  0  0  0  0  0  0  0  0  0
    8.2042  -11.5220    1.3170 C   0  0  0  0  0  0  0  0  0  0  0  0
    8.1405  -12.2566   -2.6343 C   0  0  0  0  0  0  0  0  0  0  0  0
  1  2  1  6  0  0  0
  1  6  1  0  0  0  0
  1 21  1  0  0  0  0
  3  4  1  6  0  0  0
  3  8  1  0  0  0  0
  3 28  1  0  0  0  0
  5  9  1  0  0  0  0
  5 25  1  0  0  0  0
  5 29  1  6  0  0  0
  6  7  1  6  0  0  0
  6 11  1  0  0  0  0
  8 12  1  0  0  0  0
  9 10  1  6  0  0  0
  9 14  1  0  0  0  0
 11 16  1  0  0  0  0
 12 13  1  6  0  0  0
 12 17  1  0  0  0  0
 14 15  1  6  0  0  0
 14 18  1  0  0  0  0
 15 31  1  0  0  0  0
 16 20  1  0  0  0  0
 17  2  1  1  0  0  0
 17 22  1  0  0  0  0
 18 19  1  1  0  0  0
 18 24  1  0  0  0  0
 18 30  1  0  0  0  0
 20 21  1  0  0  0  0
 20 26  1  6  0  0  0
 22 23  1  6  0  0  0
 22 28  1  0  0  0  0
 24 25  1  0  0  0  0
 26 27  1  0  0  0  0
 28 29  1  1  0  0  0
M  END
>  <CHROM.1>
-125.06260330,-70.37896615,-104.82448721,139.62751239,120.55305339,163.72567332
12.73778434,-8.88490007,-2.50582577,-0.73541839,0.00416838,2.40058652

>  <Name>
ligand

>  <RI>
0

>  <Rbt.Current_Directory>
/home/itssahil/PROJECTS/Mol_Feturizer/New_Systems/rnas/4F8V

>  <Rbt.Executable>
rbdock ($Id: //depot/dev/client3/rdock/2013.1/src/exe/rbdock.cxx#4 $)

>  <Rbt.Library>
libRbt.so (2013.1, Build901 2013/11/27)

>  <Rbt.Parameter_File>
/export/apps/rDock/src/rDock_2013.1_src/data/scripts/dock_solv.prm

>  <Rbt.Receptor>
prm/blind_docking_100.prm

>  <SCORE>
17.2536

>  <SCORE.INTER>
-1.95192

>  <SCORE.INTER.CONST>
1

>  <SCORE.INTER.POLAR>
0

>  <SCORE.INTER.ROT>
6

>  <SCORE.INTER.SOLV>
16.012

>  <SCORE.INTER.VDW>
-14.2386

>  <SCORE.INTER.norm>
-0.0629653

>  <SCORE.INTRA>
7.19587

>  <SCORE.INTRA.DIHEDRAL>
1.07294

>  <SCORE.INTRA.DIHEDRAL.0>
15.9129

>  <SCORE.INTRA.POLAR>
0

>  <SCORE.INTRA.POLAR.0>
0

>  <SCORE.INTRA.REPUL>
0

>  <SCORE.INTRA.REPUL.0>
0

>  <SCORE.INTRA.SOLV>
-0.367149

>  <SCORE.INTRA.SOLV.lig_0>
-75.7056

>  <SCORE.INTRA.VDW>
6.84297

>  <SCORE.INTRA.VDW.0>
-4.61812

>  <SCORE.INTRA.norm>
0.232125

>  <SCORE.RESTR>
12.0096

>  <SCORE.RESTR.CAVITY>
12.0096

>  <SCORE.RESTR.norm>
0.387408

>  <SCORE.SYSTEM>
0

>  <SCORE.SYSTEM.CONST>
0

>  <SCORE.SYSTEM.DIHEDRAL>
0

>  <SCORE.SYSTEM.SOLV>
0

>  <SCORE.SYSTEM.norm>
0

>  <SCORE.heavy>
31

>  <SCORE.norm>
0.556567

>  <RMSD>
11.151

$$$$
