@<TRIPOS>MOLECULE
4F8V_rdock.pdb
 406 452 0 0 0
SMALL
GASTEIGER

@<TRIPOS>ATOM
      1  P         25.3000  -14.7520  -15.3040 P.3    14  G14         0.1280
      2  C5'       25.8710  -12.7040  -16.8470 C.3    14  G14         0.1795
      3  O5'       25.1130  -13.2400  -15.7670 O.3    14  G14        -0.3259
      4  C4'       25.2590  -11.4060  -17.3270 C.3    14  G14         0.1772
      5  O4'       23.9450  -11.6580  -17.8940 O.3    14  G14        -0.3307
      6  C3'       24.9910  -10.3570  -16.2610 C.3    14  G14         0.1860
      7  O3'       26.1470   -9.6040  -15.9590 O.3    14  G14        -0.3112
      8  C2'       23.9370   -9.4890  -16.9250 C.3    14  G14         0.2309
      9  O2'       24.4980   -8.5660  -17.8370 O.3    14  G14        -0.2156
     10  C1'       23.0980  -10.5450  -17.6490 C.3    14  G14         0.2408
     11  N1        18.3750   -9.4770  -16.1500 N.ar   14  G14        -0.1709
     12  C2        19.1970   -8.8010  -17.0160 C.ar   14  G14         0.2606
     13  N2        18.6950   -7.6760  -17.5420 N.pl3  14  G14        -0.0859
     14  N3        20.4170   -9.1960  -17.3430 N.ar   14  G14        -0.1918
     15  C4        20.7610  -10.3440  -16.7220 C.ar   14  G14         0.1723
     16  C5        20.0210  -11.1010  -15.8400 C.ar   14  G14         0.1748
     17  C6        18.7020  -10.6570  -15.4940 C.ar   14  G14         0.3023
     18  O6        17.8820  -11.1730  -14.7200 O.2    14  G14        -0.2633
     19  N7        20.7460  -12.2090  -15.4150 N.ar   14  G14        -0.2173
     20  C8        21.8890  -12.1040  -16.0370 C.ar   14  G14         0.1817
     21  N9        21.9660  -10.9900  -16.8400 N.ar   14  G14        -0.2693
     22  OP1       26.7180  -14.9670  -14.9190 O.3    14  G14        -0.1955
     23  OP2       24.2300  -15.0290  -14.3110 O.co2  14  G14        -0.7863
     24  P         26.3730   -9.0880  -14.4610 P.3    15  U15         0.2141
     25  C5'       25.3040   -6.7910  -15.1380 C.3    15  U15         0.1812
     26  O5'       25.2710   -7.9460  -14.3020 O.3    15  U15        -0.3114
     27  C4'       24.0000   -6.0260  -15.0560 C.3    15  U15         0.1773
     28  O4'       22.9180   -6.8570  -15.5550 O.3    15  U15        -0.3307
     29  C3'       23.5170   -5.5970  -13.6760 C.3    15  U15         0.1860
     30  O3'       24.1310   -4.3910  -13.2370 O.3    15  U15        -0.3112
     31  C2'       22.0360   -5.3690  -13.9330 C.3    15  U15         0.2309
     32  O2'       21.7940   -4.1460  -14.5900 O.3    15  U15        -0.2156
     33  C1'       21.7150   -6.5330  -14.8700 C.3    15  U15         0.2420
     34  N1        21.2400   -7.7190  -14.1390 N.ar   15  U15        -0.2534
     35  C2        19.9310   -7.7160  -13.7050 C.ar   15  U15         0.3546
     36  O2        19.1710   -6.7950  -13.9050 O.2    15  U15        -0.2443
     37  N3        19.5420   -8.8340  -13.0230 N.ar   15  U15        -0.1530
     38  C4        20.3050   -9.9400  -12.7350 C.ar   15  U15         0.2846
     39  O4        19.7780  -10.9050  -12.1730 O.2    15  U15        -0.2650
     40  C5        21.6540   -9.8730  -13.2110 C.ar   15  U15         0.0814
     41  C6        22.0630   -8.7930  -13.8830 C.ar   15  U15         0.0870
     42  OP1       27.7230   -8.4750  -14.3970 O.2    15  U15        -0.5172
     43  OP2       26.0440  -10.2180  -13.5490 O.co2  15  U15        -0.4373
     44  P         24.5820   -4.2350  -11.6960 P.3    16  G16         0.2141
     45  C5'       22.5120   -2.6310  -11.3930 C.3    16  G16         0.1812
     46  O5'       23.2760   -3.7370  -10.9280 O.3    16  G16        -0.3114
     47  C4'       21.1090   -2.7460  -10.8690 C.3    16  G16         0.1773
     48  O4'       20.6740   -4.0790  -11.1420 O.3    16  G16        -0.3307
     49  C3'       20.9300   -2.5450   -9.3630 C.3    16  G16         0.1860
     50  O3'       20.3260   -1.2550   -9.2430 O.3    16  G16        -0.3112
     51  C2'       19.8580   -3.5650   -8.9520 C.3    16  G16         0.2309
     52  O2'       18.6060   -2.9830   -8.6480 O.3    16  G16        -0.2156
     53  C1'       19.7010   -4.4300  -10.2060 C.3    16  G16         0.2408
     54  N1        16.7370   -8.3320   -9.0180 N.ar   16  G16        -0.1709
     55  C2        16.4580   -6.9890   -9.0420 C.ar   16  G16         0.2606
     56  N2        15.2130   -6.6320   -8.7110 N.pl3  16  G16        -0.0859
     57  N3        17.3330   -6.0640   -9.3720 N.ar   16  G16        -0.1918
     58  C4        18.5350   -6.5900   -9.6880 C.ar   16  G16         0.1723
     59  C5        18.9190   -7.9100   -9.7090 C.ar   16  G16         0.1748
     60  C6        17.9640   -8.9010   -9.3430 C.ar   16  G16         0.3023
     61  O6        18.1050  -10.1310   -9.2920 O.2    16  G16        -0.2633
     62  N7        20.2500   -8.0310  -10.0970 N.ar   16  G16        -0.2173
     63  C8        20.6420   -6.8010  -10.2910 C.ar   16  G16         0.1817
     64  N9        19.6460   -5.8790  -10.0640 N.ar   16  G16        -0.2693
     65  OP1       25.5870   -3.1450  -11.6490 O.2    16  G16        -0.5172
     66  OP2       24.9310   -5.5770  -11.1550 O.co2  16  G16        -0.4373
     67  P         20.6900   -0.2570   -8.0380 P.3    17  A17         0.2141
     68  C5'       22.1710   -1.5220   -6.2590 C.3    17  A17         0.1812
     69  O5'       20.8700   -1.1370   -6.7140 O.3    17  A17        -0.3114
     70  C4'       22.3450   -1.2810   -4.7590 C.3    17  A17         0.1773
     71  O4'       22.3670    0.1370   -4.4380 O.3    17  A17        -0.3307
     72  C3'       21.3110   -1.8090   -3.7750 C.3    17  A17         0.1860
     73  O3'       21.3830   -3.2200   -3.5880 O.3    17  A17        -0.3112
     74  C2'       21.6840   -1.0570   -2.4900 C.3    17  A17         0.2309
     75  O2'       22.7200   -1.6360   -1.7220 O.3    17  A17        -0.2156
     76  C1'       22.1630    0.2900   -3.0360 C.3    17  A17         0.2408
     77  N1        20.0390    3.2590    0.5660 N.ar   17  A17        -0.2040
     78  C2        21.0270    2.3510    0.6080 C.ar   17  A17         0.2016
     79  N3        21.5470    1.6200   -0.3840 N.ar   17  A17        -0.2048
     80  C4        20.9330    1.9010   -1.5480 C.ar   17  A17         0.1692
     81  C5        19.9050    2.8060   -1.7460 C.ar   17  A17         0.1518
     82  C6        19.4470    3.5110   -0.6230 C.ar   17  A17         0.1919
     83  N6        18.4630    4.4080   -0.6740 N.pl3  17  A17        -0.1054
     84  N7        19.5190    2.8260   -3.0780 N.ar   17  A17        -0.2193
     85  C8        20.3090    1.9450   -3.6490 C.ar   17  A17         0.1816
     86  N9        21.1800    1.3390   -2.7790 N.ar   17  A17        -0.2693
     87  OP1       19.4610    0.5620   -7.8770 O.3    17  A17        -0.4373
     88  OP2       21.9690    0.3970   -8.4080 O.co2  17  A17        -0.5172
     89  P         20.1130   -4.0060   -2.9830 P.3    18  A18         0.2141
     90  C5'       20.8630   -3.8370   -0.4730 C.3    18  A18         0.1812
     91  O5'       19.9640   -3.4310   -1.5040 O.3    18  A18        -0.3114
     92  C4'       20.4240   -3.2790    0.8590 C.3    18  A18         0.1773
     93  O4'       20.5430   -1.8350    0.8430 O.3    18  A18        -0.3307
     94  C3'       18.9730   -3.5320    1.2320 C.3    18  A18         0.1860
     95  O3'       18.8180   -4.8150    1.8340 O.3    18  A18        -0.3112
     96  C2'       18.7220   -2.4250    2.2460 C.3    18  A18         0.2309
     97  O2'       19.2380   -2.7100    3.5260 O.3    18  A18        -0.2156
     98  C1'       19.5190   -1.2730    1.6400 C.3    18  A18         0.2408
     99  N1        16.2690    2.6930    1.4940 N.ar   18  A18        -0.2040
    100  C2        16.9560    2.1270    2.4930 C.ar   18  A18         0.2016
    101  N3        17.7940    1.0960    2.4610 N.ar   18  A18        -0.2048
    102  C4        17.9030    0.6140    1.2110 C.ar   18  A18         0.1692
    103  C5        17.2590    1.0820    0.0850 C.ar   18  A18         0.1518
    104  C6        16.4020    2.1840    0.2510 C.ar   18  A18         0.1919
    105  N6        15.7220    2.7520   -0.7480 N.pl3  18  A18        -0.1054
    106  N7        17.6150    0.3350   -1.0280 N.ar   18  A18        -0.2193
    107  C8        18.4580   -0.5510   -0.5590 C.ar   18  A18         0.1816
    108  N9        18.6730   -0.4440    0.7890 N.ar   18  A18        -0.2693
    109  OP1       20.5070   -5.4300   -2.8660 O.3    18  A18        -0.4373
    110  OP2       18.8950   -3.6390   -3.7510 O.co2  18  A18        -0.5172
    111  P         18.2960   -6.0660    0.9580 P.3    19  G19         0.2141
    112  C5'       16.1000   -6.0510    2.4110 C.3    19  G19         0.1812
    113  O5'       17.2160   -6.7710    1.8940 O.3    19  G19        -0.3114
    114  C4'       14.8660   -6.9290    2.4080 C.3    19  G19         0.1773
    115  O4'       14.3610   -7.0690    1.0520 O.3    19  G19        -0.3307
    116  C3'       15.0690   -8.3570    2.8920 C.3    19  G19         0.1860
    117  O3'       14.9720   -8.4590    4.3040 O.3    19  G19        -0.3112
    118  C2'       13.9510   -9.0820    2.1670 C.3    19  G19         0.2309
    119  O2'       12.6860   -8.7920    2.7240 O.3    19  G19        -0.2156
    120  C1'       14.0520   -8.4290    0.7880 C.3    19  G19         0.2408
    121  N1        16.0180  -12.5760   -1.4450 N.ar   19  G19        -0.1709
    122  C2        14.8150  -12.4300   -0.7830 C.ar   19  G19         0.2606
    123  N2        14.0540  -13.5330   -0.6620 N.pl3  19  G19        -0.0859
    124  N3        14.3870  -11.2830   -0.2740 N.ar   19  G19        -0.1918
    125  C4        15.2670  -10.2780   -0.4780 C.ar   19  G19         0.1723
    126  C5        16.4840  -10.3190   -1.1300 C.ar   19  G19         0.1748
    127  C6        16.9380  -11.5530   -1.6660 C.ar   19  G19         0.3023
    128  O6        18.0000  -11.7910   -2.2580 O.2    19  G19        -0.2633
    129  N7        17.0850   -9.0720   -1.1280 N.ar   19  G19        -0.2173
    130  C8        16.2530   -8.3120   -0.4730 C.ar   19  G19         0.1817
    131  N9        15.1370   -8.9820   -0.0290 N.ar   19  G19        -0.2693
    132  OP1       19.4500   -6.9930    0.7970 O.3    19  G19        -0.4373
    133  OP2       17.5760   -5.5710   -0.2470 O.co2  19  G19        -0.5172
    134  P         16.0130   -9.3810    5.1050 P.3    20  U20         0.2141
    135  C5'       14.1280  -11.1880    5.0130 C.3    20  U20         0.1812
    136  O5'       15.4960  -10.8540    4.7980 O.3    20  U20        -0.3114
    137  C4'       13.8790  -12.6440    4.7020 C.3    20  U20         0.1773
    138  O4'       13.9610  -12.8670    3.2660 O.3    20  U20        -0.3307
    139  C3'       14.8820  -13.6240    5.2890 C.3    20  U20         0.1860
    140  O3'       14.6140  -13.9160    6.6540 O.3    20  U20        -0.3112
    141  C2'       14.7110  -14.8270    4.3690 C.3    20  U20         0.2309
    142  O2'       13.5480  -15.5860    4.6370 O.3    20  U20        -0.2156
    143  C1'       14.5610  -14.1340    3.0150 C.3    20  U20         0.2420
    144  N1        15.8660  -13.9200    2.3650 N.ar   20  U20        -0.2534
    145  C2        16.4080  -14.9750    1.6520 C.ar   20  U20         0.3546
    146  O2        15.8450  -16.0560    1.5300 O.2    20  U20        -0.2443
    147  N3        17.6320  -14.7220    1.0840 N.ar   20  U20        -0.1530
    148  C4        18.3490  -13.5550    1.1510 C.ar   20  U20         0.2846
    149  O4        19.4320  -13.4870    0.5870 O.2    20  U20        -0.2650
    150  C5        17.7280  -12.5110    1.8970 C.ar   20  U20         0.0814
    151  C6        16.5390  -12.7210    2.4650 C.ar   20  U20         0.0870
    152  OP1       15.7770   -9.0760    6.5380 O.3    20  U20        -0.4373
    153  OP2       17.3820   -9.2300    4.5360 O.co2  20  U20        -0.5172
    154  P         15.8220  -14.3460    7.6180 P.3    21  C21         0.2141
    155  C5'       15.3980  -16.8700    7.1040 C.3    21  C21         0.1812
    156  O5'       16.2770  -15.7580    7.0540 O.3    21  C21        -0.3114
    157  C4'       16.0620  -18.0760    6.5000 C.3    21  C21         0.1773
    158  O4'       16.3050  -17.8250    5.0920 O.3    21  C21        -0.3307
    159  C3'       17.4370  -18.3990    7.0610 C.3    21  C21         0.1860
    160  O3'       17.3550  -19.1450    8.2750 O.3    21  C21        -0.3112
    161  C2'       18.0700  -19.1780    5.9170 C.3    21  C21         0.2309
    162  O2'       17.6500  -20.5240    5.8410 O.3    21  C21        -0.2156
    163  C1'       17.5420  -18.4030    4.7110 C.3    21  C21         0.2420
    164  N1        18.4550  -17.3240    4.2980 N.ar   21  C21        -0.2535
    165  C2        19.5400  -17.6430    3.4690 C.ar   21  C21         0.3532
    166  O2        19.7040  -18.8200    3.1200 O.2    21  C21        -0.2443
    167  N3        20.3820  -16.6640    3.0740 N.ar   21  C21        -0.1739
    168  C4        20.1800  -15.4090    3.4760 C.ar   21  C21         0.1759
    169  N4        21.0390  -14.4760    3.0560 N.pl3  21  C21        -0.1070
    170  C5        19.0880  -15.0530    4.3280 C.ar   21  C21         0.0566
    171  C6        18.2580  -16.0330    4.7110 C.ar   21  C21         0.0850
    172  OP1       15.2260  -14.5280    8.9610 O.3    21  C21        -0.4373
    173  OP2       16.9630  -13.4170    7.4380 O.co2  21  C21        -0.5172
    174  P         18.4000  -18.8480    9.4710 P.3    22  G22         0.2141
    175  C5'       19.7320  -20.9700    8.7580 C.3    22  G22         0.1812
    176  O5'       19.7370  -19.5750    8.9900 O.3    22  G22        -0.3114
    177  C4'       20.8360  -21.3670    7.8160 C.3    22  G22         0.1773
    178  O4'       20.7540  -20.5880    6.5950 O.3    22  G22        -0.3307
    179  C3'       22.2700  -21.1230    8.2460 C.3    22  G22         0.1860
    180  O3'       22.7230  -22.0650    9.2170 O.3    22  G22        -0.3112
    181  C2'       22.9970  -21.2870    6.9140 C.3    22  G22         0.2309
    182  O2'       23.1810  -22.6300    6.5130 O.3    22  G22        -0.2156
    183  C1'       22.0280  -20.5870    5.9600 C.3    22  G22         0.2408
    184  N1        25.5340  -17.6900    3.7360 N.ar   22  G22        -0.1709
    185  C2        25.3480  -19.0470    3.6700 C.ar   22  G22         0.2606
    186  N2        26.2450  -19.7330    2.9420 N.pl3  22  G22        -0.0859
    187  N3        24.3560  -19.6870    4.2700 N.ar   22  G22        -0.1918
    188  C4        23.5520  -18.8460    4.9590 C.ar   22  G22         0.1723
    189  C5        23.6440  -17.4780    5.0840 C.ar   22  G22         0.1748
    190  C6        24.7170  -16.8030    4.4280 C.ar   22  G22         0.3023
    191  O6        24.9750  -15.5980    4.4140 O.2    22  G22        -0.2633
    192  N7        22.6120  -16.9850    5.8790 N.ar   22  G22        -0.2173
    193  C8        21.9330  -18.0460    6.2260 C.ar   22  G22         0.1817
    194  N9        22.4650  -19.2130    5.7210 N.ar   22  G22        -0.2693
    195  OP1       17.8770  -19.5450   10.6810 O.3    22  G22        -0.4373
    196  OP2       18.6630  -17.3780    9.5320 O.co2  22  G22        -0.5172
    197  P         24.0220  -21.7300   10.1130 P.3    23  C23         0.2141
    198  C5'       25.7520  -22.6100    8.3350 C.3    23  C23         0.1813
    199  O5'       25.1940  -21.5090    9.0510 O.3    23  C23        -0.3114
    200  C4'       27.0840  -22.2250    7.7480 C.3    23  C23         0.1801
    201  O4'       26.8900  -21.2640    6.6780 O.3    23  C23        -0.3306
    202  C3'       28.0270  -21.5220    8.7090 C.3    23  C23         0.2161
    203  O3'       28.6580  -22.3910    9.6400 O.3    23  C23        -0.2175
    204  C2'       28.9560  -20.7780    7.7590 C.3    23  C23         0.2338
    205  O2'       29.9660  -21.6100    7.2110 O.3    23  C23        -0.2155
    206  C1'       27.9670  -20.3320    6.6720 C.3    23  C23         0.2421
    207  N1        27.4230  -18.9670    6.8830 N.ar   23  C23        -0.2535
    208  C2        28.0820  -17.8730    6.2940 C.ar   23  C23         0.3532
    209  O2        29.0960  -18.0810    5.6000 O.2    23  C23        -0.2443
    210  N3        27.5970  -16.6180    6.4950 N.ar   23  C23        -0.1739
    211  C4        26.5020  -16.4360    7.2400 C.ar   23  C23         0.1759
    212  N4        26.0600  -15.1850    7.4180 N.pl3  23  C23        -0.1070
    213  C5        25.8100  -17.5280    7.8410 C.ar   23  C23         0.0566
    214  C6        26.3000  -18.7640    7.6390 C.ar   23  C23         0.0850
    215  OP1       24.3180  -22.9750   10.8710 O.3    23  C23        -0.4373
    216  OP2       23.8120  -20.4520   10.8540 O.co2  23  C23        -0.5172
    217  P         31.2850   -6.9340    1.2370 P.3    26  G26         0.1280
    218  C5'       32.9570   -8.7870    0.2930 C.3    26  G26         0.1795
    219  O5'       31.6420   -8.4560    0.7700 O.3    26  G26        -0.3259
    220  C4'       33.3500  -10.1780    0.7350 C.3    26  G26         0.1772
    221  O4'       33.3690  -10.2530    2.1840 O.3    26  G26        -0.3307
    222  C3'       32.4260  -11.3070    0.3130 C.3    26  G26         0.1860
    223  O3'       32.7140  -11.7240   -1.0190 O.3    26  G26        -0.3112
    224  C2'       32.7610  -12.3970    1.3270 C.3    26  G26         0.2309
    225  O2'       33.8800  -13.1840    0.9780 O.3    26  G26        -0.2156
    226  C1'       33.0490  -11.5760    2.5910 C.3    26  G26         0.2408
    227  N1        29.5950  -14.2930    5.1300 N.ar   26  G26        -0.1709
    228  C2        30.6550  -14.7240    4.3690 C.ar   26  G26         0.2606
    229  N2        30.8070  -16.0570    4.2560 N.pl3  26  G26        -0.0859
    230  N3        31.5060  -13.9090    3.7640 N.ar   26  G26        -0.1918
    231  C4        31.2150  -12.6080    3.9950 C.ar   26  G26         0.1723
    232  C5        30.1870  -12.0740    4.7450 C.ar   26  G26         0.1748
    233  C6        29.2710  -12.9580    5.3760 C.ar   26  G26         0.3023
    234  O6        28.2800  -12.6790    6.0690 O.2    26  G26        -0.2633
    235  N7        30.2410  -10.6860    4.7400 N.ar   26  G26        -0.2173
    236  C8        31.2740  -10.4050    3.9920 C.ar   26  G26         0.1817
    237  N9        31.9010  -11.5250    3.4940 N.ar   26  G26        -0.2693
    238  OP1       31.8160   -5.9980    0.1550 O.3    26  G26        -0.1955
    239  OP2       29.7720   -6.8870    1.3400 O.co2  26  G26        -0.7863
    240  P         31.5800  -12.4600   -1.8900 P.3    27  C27         0.2141
    241  C5'       32.3680  -14.9400   -1.5330 C.3    27  C27         0.1812
    242  O5'       31.4480  -13.8960   -1.2160 O.3    27  C27        -0.3114
    243  C4'       31.8110  -16.2790   -1.1080 C.3    27  C27         0.1773
    244  O4'       31.6660  -16.2940    0.3390 O.3    27  C27        -0.3307
    245  C3'       30.4190  -16.6260   -1.6250 C.3    27  C27         0.1860
    246  O3'       30.4440  -17.1920   -2.9340 O.3    27  C27        -0.3112
    247  C2'       29.9490  -17.6420   -0.5950 C.3    27  C27         0.2309
    248  O2'       30.4830  -18.9360   -0.7970 O.3    27  C27        -0.2156
    249  C1'       30.5020  -17.0310    0.6940 C.3    27  C27         0.2420
    250  N1        29.5240  -16.1130    1.3080 N.ar   27  C27        -0.2535
    251  C2        28.4370  -16.6530    2.0150 C.ar   27  C27         0.3532
    252  O2        28.3410  -17.8860    2.1320 O.2    27  C27        -0.2443
    253  N3        27.5210  -15.8210    2.5500 N.ar   27  C27        -0.1739
    254  C4        27.6590  -14.5000    2.4120 C.ar   27  C27         0.1759
    255  N4        26.7290  -13.7130    2.9570 N.pl3  27  C27        -0.1070
    256  C5        28.7570  -13.9260    1.7090 C.ar   27  C27         0.0566
    257  C6        29.6570  -14.7590    1.1810 C.ar   27  C27         0.0850
    258  OP1       32.1210  -12.6670   -3.2590 O.2    27  C27        -0.5172
    259  OP2       30.2990  -11.7290   -1.7050 O.co2  27  C27        -0.4373
    260  P         29.1120  -17.1640   -3.8470 P.3    28  G28         0.2141
    261  C5'       28.3650  -19.6510   -3.4680 C.3    28  G28         0.1812
    262  O5'       28.1560  -18.2670   -3.2030 O.3    28  G28        -0.3114
    263  C4'       27.2870  -20.4810   -2.8210 C.3    28  G28         0.1773
    264  O4'       27.3160  -20.2550   -1.3860 O.3    28  G28        -0.3307
    265  C3'       25.8580  -20.1360   -3.1940 C.3    28  G28         0.1860
    266  O3'       25.4580  -20.6960   -4.4350 O.3    28  G28        -0.3112
    267  C2'       25.0860  -20.7290   -2.0260 C.3    28  G28         0.2309
    268  O2'       24.9330  -22.1330   -2.0840 O.3    28  G28        -0.2156
    269  C1'       26.0000  -20.3570   -0.8620 C.3    28  G28         0.2408
    270  N1        22.4750  -17.8780    1.7690 N.ar   28  G28        -0.1709
    271  C2        22.5480  -19.2090    1.4390 C.ar   28  G28         0.2606
    272  N2        21.5430  -19.9820    1.8680 N.pl3  28  G28        -0.0859
    273  N3        23.5360  -19.7400    0.7410 N.ar   28  G28        -0.1918
    274  C4        24.4660  -18.8220    0.4050 C.ar   28  G28         0.1723
    275  C5        24.4900  -17.4720    0.6870 C.ar   28  G28         0.1748
    276  C6        23.4190  -16.9120    1.4250 C.ar   28  G28         0.3023
    277  O6        23.2490  -15.7370    1.7670 O.2    28  G28        -0.2633
    278  N7        25.6310  -16.8790    0.1660 N.ar   28  G28        -0.2173
    279  C8        26.2640  -17.8610   -0.4170 C.ar   28  G28         0.1817
    280  N9        25.6050  -19.0660   -0.3120 N.ar   28  G28        -0.2693
    281  OP1       29.4900  -17.6310   -5.2060 O.2    28  G28        -0.5172
    282  OP2       28.4680  -15.8380   -3.6840 O.co2  28  G28        -0.4373
    283  P         24.1090  -20.1690   -5.1420 P.3    29  U29         0.2141
    284  C5'       22.6830  -22.1750   -4.2450 C.3    29  U29         0.1812
    285  O5'       22.9400  -20.7750   -4.2420 O.3    29  U29        -0.3114
    286  C4'       21.4000  -22.4810   -3.5150 C.3    29  U29         0.1773
    287  O4'       21.5490  -22.1290   -2.1120 O.3    29  U29        -0.3307
    288  C3'       20.1850  -21.6790   -3.9430 C.3    29  U29         0.1860
    289  O3'       19.5810  -22.1160   -5.1510 O.3    29  U29        -0.3112
    290  C2'       19.2810  -21.8060   -2.7250 C.3    29  U29         0.2309
    291  O2'       18.5890  -23.0330   -2.6240 O.3    29  U29        -0.2156
    292  C1'       20.3060  -21.6550   -1.6030 C.3    29  U29         0.2420
    293  N1        20.4410  -20.2280   -1.2800 N.ar   29  U29        -0.2534
    294  C2        19.5040  -19.6820   -0.4230 C.ar   29  U29         0.3546
    295  O2        18.6420  -20.3470    0.1360 O.2    29  U29        -0.2443
    296  N3        19.6130  -18.3280   -0.2410 N.ar   29  U29        -0.1530
    297  C4        20.5480  -17.4870   -0.8020 C.ar   29  U29         0.2846
    298  O4        20.4310  -16.2700   -0.6460 O.2    29  U29        -0.2650
    299  C5        21.5150  -18.1380   -1.6340 C.ar   29  U29         0.0814
    300  C6        21.4330  -19.4510   -1.8370 C.ar   29  U29         0.0870
    301  OP1       24.0240  -20.7970   -6.4870 O.2    29  U29        -0.5172
    302  OP2       24.0660  -18.6900   -5.0270 O.co2  29  U29        -0.4373
    303  P         18.9210  -21.0210   -6.1280 P.3    30  C30         0.2141
    304  C5'       16.7310  -21.3080   -4.7260 C.3    30  C30         0.1812
    305  O5'       17.7150  -20.4330   -5.2650 O.3    30  C30        -0.3114
    306  C4'       15.7280  -20.5470   -3.9000 C.3    30  C30         0.1773
    307  O4'       16.3890  -19.9430   -2.7570 O.3    30  C30        -0.3307
    308  C3'       15.0550  -19.3730   -4.5790 C.3    30  C30         0.1860
    309  O3'       13.9990  -19.7740   -5.4330 O.3    30  C30        -0.3112
    310  C2'       14.5620  -18.5760   -3.3820 C.3    30  C30         0.2309
    311  O2'       13.4060  -19.1270   -2.7850 O.3    30  C30        -0.2156
    312  C1'       15.7620  -18.7030   -2.4420 C.3    30  C30         0.2420
    313  N1        16.7330  -17.6050   -2.6630 N.ar   30  C30        -0.2535
    314  C2        16.4450  -16.3230   -2.1420 C.ar   30  C30         0.3532
    315  O2        15.4080  -16.1640   -1.4700 O.2    30  C30        -0.2443
    316  N3        17.3070  -15.3020   -2.3860 N.ar   30  C30        -0.1739
    317  C4        18.4200  -15.5220   -3.0980 C.ar   30  C30         0.1759
    318  N4        19.2370  -14.4930   -3.3210 N.pl3  30  C30        -0.1070
    319  C5        18.7460  -16.8110   -3.6170 C.ar   30  C30         0.0566
    320  C6        17.8860  -17.8140   -3.3780 C.ar   30  C30         0.0850
    321  OP1       18.3400  -21.7220   -7.2990 O.2    30  C30        -0.5172
    322  OP2       19.9440  -19.9550   -6.3400 O.co2  30  C30        -0.4373
    323  P         13.6310  -18.8660   -6.7100 P.3    31  A31         0.2141
    324  C5'       11.6940  -17.8390   -5.2800 C.3    31  A31         0.1812
    325  O5'       12.8480  -17.6320   -6.0820 O.3    31  A31        -0.3114
    326  C4'       11.2660  -16.5430   -4.6460 C.3    31  A31         0.1773
    327  O4'       12.2970  -16.0950   -3.7240 O.3    31  A31        -0.3307
    328  C3'       11.1020  -15.3800   -5.6080 C.3    31  A31         0.1860
    329  O3'        9.8330  -15.4170   -6.2540 O.3    31  A31        -0.3112
    330  C2'       11.2760  -14.1840   -4.6800 C.3    31  A31         0.2309
    331  O2'       10.1310  -13.9220   -3.9010 O.3    31  A31        -0.2156
    332  C1'       12.4050  -14.6780   -3.7720 C.3    31  A31         0.2408
    333  N1        15.7840  -10.9050   -4.6430 N.ar   31  A31        -0.2040
    334  C2        14.5890  -10.9170   -4.0420 C.ar   31  A31         0.2016
    335  N3        13.7670  -11.9370   -3.8290 N.ar   31  A31        -0.2048
    336  C4        14.2940  -13.0750   -4.3110 C.ar   31  A31         0.1692
    337  C5        15.5180  -13.2200   -4.9450 C.ar   31  A31         0.1518
    338  C6        16.2840  -12.0650   -5.1160 C.ar   31  A31         0.1919
    339  N6        17.4740  -12.0520   -5.7240 N.pl3  31  A31        -0.1054
    340  N7        15.7400  -14.5430   -5.2940 N.ar   31  A31        -0.2193
    341  C8        14.6570  -15.1620   -4.8820 C.ar   31  A31         0.1816
    342  N9        13.7310  -14.3300   -4.2920 N.ar   31  A31        -0.2693
    343  OP1       12.6910  -19.6280   -7.5780 O.2    31  A31        -0.5172
    344  OP2       14.9070  -18.3570   -7.2800 O.co2  31  A31        -0.4373
    345  P          9.7030  -14.9670   -7.8000 P.3    32  C32         0.2141
    346  C5'        8.9730  -12.5840   -6.9600 C.3    32  C32         0.1812
    347  O5'        9.8500  -13.3800   -7.7540 O.3    32  C32        -0.3114
    348  C4'        9.4300  -11.1460   -6.9600 C.3    32  C32         0.1773
    349  O4'       10.7060  -11.0280   -6.2770 O.3    32  C32        -0.3307
    350  C3'        9.7130  -10.5680   -8.3320 C.3    32  C32         0.1860
    351  O3'        8.5170  -10.1520   -8.9590 O.3    32  C32        -0.3112
    352  C2'       10.6350   -9.4020   -8.0120 C.3    32  C32         0.2309
    353  O2'        9.9370   -8.2710   -7.5560 O.3    32  C32        -0.2156
    354  C1'       11.4740   -9.9890   -6.8750 C.3    32  C32         0.2420
    355  N1        12.7460  -10.5520   -7.3670 N.ar   32  C32        -0.2535
    356  C2        13.8500   -9.7000   -7.4960 C.ar   32  C32         0.3532
    357  O2        13.7420   -8.5140   -7.1300 O.2    32  C32        -0.2443
    358  N3        15.0060  -10.1890   -8.0100 N.ar   32  C32        -0.1739
    359  C4        15.0840  -11.4690   -8.3710 C.ar   32  C32         0.1759
    360  N4        16.2280  -11.8990   -8.9010 N.pl3  32  C32        -0.1070
    361  C5        13.9900  -12.3630   -8.2150 C.ar   32  C32         0.0566
    362  C6        12.8510  -11.8700   -7.7150 C.ar   32  C32         0.0850
    363  OP1        8.3260  -15.2830   -8.2560 O.3    32  C32        -0.4373
    364  OP2       10.8720  -15.5080   -8.5560 O.co2  32  C32        -0.5172
    365  P          8.4090  -10.2190  -10.5550 P.3    33  A33         0.2141
    366  C5'        8.9670   -7.6550  -10.6070 C.3    33  A33         0.1812
    367  O5'        9.2870   -8.9750  -11.0320 O.3    33  A33        -0.3114
    368  C4'        9.9920   -6.6750  -11.1140 C.3    33  A33         0.1773
    369  O4'       11.2440   -6.8590  -10.4070 O.3    33  A33        -0.3307
    370  C3'       10.3780   -6.8140  -12.5730 C.3    33  A33         0.1860
    371  O3'        9.4200   -6.2060  -13.4270 O.3    33  A33        -0.3112
    372  C2'       11.7250   -6.1020  -12.6080 C.3    33  A33         0.2309
    373  O2'       11.6190   -4.6920  -12.6900 O.3    33  A33        -0.2156
    374  C1'       12.3250   -6.5300  -11.2650 C.3    33  A33         0.2408
    375  N1        16.9990   -8.2640  -12.5120 N.ar   33  A33        -0.2040
    376  C2        16.4640   -7.0370  -12.5070 C.ar   33  A33         0.2016
    377  N3        15.2320   -6.6530  -12.1710 N.ar   33  A33        -0.2048
    378  C4        14.4930   -7.7120  -11.8010 C.ar   33  A33         0.1692
    379  C5        14.8990   -9.0360  -11.7590 C.ar   33  A33         0.1518
    380  C6        16.2270   -9.3090  -12.1340 C.ar   33  A33         0.1919
    381  N6        16.7640  -10.5340  -12.1340 N.pl3  33  A33        -0.1054
    382  N7        13.8640   -9.8530  -11.3310 N.ar   33  A33        -0.2193
    383  C8        12.8720   -9.0210  -11.1230 C.ar   33  A33         0.1816
    384  N9        13.1840   -7.7070  -11.3870 N.ar   33  A33        -0.2693
    385  OP1        6.9780   -9.9820  -10.8740 O.3    33  A33        -0.4373
    386  OP2        9.0750  -11.4610  -11.0390 O.co2  33  A33        -0.5172
    387  P          9.2120   -6.7680  -14.9200 P.3    34  C34         0.2141
    388  C5'       10.5180   -4.7280  -15.9480 C.3    34  C34         0.1813
    389  O5'       10.4310   -6.1390  -15.7410 O.3    34  C34        -0.3114
    390  C4'       11.8560   -4.3450  -16.5470 C.3    34  C34         0.1801
    391  O4'       12.9090   -4.5970  -15.5790 O.3    34  C34        -0.3306
    392  C3'       12.2960   -5.0910  -17.8010 C.3    34  C34         0.2161
    393  O3'       11.7270   -4.5590  -18.9980 O.3    34  C34        -0.2175
    394  C2'       13.8070   -4.9100  -17.7530 C.3    34  C34         0.2338
    395  O2'       14.2340   -3.6440  -18.2120 O.3    34  C34        -0.2155
    396  C1'       14.0740   -5.0580  -16.2510 C.3    34  C34         0.2421
    397  N1        14.3170   -6.4690  -15.8660 N.ar   34  C34        -0.2535
    398  C2        15.6330   -6.9620  -15.8770 C.ar   34  C34         0.3532
    399  O2        16.5710   -6.1920  -16.1600 O.2    34  C34        -0.2443
    400  N3        15.8480   -8.2650  -15.5740 N.ar   34  C34        -0.1739
    401  C4        14.8210   -9.0590  -15.2560 C.ar   34  C34         0.1759
    402  N4        15.0810  -10.3330  -14.9750 N.pl3  34  C34        -0.1070
    403  C5        13.4840   -8.5810  -15.2150 C.ar   34  C34         0.0566
    404  C6        13.2780   -7.2940  -15.5230 C.ar   34  C34         0.0850
    405  OP1        7.9450   -6.1980  -15.4320 O.2    34  C34        -0.5172
    406  OP2        9.3780   -8.2420  -14.8900 O.co2  34  C34        -0.4373
@<TRIPOS>BOND
     1   393   392    1
     2   395   394    1
     3     5    10    1
     4     5     4    1
     5     9     8    1
     6   392   394    1
     7   392   390    1
     8   394   396    1
     9    10     8    1
    10    10    21    1
    11    13    12    1
    12    14    12   ar
    13    14    15   ar
    14     4     2    1
    15     4     6    1
    16    12    11   ar
    17     8     6    1
    18     2     3    1
    19    21    15   ar
    20    21    20   ar
    21    15    16   ar
    22   390   388    1
    23   390   391    1
    24     6     7    1
    25   396   397    1
    26   396   391    1
    27   399   398    2
    28    11    17   ar
    29    20    19   ar
    30     7    24    1
    31   388   389    1
    32   398   397   ar
    33   398   400   ar
    34   397   404   ar
    35    16    17   ar
    36    16    19   ar
    37     3     1    1
    38   389   387    1
    39   400   401   ar
    40    28    27    1
    41    28    33    1
    42   404   403   ar
    43    17    18    2
    44   405   387    2
    45     1    22    1
    46     1    23    1
    47   401   403   ar
    48   401   402    1
    49    25    27    1
    50    25    26    1
    51    27    29    1
    52   387   406    1
    53   387   371    1
    54    33    34    1
    55    33    31    1
    56    32    31    1
    57    24    42    2
    58    24    26    1
    59    24    43    1
    60    34    41   ar
    61    34    35   ar
    62    31    29    1
    63    36    35    2
    64    41    40   ar
    65    35    37   ar
    66    29    30    1
    67   371   370    1
    68    30    44    1
    69    40    38   ar
    70    37    38   ar
    71    38    39    2
    72   373   372    1
    73   372   370    1
    74   372   374    1
    75   370   368    1
    76   375   376   ar
    77   375   380   ar
    78   376   377   ar
    79   377   378   ar
    80   380   381    1
    81   380   379   ar
    82   378   379   ar
    83   378   384   ar
    84   379   382   ar
    85    44    65    2
    86    44    66    1
    87    44    46    1
    88    45    46    1
    89    45    47    1
    90   384   374    1
    91   384   383   ar
    92   382   383   ar
    93   374   369    1
    94    48    47    1
    95    48    53    1
    96   368   366    1
    97   368   369    1
    98   386   365    2
    99   367   366    1
   100   367   365    1
   101   385   365    1
   102    47    49    1
   103   365   351    1
   104    63    62   ar
   105    63    64   ar
   106    53    64    1
   107    53    51    1
   108    62    59   ar
   109    64    58   ar
   110    59    58   ar
   111    59    60   ar
   112    58    57   ar
   113    57    55   ar
   114    49    50    1
   115    49    51    1
   116    60    61    2
   117    60    54   ar
   118    50    67    1
   119    55    54   ar
   120    55    56    1
   121   351   350    1
   122    51    52    1
   123   360   359    1
   124   364   345    2
   125    88    67    2
   126   359   361   ar
   127   359   358   ar
   128   350   352    1
   129   350   348    1
   130   363   345    1
   131   361   362   ar
   132    67    87    1
   133    67    69    1
   134   352   353    1
   135   352   354    1
   136   358   356   ar
   137   345   347    1
   138   345   329    1
   139   347   346    1
   140   362   355   ar
   141   343   323    2
   142   356   355   ar
   143   356   357    2
   144   355   354    1
   145   321   303    2
   146   344   323    1
   147   348   346    1
   148   348   349    1
   149   354   349    1
   150    69    68    1
   151   323   325    1
   152   323   309    1
   153   301   283    2
   154   322   303    1
   155    68    70    1
   156   329   328    1
   157   303   305    1
   158   303   289    1
   159   325   324    1
   160   339   338    1
   161   328   330    1
   162   328   326    1
   163   309   308    1
   164   340   337   ar
   165   340   341   ar
   166   324   326    1
   167   305   304    1
   168   281   260    2
   169   289   288    1
   170   283   302    1
   171   283   266    1
   172   283   285    1
   173   338   337   ar
   174   338   333   ar
   175   337   336   ar
   176   341   342   ar
   177    70    71    1
   178    70    72    1
   179   304   306    1
   180   330   331    1
   181   330   332    1
   182   326   327    1
   183   333   334   ar
   184   308   306    1
   185   308   310    1
   186    71    76    1
   187   266   265    1
   188   336   342   ar
   189   336   335   ar
   190   342   332    1
   191   284   285    1
   192   284   286    1
   193   334   335   ar
   194   288   286    1
   195   288   290    1
   196   306   307    1
   197   260   282    1
   198   260   262    1
   199   260   246    1
   200    72    73    1
   201    72    74    1
   202   332   327    1
   203   110    89    2
   204    85    84   ar
   205    85    86   ar
   206   319   320   ar
   207   319   317   ar
   208    73    89    1
   209   286   287    1
   210   261   262    1
   211   261   263    1
   212   310   311    1
   213   310   312    1
   214   320   313   ar
   215   318   317    1
   216   258   240    2
   217   265   263    1
   218   265   267    1
   219   317   316   ar
   220    84    81   ar
   221    76    86    1
   222    76    74    1
   223    89   109    1
   224    89    91    1
   225   246   245    1
   226   263   264    1
   227    86    80   ar
   228   307   312    1
   229   290   291    1
   230   290   292    1
   231   313   312    1
   232   313   314   ar
   233    74    75    1
   234   316   314   ar
   235   128   127    2
   236   314   315    2
   237   287   292    1
   238   268   267    1
   239   267   269    1
   240   240   259    1
   241   240   242    1
   242   240   223    1
   243   300   299   ar
   244   300   293   ar
   245    81    80   ar
   246    81    82   ar
   247   127   121   ar
   248   127   126   ar
   249   299   297   ar
   250   245   243    1
   251   245   247    1
   252   292   293    1
   253    80    79   ar
   254   241   242    1
   255   241   243    1
   256    91    90    1
   257   121   122   ar
   258   264   269    1
   259   293   294   ar
   260   126   129   ar
   261   126   125   ar
   262   129   130   ar
   263   243   244    1
   264   106   107   ar
   265   106   103   ar
   266   223   222    1
   267   269   280    1
   268   297   298    2
   269   297   296   ar
   270   248   247    1
   271   122   123    1
   272   122   124   ar
   273   105   104    1
   274    83    82    1
   275    82    77   ar
   276   247   249    1
   277   107   108   ar
   278   125   124   ar
   279   125   131   ar
   280    90    92    1
   281   130   131   ar
   282   294   296   ar
   283   294   295    2
   284   279   280   ar
   285   279   278   ar
   286    79    78   ar
   287   280   274   ar
   288   133   111    2
   289   131   120    1
   290   103   104   ar
   291   103   102   ar
   292   238   217    1
   293   278   275   ar
   294   104    99   ar
   295   218   220    1
   296   218   219    1
   297   222   220    1
   298   222   224    1
   299   244   249    1
   300   274   275   ar
   301   274   273   ar
   302    77    78   ar
   303   149   148    2
   304   275   276   ar
   305   249   250    1
   306   220   221    1
   307   273   271   ar
   308   219   217    1
   309   120   115    1
   310   120   118    1
   311   108   102   ar
   312   108    98    1
   313   132   111    1
   314    93    92    1
   315    93    98    1
   316    92    94    1
   317   111    95    1
   318   111   113    1
   319   225   224    1
   320   115   114    1
   321   147   148   ar
   322   147   145   ar
   323   148   150   ar
   324   257   250   ar
   325   257   256   ar
   326   102   101   ar
   327    94    95    1
   328    94    96    1
   329   217   239    1
   330   250   251   ar
   331   224   226    1
   332   276   277    2
   333   276   270   ar
   334   271   270   ar
   335   271   272    1
   336    99   100   ar
   337   146   145    2
   338    98    96    1
   339   145   144   ar
   340   256   254   ar
   341   113   112    1
   342   150   151   ar
   343   251   252    2
   344   251   253   ar
   345   118   119    1
   346   118   116    1
   347   221   226    1
   348    96    97    1
   349   144   151   ar
   350   144   143    1
   351   114   112    1
   352   114   116    1
   353   254   253   ar
   354   254   255    1
   355   101   100   ar
   356   226   237    1
   357   116   117    1
   358   186   185    1
   359   143   138    1
   360   143   141    1
   361   169   168    1
   362   167   165   ar
   363   167   168   ar
   364   166   165    2
   365   138   137    1
   366   165   164   ar
   367   168   170   ar
   368   237   236   ar
   369   237   231   ar
   370   185   184   ar
   371   185   187   ar
   372   184   190   ar
   373   230   231   ar
   374   230   228   ar
   375   236   235   ar
   376   231   232   ar
   377   229   228    1
   378   187   188   ar
   379   164   163    1
   380   164   171   ar
   381   117   134    1
   382   170   171   ar
   383   141   142    1
   384   141   139    1
   385   228   227   ar
   386   191   190    2
   387   190   189   ar
   388   153   134    2
   389   137   135    1
   390   137   139    1
   391   163   158    1
   392   163   161    1
   393   235   232   ar
   394   232   233   ar
   395   136   135    1
   396   136   134    1
   397   188   189   ar
   398   188   194   ar
   399   189   192   ar
   400   158   157    1
   401   134   152    1
   402   227   233   ar
   403   139   140    1
   404   233   234    2
   405   209   208    2
   406   194   183    1
   407   194   193   ar
   408   162   161    1
   409   192   193   ar
   410   161   159    1
   411   183   178    1
   412   183   181    1
   413   208   210   ar
   414   208   207   ar
   415   210   211   ar
   416   157   159    1
   417   157   155    1
   418   182   181    1
   419   178   177    1
   420   140   154    1
   421   206   201    1
   422   206   207    1
   423   206   204    1
   424   201   200    1
   425   207   214   ar
   426   181   179    1
   427   156   155    1
   428   156   154    1
   429   159   160    1
   430   205   204    1
   431   211   212    1
   432   211   213   ar
   433   173   154    2
   434   154   172    1
   435   214   213   ar
   436   200   198    1
   437   200   202    1
   438   204   202    1
   439   177   179    1
   440   177   175    1
   441   179   180    1
   442   160   174    1
   443   198   199    1
   444   202   203    1
   445   175   176    1
   446   176   174    1
   447   199   197    1
   448   180   197    1
   449   174   196    2
   450   174   195    1
   451   197   216    2
   452   197   215    1
