lig.pdb
 OpenBabel03051820513D

 22 23  0  0  1  0  0  0  0  0999 V2000
   13.8570  -58.8250  -38.7790 O   0  0  0  0  0  0  0  0  0  0  0  0
   14.1150  -59.1100  -37.6200 C   0  0  0  0  0  0  0  0  0  0  0  0
   13.1740  -59.5250  -36.7720 N   0  0  0  0  0  0  0  0  0  0  0  0
   15.5150  -58.9790  -37.1260 C   0  0  0  0  0  0  0  0  0  0  0  0
   16.6090  -58.3640  -37.8940 C   0  0  0  0  0  0  0  0  0  0  0  0
   16.4860  -57.8050  -39.2340 N   0  0  0  0  0  0  0  0  0  0  0  0
   16.1060  -59.3350  -35.9640 N   0  0  0  0  0  0  0  0  0  0  0  0
   17.4250  -58.9730  -36.0250 C   0  0  0  0  0  0  0  0  0  0  0  0
   17.7350  -58.3810  -37.1990 N   0  0  0  0  0  0  0  0  0  0  0  0
   19.0540  -57.8570  -37.6240 C   0  0  1  0  0  0  0  0  0  0  0  0
   19.4800  -56.7010  -36.7340 C   0  0  1  0  0  0  0  0  0  0  0  0
   20.9810  -56.8340  -36.7010 C   0  0  2  0  0  0  0  0  0  0  0  0
   21.5400  -56.1870  -37.8460 O   0  0  0  0  0  0  0  0  0  0  0  0
   19.1090  -55.4460  -37.3060 O   0  0  0  0  0  0  0  0  0  0  0  0
   20.0710  -58.8590  -37.5070 O   0  0  0  0  0  0  0  0  0  0  0  0
   21.2060  -58.3290  -36.8180 C   0  0  2  0  0  0  0  0  0  0  0  0
   21.3210  -58.9490  -35.4340 C   0  0  0  0  0  0  0  0  0  0  0  0
   22.2290  -58.1640  -34.6630 O   0  0  0  0  0  0  0  0  0  0  0  0
   22.8340  -58.7020  -33.2700 P   0  0  0  0  0  0  0  0  0  0  0  0
   21.6740  -58.6720  -32.3020 O   0  0  0  0  0  0  0  0  0  0  0  0
   23.9250  -57.7040  -32.9620 O   0  0  0  0  0  0  0  0  0  0  0  0
   23.3220  -60.0900  -33.6130 O   0  0  0  0  0  0  0  0  0  0  0  0
  1  2  2  0  0  0  0
  2  4  1  0  0  0  0
  2  3  1  0  0  0  0
  4  7  1  0  0  0  0
  5  9  1  0  0  0  0
  5  4  2  0  0  0  0
  6  5  1  0  0  0  0
  8  7  2  0  0  0  0
  9  8  1  0  0  0  0
 10 15  1  0  0  0  0
 10  9  1  1  0  0  0
 10 11  1  0  0  0  0
 11 14  1  6  0  0  0
 11 12  1  0  0  0  0
 12 13  1  6  0  0  0
 15 16  1  0  0  0  0
 16 12  1  0  0  0  0
 16 17  1  1  0  0  0
 17 18  1  0  0  0  0
 18 19  1  0  0  0  0
 19 21  1  0  0  0  0
 19 20  1  0  0  0  0
 22 19  2  0  0  0  0
M  END
$$$$
