lig.pdb
 OpenBabel11021811523D
libRbt.so/2013.1/901 2013/11/27
 22 23  0  0  0  0  0  0  0  0999 V2000
   13.4823  -58.4766  -38.5618 O   0  0  0  0  0  0  0  0  0  0  0  0
   13.8306  -59.0215  -37.5260 C   0  0  0  0  0  0  0  0  0  0  0  0
   12.9575  -59.6324  -36.7252 N   0  0  0  0  0  0  0  0  0  0  0  0
   15.2671  -58.9952  -37.1298 C   0  0  0  0  0  0  0  0  0  0  0  0
   16.3360  -58.3829  -37.9344 C   0  0  0  0  0  0  0  0  0  0  0  0
   16.1493  -57.7258  -39.2215 N   0  0  0  0  0  0  0  0  0  0  0  0
   15.9184  -59.4608  -36.0411 N   0  0  0  0  0  0  0  0  0  0  0  0
   17.2476  -59.1614  -36.1757 C   0  0  0  0  0  0  0  0  0  0  0  0
   17.5057  -58.5046  -37.3276 N   0  0  0  0  0  0  0  0  0  0  0  0
   18.8180  -58.0182  -37.8137 C   0  0  1  0  0  0  0  0  0  0  0  0
   19.3060  -56.8591  -36.9603 C   0  0  1  0  0  0  0  0  0  0  0  0
   20.8037  -57.0268  -36.9855 C   0  0  2  0  0  0  0  0  0  0  0  0
   21.3304  -56.4106  -38.1623 O   0  0  0  0  0  0  0  0  0  0  0  0
   18.9409  -55.6046  -37.5371 O   0  0  0  0  0  0  0  0  0  0  0  0
   19.8157  -59.0419  -37.7215 O   0  0  0  0  0  0  0  0  0  0  0  0
   20.9896  -58.5283  -37.0874 C   0  0  2  0  0  0  0  0  0  0  0  0
   21.1464  -59.1297  -35.6993 C   0  0  0  0  0  0  0  0  0  0  0  0
   22.2803  -58.5306  -35.0745 O   0  0  0  0  0  0  0  0  0  0  0  0
   22.7199  -58.9220  -33.5746 P   0  0  0  0  0  0  0  0  0  0  0  0
   21.5209  -58.5910  -32.7165 O   0  0  0  0  0  0  0  0  0  0  0  0
   23.9213  -58.0404  -33.3285 O   0  0  0  0  0  0  0  0  0  0  0  0
   23.0255  -60.3982  -33.6733 O   0  0  0  0  0  0  0  0  0  0  0  0
  1  2  2  0  0  0  0
  2  4  1  0  0  0  0
  2  3  1  0  0  0  0
  4  7  1  0  0  0  0
  5  9  1  0  0  0  0
  5  4  2  0  0  0  0
  6  5  1  0  0  0  0
  8  7  2  0  0  0  0
  9  8  1  0  0  0  0
 10 15  1  0  0  0  0
 10  9  1  1  0  0  0
 10 11  1  0  0  0  0
 11 14  1  6  0  0  0
 11 12  1  0  0  0  0
 12 13  1  6  0  0  0
 15 16  1  0  0  0  0
 16 12  1  0  0  0  0
 16 17  1  1  0  0  0
 17 18  1  0  0  0  0
 18 19  1  0  0  0  0
 19 21  1  0  0  0  0
 19 20  1  0  0  0  0
 22 19  2  0  0  0  0
M  END
>  <CHROM.1>
-2.09827277,110.35572402,-59.22196101,178.87952479,-58.91177376,19.13025719
-58.39978453,-36.29089439,2.79485179,-0.25695693,-0.95299658

>  <Name>
lig.pdb

>  <RI>
0

>  <Rbt.Current_Directory>
/home/itssahil/PROJECTS/Mol_Feturizer/New_Systems/rnas/5btp

>  <Rbt.Executable>
rbdock ($Id: //depot/dev/client3/rdock/2013.1/src/exe/rbdock.cxx#4 $)

>  <Rbt.Library>
libRbt.so (2013.1, Build901 2013/11/27)

>  <Rbt.Parameter_File>
/export/apps/rDock/src/rDock_2013.1_src/data/scripts/dock_solv.prm

>  <Rbt.Receptor>
prm/pocket_docking_2.prm

>  <SCORE>
-19.0849

>  <SCORE.INTER>
-17.849

>  <SCORE.INTER.CONST>
1

>  <SCORE.INTER.POLAR>
0

>  <SCORE.INTER.ROT>
5

>  <SCORE.INTER.SOLV>
19.5366

>  <SCORE.INTER.VDW>
-25.3449

>  <SCORE.INTER.norm>
-0.811317

>  <SCORE.INTRA>
-1.23591

>  <SCORE.INTRA.DIHEDRAL>
-1.76442

>  <SCORE.INTRA.DIHEDRAL.0>
4.21161

>  <SCORE.INTRA.POLAR>
0

>  <SCORE.INTRA.POLAR.0>
0

>  <SCORE.INTRA.REPUL>
0

>  <SCORE.INTRA.REPUL.0>
0

>  <SCORE.INTRA.SOLV>
-0.0214418

>  <SCORE.INTRA.SOLV.lig_0>
-41.4168

>  <SCORE.INTRA.VDW>
-0.342979

>  <SCORE.INTRA.VDW.0>
-1.62533

>  <SCORE.INTRA.norm>
-0.0561777

>  <SCORE.RESTR>
0

>  <SCORE.RESTR.CAVITY>
0

>  <SCORE.RESTR.norm>
0

>  <SCORE.SYSTEM>
0

>  <SCORE.SYSTEM.CONST>
0

>  <SCORE.SYSTEM.DIHEDRAL>
0

>  <SCORE.SYSTEM.SOLV>
0

>  <SCORE.SYSTEM.norm>
0

>  <SCORE.heavy>
22

>  <SCORE.norm>
-0.867494

>  <RMSD>
0.379

$$$$
lig.pdb
 OpenBabel11021811523D
libRbt.so/2013.1/901 2013/11/27
 22 23  0  0  0  0  0  0  0  0999 V2000
   13.5007  -58.6731  -38.6862 O   0  0  0  0  0  0  0  0  0  0  0  0
   13.8484  -59.1209  -37.6047 C   0  0  0  0  0  0  0  0  0  0  0  0
   12.9799  -59.6846  -36.7652 N   0  0  0  0  0  0  0  0  0  0  0  0
   15.2785  -59.0257  -37.1962 C   0  0  0  0  0  0  0  0  0  0  0  0
   16.3292  -58.3880  -38.0051 C   0  0  0  0  0  0  0  0  0  0  0  0
   16.1282  -57.7688  -39.3088 N   0  0  0  0  0  0  0  0  0  0  0  0
   15.9377  -59.4388  -36.0911 N   0  0  0  0  0  0  0  0  0  0  0  0
   17.2546  -59.0874  -36.2207 C   0  0  0  0  0  0  0  0  0  0  0  0
   17.4968  -58.4469  -37.3851 N   0  0  0  0  0  0  0  0  0  0  0  0
   18.7926  -57.9175  -37.8705 C   0  0  1  0  0  0  0  0  0  0  0  0
   19.2156  -56.7099  -37.0503 C   0  0  1  0  0  0  0  0  0  0  0  0
   20.7196  -56.8099  -37.0508 C   0  0  2  0  0  0  0  0  0  0  0  0
   21.2347  -56.2095  -38.2409 O   0  0  0  0  0  0  0  0  0  0  0  0
   18.8025  -55.4930  -37.6735 O   0  0  0  0  0  0  0  0  0  0  0  0
   19.8341  -58.8911  -37.7313 O   0  0  0  0  0  0  0  0  0  0  0  0
   20.9744  -58.3039  -37.0999 C   0  0  2  0  0  0  0  0  0  0  0  0
   21.1384  -58.8515  -35.6905 C   0  0  0  0  0  0  0  0  0  0  0  0
   22.2477  -58.1955  -35.0788 O   0  0  0  0  0  0  0  0  0  0  0  0
   22.6806  -58.5130  -33.5597 P   0  0  0  0  0  0  0  0  0  0  0  0
   21.4614  -58.1859  -32.7289 O   0  0  0  0  0  0  0  0  0  0  0  0
   23.8511  -57.5852  -33.3358 O   0  0  0  0  0  0  0  0  0  0  0  0
   23.0328  -59.9817  -33.5957 O   0  0  0  0  0  0  0  0  0  0  0  0
  1  2  2  0  0  0  0
  2  4  1  0  0  0  0
  2  3  1  0  0  0  0
  4  7  1  0  0  0  0
  5  9  1  0  0  0  0
  5  4  2  0  0  0  0
  6  5  1  0  0  0  0
  8  7  2  0  0  0  0
  9  8  1  0  0  0  0
 10 15  1  0  0  0  0
 10  9  1  1  0  0  0
 10 11  1  0  0  0  0
 11 14  1  6  0  0  0
 11 12  1  0  0  0  0
 12 13  1  6  0  0  0
 15 16  1  0  0  0  0
 16 12  1  0  0  0  0
 16 17  1  1  0  0  0
 17 18  1  0  0  0  0
 18 19  1  0  0  0  0
 19 21  1  0  0  0  0
 19 20  1  0  0  0  0
 22 19  2  0  0  0  0
M  END
>  <CHROM.1>
1.50862550,109.68955011,-60.08687640,178.45021589,-58.73858985,19.10226061
-58.23395517,-36.33189177,2.80963306,-0.29864832,-0.98205202

>  <Name>
lig.pdb

>  <RI>
0

>  <Rbt.Current_Directory>
/home/itssahil/PROJECTS/Mol_Feturizer/New_Systems/rnas/5btp

>  <Rbt.Executable>
rbdock ($Id: //depot/dev/client3/rdock/2013.1/src/exe/rbdock.cxx#4 $)

>  <Rbt.Library>
libRbt.so (2013.1, Build901 2013/11/27)

>  <Rbt.Parameter_File>
/export/apps/rDock/src/rDock_2013.1_src/data/scripts/dock_solv.prm

>  <Rbt.Receptor>
prm/pocket_docking_4.prm

>  <SCORE>
-19.104

>  <SCORE.INTER>
-17.8529

>  <SCORE.INTER.CONST>
1

>  <SCORE.INTER.POLAR>
0

>  <SCORE.INTER.ROT>
5

>  <SCORE.INTER.SOLV>
19.7216

>  <SCORE.INTER.VDW>
-25.4092

>  <SCORE.INTER.norm>
-0.811496

>  <SCORE.INTRA>
-1.25108

>  <SCORE.INTRA.DIHEDRAL>
-1.76593

>  <SCORE.INTRA.DIHEDRAL.0>
4.21161

>  <SCORE.INTRA.POLAR>
0

>  <SCORE.INTRA.POLAR.0>
0

>  <SCORE.INTRA.REPUL>
0

>  <SCORE.INTRA.REPUL.0>
0

>  <SCORE.INTRA.SOLV>
-0.0180639

>  <SCORE.INTRA.SOLV.lig_0>
-41.4168

>  <SCORE.INTRA.VDW>
-0.359086

>  <SCORE.INTRA.VDW.0>
-1.62533

>  <SCORE.INTRA.norm>
-0.0568674

>  <SCORE.RESTR>
0

>  <SCORE.RESTR.CAVITY>
0

>  <SCORE.RESTR.norm>
0

>  <SCORE.SYSTEM>
0

>  <SCORE.SYSTEM.CONST>
0

>  <SCORE.SYSTEM.DIHEDRAL>
0

>  <SCORE.SYSTEM.SOLV>
0

>  <SCORE.SYSTEM.norm>
0

>  <SCORE.heavy>
22

>  <SCORE.norm>
-0.868364

>  <RMSD>
0.380

$$$$
lig.pdb
 OpenBabel11021811523D
libRbt.so/2013.1/901 2013/11/27
 22 23  0  0  0  0  0  0  0  0999 V2000
   13.4757  -58.4773  -38.6523 O   0  0  0  0  0  0  0  0  0  0  0  0
   13.8118  -58.9940  -37.5982 C   0  0  0  0  0  0  0  0  0  0  0  0
   12.9291  -59.5810  -36.7901 N   0  0  0  0  0  0  0  0  0  0  0  0
   15.2441  -58.9593  -37.1875 C   0  0  0  0  0  0  0  0  0  0  0  0
   16.3193  -58.3513  -37.9870 C   0  0  0  0  0  0  0  0  0  0  0  0
   16.1438  -57.7073  -39.2822 N   0  0  0  0  0  0  0  0  0  0  0  0
   15.8856  -59.4123  -36.0878 N   0  0  0  0  0  0  0  0  0  0  0  0
   17.2152  -59.1099  -36.2117 C   0  0  0  0  0  0  0  0  0  0  0  0
   17.4831  -58.4634  -37.3671 N   0  0  0  0  0  0  0  0  0  0  0  0
   18.7988  -57.9775  -37.8444 C   0  0  1  0  0  0  0  0  0  0  0  0
   19.2720  -56.8054  -37.0005 C   0  0  1  0  0  0  0  0  0  0  0  0
   20.7706  -56.9668  -37.0064 C   0  0  2  0  0  0  0  0  0  0  0  0
   21.3082  -56.3634  -38.1850 O   0  0  0  0  0  0  0  0  0  0  0  0
   18.9082  -55.5601  -37.5975 O   0  0  0  0  0  0  0  0  0  0  0  0
   19.7998  -58.9955  -37.7276 O   0  0  0  0  0  0  0  0  0  0  0  0
   20.9640  -58.4686  -37.0867 C   0  0  2  0  0  0  0  0  0  0  0  0
   21.1075  -59.0515  -35.6893 C   0  0  0  0  0  0  0  0  0  0  0  0
   22.2659  -58.4830  -35.0811 O   0  0  0  0  0  0  0  0  0  0  0  0
   22.7130  -58.8816  -33.5853 P   0  0  0  0  0  0  0  0  0  0  0  0
   21.5181  -58.5553  -32.7197 O   0  0  0  0  0  0  0  0  0  0  0  0
   23.9153  -58.0008  -33.3408 O   0  0  0  0  0  0  0  0  0  0  0  0
   23.0186  -60.3572  -33.6927 O   0  0  0  0  0  0  0  0  0  0  0  0
  1  2  2  0  0  0  0
  2  4  1  0  0  0  0
  2  3  1  0  0  0  0
  4  7  1  0  0  0  0
  5  9  1  0  0  0  0
  5  4  2  0  0  0  0
  6  5  1  0  0  0  0
  8  7  2  0  0  0  0
  9  8  1  0  0  0  0
 10 15  1  0  0  0  0
 10  9  1  1  0  0  0
 10 11  1  0  0  0  0
 11 14  1  6  0  0  0
 11 12  1  0  0  0  0
 12 13  1  6  0  0  0
 15 16  1  0  0  0  0
 16 12  1  0  0  0  0
 16 17  1  1  0  0  0
 17 18  1  0  0  0  0
 18 19  1  0  0  0  0
 19 21  1  0  0  0  0
 19 20  1  0  0  0  0
 22 19  2  0  0  0  0
M  END
>  <CHROM.1>
-1.02868644,110.14585712,-61.74998359,179.84125039,-57.11435239,19.11113166
-58.35738553,-36.32283663,2.79091258,-0.26252687,-0.95133651

>  <Name>
lig.pdb

>  <RI>
0

>  <Rbt.Current_Directory>
/home/itssahil/PROJECTS/Mol_Feturizer/New_Systems/rnas/5btp

>  <Rbt.Executable>
rbdock ($Id: //depot/dev/client3/rdock/2013.1/src/exe/rbdock.cxx#4 $)

>  <Rbt.Library>
libRbt.so (2013.1, Build901 2013/11/27)

>  <Rbt.Parameter_File>
/export/apps/rDock/src/rDock_2013.1_src/data/scripts/dock_solv.prm

>  <Rbt.Receptor>
prm/pocket_docking_4.prm

>  <SCORE>
-19.0729

>  <SCORE.INTER>
-17.7961

>  <SCORE.INTER.CONST>
1

>  <SCORE.INTER.POLAR>
0

>  <SCORE.INTER.ROT>
5

>  <SCORE.INTER.SOLV>
19.6016

>  <SCORE.INTER.VDW>
-25.3313

>  <SCORE.INTER.norm>
-0.808914

>  <SCORE.INTRA>
-1.27675

>  <SCORE.INTRA.DIHEDRAL>
-1.75866

>  <SCORE.INTRA.DIHEDRAL.0>
4.21161

>  <SCORE.INTRA.POLAR>
0

>  <SCORE.INTRA.POLAR.0>
0

>  <SCORE.INTRA.REPUL>
0

>  <SCORE.INTRA.REPUL.0>
0

>  <SCORE.INTRA.SOLV>
-0.0415823

>  <SCORE.INTRA.SOLV.lig_0>
-41.4168

>  <SCORE.INTRA.VDW>
-0.376626

>  <SCORE.INTRA.VDW.0>
-1.62533

>  <SCORE.INTRA.norm>
-0.0580341

>  <SCORE.RESTR>
0

>  <SCORE.RESTR.CAVITY>
0

>  <SCORE.RESTR.norm>
0

>  <SCORE.SYSTEM>
0

>  <SCORE.SYSTEM.CONST>
0

>  <SCORE.SYSTEM.DIHEDRAL>
0

>  <SCORE.SYSTEM.SOLV>
0

>  <SCORE.SYSTEM.norm>
0

>  <SCORE.heavy>
22

>  <SCORE.norm>
-0.866948

>  <RMSD>
0.382

$$$$
lig.pdb
 OpenBabel11021811523D
libRbt.so/2013.1/901 2013/11/27
 22 23  0  0  0  0  0  0  0  0999 V2000
   13.4622  -58.4829  -38.6137 O   0  0  0  0  0  0  0  0  0  0  0  0
   13.8173  -59.0247  -37.5786 C   0  0  0  0  0  0  0  0  0  0  0  0
   12.9523  -59.6492  -36.7795 N   0  0  0  0  0  0  0  0  0  0  0  0
   15.2529  -58.9788  -37.1811 C   0  0  0  0  0  0  0  0  0  0  0  0
   16.3152  -58.3577  -37.9878 C   0  0  0  0  0  0  0  0  0  0  0  0
   16.1218  -57.7095  -39.2784 N   0  0  0  0  0  0  0  0  0  0  0  0
   15.9088  -59.4309  -36.0894 N   0  0  0  0  0  0  0  0  0  0  0  0
   17.2344  -59.1160  -36.2242 C   0  0  0  0  0  0  0  0  0  0  0  0
   17.4856  -58.4620  -37.3792 N   0  0  0  0  0  0  0  0  0  0  0  0
   18.7924  -57.9621  -37.8665 C   0  0  1  0  0  0  0  0  0  0  0  0
   19.2625  -56.7889  -37.0224 C   0  0  1  0  0  0  0  0  0  0  0  0
   20.7623  -56.9364  -37.0425 C   0  0  2  0  0  0  0  0  0  0  0  0
   21.2836  -56.3236  -38.2236 O   0  0  0  0  0  0  0  0  0  0  0  0
   18.8818  -55.5447  -37.6114 O   0  0  0  0  0  0  0  0  0  0  0  0
   19.8038  -58.9713  -37.7627 O   0  0  0  0  0  0  0  0  0  0  0  0
   20.9689  -58.4360  -37.1304 C   0  0  2  0  0  0  0  0  0  0  0  0
   21.1304  -59.0228  -35.7366 C   0  0  0  0  0  0  0  0  0  0  0  0
   22.2760  -58.4291  -35.1281 O   0  0  0  0  0  0  0  0  0  0  0  0
   22.7224  -58.8063  -33.6266 P   0  0  0  0  0  0  0  0  0  0  0  0
   21.5124  -58.5078  -32.7720 O   0  0  0  0  0  0  0  0  0  0  0  0
   23.8981  -57.8913  -33.3785 O   0  0  0  0  0  0  0  0  0  0  0  0
   23.0693  -60.2736  -33.7226 O   0  0  0  0  0  0  0  0  0  0  0  0
  1  2  2  0  0  0  0
  2  4  1  0  0  0  0
  2  3  1  0  0  0  0
  4  7  1  0  0  0  0
  5  9  1  0  0  0  0
  5  4  2  0  0  0  0
  6  5  1  0  0  0  0
  8  7  2  0  0  0  0
  9  8  1  0  0  0  0
 10 15  1  0  0  0  0
 10  9  1  1  0  0  0
 10 11  1  0  0  0  0
 11 14  1  6  0  0  0
 11 12  1  0  0  0  0
 12 13  1  6  0  0  0
 15 16  1  0  0  0  0
 16 12  1  0  0  0  0
 16 17  1  1  0  0  0
 17 18  1  0  0  0  0
 18 19  1  0  0  0  0
 19 21  1  0  0  0  0
 19 20  1  0  0  0  0
 22 19  2  0  0  0  0
M  END
>  <CHROM.1>
-2.50871431,110.10380409,-60.78073622,178.79956760,-56.46885145,19.11340261
-58.33352420,-36.34360933,2.80268423,-0.26724760,-0.95181551

>  <Name>
lig.pdb

>  <RI>
0

>  <Rbt.Current_Directory>
/home/itssahil/PROJECTS/Mol_Feturizer/New_Systems/rnas/5btp

>  <Rbt.Executable>
rbdock ($Id: //depot/dev/client3/rdock/2013.1/src/exe/rbdock.cxx#4 $)

>  <Rbt.Library>
libRbt.so (2013.1, Build901 2013/11/27)

>  <Rbt.Parameter_File>
/export/apps/rDock/src/rDock_2013.1_src/data/scripts/dock_solv.prm

>  <Rbt.Receptor>
prm/pocket_docking_3.prm

>  <SCORE>
-19.1329

>  <SCORE.INTER>
-17.8806

>  <SCORE.INTER.CONST>
1

>  <SCORE.INTER.POLAR>
0

>  <SCORE.INTER.ROT>
5

>  <SCORE.INTER.SOLV>
19.6743

>  <SCORE.INTER.VDW>
-25.4118

>  <SCORE.INTER.norm>
-0.812753

>  <SCORE.INTRA>
-1.2523

>  <SCORE.INTRA.DIHEDRAL>
-1.73653

>  <SCORE.INTRA.DIHEDRAL.0>
4.21161

>  <SCORE.INTRA.POLAR>
0

>  <SCORE.INTRA.POLAR.0>
0

>  <SCORE.INTRA.REPUL>
0

>  <SCORE.INTRA.REPUL.0>
0

>  <SCORE.INTRA.SOLV>
-0.0349481

>  <SCORE.INTRA.SOLV.lig_0>
-41.4168

>  <SCORE.INTRA.VDW>
-0.366566

>  <SCORE.INTRA.VDW.0>
-1.62533

>  <SCORE.INTRA.norm>
-0.056923

>  <SCORE.RESTR>
0

>  <SCORE.RESTR.CAVITY>
0

>  <SCORE.RESTR.norm>
0

>  <SCORE.SYSTEM>
0

>  <SCORE.SYSTEM.CONST>
0

>  <SCORE.SYSTEM.DIHEDRAL>
0

>  <SCORE.SYSTEM.SOLV>
0

>  <SCORE.SYSTEM.norm>
0

>  <SCORE.heavy>
22

>  <SCORE.norm>
-0.869676

>  <RMSD>
0.390

$$$$
lig.pdb
 OpenBabel11021811523D
libRbt.so/2013.1/901 2013/11/27
 22 23  0  0  0  0  0  0  0  0999 V2000
   13.4505  -58.4935  -38.6041 O   0  0  0  0  0  0  0  0  0  0  0  0
   13.8089  -59.0330  -37.5689 C   0  0  0  0  0  0  0  0  0  0  0  0
   12.9465  -59.6565  -36.7662 N   0  0  0  0  0  0  0  0  0  0  0  0
   15.2456  -58.9854  -37.1756 C   0  0  0  0  0  0  0  0  0  0  0  0
   16.3045  -58.3616  -37.9847 C   0  0  0  0  0  0  0  0  0  0  0  0
   16.1063  -57.7123  -39.2740 N   0  0  0  0  0  0  0  0  0  0  0  0
   15.9053  -59.4377  -36.0863 N   0  0  0  0  0  0  0  0  0  0  0  0
   17.2300  -59.1205  -36.2247 C   0  0  0  0  0  0  0  0  0  0  0  0
   17.4769  -58.4648  -37.3797 N   0  0  0  0  0  0  0  0  0  0  0  0
   18.7815  -57.9624  -37.8702 C   0  0  1  0  0  0  0  0  0  0  0  0
   19.2366  -56.7688  -37.0467 C   0  0  1  0  0  0  0  0  0  0  0  0
   20.7378  -56.9028  -37.0567 C   0  0  2  0  0  0  0  0  0  0  0  0
   21.2593  -56.3080  -38.2468 O   0  0  0  0  0  0  0  0  0  0  0  0
   18.8474  -55.5397  -37.6613 O   0  0  0  0  0  0  0  0  0  0  0  0
   19.8015  -58.9599  -37.7421 O   0  0  0  0  0  0  0  0  0  0  0  0
   20.9585  -58.4019  -37.1146 C   0  0  2  0  0  0  0  0  0  0  0  0
   21.1184  -58.9602  -35.7090 C   0  0  0  0  0  0  0  0  0  0  0  0
   22.2504  -58.3380  -35.1035 O   0  0  0  0  0  0  0  0  0  0  0  0
   22.6923  -58.6820  -33.5928 P   0  0  0  0  0  0  0  0  0  0  0  0
   21.4758  -58.3765  -32.7500 O   0  0  0  0  0  0  0  0  0  0  0  0
   23.8595  -57.7529  -33.3572 O   0  0  0  0  0  0  0  0  0  0  0  0
   23.0513  -60.1480  -33.6581 O   0  0  0  0  0  0  0  0  0  0  0  0
  1  2  2  0  0  0  0
  2  4  1  0  0  0  0
  2  3  1  0  0  0  0
  4  7  1  0  0  0  0
  5  9  1  0  0  0  0
  5  4  2  0  0  0  0
  6  5  1  0  0  0  0
  8  7  2  0  0  0  0
  9  8  1  0  0  0  0
 10 15  1  0  0  0  0
 10  9  1  1  0  0  0
 10 11  1  0  0  0  0
 11 14  1  6  0  0  0
 11 12  1  0  0  0  0
 12 13  1  6  0  0  0
 15 16  1  0  0  0  0
 16 12  1  0  0  0  0
 16 17  1  1  0  0  0
 17 18  1  0  0  0  0
 18 19  1  0  0  0  0
 19 21  1  0  0  0  0
 19 20  1  0  0  0  0
 22 19  2  0  0  0  0
M  END
>  <CHROM.1>
-2.32020696,108.77668570,-60.41084173,178.88297103,-56.94565972,19.09541834
-58.29282763,-36.33445709,2.80338758,-0.27466146,-0.97096564

>  <Name>
lig.pdb

>  <RI>
0

>  <Rbt.Current_Directory>
/home/itssahil/PROJECTS/Mol_Feturizer/New_Systems/rnas/5btp

>  <Rbt.Executable>
rbdock ($Id: //depot/dev/client3/rdock/2013.1/src/exe/rbdock.cxx#4 $)

>  <Rbt.Library>
libRbt.so (2013.1, Build901 2013/11/27)

>  <Rbt.Parameter_File>
/export/apps/rDock/src/rDock_2013.1_src/data/scripts/dock_solv.prm

>  <Rbt.Receptor>
prm/pocket_docking_3.prm

>  <SCORE>
-19.1925

>  <SCORE.INTER>
-17.9426

>  <SCORE.INTER.CONST>
1

>  <SCORE.INTER.POLAR>
0

>  <SCORE.INTER.ROT>
5

>  <SCORE.INTER.SOLV>
19.7172

>  <SCORE.INTER.VDW>
-25.4674

>  <SCORE.INTER.norm>
-0.815573

>  <SCORE.INTRA>
-1.24991

>  <SCORE.INTRA.DIHEDRAL>
-1.74729

>  <SCORE.INTRA.DIHEDRAL.0>
4.21161

>  <SCORE.INTRA.POLAR>
0

>  <SCORE.INTRA.POLAR.0>
0

>  <SCORE.INTRA.REPUL>
0

>  <SCORE.INTRA.REPUL.0>
0

>  <SCORE.INTRA.SOLV>
-0.0182701

>  <SCORE.INTRA.SOLV.lig_0>
-41.4168

>  <SCORE.INTRA.VDW>
-0.367134

>  <SCORE.INTRA.VDW.0>
-1.62533

>  <SCORE.INTRA.norm>
-0.0568142

>  <SCORE.RESTR>
0

>  <SCORE.RESTR.CAVITY>
0

>  <SCORE.RESTR.norm>
0

>  <SCORE.SYSTEM>
0

>  <SCORE.SYSTEM.CONST>
0

>  <SCORE.SYSTEM.DIHEDRAL>
0

>  <SCORE.SYSTEM.SOLV>
0

>  <SCORE.SYSTEM.norm>
0

>  <SCORE.heavy>
22

>  <SCORE.norm>
-0.872387

>  <RMSD>
0.391

$$$$
lig.pdb
 OpenBabel11021811523D
libRbt.so/2013.1/901 2013/11/27
 22 23  0  0  0  0  0  0  0  0999 V2000
   13.4657  -58.5417  -38.6338 O   0  0  0  0  0  0  0  0  0  0  0  0
   13.8155  -59.0511  -37.5807 C   0  0  0  0  0  0  0  0  0  0  0  0
   12.9463  -59.6504  -36.7669 N   0  0  0  0  0  0  0  0  0  0  0  0
   15.2491  -58.9933  -37.1777 C   0  0  0  0  0  0  0  0  0  0  0  0
   16.3102  -58.3689  -37.9833 C   0  0  0  0  0  0  0  0  0  0  0  0
   16.1175  -57.7286  -39.2780 N   0  0  0  0  0  0  0  0  0  0  0  0
   15.9037  -59.4353  -36.0811 N   0  0  0  0  0  0  0  0  0  0  0  0
   17.2276  -59.1118  -36.2123 C   0  0  0  0  0  0  0  0  0  0  0  0
   17.4790  -58.4619  -37.3696 N   0  0  0  0  0  0  0  0  0  0  0  0
   18.7842  -57.9554  -37.8542 C   0  0  1  0  0  0  0  0  0  0  0  0
   19.2612  -56.7995  -36.9904 C   0  0  1  0  0  0  0  0  0  0  0  0
   20.7606  -56.9495  -37.0214 C   0  0  2  0  0  0  0  0  0  0  0  0
   21.2769  -56.3153  -38.1933 O   0  0  0  0  0  0  0  0  0  0  0  0
   18.8799  -55.5435  -37.5534 O   0  0  0  0  0  0  0  0  0  0  0  0
   19.7940  -58.9684  -37.7752 O   0  0  0  0  0  0  0  0  0  0  0  0
   20.9635  -58.4476  -37.1389 C   0  0  2  0  0  0  0  0  0  0  0  0
   21.1312  -59.0613  -35.7575 C   0  0  0  0  0  0  0  0  0  0  0  0
   22.2709  -58.4687  -35.1369 O   0  0  0  0  0  0  0  0  0  0  0  0
   22.7346  -58.8886  -33.6521 P   0  0  0  0  0  0  0  0  0  0  0  0
   21.5420  -58.5946  -32.7719 O   0  0  0  0  0  0  0  0  0  0  0  0
   23.9267  -57.9962  -33.4001 O   0  0  0  0  0  0  0  0  0  0  0  0
   23.0593  -60.3577  -33.7890 O   0  0  0  0  0  0  0  0  0  0  0  0
  1  2  2  0  0  0  0
  2  4  1  0  0  0  0
  2  3  1  0  0  0  0
  4  7  1  0  0  0  0
  5  9  1  0  0  0  0
  5  4  2  0  0  0  0
  6  5  1  0  0  0  0
  8  7  2  0  0  0  0
  9  8  1  0  0  0  0
 10 15  1  0  0  0  0
 10  9  1  1  0  0  0
 10 11  1  0  0  0  0
 11 14  1  6  0  0  0
 11 12  1  0  0  0  0
 12 13  1  6  0  0  0
 15 16  1  0  0  0  0
 16 12  1  0  0  0  0
 16 17  1  1  0  0  0
 17 18  1  0  0  0  0
 18 19  1  0  0  0  0
 19 21  1  0  0  0  0
 19 20  1  0  0  0  0
 22 19  2  0  0  0  0
M  END
>  <CHROM.1>
-0.96044458,111.67500537,-60.02016172,179.74952253,-58.39221445,19.11372039
-58.36430674,-36.34464338,2.80573693,-0.26590270,-0.93541144

>  <Name>
lig.pdb

>  <RI>
0

>  <Rbt.Current_Directory>
/home/itssahil/PROJECTS/Mol_Feturizer/New_Systems/rnas/5btp

>  <Rbt.Executable>
rbdock ($Id: //depot/dev/client3/rdock/2013.1/src/exe/rbdock.cxx#4 $)

>  <Rbt.Library>
libRbt.so (2013.1, Build901 2013/11/27)

>  <Rbt.Parameter_File>
/export/apps/rDock/src/rDock_2013.1_src/data/scripts/dock_solv.prm

>  <Rbt.Receptor>
prm/pocket_docking_2.prm

>  <SCORE>
-19.101

>  <SCORE.INTER>
-17.8421

>  <SCORE.INTER.CONST>
1

>  <SCORE.INTER.POLAR>
0

>  <SCORE.INTER.ROT>
5

>  <SCORE.INTER.SOLV>
19.6824

>  <SCORE.INTER.VDW>
-25.3889

>  <SCORE.INTER.norm>
-0.811005

>  <SCORE.INTRA>
-1.25889

>  <SCORE.INTRA.DIHEDRAL>
-1.78171

>  <SCORE.INTRA.DIHEDRAL.0>
4.21161

>  <SCORE.INTRA.POLAR>
0

>  <SCORE.INTRA.POLAR.0>
0

>  <SCORE.INTRA.REPUL>
0

>  <SCORE.INTRA.REPUL.0>
0

>  <SCORE.INTRA.SOLV>
-0.0430757

>  <SCORE.INTRA.SOLV.lig_0>
-41.4168

>  <SCORE.INTRA.VDW>
-0.346495

>  <SCORE.INTRA.VDW.0>
-1.62533

>  <SCORE.INTRA.norm>
-0.0572222

>  <SCORE.RESTR>
0

>  <SCORE.RESTR.CAVITY>
0

>  <SCORE.RESTR.norm>
0

>  <SCORE.SYSTEM>
0

>  <SCORE.SYSTEM.CONST>
0

>  <SCORE.SYSTEM.DIHEDRAL>
0

>  <SCORE.SYSTEM.SOLV>
0

>  <SCORE.SYSTEM.norm>
0

>  <SCORE.heavy>
22

>  <SCORE.norm>
-0.868227

>  <RMSD>
0.395

$$$$
lig.pdb
 OpenBabel11021811523D
libRbt.so/2013.1/901 2013/11/27
 22 23  0  0  0  0  0  0  0  0999 V2000
   13.4403  -58.6388  -38.6185 O   0  0  0  0  0  0  0  0  0  0  0  0
   13.7960  -59.1107  -37.5499 C   0  0  0  0  0  0  0  0  0  0  0  0
   12.9306  -59.6753  -36.7079 N   0  0  0  0  0  0  0  0  0  0  0  0
   15.2331  -59.0450  -37.1603 C   0  0  0  0  0  0  0  0  0  0  0  0
   16.2815  -58.4061  -37.9712 C   0  0  0  0  0  0  0  0  0  0  0  0
   16.0714  -57.7573  -39.2589 N   0  0  0  0  0  0  0  0  0  0  0  0
   15.9016  -59.4903  -36.0736 N   0  0  0  0  0  0  0  0  0  0  0  0
   17.2217  -59.1557  -36.2151 C   0  0  0  0  0  0  0  0  0  0  0  0
   17.4568  -58.4949  -37.3696 N   0  0  0  0  0  0  0  0  0  0  0  0
   18.7534  -57.9747  -37.8628 C   0  0  1  0  0  0  0  0  0  0  0  0
   19.1729  -56.7492  -37.0678 C   0  0  1  0  0  0  0  0  0  0  0  0
   20.6770  -56.8475  -37.0621 C   0  0  2  0  0  0  0  0  0  0  0  0
   21.1946  -56.2723  -38.2634 O   0  0  0  0  0  0  0  0  0  0  0  0
   18.7602  -55.5465  -37.7181 O   0  0  0  0  0  0  0  0  0  0  0  0
   19.7955  -58.9439  -37.6999 O   0  0  0  0  0  0  0  0  0  0  0  0
   20.9335  -58.3419  -37.0782 C   0  0  2  0  0  0  0  0  0  0  0  0
   21.0943  -58.8588  -35.6569 C   0  0  0  0  0  0  0  0  0  0  0  0
   22.2029  -58.1903  -35.0574 O   0  0  0  0  0  0  0  0  0  0  0  0
   22.6662  -58.5150  -33.5488 P   0  0  0  0  0  0  0  0  0  0  0  0
   21.4511  -58.2309  -32.6966 O   0  0  0  0  0  0  0  0  0  0  0  0
   23.8148  -57.5589  -33.3298 O   0  0  0  0  0  0  0  0  0  0  0  0
   23.0568  -59.9731  -33.6086 O   0  0  0  0  0  0  0  0  0  0  0  0
  1  2  2  0  0  0  0
  2  4  1  0  0  0  0
  2  3  1  0  0  0  0
  4  7  1  0  0  0  0
  5  9  1  0  0  0  0
  5  4  2  0  0  0  0
  6  5  1  0  0  0  0
  8  7  2  0  0  0  0
  9  8  1  0  0  0  0
 10 15  1  0  0  0  0
 10  9  1  1  0  0  0
 10 11  1  0  0  0  0
 11 14  1  6  0  0  0
 11 12  1  0  0  0  0
 12 13  1  6  0  0  0
 15 16  1  0  0  0  0
 16 12  1  0  0  0  0
 16 17  1  1  0  0  0
 17 18  1  0  0  0  0
 18 19  1  0  0  0  0
 19 21  1  0  0  0  0
 19 20  1  0  0  0  0
 22 19  2  0  0  0  0
M  END
>  <CHROM.1>
1.69995852,106.93421575,-60.19508254,-179.24309570,-58.11056378,19.06614458
-58.25502841,-36.31490040,2.80995482,-0.29187561,-0.99128188

>  <Name>
lig.pdb

>  <RI>
0

>  <Rbt.Current_Directory>
/home/itssahil/PROJECTS/Mol_Feturizer/New_Systems/rnas/5btp

>  <Rbt.Executable>
rbdock ($Id: //depot/dev/client3/rdock/2013.1/src/exe/rbdock.cxx#4 $)

>  <Rbt.Library>
libRbt.so (2013.1, Build901 2013/11/27)

>  <Rbt.Parameter_File>
/export/apps/rDock/src/rDock_2013.1_src/data/scripts/dock_solv.prm

>  <Rbt.Receptor>
prm/pocket_docking_2.prm

>  <SCORE>
-19.0577

>  <SCORE.INTER>
-17.8065

>  <SCORE.INTER.CONST>
1

>  <SCORE.INTER.POLAR>
0

>  <SCORE.INTER.ROT>
5

>  <SCORE.INTER.SOLV>
19.9104

>  <SCORE.INTER.VDW>
-25.4412

>  <SCORE.INTER.norm>
-0.809388

>  <SCORE.INTRA>
-1.25121

>  <SCORE.INTRA.DIHEDRAL>
-1.76827

>  <SCORE.INTRA.DIHEDRAL.0>
4.21161

>  <SCORE.INTRA.POLAR>
0

>  <SCORE.INTRA.POLAR.0>
0

>  <SCORE.INTRA.REPUL>
0

>  <SCORE.INTRA.REPUL.0>
0

>  <SCORE.INTRA.SOLV>
-0.000225682

>  <SCORE.INTRA.SOLV.lig_0>
-41.4168

>  <SCORE.INTRA.VDW>
-0.366963

>  <SCORE.INTRA.VDW.0>
-1.62533

>  <SCORE.INTRA.norm>
-0.0568732

>  <SCORE.RESTR>
0

>  <SCORE.RESTR.CAVITY>
0

>  <SCORE.RESTR.norm>
0

>  <SCORE.SYSTEM>
0

>  <SCORE.SYSTEM.CONST>
0

>  <SCORE.SYSTEM.DIHEDRAL>
0

>  <SCORE.SYSTEM.SOLV>
0

>  <SCORE.SYSTEM.norm>
0

>  <SCORE.heavy>
22

>  <SCORE.norm>
-0.866261

>  <RMSD>
0.406

$$$$
lig.pdb
 OpenBabel11021811523D
libRbt.so/2013.1/901 2013/11/27
 22 23  0  0  0  0  0  0  0  0999 V2000
   13.4230  -58.5309  -38.6076 O   0  0  0  0  0  0  0  0  0  0  0  0
   13.7870  -59.0622  -37.5701 C   0  0  0  0  0  0  0  0  0  0  0  0
   12.9283  -59.6744  -36.7550 N   0  0  0  0  0  0  0  0  0  0  0  0
   15.2269  -59.0170  -37.1882 C   0  0  0  0  0  0  0  0  0  0  0  0
   16.2749  -58.3641  -37.9884 C   0  0  0  0  0  0  0  0  0  0  0  0
   16.0614  -57.6795  -39.2568 N   0  0  0  0  0  0  0  0  0  0  0  0
   15.8990  -59.4961  -36.1181 N   0  0  0  0  0  0  0  0  0  0  0  0
   17.2205  -59.1671  -36.2590 C   0  0  0  0  0  0  0  0  0  0  0  0
   17.4532  -58.4773  -37.3969 N   0  0  0  0  0  0  0  0  0  0  0  0
   18.7504  -57.9531  -37.8843 C   0  0  1  0  0  0  0  0  0  0  0  0
   19.1751  -56.7416  -37.0707 C   0  0  1  0  0  0  0  0  0  0  0  0
   20.6789  -56.8445  -37.0695 C   0  0  2  0  0  0  0  0  0  0  0  0
   21.1960  -56.2518  -38.2626 O   0  0  0  0  0  0  0  0  0  0  0  0
   18.7648  -55.5276  -37.7012 O   0  0  0  0  0  0  0  0  0  0  0  0
   19.7900  -58.9279  -37.7387 O   0  0  0  0  0  0  0  0  0  0  0  0
   20.9309  -58.3392  -37.1097 C   0  0  2  0  0  0  0  0  0  0  0  0
   21.0928  -58.8790  -35.6971 C   0  0  0  0  0  0  0  0  0  0  0  0
   22.2158  -58.2369  -35.0956 O   0  0  0  0  0  0  0  0  0  0  0  0
   22.6740  -58.5787  -33.5893 P   0  0  0  0  0  0  0  0  0  0  0  0
   21.4557  -58.3055  -32.7381 O   0  0  0  0  0  0  0  0  0  0  0  0
   23.8211  -57.6245  -33.3551 O   0  0  0  0  0  0  0  0  0  0  0  0
   23.0660  -60.0358  -33.6647 O   0  0  0  0  0  0  0  0  0  0  0  0
  1  2  2  0  0  0  0
  2  4  1  0  0  0  0
  2  3  1  0  0  0  0
  4  7  1  0  0  0  0
  5  9  1  0  0  0  0
  5  4  2  0  0  0  0
  6  5  1  0  0  0  0
  8  7  2  0  0  0  0
  9  8  1  0  0  0  0
 10 15  1  0  0  0  0
 10  9  1  1  0  0  0
 10 11  1  0  0  0  0
 11 14  1  6  0  0  0
 11 12  1  0  0  0  0
 12 13  1  6  0  0  0
 15 16  1  0  0  0  0
 16 12  1  0  0  0  0
 16 17  1  1  0  0  0
 17 18  1  0  0  0  0
 18 19  1  0  0  0  0
 19 21  1  0  0  0  0
 19 20  1  0  0  0  0
 22 19  2  0  0  0  0
M  END
>  <CHROM.1>
-0.06900128,106.21334326,-60.99119616,-179.92486848,-56.78387566,19.06591365
-58.25694508,-36.34025688,2.81069142,-0.28676561,-0.97137873

>  <Name>
lig.pdb

>  <RI>
0

>  <Rbt.Current_Directory>
/home/itssahil/PROJECTS/Mol_Feturizer/New_Systems/rnas/5btp

>  <Rbt.Executable>
rbdock ($Id: //depot/dev/client3/rdock/2013.1/src/exe/rbdock.cxx#4 $)

>  <Rbt.Library>
libRbt.so (2013.1, Build901 2013/11/27)

>  <Rbt.Parameter_File>
/export/apps/rDock/src/rDock_2013.1_src/data/scripts/dock_solv.prm

>  <Rbt.Receptor>
prm/pocket_docking_3.prm

>  <SCORE>
-19.0848

>  <SCORE.INTER>
-17.8215

>  <SCORE.INTER.CONST>
1

>  <SCORE.INTER.POLAR>
0

>  <SCORE.INTER.ROT>
5

>  <SCORE.INTER.SOLV>
19.823

>  <SCORE.INTER.VDW>
-25.422

>  <SCORE.INTER.norm>
-0.810069

>  <SCORE.INTRA>
-1.26324

>  <SCORE.INTRA.DIHEDRAL>
-1.76569

>  <SCORE.INTRA.DIHEDRAL.0>
4.21161

>  <SCORE.INTRA.POLAR>
0

>  <SCORE.INTRA.POLAR.0>
0

>  <SCORE.INTRA.REPUL>
0

>  <SCORE.INTRA.REPUL.0>
0

>  <SCORE.INTRA.SOLV>
0.000852101

>  <SCORE.INTRA.SOLV.lig_0>
-41.4168

>  <SCORE.INTRA.VDW>
-0.380824

>  <SCORE.INTRA.VDW.0>
-1.62533

>  <SCORE.INTRA.norm>
-0.0574201

>  <SCORE.RESTR>
0

>  <SCORE.RESTR.CAVITY>
0

>  <SCORE.RESTR.norm>
0

>  <SCORE.SYSTEM>
0

>  <SCORE.SYSTEM.CONST>
0

>  <SCORE.SYSTEM.DIHEDRAL>
0

>  <SCORE.SYSTEM.SOLV>
0

>  <SCORE.SYSTEM.norm>
0

>  <SCORE.heavy>
22

>  <SCORE.norm>
-0.867489

>  <RMSD>
0.416

$$$$
lig.pdb
 OpenBabel11021811523D
libRbt.so/2013.1/901 2013/11/27
 22 23  0  0  0  0  0  0  0  0999 V2000
   13.4364  -58.5991  -38.5991 O   0  0  0  0  0  0  0  0  0  0  0  0
   13.7953  -59.1115  -37.5505 C   0  0  0  0  0  0  0  0  0  0  0  0
   12.9344  -59.7198  -36.7346 N   0  0  0  0  0  0  0  0  0  0  0  0
   15.2309  -59.0471  -37.1555 C   0  0  0  0  0  0  0  0  0  0  0  0
   16.2848  -58.4187  -37.9675 C   0  0  0  0  0  0  0  0  0  0  0  0
   16.0822  -57.7804  -39.2616 N   0  0  0  0  0  0  0  0  0  0  0  0
   15.8935  -59.4852  -36.0622 N   0  0  0  0  0  0  0  0  0  0  0  0
   17.2152  -59.1561  -36.2010 C   0  0  0  0  0  0  0  0  0  0  0  0
   17.4573  -58.5061  -37.3602 N   0  0  0  0  0  0  0  0  0  0  0  0
   18.7576  -57.9944  -37.8524 C   0  0  1  0  0  0  0  0  0  0  0  0
   19.2402  -56.8436  -36.9849 C   0  0  1  0  0  0  0  0  0  0  0  0
   20.7396  -56.9911  -37.0296 C   0  0  2  0  0  0  0  0  0  0  0  0
   21.2449  -56.3482  -38.2015 O   0  0  0  0  0  0  0  0  0  0  0  0
   18.8524  -55.5844  -37.5361 O   0  0  0  0  0  0  0  0  0  0  0  0
   19.7695  -59.0063  -37.7888 O   0  0  0  0  0  0  0  0  0  0  0  0
   20.9437  -58.4881  -37.1590 C   0  0  2  0  0  0  0  0  0  0  0  0
   21.1240  -59.1108  -35.7832 C   0  0  0  0  0  0  0  0  0  0  0  0
   22.2438  -58.4919  -35.1522 O   0  0  0  0  0  0  0  0  0  0  0  0
   22.7090  -58.9077  -33.6667 P   0  0  0  0  0  0  0  0  0  0  0  0
   21.5008  -58.6583  -32.7941 O   0  0  0  0  0  0  0  0  0  0  0  0
   23.8700  -57.9796  -33.3988 O   0  0  0  0  0  0  0  0  0  0  0  0
   23.0815  -60.3647  -33.8114 O   0  0  0  0  0  0  0  0  0  0  0  0
  1  2  2  0  0  0  0
  2  4  1  0  0  0  0
  2  3  1  0  0  0  0
  4  7  1  0  0  0  0
  5  9  1  0  0  0  0
  5  4  2  0  0  0  0
  6  5  1  0  0  0  0
  8  7  2  0  0  0  0
  9  8  1  0  0  0  0
 10 15  1  0  0  0  0
 10  9  1  1  0  0  0
 10 11  1  0  0  0  0
 11 14  1  6  0  0  0
 11 12  1  0  0  0  0
 12 13  1  6  0  0  0
 15 16  1  0  0  0  0
 16 12  1  0  0  0  0
 16 17  1  1  0  0  0
 17 18  1  0  0  0  0
 18 19  1  0  0  0  0
 19 21  1  0  0  0  0
 19 20  1  0  0  0  0
 22 19  2  0  0  0  0
M  END
>  <CHROM.1>
-1.29905693,112.17156756,-58.28429254,179.40481383,-58.04537020,19.09087817
-58.40351251,-36.34310034,2.81168195,-0.26583798,-0.93728907

>  <Name>
lig.pdb

>  <RI>
0

>  <Rbt.Current_Directory>
/home/itssahil/PROJECTS/Mol_Feturizer/New_Systems/rnas/5btp

>  <Rbt.Executable>
rbdock ($Id: //depot/dev/client3/rdock/2013.1/src/exe/rbdock.cxx#4 $)

>  <Rbt.Library>
libRbt.so (2013.1, Build901 2013/11/27)

>  <Rbt.Parameter_File>
/export/apps/rDock/src/rDock_2013.1_src/data/scripts/dock_solv.prm

>  <Rbt.Receptor>
prm/pocket_docking_3.prm

>  <SCORE>
-19.0924

>  <SCORE.INTER>
-17.8704

>  <SCORE.INTER.CONST>
1

>  <SCORE.INTER.POLAR>
0

>  <SCORE.INTER.ROT>
5

>  <SCORE.INTER.SOLV>
19.8541

>  <SCORE.INTER.VDW>
-25.465

>  <SCORE.INTER.norm>
-0.812292

>  <SCORE.INTRA>
-1.22196

>  <SCORE.INTRA.DIHEDRAL>
-1.76673

>  <SCORE.INTRA.DIHEDRAL.0>
4.21161

>  <SCORE.INTRA.POLAR>
0

>  <SCORE.INTRA.POLAR.0>
0

>  <SCORE.INTRA.REPUL>
0

>  <SCORE.INTRA.REPUL.0>
0

>  <SCORE.INTRA.SOLV>
-0.0389712

>  <SCORE.INTRA.SOLV.lig_0>
-41.4168

>  <SCORE.INTRA.VDW>
-0.319117

>  <SCORE.INTRA.VDW.0>
-1.62533

>  <SCORE.INTRA.norm>
-0.0555439

>  <SCORE.RESTR>
0

>  <SCORE.RESTR.CAVITY>
0

>  <SCORE.RESTR.norm>
0

>  <SCORE.SYSTEM>
0

>  <SCORE.SYSTEM.CONST>
0

>  <SCORE.SYSTEM.DIHEDRAL>
0

>  <SCORE.SYSTEM.SOLV>
0

>  <SCORE.SYSTEM.norm>
0

>  <SCORE.heavy>
22

>  <SCORE.norm>
-0.867836

>  <RMSD>
0.419

$$$$
lig.pdb
 OpenBabel11021811523D
libRbt.so/2013.1/901 2013/11/27
 22 23  0  0  0  0  0  0  0  0999 V2000
   13.4444  -58.6351  -38.6188 O   0  0  0  0  0  0  0  0  0  0  0  0
   13.7967  -59.1153  -37.5528 C   0  0  0  0  0  0  0  0  0  0  0  0
   12.9312  -59.7007  -36.7252 N   0  0  0  0  0  0  0  0  0  0  0  0
   15.2294  -59.0361  -37.1498 C   0  0  0  0  0  0  0  0  0  0  0  0
   16.2854  -58.4176  -37.9665 C   0  0  0  0  0  0  0  0  0  0  0  0
   16.0881  -57.8044  -39.2736 N   0  0  0  0  0  0  0  0  0  0  0  0
   15.8870  -59.4505  -36.0443 N   0  0  0  0  0  0  0  0  0  0  0  0
   17.2079  -59.1173  -36.1807 C   0  0  0  0  0  0  0  0  0  0  0  0
   17.4543  -58.4877  -37.3502 N   0  0  0  0  0  0  0  0  0  0  0  0
   18.7553  -57.9785  -37.8435 C   0  0  1  0  0  0  0  0  0  0  0  0
   19.2408  -56.8286  -36.9764 C   0  0  1  0  0  0  0  0  0  0  0  0
   20.7398  -56.9791  -37.0222 C   0  0  2  0  0  0  0  0  0  0  0  0
   21.2455  -56.3372  -38.1946 O   0  0  0  0  0  0  0  0  0  0  0  0
   18.8549  -55.5687  -37.5274 O   0  0  0  0  0  0  0  0  0  0  0  0
   19.7653  -58.9924  -37.7805 O   0  0  0  0  0  0  0  0  0  0  0  0
   20.9409  -58.4764  -37.1517 C   0  0  2  0  0  0  0  0  0  0  0  0
   21.1211  -59.0994  -35.7760 C   0  0  0  0  0  0  0  0  0  0  0  0
   22.2749  -58.5215  -35.1677 O   0  0  0  0  0  0  0  0  0  0  0  0
   22.7426  -58.9393  -33.6836 P   0  0  0  0  0  0  0  0  0  0  0  0
   21.5572  -58.6312  -32.7985 O   0  0  0  0  0  0  0  0  0  0  0  0
   23.9437  -58.0562  -33.4415 O   0  0  0  0  0  0  0  0  0  0  0  0
   23.0538  -60.4117  -33.8159 O   0  0  0  0  0  0  0  0  0  0  0  0
  1  2  2  0  0  0  0
  2  4  1  0  0  0  0
  2  3  1  0  0  0  0
  4  7  1  0  0  0  0
  5  9  1  0  0  0  0
  5  4  2  0  0  0  0
  6  5  1  0  0  0  0
  8  7  2  0  0  0  0
  9  8  1  0  0  0  0
 10 15  1  0  0  0  0
 10  9  1  1  0  0  0
 10 11  1  0  0  0  0
 11 14  1  6  0  0  0
 11 12  1  0  0  0  0
 12 13  1  6  0  0  0
 15 16  1  0  0  0  0
 16 12  1  0  0  0  0
 16 17  1  1  0  0  0
 17 18  1  0  0  0  0
 18 19  1  0  0  0  0
 19 21  1  0  0  0  0
 19 20  1  0  0  0  0
 22 19  2  0  0  0  0
M  END
>  <CHROM.1>
-0.62649219,113.37987435,-60.61643310,178.88763473,-57.91726530,19.09997162
-58.40584663,-36.34412933,2.81355849,-0.26423719,-0.92918404

>  <Name>
lig.pdb

>  <RI>
0

>  <Rbt.Current_Directory>
/home/itssahil/PROJECTS/Mol_Feturizer/New_Systems/rnas/5btp

>  <Rbt.Executable>
rbdock ($Id: //depot/dev/client3/rdock/2013.1/src/exe/rbdock.cxx#4 $)

>  <Rbt.Library>
libRbt.so (2013.1, Build901 2013/11/27)

>  <Rbt.Parameter_File>
/export/apps/rDock/src/rDock_2013.1_src/data/scripts/dock_solv.prm

>  <Rbt.Receptor>
prm/pocket_docking_4.prm

>  <SCORE>
-19.058

>  <SCORE.INTER>
-17.7931

>  <SCORE.INTER.CONST>
1

>  <SCORE.INTER.POLAR>
0

>  <SCORE.INTER.ROT>
5

>  <SCORE.INTER.SOLV>
19.84

>  <SCORE.INTER.VDW>
-25.4088

>  <SCORE.INTER.norm>
-0.808779

>  <SCORE.INTRA>
-1.26481

>  <SCORE.INTRA.DIHEDRAL>
-1.77348

>  <SCORE.INTRA.DIHEDRAL.0>
4.21161

>  <SCORE.INTRA.POLAR>
0

>  <SCORE.INTRA.POLAR.0>
0

>  <SCORE.INTRA.REPUL>
0

>  <SCORE.INTRA.REPUL.0>
0

>  <SCORE.INTRA.SOLV>
-0.061181

>  <SCORE.INTRA.SOLV.lig_0>
-41.4168

>  <SCORE.INTRA.VDW>
-0.347479

>  <SCORE.INTRA.VDW.0>
-1.62533

>  <SCORE.INTRA.norm>
-0.0574912

>  <SCORE.RESTR>
0

>  <SCORE.RESTR.CAVITY>
0

>  <SCORE.RESTR.norm>
0

>  <SCORE.SYSTEM>
0

>  <SCORE.SYSTEM.CONST>
0

>  <SCORE.SYSTEM.DIHEDRAL>
0

>  <SCORE.SYSTEM.SOLV>
0

>  <SCORE.SYSTEM.norm>
0

>  <SCORE.heavy>
22

>  <SCORE.norm>
-0.866271

>  <RMSD>
0.422

$$$$
lig.pdb
 OpenBabel11021811523D
libRbt.so/2013.1/901 2013/11/27
 22 23  0  0  0  0  0  0  0  0999 V2000
   13.4007  -58.5534  -38.6052 O   0  0  0  0  0  0  0  0  0  0  0  0
   13.7590  -59.0512  -37.5493 C   0  0  0  0  0  0  0  0  0  0  0  0
   12.8944  -59.6295  -36.7157 N   0  0  0  0  0  0  0  0  0  0  0  0
   15.1984  -59.0026  -37.1658 C   0  0  0  0  0  0  0  0  0  0  0  0
   16.2482  -58.3612  -37.9729 C   0  0  0  0  0  0  0  0  0  0  0  0
   16.0374  -57.6928  -39.2504 N   0  0  0  0  0  0  0  0  0  0  0  0
   15.8683  -59.4686  -36.0887 N   0  0  0  0  0  0  0  0  0  0  0  0
   17.1904  -59.1428  -36.2318 C   0  0  0  0  0  0  0  0  0  0  0  0
   17.4256  -58.4679  -37.3782 N   0  0  0  0  0  0  0  0  0  0  0  0
   18.7240  -57.9515  -37.8704 C   0  0  1  0  0  0  0  0  0  0  0  0
   19.1755  -56.7635  -37.0367 C   0  0  1  0  0  0  0  0  0  0  0  0
   20.6775  -56.8871  -37.0562 C   0  0  2  0  0  0  0  0  0  0  0  0
   21.1885  -56.2764  -38.2428 O   0  0  0  0  0  0  0  0  0  0  0  0
   18.7747  -55.5308  -37.6363 O   0  0  0  0  0  0  0  0  0  0  0  0
   19.7514  -58.9433  -37.7582 O   0  0  0  0  0  0  0  0  0  0  0  0
   20.9080  -58.3840  -37.1311 C   0  0  2  0  0  0  0  0  0  0  0  0
   21.0793  -58.9559  -35.7323 C   0  0  0  0  0  0  0  0  0  0  0  0
   22.2335  -58.3614  -35.1410 O   0  0  0  0  0  0  0  0  0  0  0  0
   22.7069  -58.7439  -33.6492 P   0  0  0  0  0  0  0  0  0  0  0  0
   21.5084  -58.4600  -32.7735 O   0  0  0  0  0  0  0  0  0  0  0  0
   23.8792  -57.8210  -33.4144 O   0  0  0  0  0  0  0  0  0  0  0  0
   23.0637  -60.2077  -33.7595 O   0  0  0  0  0  0  0  0  0  0  0  0
  1  2  2  0  0  0  0
  2  4  1  0  0  0  0
  2  3  1  0  0  0  0
  4  7  1  0  0  0  0
  5  9  1  0  0  0  0
  5  4  2  0  0  0  0
  6  5  1  0  0  0  0
  8  7  2  0  0  0  0
  9  8  1  0  0  0  0
 10 15  1  0  0  0  0
 10  9  1  1  0  0  0
 10 11  1  0  0  0  0
 11 14  1  6  0  0  0
 11 12  1  0  0  0  0
 12 13  1  6  0  0  0
 15 16  1  0  0  0  0
 16 12  1  0  0  0  0
 16 17  1  1  0  0  0
 17 18  1  0  0  0  0
 18 19  1  0  0  0  0
 19 21  1  0  0  0  0
 19 20  1  0  0  0  0
 22 19  2  0  0  0  0
M  END
>  <CHROM.1>
1.19296023,108.44484821,-62.10156260,179.91486451,-56.16952346,19.06057548
-58.30962824,-36.34673848,2.81368617,-0.27221365,-0.94825834

>  <Name>
lig.pdb

>  <RI>
0

>  <Rbt.Current_Directory>
/home/itssahil/PROJECTS/Mol_Feturizer/New_Systems/rnas/5btp

>  <Rbt.Executable>
rbdock ($Id: //depot/dev/client3/rdock/2013.1/src/exe/rbdock.cxx#4 $)

>  <Rbt.Library>
libRbt.so (2013.1, Build901 2013/11/27)

>  <Rbt.Parameter_File>
/export/apps/rDock/src/rDock_2013.1_src/data/scripts/dock_solv.prm

>  <Rbt.Receptor>
prm/pocket_docking_3.prm

>  <SCORE>
-19.0699

>  <SCORE.INTER>
-17.7976

>  <SCORE.INTER.CONST>
1

>  <SCORE.INTER.POLAR>
0

>  <SCORE.INTER.ROT>
5

>  <SCORE.INTER.SOLV>
19.8662

>  <SCORE.INTER.VDW>
-25.4204

>  <SCORE.INTER.norm>
-0.80898

>  <SCORE.INTRA>
-1.27238

>  <SCORE.INTRA.DIHEDRAL>
-1.74075

>  <SCORE.INTRA.DIHEDRAL.0>
4.21161

>  <SCORE.INTRA.POLAR>
0

>  <SCORE.INTRA.POLAR.0>
0

>  <SCORE.INTRA.REPUL>
0

>  <SCORE.INTRA.REPUL.0>
0

>  <SCORE.INTRA.SOLV>
-0.0296

>  <SCORE.INTRA.SOLV.lig_0>
-41.4168

>  <SCORE.INTRA.VDW>
-0.387207

>  <SCORE.INTRA.VDW.0>
-1.62533

>  <SCORE.INTRA.norm>
-0.0578355

>  <SCORE.RESTR>
0

>  <SCORE.RESTR.CAVITY>
0

>  <SCORE.RESTR.norm>
0

>  <SCORE.SYSTEM>
0

>  <SCORE.SYSTEM.CONST>
0

>  <SCORE.SYSTEM.DIHEDRAL>
0

>  <SCORE.SYSTEM.SOLV>
0

>  <SCORE.SYSTEM.norm>
0

>  <SCORE.heavy>
22

>  <SCORE.norm>
-0.866815

>  <RMSD>
0.427

$$$$
lig.pdb
 OpenBabel11021811523D
libRbt.so/2013.1/901 2013/11/27
 22 23  0  0  0  0  0  0  0  0999 V2000
   13.4296  -58.6602  -38.6229 O   0  0  0  0  0  0  0  0  0  0  0  0
   13.7850  -59.1296  -37.5531 C   0  0  0  0  0  0  0  0  0  0  0  0
   12.9211  -59.7025  -36.7151 N   0  0  0  0  0  0  0  0  0  0  0  0
   15.2197  -59.0513  -37.1575 C   0  0  0  0  0  0  0  0  0  0  0  0
   16.2685  -58.4160  -37.9707 C   0  0  0  0  0  0  0  0  0  0  0  0
   16.0610  -57.7833  -39.2668 N   0  0  0  0  0  0  0  0  0  0  0  0
   15.8855  -59.4803  -36.0625 N   0  0  0  0  0  0  0  0  0  0  0  0
   17.2043  -59.1399  -36.2015 C   0  0  0  0  0  0  0  0  0  0  0  0
   17.4414  -58.4912  -37.3625 N   0  0  0  0  0  0  0  0  0  0  0  0
   18.7374  -57.9694  -37.8555 C   0  0  1  0  0  0  0  0  0  0  0  0
   19.2153  -56.8199  -36.9835 C   0  0  1  0  0  0  0  0  0  0  0  0
   20.7154  -56.9583  -37.0327 C   0  0  2  0  0  0  0  0  0  0  0  0
   21.2140  -56.3068  -38.2027 O   0  0  0  0  0  0  0  0  0  0  0  0
   18.8186  -55.5604  -37.5277 O   0  0  0  0  0  0  0  0  0  0  0  0
   19.7554  -58.9756  -37.7992 O   0  0  0  0  0  0  0  0  0  0  0  0
   20.9281  -58.4534  -37.1699 C   0  0  2  0  0  0  0  0  0  0  0  0
   21.1156  -59.0816  -35.7975 C   0  0  0  0  0  0  0  0  0  0  0  0
   22.2647  -58.4963  -35.1876 O   0  0  0  0  0  0  0  0  0  0  0  0
   22.7356  -58.9145  -33.7046 P   0  0  0  0  0  0  0  0  0  0  0  0
   21.5550  -58.5993  -32.8156 O   0  0  0  0  0  0  0  0  0  0  0  0
   23.9421  -58.0372  -33.4680 O   0  0  0  0  0  0  0  0  0  0  0  0
   23.0390  -60.3886  -33.8362 O   0  0  0  0  0  0  0  0  0  0  0  0
  1  2  2  0  0  0  0
  2  4  1  0  0  0  0
  2  3  1  0  0  0  0
  4  7  1  0  0  0  0
  5  9  1  0  0  0  0
  5  4  2  0  0  0  0
  6  5  1  0  0  0  0
  8  7  2  0  0  0  0
  9  8  1  0  0  0  0
 10 15  1  0  0  0  0
 10  9  1  1  0  0  0
 10 11  1  0  0  0  0
 11 14  1  6  0  0  0
 11 12  1  0  0  0  0
 12 13  1  6  0  0  0
 15 16  1  0  0  0  0
 16 12  1  0  0  0  0
 16 17  1  1  0  0  0
 17 18  1  0  0  0  0
 18 19  1  0  0  0  0
 19 21  1  0  0  0  0
 19 20  1  0  0  0  0
 22 19  2  0  0  0  0
M  END
>  <CHROM.1>
0.97356729,112.67972916,-60.53109325,178.72763308,-58.72981977,19.08631527
-58.39654542,-36.35631564,2.81902985,-0.26759051,-0.92453489

>  <Name>
lig.pdb

>  <RI>
0

>  <Rbt.Current_Directory>
/home/itssahil/PROJECTS/Mol_Feturizer/New_Systems/rnas/5btp

>  <Rbt.Executable>
rbdock ($Id: //depot/dev/client3/rdock/2013.1/src/exe/rbdock.cxx#4 $)

>  <Rbt.Library>
libRbt.so (2013.1, Build901 2013/11/27)

>  <Rbt.Parameter_File>
/export/apps/rDock/src/rDock_2013.1_src/data/scripts/dock_solv.prm

>  <Rbt.Receptor>
prm/pocket_docking_4.prm

>  <SCORE>
-19.0907

>  <SCORE.INTER>
-17.8281

>  <SCORE.INTER.CONST>
1

>  <SCORE.INTER.POLAR>
0

>  <SCORE.INTER.ROT>
5

>  <SCORE.INTER.SOLV>
19.9058

>  <SCORE.INTER.VDW>
-25.454

>  <SCORE.INTER.norm>
-0.810369

>  <SCORE.INTRA>
-1.26263

>  <SCORE.INTRA.DIHEDRAL>
-1.77418

>  <SCORE.INTRA.DIHEDRAL.0>
4.21161

>  <SCORE.INTRA.POLAR>
0

>  <SCORE.INTRA.POLAR.0>
0

>  <SCORE.INTRA.REPUL>
0

>  <SCORE.INTRA.REPUL.0>
0

>  <SCORE.INTRA.SOLV>
-0.0508587

>  <SCORE.INTRA.SOLV.lig_0>
-41.4168

>  <SCORE.INTRA.VDW>
-0.350113

>  <SCORE.INTRA.VDW.0>
-1.62533

>  <SCORE.INTRA.norm>
-0.0573924

>  <SCORE.RESTR>
0

>  <SCORE.RESTR.CAVITY>
0

>  <SCORE.RESTR.norm>
0

>  <SCORE.SYSTEM>
0

>  <SCORE.SYSTEM.CONST>
0

>  <SCORE.SYSTEM.DIHEDRAL>
0

>  <SCORE.SYSTEM.SOLV>
0

>  <SCORE.SYSTEM.norm>
0

>  <SCORE.heavy>
22

>  <SCORE.norm>
-0.867761

>  <RMSD>
0.435

$$$$
lig.pdb
 OpenBabel11021811523D
libRbt.so/2013.1/901 2013/11/27
 22 23  0  0  0  0  0  0  0  0999 V2000
   12.9892  -59.6245  -36.8193 O   0  0  0  0  0  0  0  0  0  0  0  0
   13.7884  -59.0531  -37.5445 C   0  0  0  0  0  0  0  0  0  0  0  0
   13.4116  -58.4652  -38.6800 N   0  0  0  0  0  0  0  0  0  0  0  0
   15.2295  -59.0196  -37.1662 C   0  0  0  0  0  0  0  0  0  0  0  0
   16.2816  -58.3802  -37.9718 C   0  0  0  0  0  0  0  0  0  0  0  0
   16.0715  -57.6994  -39.2429 N   0  0  0  0  0  0  0  0  0  0  0  0
   15.8997  -59.5001  -36.0955 N   0  0  0  0  0  0  0  0  0  0  0  0
   17.2239  -59.1840  -36.2410 C   0  0  0  0  0  0  0  0  0  0  0  0
   17.4602  -58.5016  -37.3826 N   0  0  0  0  0  0  0  0  0  0  0  0
   18.7611  -57.9918  -37.8754 C   0  0  1  0  0  0  0  0  0  0  0  0
   19.1979  -56.7793  -37.0700 C   0  0  1  0  0  0  0  0  0  0  0  0
   20.7007  -56.8953  -37.0708 C   0  0  2  0  0  0  0  0  0  0  0  0
   21.2208  -56.3144  -38.2683 O   0  0  0  0  0  0  0  0  0  0  0  0
   18.7971  -55.5654  -37.7070 O   0  0  0  0  0  0  0  0  0  0  0  0
   19.7923  -58.9748  -37.7259 O   0  0  0  0  0  0  0  0  0  0  0  0
   20.9395  -58.3924  -37.1025 C   0  0  2  0  0  0  0  0  0  0  0  0
   21.0993  -58.9251  -35.6869 C   0  0  0  0  0  0  0  0  0  0  0  0
   22.2229  -58.2818  -35.0879 O   0  0  0  0  0  0  0  0  0  0  0  0
   22.6669  -58.6015  -33.5724 P   0  0  0  0  0  0  0  0  0  0  0  0
   21.4387  -58.3221  -32.7376 O   0  0  0  0  0  0  0  0  0  0  0  0
   23.8075  -57.6394  -33.3393 O   0  0  0  0  0  0  0  0  0  0  0  0
   23.0655  -60.0578  -33.6242 O   0  0  0  0  0  0  0  0  0  0  0  0
  1  2  2  0  0  0  0
  2  4  1  0  0  0  0
  2  3  1  0  0  0  0
  4  7  1  0  0  0  0
  5  9  1  0  0  0  0
  5  4  2  0  0  0  0
  6  5  1  0  0  0  0
  8  7  2  0  0  0  0
  9  8  1  0  0  0  0
 10 15  1  0  0  0  0
 10  9  1  1  0  0  0
 10 11  1  0  0  0  0
 11 14  1  6  0  0  0
 11 12  1  0  0  0  0
 12 13  1  6  0  0  0
 15 16  1  0  0  0  0
 16 12  1  0  0  0  0
 16 17  1  1  0  0  0
 17 18  1  0  0  0  0
 18 19  1  0  0  0  0
 19 21  1  0  0  0  0
 19 20  1  0  0  0  0
 22 19  2  0  0  0  0
M  END
>  <CHROM.1>
179.01411934,106.12182126,-60.55584195,179.21158343,-56.03637862,19.07050707
-58.28483973,-36.32425363,2.80805624,-0.28042865,-0.98285867

>  <Name>
lig.pdb

>  <RI>
0

>  <Rbt.Current_Directory>
/home/itssahil/PROJECTS/Mol_Feturizer/New_Systems/rnas/5btp

>  <Rbt.Executable>
rbdock ($Id: //depot/dev/client3/rdock/2013.1/src/exe/rbdock.cxx#4 $)

>  <Rbt.Library>
libRbt.so (2013.1, Build901 2013/11/27)

>  <Rbt.Parameter_File>
/export/apps/rDock/src/rDock_2013.1_src/data/scripts/dock_solv.prm

>  <Rbt.Receptor>
prm/pocket_docking_8.prm

>  <SCORE>
-19.0398

>  <SCORE.INTER>
-17.9259

>  <SCORE.INTER.CONST>
1

>  <SCORE.INTER.POLAR>
0

>  <SCORE.INTER.ROT>
5

>  <SCORE.INTER.SOLV>
19.5696

>  <SCORE.INTER.VDW>
-25.4071

>  <SCORE.INTER.norm>
-0.814814

>  <SCORE.INTRA>
-1.11389

>  <SCORE.INTRA.DIHEDRAL>
-1.75331

>  <SCORE.INTRA.DIHEDRAL.0>
4.21161

>  <SCORE.INTRA.POLAR>
0

>  <SCORE.INTRA.POLAR.0>
0

>  <SCORE.INTRA.REPUL>
0

>  <SCORE.INTRA.REPUL.0>
0

>  <SCORE.INTRA.SOLV>
0.246046

>  <SCORE.INTRA.SOLV.lig_0>
-41.4168

>  <SCORE.INTRA.VDW>
-0.360262

>  <SCORE.INTRA.VDW.0>
-1.62533

>  <SCORE.INTRA.norm>
-0.0506315

>  <SCORE.RESTR>
0

>  <SCORE.RESTR.CAVITY>
0

>  <SCORE.RESTR.norm>
0

>  <SCORE.SYSTEM>
0

>  <SCORE.SYSTEM.CONST>
0

>  <SCORE.SYSTEM.DIHEDRAL>
0

>  <SCORE.SYSTEM.SOLV>
0

>  <SCORE.SYSTEM.norm>
0

>  <SCORE.heavy>
22

>  <SCORE.norm>
-0.865445

>  <RMSD>
0.780

$$$$
lig.pdb
 OpenBabel11021811523D
libRbt.so/2013.1/901 2013/11/27
 22 23  0  0  0  0  0  0  0  0999 V2000
   12.9488  -59.6170  -36.8194 O   0  0  0  0  0  0  0  0  0  0  0  0
   13.7580  -59.0632  -37.5472 C   0  0  0  0  0  0  0  0  0  0  0  0
   13.3958  -58.4964  -38.6980 N   0  0  0  0  0  0  0  0  0  0  0  0
   15.1951  -59.0280  -37.1542 C   0  0  0  0  0  0  0  0  0  0  0  0
   16.2572  -58.4018  -37.9572 C   0  0  0  0  0  0  0  0  0  0  0  0
   16.0621  -57.7377  -39.2395 N   0  0  0  0  0  0  0  0  0  0  0  0
   15.8528  -59.4955  -36.0701 N   0  0  0  0  0  0  0  0  0  0  0  0
   17.1792  -59.1845  -36.2059 C   0  0  0  0  0  0  0  0  0  0  0  0
   17.4293  -58.5180  -37.3540 N   0  0  0  0  0  0  0  0  0  0  0  0
   18.7365  -58.0179  -37.8399 C   0  0  1  0  0  0  0  0  0  0  0  0
   19.1784  -56.8092  -37.0315 C   0  0  1  0  0  0  0  0  0  0  0  0
   20.6802  -56.9367  -37.0248 C   0  0  2  0  0  0  0  0  0  0  0  0
   21.2109  -56.3591  -38.2193 O   0  0  0  0  0  0  0  0  0  0  0  0
   18.7901  -55.5920  -37.6698 O   0  0  0  0  0  0  0  0  0  0  0  0
   19.7594  -59.0088  -37.6857 O   0  0  0  0  0  0  0  0  0  0  0  0
   20.9078  -58.4356  -37.0562 C   0  0  2  0  0  0  0  0  0  0  0  0
   21.0563  -58.9703  -35.6402 C   0  0  0  0  0  0  0  0  0  0  0  0
   22.2082  -58.3698  -35.0506 O   0  0  0  0  0  0  0  0  0  0  0  0
   22.6548  -58.7093  -33.5402 P   0  0  0  0  0  0  0  0  0  0  0  0
   21.4463  -58.3853  -32.6927 O   0  0  0  0  0  0  0  0  0  0  0  0
   23.8333  -57.7915  -33.3168 O   0  0  0  0  0  0  0  0  0  0  0  0
   22.9974  -60.1795  -33.5984 O   0  0  0  0  0  0  0  0  0  0  0  0
  1  2  2  0  0  0  0
  2  4  1  0  0  0  0
  2  3  1  0  0  0  0
  4  7  1  0  0  0  0
  5  9  1  0  0  0  0
  5  4  2  0  0  0  0
  6  5  1  0  0  0  0
  8  7  2  0  0  0  0
  9  8  1  0  0  0  0
 10 15  1  0  0  0  0
 10  9  1  1  0  0  0
 10 11  1  0  0  0  0
 11 14  1  6  0  0  0
 11 12  1  0  0  0  0
 12 13  1  6  0  0  0
 15 16  1  0  0  0  0
 16 12  1  0  0  0  0
 16 17  1  1  0  0  0
 17 18  1  0  0  0  0
 18 19  1  0  0  0  0
 19 21  1  0  0  0  0
 19 20  1  0  0  0  0
 22 19  2  0  0  0  0
M  END
>  <CHROM.1>
179.38753556,107.03517829,-62.49251785,179.58006583,-56.12606522,19.04760645
-58.33266485,-36.29630576,2.80159868,-0.27625499,-0.97457302

>  <Name>
lig.pdb

>  <RI>
0

>  <Rbt.Current_Directory>
/home/itssahil/PROJECTS/Mol_Feturizer/New_Systems/rnas/5btp

>  <Rbt.Executable>
rbdock ($Id: //depot/dev/client3/rdock/2013.1/src/exe/rbdock.cxx#4 $)

>  <Rbt.Library>
libRbt.so (2013.1, Build901 2013/11/27)

>  <Rbt.Parameter_File>
/export/apps/rDock/src/rDock_2013.1_src/data/scripts/dock_solv.prm

>  <Rbt.Receptor>
prm/pocket_docking_2.prm

>  <SCORE>
-19.0711

>  <SCORE.INTER>
-17.9344

>  <SCORE.INTER.CONST>
1

>  <SCORE.INTER.POLAR>
0

>  <SCORE.INTER.ROT>
5

>  <SCORE.INTER.SOLV>
19.5598

>  <SCORE.INTER.VDW>
-25.4095

>  <SCORE.INTER.norm>
-0.815201

>  <SCORE.INTRA>
-1.13668

>  <SCORE.INTRA.DIHEDRAL>
-1.73607

>  <SCORE.INTRA.DIHEDRAL.0>
4.21161

>  <SCORE.INTRA.POLAR>
0

>  <SCORE.INTRA.POLAR.0>
0

>  <SCORE.INTRA.REPUL>
0

>  <SCORE.INTRA.REPUL.0>
0

>  <SCORE.INTRA.SOLV>
0.225324

>  <SCORE.INTRA.SOLV.lig_0>
-41.4168

>  <SCORE.INTRA.VDW>
-0.38131

>  <SCORE.INTRA.VDW.0>
-1.62533

>  <SCORE.INTRA.norm>
-0.0516674

>  <SCORE.RESTR>
0

>  <SCORE.RESTR.CAVITY>
0

>  <SCORE.RESTR.norm>
0

>  <SCORE.SYSTEM>
0

>  <SCORE.SYSTEM.CONST>
0

>  <SCORE.SYSTEM.DIHEDRAL>
0

>  <SCORE.SYSTEM.SOLV>
0

>  <SCORE.SYSTEM.norm>
0

>  <SCORE.heavy>
22

>  <SCORE.norm>
-0.866868

>  <RMSD>
0.781

$$$$
lig.pdb
 OpenBabel11021811523D
libRbt.so/2013.1/901 2013/11/27
 22 23  0  0  0  0  0  0  0  0999 V2000
   12.9365  -59.6127  -36.8301 O   0  0  0  0  0  0  0  0  0  0  0  0
   13.7510  -59.0653  -37.5568 C   0  0  0  0  0  0  0  0  0  0  0  0
   13.3962  -58.5033  -38.7123 N   0  0  0  0  0  0  0  0  0  0  0  0
   15.1863  -59.0325  -37.1569 C   0  0  0  0  0  0  0  0  0  0  0  0
   16.2549  -58.4177  -37.9601 C   0  0  0  0  0  0  0  0  0  0  0  0
   16.0689  -57.7641  -39.2490 N   0  0  0  0  0  0  0  0  0  0  0  0
   15.8367  -59.4932  -36.0656 N   0  0  0  0  0  0  0  0  0  0  0  0
   17.1650  -59.1889  -36.1974 C   0  0  0  0  0  0  0  0  0  0  0  0
   17.4235  -58.5335  -37.3500 N   0  0  0  0  0  0  0  0  0  0  0  0
   18.7351  -58.0430  -37.8338 C   0  0  1  0  0  0  0  0  0  0  0  0
   19.1971  -56.8540  -37.0074 C   0  0  1  0  0  0  0  0  0  0  0  0
   20.6971  -57.0019  -37.0099 C   0  0  2  0  0  0  0  0  0  0  0  0
   21.2301  -56.4115  -38.1972 O   0  0  0  0  0  0  0  0  0  0  0  0
   18.8225  -55.6211  -37.6235 O   0  0  0  0  0  0  0  0  0  0  0  0
   19.7452  -59.0500  -37.7010 O   0  0  0  0  0  0  0  0  0  0  0  0
   20.9042  -58.5029  -37.0674 C   0  0  2  0  0  0  0  0  0  0  0  0
   21.0518  -59.0632  -35.6612 C   0  0  0  0  0  0  0  0  0  0  0  0
   22.2088  -58.4807  -35.0636 O   0  0  0  0  0  0  0  0  0  0  0  0
   22.6601  -58.8550  -33.5629 P   0  0  0  0  0  0  0  0  0  0  0  0
   21.4774  -58.4900  -32.6960 O   0  0  0  0  0  0  0  0  0  0  0  0
   23.8789  -57.9898  -33.3457 O   0  0  0  0  0  0  0  0  0  0  0  0
   22.9400  -60.3375  -33.6409 O   0  0  0  0  0  0  0  0  0  0  0  0
  1  2  2  0  0  0  0
  2  4  1  0  0  0  0
  2  3  1  0  0  0  0
  4  7  1  0  0  0  0
  5  9  1  0  0  0  0
  5  4  2  0  0  0  0
  6  5  1  0  0  0  0
  8  7  2  0  0  0  0
  9  8  1  0  0  0  0
 10 15  1  0  0  0  0
 10  9  1  1  0  0  0
 10 11  1  0  0  0  0
 11 14  1  6  0  0  0
 11 12  1  0  0  0  0
 12 13  1  6  0  0  0
 15 16  1  0  0  0  0
 16 12  1  0  0  0  0
 16 17  1  1  0  0  0
 17 18  1  0  0  0  0
 18 19  1  0  0  0  0
 19 21  1  0  0  0  0
 19 20  1  0  0  0  0
 22 19  2  0  0  0  0
M  END
>  <CHROM.1>
179.18122007,108.68204970,-62.06598627,179.89485032,-58.43062229,19.04947185
-58.39468032,-36.30105318,2.79763374,-0.26673396,-0.96174278

>  <Name>
lig.pdb

>  <RI>
0

>  <Rbt.Current_Directory>
/home/itssahil/PROJECTS/Mol_Feturizer/New_Systems/rnas/5btp

>  <Rbt.Executable>
rbdock ($Id: //depot/dev/client3/rdock/2013.1/src/exe/rbdock.cxx#4 $)

>  <Rbt.Library>
libRbt.so (2013.1, Build901 2013/11/27)

>  <Rbt.Parameter_File>
/export/apps/rDock/src/rDock_2013.1_src/data/scripts/dock_solv.prm

>  <Rbt.Receptor>
prm/pocket_docking_3.prm

>  <SCORE>
-19.0627

>  <SCORE.INTER>
-17.9188

>  <SCORE.INTER.CONST>
1

>  <SCORE.INTER.POLAR>
0

>  <SCORE.INTER.ROT>
5

>  <SCORE.INTER.SOLV>
19.5611

>  <SCORE.INTER.VDW>
-25.3996

>  <SCORE.INTER.norm>
-0.814492

>  <SCORE.INTRA>
-1.14388

>  <SCORE.INTRA.DIHEDRAL>
-1.76482

>  <SCORE.INTRA.DIHEDRAL.0>
4.21161

>  <SCORE.INTRA.POLAR>
0

>  <SCORE.INTRA.POLAR.0>
0

>  <SCORE.INTRA.REPUL>
0

>  <SCORE.INTRA.REPUL.0>
0

>  <SCORE.INTRA.SOLV>
0.217349

>  <SCORE.INTRA.SOLV.lig_0>
-41.4168

>  <SCORE.INTRA.VDW>
-0.370148

>  <SCORE.INTRA.VDW.0>
-1.62533

>  <SCORE.INTRA.norm>
-0.0519946

>  <SCORE.RESTR>
0

>  <SCORE.RESTR.CAVITY>
0

>  <SCORE.RESTR.norm>
0

>  <SCORE.SYSTEM>
0

>  <SCORE.SYSTEM.CONST>
0

>  <SCORE.SYSTEM.DIHEDRAL>
0

>  <SCORE.SYSTEM.SOLV>
0

>  <SCORE.SYSTEM.norm>
0

>  <SCORE.heavy>
22

>  <SCORE.norm>
-0.866486

>  <RMSD>
0.789

$$$$
lig.pdb
 OpenBabel11021811523D
libRbt.so/2013.1/901 2013/11/27
 22 23  0  0  0  0  0  0  0  0999 V2000
   13.6025  -58.5469  -38.6086 O   0  0  0  0  0  0  0  0  0  0  0  0
   13.9457  -59.0988  -37.5748 C   0  0  0  0  0  0  0  0  0  0  0  0
   13.0733  -59.7399  -36.7972 N   0  0  0  0  0  0  0  0  0  0  0  0
   15.3746  -59.0468  -37.1543 C   0  0  0  0  0  0  0  0  0  0  0  0
   16.4432  -58.4021  -37.9335 C   0  0  0  0  0  0  0  0  0  0  0  0
   16.2637  -57.7334  -39.2156 N   0  0  0  0  0  0  0  0  0  0  0  0
   16.0178  -59.5118  -36.0605 N   0  0  0  0  0  0  0  0  0  0  0  0
   17.3422  -59.1825  -36.1693 C   0  0  0  0  0  0  0  0  0  0  0  0
   17.6051  -58.5063  -37.3087 N   0  0  0  0  0  0  0  0  0  0  0  0
   18.9145  -57.9862  -37.7670 C   0  0  1  0  0  0  0  0  0  0  0  0
   19.1210  -56.5608  -37.2817 C   0  0  1  0  0  0  0  0  0  0  0  0
   20.6120  -56.4861  -37.0742 C   0  0  2  0  0  0  0  0  0  0  0  0
   21.2491  -56.1788  -38.3159 O   0  0  0  0  0  0  0  0  0  0  0  0
   18.7133  -55.6151  -38.2713 O   0  0  0  0  0  0  0  0  0  0  0  0
   19.9947  -58.7604  -37.2322 O   0  0  0  0  0  0  0  0  0  0  0  0
   20.9829  -57.8979  -36.6635 C   0  0  2  0  0  0  0  0  0  0  0  0
   20.9796  -58.0178  -35.1473 C   0  0  0  0  0  0  0  0  0  0  0  0
   21.5220  -59.2894  -34.7951 O   0  0  0  0  0  0  0  0  0  0  0  0
   21.8642  -59.6643  -33.2660 P   0  0  0  0  0  0  0  0  0  0  0  0
   20.5443  -59.5731  -32.5359 O   0  0  0  0  0  0  0  0  0  0  0  0
   22.8667  -58.6064  -32.8698 O   0  0  0  0  0  0  0  0  0  0  0  0
   22.4244  -61.0638  -33.3655 O   0  0  0  0  0  0  0  0  0  0  0  0
  1  2  2  0  0  0  0
  2  4  1  0  0  0  0
  2  3  1  0  0  0  0
  4  7  1  0  0  0  0
  5  9  1  0  0  0  0
  5  4  2  0  0  0  0
  6  5  1  0  0  0  0
  8  7  2  0  0  0  0
  9  8  1  0  0  0  0
 10 15  1  0  0  0  0
 10  9  1  1  0  0  0
 10 11  1  0  0  0  0
 11 14  1  6  0  0  0
 11 12  1  0  0  0  0
 12 13  1  6  0  0  0
 15 16  1  0  0  0  0
 16 12  1  0  0  0  0
 16 17  1  1  0  0  0
 17 18  1  0  0  0  0
 18 19  1  0  0  0  0
 19 21  1  0  0  0  0
 19 20  1  0  0  0  0
 22 19  2  0  0  0  0
M  END
>  <CHROM.1>
-2.21525410,88.85165987,-171.47133575,170.99970629,60.78900595,18.90073048
-58.49942188,-36.20345082,2.68101077,-0.28781814,-0.88534934

>  <Name>
lig.pdb

>  <RI>
0

>  <Rbt.Current_Directory>
/home/itssahil/PROJECTS/Mol_Feturizer/New_Systems/rnas/5btp

>  <Rbt.Executable>
rbdock ($Id: //depot/dev/client3/rdock/2013.1/src/exe/rbdock.cxx#4 $)

>  <Rbt.Library>
libRbt.so (2013.1, Build901 2013/11/27)

>  <Rbt.Parameter_File>
/export/apps/rDock/src/rDock_2013.1_src/data/scripts/dock_solv.prm

>  <Rbt.Receptor>
prm/pocket_docking_2.prm

>  <SCORE>
-18.8955

>  <SCORE.INTER>
-17.6162

>  <SCORE.INTER.CONST>
1

>  <SCORE.INTER.POLAR>
0

>  <SCORE.INTER.ROT>
5

>  <SCORE.INTER.SOLV>
20.0125

>  <SCORE.INTER.VDW>
-25.3483

>  <SCORE.INTER.norm>
-0.800735

>  <SCORE.INTRA>
-1.2793

>  <SCORE.INTRA.DIHEDRAL>
-1.12505

>  <SCORE.INTRA.DIHEDRAL.0>
4.21161

>  <SCORE.INTRA.POLAR>
0

>  <SCORE.INTRA.POLAR.0>
0

>  <SCORE.INTRA.REPUL>
0

>  <SCORE.INTRA.REPUL.0>
0

>  <SCORE.INTRA.SOLV>
-0.253102

>  <SCORE.INTRA.SOLV.lig_0>
-41.4168

>  <SCORE.INTRA.VDW>
-0.59022

>  <SCORE.INTRA.VDW.0>
-1.62533

>  <SCORE.INTRA.norm>
-0.0581498

>  <SCORE.RESTR>
0

>  <SCORE.RESTR.CAVITY>
0

>  <SCORE.RESTR.norm>
0

>  <SCORE.SYSTEM>
0

>  <SCORE.SYSTEM.CONST>
0

>  <SCORE.SYSTEM.DIHEDRAL>
0

>  <SCORE.SYSTEM.SOLV>
0

>  <SCORE.SYSTEM.norm>
0

>  <SCORE.heavy>
22

>  <SCORE.norm>
-0.858885

>  <RMSD>
0.793

$$$$
lig.pdb
 OpenBabel11021811523D
libRbt.so/2013.1/901 2013/11/27
 22 23  0  0  0  0  0  0  0  0999 V2000
   12.9870  -59.7125  -36.8087 O   0  0  0  0  0  0  0  0  0  0  0  0
   13.7714  -59.1131  -37.5275 C   0  0  0  0  0  0  0  0  0  0  0  0
   13.3804  -58.5252  -38.6581 N   0  0  0  0  0  0  0  0  0  0  0  0
   15.2106  -59.0443  -37.1466 C   0  0  0  0  0  0  0  0  0  0  0  0
   16.2512  -58.3949  -37.9593 C   0  0  0  0  0  0  0  0  0  0  0  0
   16.0301  -57.7373  -39.2407 N   0  0  0  0  0  0  0  0  0  0  0  0
   15.8880  -59.4950  -36.0676 N   0  0  0  0  0  0  0  0  0  0  0  0
   17.2057  -59.1538  -36.2150 C   0  0  0  0  0  0  0  0  0  0  0  0
   17.4307  -58.4833  -37.3659 N   0  0  0  0  0  0  0  0  0  0  0  0
   18.7219  -57.9540  -37.8634 C   0  0  1  0  0  0  0  0  0  0  0  0
   19.1996  -56.8063  -36.9890 C   0  0  1  0  0  0  0  0  0  0  0  0
   20.7000  -56.9382  -37.0467 C   0  0  2  0  0  0  0  0  0  0  0  0
   21.1897  -56.2795  -38.2165 O   0  0  0  0  0  0  0  0  0  0  0  0
   18.7948  -55.5461  -37.5255 O   0  0  0  0  0  0  0  0  0  0  0  0
   19.7444  -58.9561  -37.8170 O   0  0  0  0  0  0  0  0  0  0  0  0
   20.9182  -58.4318  -37.1916 C   0  0  2  0  0  0  0  0  0  0  0  0
   21.1155  -59.0652  -35.8230 C   0  0  0  0  0  0  0  0  0  0  0  0
   22.2473  -58.4561  -35.2039 O   0  0  0  0  0  0  0  0  0  0  0  0
   22.7536  -58.9099  -33.7432 P   0  0  0  0  0  0  0  0  0  0  0  0
   21.5772  -58.6637  -32.8273 O   0  0  0  0  0  0  0  0  0  0  0  0
   23.9352  -58.0029  -33.4931 O   0  0  0  0  0  0  0  0  0  0  0  0
   23.1014  -60.3681  -33.9305 O   0  0  0  0  0  0  0  0  0  0  0  0
  1  2  2  0  0  0  0
  2  4  1  0  0  0  0
  2  3  1  0  0  0  0
  4  7  1  0  0  0  0
  5  9  1  0  0  0  0
  5  4  2  0  0  0  0
  6  5  1  0  0  0  0
  8  7  2  0  0  0  0
  9  8  1  0  0  0  0
 10 15  1  0  0  0  0
 10  9  1  1  0  0  0
 10 11  1  0  0  0  0
 11 14  1  6  0  0  0
 11 12  1  0  0  0  0
 12 13  1  6  0  0  0
 15 16  1  0  0  0  0
 16 12  1  0  0  0  0
 16 17  1  1  0  0  0
 17 18  1  0  0  0  0
 18 19  1  0  0  0  0
 19 21  1  0  0  0  0
 19 20  1  0  0  0  0
 22 19  2  0  0  0  0
M  END
>  <CHROM.1>
177.60385748,111.71340453,-59.22241546,-179.08108682,-59.31387062,19.08080946
-58.38650689,-36.36408902,2.82886482,-0.26617135,-0.91204171

>  <Name>
lig.pdb

>  <RI>
0

>  <Rbt.Current_Directory>
/home/itssahil/PROJECTS/Mol_Feturizer/New_Systems/rnas/5btp

>  <Rbt.Executable>
rbdock ($Id: //depot/dev/client3/rdock/2013.1/src/exe/rbdock.cxx#4 $)

>  <Rbt.Library>
libRbt.so (2013.1, Build901 2013/11/27)

>  <Rbt.Parameter_File>
/export/apps/rDock/src/rDock_2013.1_src/data/scripts/dock_solv.prm

>  <Rbt.Receptor>
prm/pocket_docking_2.prm

>  <SCORE>
-18.9859

>  <SCORE.INTER>
-17.8888

>  <SCORE.INTER.CONST>
1

>  <SCORE.INTER.POLAR>
0

>  <SCORE.INTER.ROT>
5

>  <SCORE.INTER.SOLV>
19.5514

>  <SCORE.INTER.VDW>
-25.3763

>  <SCORE.INTER.norm>
-0.813128

>  <SCORE.INTRA>
-1.09705

>  <SCORE.INTRA.DIHEDRAL>
-1.76362

>  <SCORE.INTRA.DIHEDRAL.0>
4.21161

>  <SCORE.INTRA.POLAR>
0

>  <SCORE.INTRA.POLAR.0>
0

>  <SCORE.INTRA.REPUL>
0

>  <SCORE.INTRA.REPUL.0>
0

>  <SCORE.INTRA.SOLV>
0.201672

>  <SCORE.INTRA.SOLV.lig_0>
-41.4168

>  <SCORE.INTRA.VDW>
-0.31608

>  <SCORE.INTRA.VDW.0>
-1.62533

>  <SCORE.INTRA.norm>
-0.049866

>  <SCORE.RESTR>
0

>  <SCORE.RESTR.CAVITY>
0

>  <SCORE.RESTR.norm>
0

>  <SCORE.SYSTEM>
0

>  <SCORE.SYSTEM.CONST>
0

>  <SCORE.SYSTEM.DIHEDRAL>
0

>  <SCORE.SYSTEM.SOLV>
0

>  <SCORE.SYSTEM.norm>
0

>  <SCORE.heavy>
22

>  <SCORE.norm>
-0.862994

>  <RMSD>
0.800

$$$$
lig.pdb
 OpenBabel11021811523D
libRbt.so/2013.1/901 2013/11/27
 22 23  0  0  0  0  0  0  0  0999 V2000
   12.9453  -59.6374  -36.8314 O   0  0  0  0  0  0  0  0  0  0  0  0
   13.7536  -59.0691  -37.5488 C   0  0  0  0  0  0  0  0  0  0  0  0
   13.3925  -58.4920  -38.6949 N   0  0  0  0  0  0  0  0  0  0  0  0
   15.1886  -59.0273  -37.1484 C   0  0  0  0  0  0  0  0  0  0  0  0
   16.2554  -58.4163  -37.9568 C   0  0  0  0  0  0  0  0  0  0  0  0
   16.0679  -57.7758  -39.2521 N   0  0  0  0  0  0  0  0  0  0  0  0
   15.8399  -59.4751  -36.0523 N   0  0  0  0  0  0  0  0  0  0  0  0
   17.1672  -59.1672  -36.1863 C   0  0  0  0  0  0  0  0  0  0  0  0
   17.4240  -58.5220  -37.3450 N   0  0  0  0  0  0  0  0  0  0  0  0
   18.7342  -58.0314  -37.8327 C   0  0  1  0  0  0  0  0  0  0  0  0
   19.2440  -56.9051  -36.9487 C   0  0  1  0  0  0  0  0  0  0  0  0
   20.7396  -57.0848  -36.9995 C   0  0  2  0  0  0  0  0  0  0  0  0
   21.2563  -56.4351  -38.1627 O   0  0  0  0  0  0  0  0  0  0  0  0
   18.8827  -55.6293  -37.4794 O   0  0  0  0  0  0  0  0  0  0  0  0
   19.7237  -59.0662  -37.7873 O   0  0  0  0  0  0  0  0  0  0  0  0
   20.9104  -58.5837  -37.1526 C   0  0  2  0  0  0  0  0  0  0  0  0
   21.0801  -59.2315  -35.7871 C   0  0  0  0  0  0  0  0  0  0  0  0
   22.2362  -58.6737  -35.1647 O   0  0  0  0  0  0  0  0  0  0  0  0
   22.6850  -59.1081  -33.6795 P   0  0  0  0  0  0  0  0  0  0  0  0
   21.5076  -58.7619  -32.7979 O   0  0  0  0  0  0  0  0  0  0  0  0
   23.9139  -58.2653  -33.4326 O   0  0  0  0  0  0  0  0  0  0  0  0
   22.9480  -60.5898  -33.8124 O   0  0  0  0  0  0  0  0  0  0  0  0
  1  2  2  0  0  0  0
  2  4  1  0  0  0  0
  2  3  1  0  0  0  0
  4  7  1  0  0  0  0
  5  9  1  0  0  0  0
  5  4  2  0  0  0  0
  6  5  1  0  0  0  0
  8  7  2  0  0  0  0
  9  8  1  0  0  0  0
 10 15  1  0  0  0  0
 10  9  1  1  0  0  0
 10 11  1  0  0  0  0
 11 14  1  6  0  0  0
 11 12  1  0  0  0  0
 12 13  1  6  0  0  0
 15 16  1  0  0  0  0
 16 12  1  0  0  0  0
 16 17  1  1  0  0  0
 17 18  1  0  0  0  0
 18 19  1  0  0  0  0
 19 21  1  0  0  0  0
 19 20  1  0  0  0  0
 22 19  2  0  0  0  0
M  END
>  <CHROM.1>
177.61929050,113.22412170,-59.86867727,178.17277721,-59.11677935,19.06542058
-58.48302001,-36.33334407,2.80334033,-0.24936517,-0.92129010

>  <Name>
lig.pdb

>  <RI>
0

>  <Rbt.Current_Directory>
/home/itssahil/PROJECTS/Mol_Feturizer/New_Systems/rnas/5btp

>  <Rbt.Executable>
rbdock ($Id: //depot/dev/client3/rdock/2013.1/src/exe/rbdock.cxx#4 $)

>  <Rbt.Library>
libRbt.so (2013.1, Build901 2013/11/27)

>  <Rbt.Parameter_File>
/export/apps/rDock/src/rDock_2013.1_src/data/scripts/dock_solv.prm

>  <Rbt.Receptor>
prm/pocket_docking_2.prm

>  <SCORE>
-19.0055

>  <SCORE.INTER>
-17.902

>  <SCORE.INTER.CONST>
1

>  <SCORE.INTER.POLAR>
0

>  <SCORE.INTER.ROT>
5

>  <SCORE.INTER.SOLV>
19.5859

>  <SCORE.INTER.VDW>
-25.3966

>  <SCORE.INTER.norm>
-0.813727

>  <SCORE.INTRA>
-1.1035

>  <SCORE.INTRA.DIHEDRAL>
-1.75314

>  <SCORE.INTRA.DIHEDRAL.0>
4.21161

>  <SCORE.INTRA.POLAR>
0

>  <SCORE.INTRA.POLAR.0>
0

>  <SCORE.INTRA.REPUL>
0

>  <SCORE.INTRA.REPUL.0>
0

>  <SCORE.INTRA.SOLV>
0.1922

>  <SCORE.INTRA.SOLV.lig_0>
-41.4168

>  <SCORE.INTRA.VDW>
-0.323026

>  <SCORE.INTRA.VDW.0>
-1.62533

>  <SCORE.INTRA.norm>
-0.0501589

>  <SCORE.RESTR>
0

>  <SCORE.RESTR.CAVITY>
0

>  <SCORE.RESTR.norm>
0

>  <SCORE.SYSTEM>
0

>  <SCORE.SYSTEM.CONST>
0

>  <SCORE.SYSTEM.DIHEDRAL>
0

>  <SCORE.SYSTEM.SOLV>
0

>  <SCORE.SYSTEM.norm>
0

>  <SCORE.heavy>
22

>  <SCORE.norm>
-0.863886

>  <RMSD>
0.820

$$$$
lig.pdb
 OpenBabel11021811523D
libRbt.so/2013.1/901 2013/11/27
 22 23  0  0  0  0  0  0  0  0999 V2000
   13.4695  -58.4638  -38.5701 O   0  0  0  0  0  0  0  0  0  0  0  0
   13.8161  -59.0282  -37.5443 C   0  0  0  0  0  0  0  0  0  0  0  0
   12.9417  -59.6533  -36.7559 N   0  0  0  0  0  0  0  0  0  0  0  0
   15.2521  -59.0103  -37.1459 C   0  0  0  0  0  0  0  0  0  0  0  0
   16.3247  -58.3975  -37.9452 C   0  0  0  0  0  0  0  0  0  0  0  0
   16.1425  -57.7316  -39.2284 N   0  0  0  0  0  0  0  0  0  0  0  0
   15.9000  -59.4854  -36.0592 N   0  0  0  0  0  0  0  0  0  0  0  0
   17.2306  -59.1906  -36.1902 C   0  0  0  0  0  0  0  0  0  0  0  0
   17.4931  -58.5277  -37.3376 N   0  0  0  0  0  0  0  0  0  0  0  0
   18.8081  -58.0438  -37.8188 C   0  0  1  0  0  0  0  0  0  0  0  0
   19.2807  -56.8657  -36.9830 C   0  0  1  0  0  0  0  0  0  0  0  0
   20.7794  -57.0257  -36.9887 C   0  0  2  0  0  0  0  0  0  0  0  0
   21.3157  -56.4297  -38.1715 O   0  0  0  0  0  0  0  0  0  0  0  0
   18.9153  -55.6247  -37.5881 O   0  0  0  0  0  0  0  0  0  0  0  0
   19.8101  -59.0601  -37.6958 O   0  0  0  0  0  0  0  0  0  0  0  0
   20.9742  -58.5279  -37.0591 C   0  0  2  0  0  0  0  0  0  0  0  0
   21.1190  -59.1013  -35.6579 C   0  0  0  0  0  0  0  0  0  0  0  0
   22.2595  -58.5046  -35.0429 O   0  0  0  0  0  0  0  0  0  0  0  0
   22.6886  -58.8684  -33.5331 P   0  0  0  0  0  0  0  0  0  0  0  0
   22.8914  -60.3658  -33.5340 O   0  0  0  0  0  0  0  0  0  0  0  0
   21.5048  -58.4030  -32.7187 O   0  0  0  0  0  0  0  0  0  0  0  0
   23.9542  -58.0696  -33.3267 O   0  0  0  0  0  0  0  0  0  0  0  0
  1  2  2  0  0  0  0
  2  4  1  0  0  0  0
  2  3  1  0  0  0  0
  4  7  1  0  0  0  0
  5  9  1  0  0  0  0
  5  4  2  0  0  0  0
  6  5  1  0  0  0  0
  8  7  2  0  0  0  0
  9  8  1  0  0  0  0
 10 15  1  0  0  0  0
 10  9  1  1  0  0  0
 10 11  1  0  0  0  0
 11 14  1  6  0  0  0
 11 12  1  0  0  0  0
 12 13  1  6  0  0  0
 15 16  1  0  0  0  0
 16 12  1  0  0  0  0
 16 17  1  1  0  0  0
 17 18  1  0  0  0  0
 18 19  1  0  0  0  0
 19 21  1  0  0  0  0
 19 20  1  0  0  0  0
 22 19  2  0  0  0  0
M  END
>  <CHROM.1>
-2.83707991,108.69291623,-60.42593511,178.81146916,57.47427093,19.10923765
-58.39203566,-36.28416454,2.79012537,-0.26282463,-0.96439600

>  <Name>
lig.pdb

>  <RI>
0

>  <Rbt.Current_Directory>
/home/itssahil/PROJECTS/Mol_Feturizer/New_Systems/rnas/5btp

>  <Rbt.Executable>
rbdock ($Id: //depot/dev/client3/rdock/2013.1/src/exe/rbdock.cxx#4 $)

>  <Rbt.Library>
libRbt.so (2013.1, Build901 2013/11/27)

>  <Rbt.Parameter_File>
/export/apps/rDock/src/rDock_2013.1_src/data/scripts/dock_solv.prm

>  <Rbt.Receptor>
prm/pocket_docking_4.prm

>  <SCORE>
-19.1858

>  <SCORE.INTER>
-17.8362

>  <SCORE.INTER.CONST>
1

>  <SCORE.INTER.POLAR>
0

>  <SCORE.INTER.ROT>
5

>  <SCORE.INTER.SOLV>
19.5836

>  <SCORE.INTER.VDW>
-25.352

>  <SCORE.INTER.norm>
-0.810739

>  <SCORE.INTRA>
-1.34951

>  <SCORE.INTRA.DIHEDRAL>
-1.74324

>  <SCORE.INTRA.DIHEDRAL.0>
4.21161

>  <SCORE.INTRA.POLAR>
0

>  <SCORE.INTRA.POLAR.0>
0

>  <SCORE.INTRA.REPUL>
0

>  <SCORE.INTRA.REPUL.0>
0

>  <SCORE.INTRA.SOLV>
-0.230444

>  <SCORE.INTRA.SOLV.lig_0>
-41.4168

>  <SCORE.INTRA.VDW>
-0.362674

>  <SCORE.INTRA.VDW.0>
-1.62533

>  <SCORE.INTRA.norm>
-0.0613416

>  <SCORE.RESTR>
0

>  <SCORE.RESTR.CAVITY>
0

>  <SCORE.RESTR.norm>
0

>  <SCORE.SYSTEM>
0

>  <SCORE.SYSTEM.CONST>
0

>  <SCORE.SYSTEM.DIHEDRAL>
0

>  <SCORE.SYSTEM.SOLV>
0

>  <SCORE.SYSTEM.norm>
0

>  <SCORE.heavy>
22

>  <SCORE.norm>
-0.87208

>  <RMSD>
0.852

$$$$
lig.pdb
 OpenBabel11021811523D
libRbt.so/2013.1/901 2013/11/27
 22 23  0  0  0  0  0  0  0  0999 V2000
   13.4722  -58.4794  -38.5665 O   0  0  0  0  0  0  0  0  0  0  0  0
   13.8256  -59.0361  -37.5388 C   0  0  0  0  0  0  0  0  0  0  0  0
   12.9583  -59.6669  -36.7471 N   0  0  0  0  0  0  0  0  0  0  0  0
   15.2617  -59.0021  -37.1419 C   0  0  0  0  0  0  0  0  0  0  0  0
   16.3272  -58.3816  -37.9448 C   0  0  0  0  0  0  0  0  0  0  0  0
   16.1370  -57.7227  -39.2304 N   0  0  0  0  0  0  0  0  0  0  0  0
   15.9155  -59.4663  -36.0541 N   0  0  0  0  0  0  0  0  0  0  0  0
   17.2429  -59.1586  -36.1876 C   0  0  0  0  0  0  0  0  0  0  0  0
   17.4975  -58.4976  -37.3379 N   0  0  0  0  0  0  0  0  0  0  0  0
   18.8070  -58.0022  -37.8224 C   0  0  1  0  0  0  0  0  0  0  0  0
   19.2902  -56.8456  -36.9629 C   0  0  1  0  0  0  0  0  0  0  0  0
   20.7887  -57.0060  -36.9904 C   0  0  2  0  0  0  0  0  0  0  0  0
   21.3114  -56.3807  -38.1642 O   0  0  0  0  0  0  0  0  0  0  0  0
   18.9186  -55.5897  -37.5324 O   0  0  0  0  0  0  0  0  0  0  0  0
   19.8097  -59.0216  -37.7368 O   0  0  0  0  0  0  0  0  0  0  0  0
   20.9816  -58.5060  -37.1007 C   0  0  2  0  0  0  0  0  0  0  0  0
   21.1426  -59.1144  -35.7162 C   0  0  0  0  0  0  0  0  0  0  0  0
   22.2844  -58.5257  -35.0957 O   0  0  0  0  0  0  0  0  0  0  0  0
   22.7096  -58.9001  -33.5874 P   0  0  0  0  0  0  0  0  0  0  0  0
   22.9614  -60.3899  -33.6102 O   0  0  0  0  0  0  0  0  0  0  0  0
   21.5027  -58.4873  -32.7786 O   0  0  0  0  0  0  0  0  0  0  0  0
   23.9460  -58.0638  -33.3543 O   0  0  0  0  0  0  0  0  0  0  0  0
  1  2  2  0  0  0  0
  2  4  1  0  0  0  0
  2  3  1  0  0  0  0
  4  7  1  0  0  0  0
  5  9  1  0  0  0  0
  5  4  2  0  0  0  0
  6  5  1  0  0  0  0
  8  7  2  0  0  0  0
  9  8  1  0  0  0  0
 10 15  1  0  0  0  0
 10  9  1  1  0  0  0
 10 11  1  0  0  0  0
 11 14  1  6  0  0  0
 11 12  1  0  0  0  0
 12 13  1  6  0  0  0
 15 16  1  0  0  0  0
 16 12  1  0  0  0  0
 16 17  1  1  0  0  0
 17 18  1  0  0  0  0
 18 19  1  0  0  0  0
 19 21  1  0  0  0  0
 19 20  1  0  0  0  0
 22 19  2  0  0  0  0
M  END
>  <CHROM.1>
-2.83730097,110.56795647,-59.96064429,177.38281149,59.71954827,19.11994337
-58.38856018,-36.30107477,2.79853305,-0.26198261,-0.94719063

>  <Name>
lig.pdb

>  <RI>
0

>  <Rbt.Current_Directory>
/home/itssahil/PROJECTS/Mol_Feturizer/New_Systems/rnas/5btp

>  <Rbt.Executable>
rbdock ($Id: //depot/dev/client3/rdock/2013.1/src/exe/rbdock.cxx#4 $)

>  <Rbt.Library>
libRbt.so (2013.1, Build901 2013/11/27)

>  <Rbt.Parameter_File>
/export/apps/rDock/src/rDock_2013.1_src/data/scripts/dock_solv.prm

>  <Rbt.Receptor>
prm/pocket_docking_2.prm

>  <SCORE>
-19.1678

>  <SCORE.INTER>
-17.835

>  <SCORE.INTER.CONST>
1

>  <SCORE.INTER.POLAR>
0

>  <SCORE.INTER.ROT>
5

>  <SCORE.INTER.SOLV>
19.5501

>  <SCORE.INTER.VDW>
-25.34

>  <SCORE.INTER.norm>
-0.81068

>  <SCORE.INTRA>
-1.33287

>  <SCORE.INTRA.DIHEDRAL>
-1.72805

>  <SCORE.INTRA.DIHEDRAL.0>
4.21161

>  <SCORE.INTRA.POLAR>
0

>  <SCORE.INTRA.POLAR.0>
0

>  <SCORE.INTRA.REPUL>
0

>  <SCORE.INTRA.REPUL.0>
0

>  <SCORE.INTRA.SOLV>
-0.239649

>  <SCORE.INTRA.SOLV.lig_0>
-41.4168

>  <SCORE.INTRA.VDW>
-0.349017

>  <SCORE.INTRA.VDW.0>
-1.62533

>  <SCORE.INTRA.norm>
-0.0605849

>  <SCORE.RESTR>
0

>  <SCORE.RESTR.CAVITY>
0

>  <SCORE.RESTR.norm>
0

>  <SCORE.SYSTEM>
0

>  <SCORE.SYSTEM.CONST>
0

>  <SCORE.SYSTEM.DIHEDRAL>
0

>  <SCORE.SYSTEM.SOLV>
0

>  <SCORE.SYSTEM.norm>
0

>  <SCORE.heavy>
22

>  <SCORE.norm>
-0.871265

>  <RMSD>
0.853

$$$$
lig.pdb
 OpenBabel11021811523D
libRbt.so/2013.1/901 2013/11/27
 22 23  0  0  0  0  0  0  0  0999 V2000
   13.4598  -58.5294  -38.6289 O   0  0  0  0  0  0  0  0  0  0  0  0
   13.8117  -59.0533  -37.5836 C   0  0  0  0  0  0  0  0  0  0  0  0
   12.9444  -59.6648  -36.7769 N   0  0  0  0  0  0  0  0  0  0  0  0
   15.2460  -58.9997  -37.1822 C   0  0  0  0  0  0  0  0  0  0  0  0
   16.3075  -58.3749  -37.9870 C   0  0  0  0  0  0  0  0  0  0  0  0
   16.1146  -57.7302  -39.2794 N   0  0  0  0  0  0  0  0  0  0  0  0
   15.9010  -59.4465  -36.0878 N   0  0  0  0  0  0  0  0  0  0  0  0
   17.2254  -59.1254  -36.2195 C   0  0  0  0  0  0  0  0  0  0  0  0
   17.4767  -58.4723  -37.3750 N   0  0  0  0  0  0  0  0  0  0  0  0
   18.7824  -57.9671  -37.8596 C   0  0  1  0  0  0  0  0  0  0  0  0
   19.2547  -56.8038  -37.0030 C   0  0  1  0  0  0  0  0  0  0  0  0
   20.7545  -56.9513  -37.0284 C   0  0  2  0  0  0  0  0  0  0  0  0
   21.2731  -56.3249  -38.2035 O   0  0  0  0  0  0  0  0  0  0  0  0
   18.8728  -55.5528  -37.5765 O   0  0  0  0  0  0  0  0  0  0  0  0
   19.7938  -58.9775  -37.7700 O   0  0  0  0  0  0  0  0  0  0  0  0
   20.9606  -58.4498  -37.1342 C   0  0  2  0  0  0  0  0  0  0  0  0
   21.1253  -59.0528  -35.7477 C   0  0  0  0  0  0  0  0  0  0  0  0
   22.2711  -58.4647  -35.1342 O   0  0  0  0  0  0  0  0  0  0  0  0
   22.7185  -58.8564  -33.6368 P   0  0  0  0  0  0  0  0  0  0  0  0
   23.9282  -57.9966  -33.3523 O   0  0  0  0  0  0  0  0  0  0  0  0
   23.0182  -60.3329  -33.7438 O   0  0  0  0  0  0  0  0  0  0  0  0
   21.5032  -58.5141  -32.8073 O   0  0  0  0  0  0  0  0  0  0  0  0
  1  2  2  0  0  0  0
  2  4  1  0  0  0  0
  2  3  1  0  0  0  0
  4  7  1  0  0  0  0
  5  9  1  0  0  0  0
  5  4  2  0  0  0  0
  6  5  1  0  0  0  0
  8  7  2  0  0  0  0
  9  8  1  0  0  0  0
 10 15  1  0  0  0  0
 10  9  1  1  0  0  0
 10 11  1  0  0  0  0
 11 14  1  6  0  0  0
 11 12  1  0  0  0  0
 12 13  1  6  0  0  0
 15 16  1  0  0  0  0
 16 12  1  0  0  0  0
 16 17  1  1  0  0  0
 17 18  1  0  0  0  0
 18 19  1  0  0  0  0
 19 21  1  0  0  0  0
 19 20  1  0  0  0  0
 22 19  2  0  0  0  0
M  END
>  <CHROM.1>
-1.61154324,110.98489470,-60.67638130,178.65236566,-178.28116101,19.10580122
-58.35985867,-36.34348176,2.80404634,-0.26792076,-0.94240572

>  <Name>
lig.pdb

>  <RI>
0

>  <Rbt.Current_Directory>
/home/itssahil/PROJECTS/Mol_Feturizer/New_Systems/rnas/5btp

>  <Rbt.Executable>
rbdock ($Id: //depot/dev/client3/rdock/2013.1/src/exe/rbdock.cxx#4 $)

>  <Rbt.Library>
libRbt.so (2013.1, Build901 2013/11/27)

>  <Rbt.Parameter_File>
/export/apps/rDock/src/rDock_2013.1_src/data/scripts/dock_solv.prm

>  <Rbt.Receptor>
prm/pocket_docking_2.prm

>  <SCORE>
-18.8979

>  <SCORE.INTER>
-17.6828

>  <SCORE.INTER.CONST>
1

>  <SCORE.INTER.POLAR>
0

>  <SCORE.INTER.ROT>
5

>  <SCORE.INTER.SOLV>
20.0313

>  <SCORE.INTER.VDW>
-25.399

>  <SCORE.INTER.norm>
-0.803765

>  <SCORE.INTRA>
-1.21503

>  <SCORE.INTRA.DIHEDRAL>
-1.76426

>  <SCORE.INTRA.DIHEDRAL.0>
4.21161

>  <SCORE.INTRA.POLAR>
0

>  <SCORE.INTRA.POLAR.0>
0

>  <SCORE.INTRA.REPUL>
0

>  <SCORE.INTRA.REPUL.0>
0

>  <SCORE.INTRA.SOLV>
-0.0258568

>  <SCORE.INTRA.SOLV.lig_0>
-41.4168

>  <SCORE.INTRA.VDW>
-0.31997

>  <SCORE.INTRA.VDW.0>
-1.62533

>  <SCORE.INTRA.norm>
-0.0552286

>  <SCORE.RESTR>
0

>  <SCORE.RESTR.CAVITY>
0

>  <SCORE.RESTR.norm>
0

>  <SCORE.SYSTEM>
0

>  <SCORE.SYSTEM.CONST>
0

>  <SCORE.SYSTEM.DIHEDRAL>
0

>  <SCORE.SYSTEM.SOLV>
0

>  <SCORE.SYSTEM.norm>
0

>  <SCORE.heavy>
22

>  <SCORE.norm>
-0.858993

>  <RMSD>
0.856

$$$$
lig.pdb
 OpenBabel11021811523D
libRbt.so/2013.1/901 2013/11/27
 22 23  0  0  0  0  0  0  0  0999 V2000
   13.4672  -58.4757  -38.5647 O   0  0  0  0  0  0  0  0  0  0  0  0
   13.8140  -59.0365  -37.5370 C   0  0  0  0  0  0  0  0  0  0  0  0
   12.9402  -59.6616  -36.7480 N   0  0  0  0  0  0  0  0  0  0  0  0
   15.2496  -59.0142  -37.1370 C   0  0  0  0  0  0  0  0  0  0  0  0
   16.3220  -58.4035  -37.9382 C   0  0  0  0  0  0  0  0  0  0  0  0
   16.1401  -57.7443  -39.2249 N   0  0  0  0  0  0  0  0  0  0  0  0
   15.8970  -59.4827  -36.0473 N   0  0  0  0  0  0  0  0  0  0  0  0
   17.2273  -59.1863  -36.1782 C   0  0  0  0  0  0  0  0  0  0  0  0
   17.4899  -58.5287  -37.3286 N   0  0  0  0  0  0  0  0  0  0  0  0
   18.8046  -58.0448  -37.8107 C   0  0  1  0  0  0  0  0  0  0  0  0
   19.2862  -56.8782  -36.9640 C   0  0  1  0  0  0  0  0  0  0  0  0
   20.7842  -57.0444  -36.9787 C   0  0  2  0  0  0  0  0  0  0  0  0
   21.3174  -56.4373  -38.1574 O   0  0  0  0  0  0  0  0  0  0  0  0
   18.9232  -55.6289  -37.5533 O   0  0  0  0  0  0  0  0  0  0  0  0
   19.8028  -59.0666  -37.7041 O   0  0  0  0  0  0  0  0  0  0  0  0
   20.9723  -58.5465  -37.0671 C   0  0  2  0  0  0  0  0  0  0  0  0
   21.1213  -59.1363  -35.6731 C   0  0  0  0  0  0  0  0  0  0  0  0
   22.2672  -58.5512  -35.0569 O   0  0  0  0  0  0  0  0  0  0  0  0
   22.6948  -58.9243  -33.5489 P   0  0  0  0  0  0  0  0  0  0  0  0
   22.9430  -60.4148  -33.5700 O   0  0  0  0  0  0  0  0  0  0  0  0
   21.4908  -58.5073  -32.7381 O   0  0  0  0  0  0  0  0  0  0  0  0
   23.9338  -58.0907  -33.3199 O   0  0  0  0  0  0  0  0  0  0  0  0
  1  2  2  0  0  0  0
  2  4  1  0  0  0  0
  2  3  1  0  0  0  0
  4  7  1  0  0  0  0
  5  9  1  0  0  0  0
  5  4  2  0  0  0  0
  6  5  1  0  0  0  0
  8  7  2  0  0  0  0
  9  8  1  0  0  0  0
 10 15  1  0  0  0  0
 10  9  1  1  0  0  0
 10 11  1  0  0  0  0
 11 14  1  6  0  0  0
 11 12  1  0  0  0  0
 12 13  1  6  0  0  0
 15 16  1  0  0  0  0
 16 12  1  0  0  0  0
 16 17  1  1  0  0  0
 17 18  1  0  0  0  0
 18 19  1  0  0  0  0
 19 21  1  0  0  0  0
 19 20  1  0  0  0  0
 22 19  2  0  0  0  0
M  END
>  <CHROM.1>
-2.97523754,109.74117689,-60.41962331,178.28072157,59.82837414,19.11049259
-58.41425611,-36.28325686,2.79150306,-0.25969042,-0.95596448

>  <Name>
lig.pdb

>  <RI>
0

>  <Rbt.Current_Directory>
/home/itssahil/PROJECTS/Mol_Feturizer/New_Systems/rnas/5btp

>  <Rbt.Executable>
rbdock ($Id: //depot/dev/client3/rdock/2013.1/src/exe/rbdock.cxx#4 $)

>  <Rbt.Library>
libRbt.so (2013.1, Build901 2013/11/27)

>  <Rbt.Parameter_File>
/export/apps/rDock/src/rDock_2013.1_src/data/scripts/dock_solv.prm

>  <Rbt.Receptor>
prm/pocket_docking_3.prm

>  <SCORE>
-19.1849

>  <SCORE.INTER>
-17.8371

>  <SCORE.INTER.CONST>
1

>  <SCORE.INTER.POLAR>
0

>  <SCORE.INTER.ROT>
5

>  <SCORE.INTER.SOLV>
19.584

>  <SCORE.INTER.VDW>
-25.3528

>  <SCORE.INTER.norm>
-0.810779

>  <SCORE.INTRA>
-1.34776

>  <SCORE.INTRA.DIHEDRAL>
-1.7432

>  <SCORE.INTRA.DIHEDRAL.0>
4.21161

>  <SCORE.INTRA.POLAR>
0

>  <SCORE.INTRA.POLAR.0>
0

>  <SCORE.INTRA.REPUL>
0

>  <SCORE.INTRA.REPUL.0>
0

>  <SCORE.INTRA.SOLV>
-0.238514

>  <SCORE.INTRA.SOLV.lig_0>
-41.4168

>  <SCORE.INTRA.VDW>
-0.356897

>  <SCORE.INTRA.VDW.0>
-1.62533

>  <SCORE.INTRA.norm>
-0.0612616

>  <SCORE.RESTR>
0

>  <SCORE.RESTR.CAVITY>
0

>  <SCORE.RESTR.norm>
0

>  <SCORE.SYSTEM>
0

>  <SCORE.SYSTEM.CONST>
0

>  <SCORE.SYSTEM.DIHEDRAL>
0

>  <SCORE.SYSTEM.SOLV>
0

>  <SCORE.SYSTEM.norm>
0

>  <SCORE.heavy>
22

>  <SCORE.norm>
-0.872041

>  <RMSD>
0.856

$$$$
lig.pdb
 OpenBabel11021811523D
libRbt.so/2013.1/901 2013/11/27
 22 23  0  0  0  0  0  0  0  0999 V2000
   13.4505  -58.5179  -38.6169 O   0  0  0  0  0  0  0  0  0  0  0  0
   13.8077  -59.0441  -37.5744 C   0  0  0  0  0  0  0  0  0  0  0  0
   12.9444  -59.6578  -36.7651 N   0  0  0  0  0  0  0  0  0  0  0  0
   15.2438  -58.9909  -37.1797 C   0  0  0  0  0  0  0  0  0  0  0  0
   16.3016  -58.3660  -37.9893 C   0  0  0  0  0  0  0  0  0  0  0  0
   16.1028  -57.7208  -39.2805 N   0  0  0  0  0  0  0  0  0  0  0  0
   15.9038  -59.4382  -36.0885 N   0  0  0  0  0  0  0  0  0  0  0  0
   17.2276  -59.1173  -36.2263 C   0  0  0  0  0  0  0  0  0  0  0  0
   17.4737  -58.4639  -37.3828 N   0  0  0  0  0  0  0  0  0  0  0  0
   18.7772  -57.9587  -37.8732 C   0  0  1  0  0  0  0  0  0  0  0  0
   19.2307  -56.7654  -37.0484 C   0  0  1  0  0  0  0  0  0  0  0  0
   20.7321  -56.8969  -37.0592 C   0  0  2  0  0  0  0  0  0  0  0  0
   21.2521  -56.2998  -38.2489 O   0  0  0  0  0  0  0  0  0  0  0  0
   18.8392  -55.5362  -37.6613 O   0  0  0  0  0  0  0  0  0  0  0  0
   19.7989  -58.9547  -37.7469 O   0  0  0  0  0  0  0  0  0  0  0  0
   20.9553  -58.3955  -37.1192 C   0  0  2  0  0  0  0  0  0  0  0  0
   21.1167  -58.9554  -35.7143 C   0  0  0  0  0  0  0  0  0  0  0  0
   22.2532  -58.3385  -35.1117 O   0  0  0  0  0  0  0  0  0  0  0  0
   22.7130  -58.7043  -33.6114 P   0  0  0  0  0  0  0  0  0  0  0  0
   23.0489  -60.1770  -33.6532 O   0  0  0  0  0  0  0  0  0  0  0  0
   21.4921  -58.3696  -32.7876 O   0  0  0  0  0  0  0  0  0  0  0  0
   23.9019  -57.8015  -33.3797 O   0  0  0  0  0  0  0  0  0  0  0  0
  1  2  2  0  0  0  0
  2  4  1  0  0  0  0
  2  3  1  0  0  0  0
  4  7  1  0  0  0  0
  5  9  1  0  0  0  0
  5  4  2  0  0  0  0
  6  5  1  0  0  0  0
  8  7  2  0  0  0  0
  9  8  1  0  0  0  0
 10 15  1  0  0  0  0
 10  9  1  1  0  0  0
 10 11  1  0  0  0  0
 11 14  1  6  0  0  0
 11 12  1  0  0  0  0
 12 13  1  6  0  0  0
 15 16  1  0  0  0  0
 16 12  1  0  0  0  0
 16 17  1  1  0  0  0
 17 18  1  0  0  0  0
 18 19  1  0  0  0  0
 19 21  1  0  0  0  0
 19 20  1  0  0  0  0
 22 19  2  0  0  0  0
M  END
>  <CHROM.1>
-1.72850117,109.03454265,-60.78704589,179.95871234,61.63533394,19.09777420
-58.29880418,-36.34195447,2.80602543,-0.27514202,-0.96305728

>  <Name>
lig.pdb

>  <RI>
0

>  <Rbt.Current_Directory>
/home/itssahil/PROJECTS/Mol_Feturizer/New_Systems/rnas/5btp

>  <Rbt.Executable>
rbdock ($Id: //depot/dev/client3/rdock/2013.1/src/exe/rbdock.cxx#4 $)

>  <Rbt.Library>
libRbt.so (2013.1, Build901 2013/11/27)

>  <Rbt.Parameter_File>
/export/apps/rDock/src/rDock_2013.1_src/data/scripts/dock_solv.prm

>  <Rbt.Receptor>
prm/pocket_docking_3.prm

>  <SCORE>
-19.2248

>  <SCORE.INTER>
-17.8629

>  <SCORE.INTER.CONST>
1

>  <SCORE.INTER.POLAR>
0

>  <SCORE.INTER.ROT>
5

>  <SCORE.INTER.SOLV>
19.7485

>  <SCORE.INTER.VDW>
-25.4248

>  <SCORE.INTER.norm>
-0.811951

>  <SCORE.INTRA>
-1.36187

>  <SCORE.INTRA.DIHEDRAL>
-1.77098

>  <SCORE.INTRA.DIHEDRAL.0>
4.21161

>  <SCORE.INTRA.POLAR>
0

>  <SCORE.INTRA.POLAR.0>
0

>  <SCORE.INTRA.REPUL>
0

>  <SCORE.INTRA.REPUL.0>
0

>  <SCORE.INTRA.SOLV>
-0.24124

>  <SCORE.INTRA.SOLV.lig_0>
-41.4168

>  <SCORE.INTRA.VDW>
-0.355757

>  <SCORE.INTRA.VDW.0>
-1.62533

>  <SCORE.INTRA.norm>
-0.061903

>  <SCORE.RESTR>
0

>  <SCORE.RESTR.CAVITY>
0

>  <SCORE.RESTR.norm>
0

>  <SCORE.SYSTEM>
0

>  <SCORE.SYSTEM.CONST>
0

>  <SCORE.SYSTEM.DIHEDRAL>
0

>  <SCORE.SYSTEM.SOLV>
0

>  <SCORE.SYSTEM.norm>
0

>  <SCORE.heavy>
22

>  <SCORE.norm>
-0.873854

>  <RMSD>
0.857

$$$$
lig.pdb
 OpenBabel11021811523D
libRbt.so/2013.1/901 2013/11/27
 22 23  0  0  0  0  0  0  0  0999 V2000
   13.4773  -58.6868  -38.6686 O   0  0  0  0  0  0  0  0  0  0  0  0
   13.8192  -59.1229  -37.5805 C   0  0  0  0  0  0  0  0  0  0  0  0
   12.9443  -59.6670  -36.7347 N   0  0  0  0  0  0  0  0  0  0  0  0
   15.2496  -59.0352  -37.1711 C   0  0  0  0  0  0  0  0  0  0  0  0
   16.3062  -58.4135  -37.9847 C   0  0  0  0  0  0  0  0  0  0  0  0
   16.1118  -57.8052  -39.2944 N   0  0  0  0  0  0  0  0  0  0  0  0
   15.9041  -59.4429  -36.0613 N   0  0  0  0  0  0  0  0  0  0  0  0
   17.2239  -59.1033  -36.1925 C   0  0  0  0  0  0  0  0  0  0  0  0
   17.4726  -58.4758  -37.3626 N   0  0  0  0  0  0  0  0  0  0  0  0
   18.7732  -57.9614  -37.8513 C   0  0  1  0  0  0  0  0  0  0  0  0
   19.2424  -56.7981  -36.9932 C   0  0  1  0  0  0  0  0  0  0  0  0
   20.7429  -56.9366  -37.0257 C   0  0  2  0  0  0  0  0  0  0  0  0
   21.2526  -56.3035  -38.2010 O   0  0  0  0  0  0  0  0  0  0  0  0
   18.8507  -55.5475  -37.5611 O   0  0  0  0  0  0  0  0  0  0  0  0
   19.7909  -58.9661  -37.7693 O   0  0  0  0  0  0  0  0  0  0  0  0
   20.9573  -58.4336  -37.1371 C   0  0  2  0  0  0  0  0  0  0  0  0
   21.1317  -59.0400  -35.7532 C   0  0  0  0  0  0  0  0  0  0  0  0
   22.2782  -58.4489  -35.1439 O   0  0  0  0  0  0  0  0  0  0  0  0
   22.7461  -58.8573  -33.6572 P   0  0  0  0  0  0  0  0  0  0  0  0
   23.0371  -60.3383  -33.7315 O   0  0  0  0  0  0  0  0  0  0  0  0
   21.5467  -58.5024  -32.8108 O   0  0  0  0  0  0  0  0  0  0  0  0
   23.9646  -57.9951  -33.4244 O   0  0  0  0  0  0  0  0  0  0  0  0
  1  2  2  0  0  0  0
  2  4  1  0  0  0  0
  2  3  1  0  0  0  0
  4  7  1  0  0  0  0
  5  9  1  0  0  0  0
  5  4  2  0  0  0  0
  6  5  1  0  0  0  0
  8  7  2  0  0  0  0
  9  8  1  0  0  0  0
 10 15  1  0  0  0  0
 10  9  1  1  0  0  0
 10 11  1  0  0  0  0
 11 14  1  6  0  0  0
 11 12  1  0  0  0  0
 12 13  1  6  0  0  0
 15 16  1  0  0  0  0
 16 12  1  0  0  0  0
 16 17  1  1  0  0  0
 17 18  1  0  0  0  0
 18 19  1  0  0  0  0
 19 21  1  0  0  0  0
 19 20  1  0  0  0  0
 22 19  2  0  0  0  0
M  END
>  <CHROM.1>
1.75918252,112.85286000,-60.78834659,179.46130803,60.33440234,19.11113410
-58.36999964,-36.34500934,2.81206358,-0.27315050,-0.93816222

>  <Name>
lig.pdb

>  <RI>
0

>  <Rbt.Current_Directory>
/home/itssahil/PROJECTS/Mol_Feturizer/New_Systems/rnas/5btp

>  <Rbt.Executable>
rbdock ($Id: //depot/dev/client3/rdock/2013.1/src/exe/rbdock.cxx#4 $)

>  <Rbt.Library>
libRbt.so (2013.1, Build901 2013/11/27)

>  <Rbt.Parameter_File>
/export/apps/rDock/src/rDock_2013.1_src/data/scripts/dock_solv.prm

>  <Rbt.Receptor>
prm/pocket_docking_4.prm

>  <SCORE>
-19.1647

>  <SCORE.INTER>
-17.7968

>  <SCORE.INTER.CONST>
1

>  <SCORE.INTER.POLAR>
0

>  <SCORE.INTER.ROT>
5

>  <SCORE.INTER.SOLV>
19.8063

>  <SCORE.INTER.VDW>
-25.3999

>  <SCORE.INTER.norm>
-0.808943

>  <SCORE.INTRA>
-1.36795

>  <SCORE.INTRA.DIHEDRAL>
-1.77443

>  <SCORE.INTRA.DIHEDRAL.0>
4.21161

>  <SCORE.INTRA.POLAR>
0

>  <SCORE.INTRA.POLAR.0>
0

>  <SCORE.INTRA.REPUL>
0

>  <SCORE.INTRA.REPUL.0>
0

>  <SCORE.INTRA.SOLV>
-0.276512

>  <SCORE.INTRA.SOLV.lig_0>
-41.4168

>  <SCORE.INTRA.VDW>
-0.342477

>  <SCORE.INTRA.VDW.0>
-1.62533

>  <SCORE.INTRA.norm>
-0.0621794

>  <SCORE.RESTR>
0

>  <SCORE.RESTR.CAVITY>
0

>  <SCORE.RESTR.norm>
0

>  <SCORE.SYSTEM>
0

>  <SCORE.SYSTEM.CONST>
0

>  <SCORE.SYSTEM.DIHEDRAL>
0

>  <SCORE.SYSTEM.SOLV>
0

>  <SCORE.SYSTEM.norm>
0

>  <SCORE.heavy>
22

>  <SCORE.norm>
-0.871123

>  <RMSD>
0.857

$$$$
lig.pdb
 OpenBabel11021811523D
libRbt.so/2013.1/901 2013/11/27
 22 23  0  0  0  0  0  0  0  0999 V2000
   13.4260  -58.5840  -38.5888 O   0  0  0  0  0  0  0  0  0  0  0  0
   13.7863  -59.0887  -37.5369 C   0  0  0  0  0  0  0  0  0  0  0  0
   12.9254  -59.6856  -36.7125 N   0  0  0  0  0  0  0  0  0  0  0  0
   15.2236  -59.0276  -37.1476 C   0  0  0  0  0  0  0  0  0  0  0  0
   16.2752  -58.3990  -37.9624 C   0  0  0  0  0  0  0  0  0  0  0  0
   16.0683  -57.7572  -39.2541 N   0  0  0  0  0  0  0  0  0  0  0  0
   15.8899  -59.4695  -36.0581 N   0  0  0  0  0  0  0  0  0  0  0  0
   17.2116  -59.1422  -36.2015 C   0  0  0  0  0  0  0  0  0  0  0  0
   17.4500  -58.4898  -37.3601 N   0  0  0  0  0  0  0  0  0  0  0  0
   18.7491  -57.9790  -37.8564 C   0  0  1  0  0  0  0  0  0  0  0  0
   19.2068  -56.7910  -37.0264 C   0  0  1  0  0  0  0  0  0  0  0  0
   20.7083  -56.9199  -37.0491 C   0  0  2  0  0  0  0  0  0  0  0  0
   21.2187  -56.3135  -38.2382 O   0  0  0  0  0  0  0  0  0  0  0  0
   18.8090  -55.5580  -37.6276 O   0  0  0  0  0  0  0  0  0  0  0  0
   19.7733  -58.9743  -37.7446 O   0  0  0  0  0  0  0  0  0  0  0  0
   20.9333  -58.4178  -37.1213 C   0  0  2  0  0  0  0  0  0  0  0  0
   21.1059  -58.9873  -35.7217 C   0  0  0  0  0  0  0  0  0  0  0  0
   22.2369  -58.3622  -35.1175 O   0  0  0  0  0  0  0  0  0  0  0  0
   22.7038  -58.7325  -33.6206 P   0  0  0  0  0  0  0  0  0  0  0  0
   23.0474  -60.2032  -33.6703 O   0  0  0  0  0  0  0  0  0  0  0  0
   21.4840  -58.4081  -32.7911 O   0  0  0  0  0  0  0  0  0  0  0  0
   23.8887  -57.8245  -33.3886 O   0  0  0  0  0  0  0  0  0  0  0  0
  1  2  2  0  0  0  0
  2  4  1  0  0  0  0
  2  3  1  0  0  0  0
  4  7  1  0  0  0  0
  5  9  1  0  0  0  0
  5  4  2  0  0  0  0
  6  5  1  0  0  0  0
  8  7  2  0  0  0  0
  9  8  1  0  0  0  0
 10 15  1  0  0  0  0
 10  9  1  1  0  0  0
 10 11  1  0  0  0  0
 11 14  1  6  0  0  0
 11 12  1  0  0  0  0
 12 13  1  6  0  0  0
 15 16  1  0  0  0  0
 16 12  1  0  0  0  0
 16 17  1  1  0  0  0
 17 18  1  0  0  0  0
 18 19  1  0  0  0  0
 19 21  1  0  0  0  0
 19 20  1  0  0  0  0
 22 19  2  0  0  0  0
M  END
>  <CHROM.1>
-0.62317248,109.62354872,-60.15180065,179.81397940,61.30147003,19.07821987
-58.32795925,-36.32927155,2.81210098,-0.27431577,-0.95968936

>  <Name>
lig.pdb

>  <RI>
0

>  <Rbt.Current_Directory>
/home/itssahil/PROJECTS/Mol_Feturizer/New_Systems/rnas/5btp

>  <Rbt.Executable>
rbdock ($Id: //depot/dev/client3/rdock/2013.1/src/exe/rbdock.cxx#4 $)

>  <Rbt.Library>
libRbt.so (2013.1, Build901 2013/11/27)

>  <Rbt.Parameter_File>
/export/apps/rDock/src/rDock_2013.1_src/data/scripts/dock_solv.prm

>  <Rbt.Receptor>
prm/pocket_docking_5.prm

>  <SCORE>
-19.1835

>  <SCORE.INTER>
-17.8242

>  <SCORE.INTER.CONST>
1

>  <SCORE.INTER.POLAR>
0

>  <SCORE.INTER.ROT>
5

>  <SCORE.INTER.SOLV>
19.8401

>  <SCORE.INTER.VDW>
-25.4295

>  <SCORE.INTER.norm>
-0.810189

>  <SCORE.INTRA>
-1.35931

>  <SCORE.INTRA.DIHEDRAL>
-1.78422

>  <SCORE.INTRA.DIHEDRAL.0>
4.21161

>  <SCORE.INTRA.POLAR>
0

>  <SCORE.INTRA.POLAR.0>
0

>  <SCORE.INTRA.REPUL>
0

>  <SCORE.INTRA.REPUL.0>
0

>  <SCORE.INTRA.SOLV>
-0.242933

>  <SCORE.INTRA.SOLV.lig_0>
-41.4168

>  <SCORE.INTRA.VDW>
-0.345733

>  <SCORE.INTRA.VDW.0>
-1.62533

>  <SCORE.INTRA.norm>
-0.0617869

>  <SCORE.RESTR>
0

>  <SCORE.RESTR.CAVITY>
0

>  <SCORE.RESTR.norm>
0

>  <SCORE.SYSTEM>
0

>  <SCORE.SYSTEM.CONST>
0

>  <SCORE.SYSTEM.DIHEDRAL>
0

>  <SCORE.SYSTEM.SOLV>
0

>  <SCORE.SYSTEM.norm>
0

>  <SCORE.heavy>
22

>  <SCORE.norm>
-0.871976

>  <RMSD>
0.863

$$$$
lig.pdb
 OpenBabel11021811523D
libRbt.so/2013.1/901 2013/11/27
 22 23  0  0  0  0  0  0  0  0999 V2000
   13.4556  -58.4935  -38.6010 O   0  0  0  0  0  0  0  0  0  0  0  0
   13.8183  -59.0295  -37.5656 C   0  0  0  0  0  0  0  0  0  0  0  0
   12.9600  -59.6537  -36.7591 N   0  0  0  0  0  0  0  0  0  0  0  0
   15.2559  -58.9766  -37.1762 C   0  0  0  0  0  0  0  0  0  0  0  0
   16.3092  -58.3427  -37.9847 C   0  0  0  0  0  0  0  0  0  0  0  0
   16.1038  -57.6870  -39.2697 N   0  0  0  0  0  0  0  0  0  0  0  0
   15.9212  -59.4317  -36.0915 N   0  0  0  0  0  0  0  0  0  0  0  0
   17.2438  -59.1069  -36.2319 C   0  0  0  0  0  0  0  0  0  0  0  0
   17.4839  -58.4432  -37.3838 N   0  0  0  0  0  0  0  0  0  0  0  0
   18.7844  -57.9312  -37.8752 C   0  0  1  0  0  0  0  0  0  0  0  0
   19.2663  -56.7805  -37.0072 C   0  0  1  0  0  0  0  0  0  0  0  0
   20.7657  -56.9277  -37.0511 C   0  0  2  0  0  0  0  0  0  0  0  0
   21.2716  -56.2845  -38.2226 O   0  0  0  0  0  0  0  0  0  0  0  0
   18.8785  -55.5212  -37.5584 O   0  0  0  0  0  0  0  0  0  0  0  0
   19.7964  -58.9429  -37.8112 O   0  0  0  0  0  0  0  0  0  0  0  0
   20.9702  -58.4246  -37.1807 C   0  0  2  0  0  0  0  0  0  0  0  0
   21.1498  -59.0475  -35.8049 C   0  0  0  0  0  0  0  0  0  0  0  0
   22.2846  -58.4467  -35.1833 O   0  0  0  0  0  0  0  0  0  0  0  0
   22.7290  -58.8373  -33.6847 P   0  0  0  0  0  0  0  0  0  0  0  0
   23.0068  -60.3219  -33.7334 O   0  0  0  0  0  0  0  0  0  0  0  0
   21.5218  -58.4588  -32.8597 O   0  0  0  0  0  0  0  0  0  0  0  0
   23.9524  -57.9831  -33.4483 O   0  0  0  0  0  0  0  0  0  0  0  0
  1  2  2  0  0  0  0
  2  4  1  0  0  0  0
  2  3  1  0  0  0  0
  4  7  1  0  0  0  0
  5  9  1  0  0  0  0
  5  4  2  0  0  0  0
  6  5  1  0  0  0  0
  8  7  2  0  0  0  0
  9  8  1  0  0  0  0
 10 15  1  0  0  0  0
 10  9  1  1  0  0  0
 10 11  1  0  0  0  0
 11 14  1  6  0  0  0
 11 12  1  0  0  0  0
 12 13  1  6  0  0  0
 15 16  1  0  0  0  0
 16 12  1  0  0  0  0
 16 17  1  1  0  0  0
 17 18  1  0  0  0  0
 18 19  1  0  0  0  0
 19 21  1  0  0  0  0
 19 20  1  0  0  0  0
 22 19  2  0  0  0  0
M  END
>  <CHROM.1>
-1.84076629,111.34984322,-59.38257245,177.65811790,59.59189747,19.11423756
-58.33417922,-36.36256465,2.81129259,-0.26514143,-0.93600339

>  <Name>
lig.pdb

>  <RI>
0

>  <Rbt.Current_Directory>
/home/itssahil/PROJECTS/Mol_Feturizer/New_Systems/rnas/5btp

>  <Rbt.Executable>
rbdock ($Id: //depot/dev/client3/rdock/2013.1/src/exe/rbdock.cxx#4 $)

>  <Rbt.Library>
libRbt.so (2013.1, Build901 2013/11/27)

>  <Rbt.Parameter_File>
/export/apps/rDock/src/rDock_2013.1_src/data/scripts/dock_solv.prm

>  <Rbt.Receptor>
prm/pocket_docking_2.prm

>  <SCORE>
-19.1914

>  <SCORE.INTER>
-17.8574

>  <SCORE.INTER.CONST>
1

>  <SCORE.INTER.POLAR>
0

>  <SCORE.INTER.ROT>
5

>  <SCORE.INTER.SOLV>
19.6954

>  <SCORE.INTER.VDW>
-25.4034

>  <SCORE.INTER.norm>
-0.811701

>  <SCORE.INTRA>
-1.33392

>  <SCORE.INTRA.DIHEDRAL>
-1.75007

>  <SCORE.INTRA.DIHEDRAL.0>
4.21161

>  <SCORE.INTRA.POLAR>
0

>  <SCORE.INTRA.POLAR.0>
0

>  <SCORE.INTRA.REPUL>
0

>  <SCORE.INTRA.REPUL.0>
0

>  <SCORE.INTRA.SOLV>
-0.245564

>  <SCORE.INTRA.SOLV.lig_0>
-41.4168

>  <SCORE.INTRA.VDW>
-0.336107

>  <SCORE.INTRA.VDW.0>
-1.62533

>  <SCORE.INTRA.norm>
-0.0606328

>  <SCORE.RESTR>
0

>  <SCORE.RESTR.CAVITY>
0

>  <SCORE.RESTR.norm>
0

>  <SCORE.SYSTEM>
0

>  <SCORE.SYSTEM.CONST>
0

>  <SCORE.SYSTEM.DIHEDRAL>
0

>  <SCORE.SYSTEM.SOLV>
0

>  <SCORE.SYSTEM.norm>
0

>  <SCORE.heavy>
22

>  <SCORE.norm>
-0.872334

>  <RMSD>
0.865

$$$$
lig.pdb
 OpenBabel11021811523D
libRbt.so/2013.1/901 2013/11/27
 22 23  0  0  0  0  0  0  0  0999 V2000
   13.4258  -58.6194  -38.5976 O   0  0  0  0  0  0  0  0  0  0  0  0
   13.7887  -59.1194  -37.5443 C   0  0  0  0  0  0  0  0  0  0  0  0
   12.9316  -59.7213  -36.7197 N   0  0  0  0  0  0  0  0  0  0  0  0
   15.2251  -59.0466  -37.1536 C   0  0  0  0  0  0  0  0  0  0  0  0
   16.2731  -58.4130  -37.9693 C   0  0  0  0  0  0  0  0  0  0  0  0
   16.0630  -57.7769  -39.2633 N   0  0  0  0  0  0  0  0  0  0  0  0
   15.8934  -59.4801  -36.0620 N   0  0  0  0  0  0  0  0  0  0  0  0
   17.2128  -59.1437  -36.2050 C   0  0  0  0  0  0  0  0  0  0  0  0
   17.4478  -58.4933  -37.3654 N   0  0  0  0  0  0  0  0  0  0  0  0
   18.7438  -57.9747  -37.8619 C   0  0  1  0  0  0  0  0  0  0  0  0
   19.2067  -56.7997  -37.0163 C   0  0  1  0  0  0  0  0  0  0  0  0
   20.7080  -56.9281  -37.0506 C   0  0  2  0  0  0  0  0  0  0  0  0
   21.2109  -56.3031  -38.2333 O   0  0  0  0  0  0  0  0  0  0  0  0
   18.8050  -55.5576  -37.5957 O   0  0  0  0  0  0  0  0  0  0  0  0
   19.7686  -58.9715  -37.7722 O   0  0  0  0  0  0  0  0  0  0  0  0
   20.9326  -58.4246  -37.1477 C   0  0  2  0  0  0  0  0  0  0  0  0
   21.1141  -59.0160  -35.7583 C   0  0  0  0  0  0  0  0  0  0  0  0
   22.2624  -58.4168  -35.1604 O   0  0  0  0  0  0  0  0  0  0  0  0
   22.7236  -58.7908  -33.6626 P   0  0  0  0  0  0  0  0  0  0  0  0
   23.9407  -57.9338  -33.4024 O   0  0  0  0  0  0  0  0  0  0  0  0
   23.0144  -60.2702  -33.7529 O   0  0  0  0  0  0  0  0  0  0  0  0
   21.5189  -58.4308  -32.8251 O   0  0  0  0  0  0  0  0  0  0  0  0
  1  2  2  0  0  0  0
  2  4  1  0  0  0  0
  2  3  1  0  0  0  0
  4  7  1  0  0  0  0
  5  9  1  0  0  0  0
  5  4  2  0  0  0  0
  6  5  1  0  0  0  0
  8  7  2  0  0  0  0
  9  8  1  0  0  0  0
 10 15  1  0  0  0  0
 10  9  1  1  0  0  0
 10 11  1  0  0  0  0
 11 14  1  6  0  0  0
 11 12  1  0  0  0  0
 12 13  1  6  0  0  0
 15 16  1  0  0  0  0
 16 12  1  0  0  0  0
 16 17  1  1  0  0  0
 17 18  1  0  0  0  0
 18 19  1  0  0  0  0
 19 21  1  0  0  0  0
 19 20  1  0  0  0  0
 22 19  2  0  0  0  0
M  END
>  <CHROM.1>
-0.70253856,110.85690866,-61.13247475,178.44274701,-178.85623028,19.08342301
-58.35408440,-36.34602480,2.81743031,-0.27353235,-0.94478097

>  <Name>
lig.pdb

>  <RI>
0

>  <Rbt.Current_Directory>
/home/itssahil/PROJECTS/Mol_Feturizer/New_Systems/rnas/5btp

>  <Rbt.Executable>
rbdock ($Id: //depot/dev/client3/rdock/2013.1/src/exe/rbdock.cxx#4 $)

>  <Rbt.Library>
libRbt.so (2013.1, Build901 2013/11/27)

>  <Rbt.Parameter_File>
/export/apps/rDock/src/rDock_2013.1_src/data/scripts/dock_solv.prm

>  <Rbt.Receptor>
prm/pocket_docking_2.prm

>  <SCORE>
-18.8886

>  <SCORE.INTER>
-17.6637

>  <SCORE.INTER.CONST>
1

>  <SCORE.INTER.POLAR>
0

>  <SCORE.INTER.ROT>
5

>  <SCORE.INTER.SOLV>
20.194

>  <SCORE.INTER.VDW>
-25.4405

>  <SCORE.INTER.norm>
-0.802895

>  <SCORE.INTRA>
-1.22486

>  <SCORE.INTRA.DIHEDRAL>
-1.7678

>  <SCORE.INTRA.DIHEDRAL.0>
4.21161

>  <SCORE.INTRA.POLAR>
0

>  <SCORE.INTRA.POLAR.0>
0

>  <SCORE.INTRA.REPUL>
0

>  <SCORE.INTRA.REPUL.0>
0

>  <SCORE.INTRA.SOLV>
-0.0272714

>  <SCORE.INTRA.SOLV.lig_0>
-41.4168

>  <SCORE.INTRA.VDW>
-0.327322

>  <SCORE.INTRA.VDW.0>
-1.62533

>  <SCORE.INTRA.norm>
-0.0556754

>  <SCORE.RESTR>
0

>  <SCORE.RESTR.CAVITY>
0

>  <SCORE.RESTR.norm>
0

>  <SCORE.SYSTEM>
0

>  <SCORE.SYSTEM.CONST>
0

>  <SCORE.SYSTEM.DIHEDRAL>
0

>  <SCORE.SYSTEM.SOLV>
0

>  <SCORE.SYSTEM.norm>
0

>  <SCORE.heavy>
22

>  <SCORE.norm>
-0.858571

>  <RMSD>
0.866

$$$$
lig.pdb
 OpenBabel11021811523D
libRbt.so/2013.1/901 2013/11/27
 22 23  0  0  0  0  0  0  0  0999 V2000
   13.4316  -58.5984  -38.6284 O   0  0  0  0  0  0  0  0  0  0  0  0
   13.7899  -59.0926  -37.5708 C   0  0  0  0  0  0  0  0  0  0  0  0
   12.9280  -59.6832  -36.7431 N   0  0  0  0  0  0  0  0  0  0  0  0
   15.2261  -59.0254  -37.1784 C   0  0  0  0  0  0  0  0  0  0  0  0
   16.2768  -58.3922  -37.9908 C   0  0  0  0  0  0  0  0  0  0  0  0
   16.0700  -57.7511  -39.2829 N   0  0  0  0  0  0  0  0  0  0  0  0
   15.8919  -59.4646  -36.0875 N   0  0  0  0  0  0  0  0  0  0  0  0
   17.2125  -59.1317  -36.2280 C   0  0  0  0  0  0  0  0  0  0  0  0
   17.4507  -58.4781  -37.3860 N   0  0  0  0  0  0  0  0  0  0  0  0
   18.7487  -57.9617  -37.8794 C   0  0  1  0  0  0  0  0  0  0  0  0
   19.1913  -56.7614  -37.0588 C   0  0  1  0  0  0  0  0  0  0  0  0
   20.6940  -56.8782  -37.0708 C   0  0  2  0  0  0  0  0  0  0  0  0
   21.2069  -56.2798  -38.2628 O   0  0  0  0  0  0  0  0  0  0  0  0
   18.7872  -55.5381  -37.6751 O   0  0  0  0  0  0  0  0  0  0  0  0
   19.7803  -58.9472  -37.7510 O   0  0  0  0  0  0  0  0  0  0  0  0
   20.9317  -58.3748  -37.1262 C   0  0  2  0  0  0  0  0  0  0  0  0
   21.1001  -58.9286  -35.7198 C   0  0  0  0  0  0  0  0  0  0  0  0
   22.2276  -58.2946  -35.1183 O   0  0  0  0  0  0  0  0  0  0  0  0
   22.6950  -58.6541  -33.6188 P   0  0  0  0  0  0  0  0  0  0  0  0
   23.0556  -60.1209  -33.6624 O   0  0  0  0  0  0  0  0  0  0  0  0
   21.4695  -58.3408  -32.7935 O   0  0  0  0  0  0  0  0  0  0  0  0
   23.8688  -57.7316  -33.3873 O   0  0  0  0  0  0  0  0  0  0  0  0
  1  2  2  0  0  0  0
  2  4  1  0  0  0  0
  2  3  1  0  0  0  0
  4  7  1  0  0  0  0
  5  9  1  0  0  0  0
  5  4  2  0  0  0  0
  6  5  1  0  0  0  0
  8  7  2  0  0  0  0
  9  8  1  0  0  0  0
 10 15  1  0  0  0  0
 10  9  1  1  0  0  0
 10 11  1  0  0  0  0
 11 14  1  6  0  0  0
 11 12  1  0  0  0  0
 12 13  1  6  0  0  0
 15 16  1  0  0  0  0
 16 12  1  0  0  0  0
 16 17  1  1  0  0  0
 17 18  1  0  0  0  0
 18 19  1  0  0  0  0
 19 21  1  0  0  0  0
 19 20  1  0  0  0  0
 22 19  2  0  0  0  0
M  END
>  <CHROM.1>
-0.05632162,108.94341124,-60.54321538,-179.80460714,61.71715822,19.07375877
-58.29301863,-36.34699808,2.81215322,-0.28197952,-0.96626355

>  <Name>
lig.pdb

>  <RI>
0

>  <Rbt.Current_Directory>
/home/itssahil/PROJECTS/Mol_Feturizer/New_Systems/rnas/5btp

>  <Rbt.Executable>
rbdock ($Id: //depot/dev/client3/rdock/2013.1/src/exe/rbdock.cxx#4 $)

>  <Rbt.Library>
libRbt.so (2013.1, Build901 2013/11/27)

>  <Rbt.Parameter_File>
/export/apps/rDock/src/rDock_2013.1_src/data/scripts/dock_solv.prm

>  <Rbt.Receptor>
prm/pocket_docking_2.prm

>  <SCORE>
-19.2435

>  <SCORE.INTER>
-17.8809

>  <SCORE.INTER.CONST>
1

>  <SCORE.INTER.POLAR>
0

>  <SCORE.INTER.ROT>
5

>  <SCORE.INTER.SOLV>
19.8861

>  <SCORE.INTER.VDW>
-25.4826

>  <SCORE.INTER.norm>
-0.812769

>  <SCORE.INTRA>
-1.36256

>  <SCORE.INTRA.DIHEDRAL>
-1.78173

>  <SCORE.INTRA.DIHEDRAL.0>
4.21161

>  <SCORE.INTRA.POLAR>
0

>  <SCORE.INTRA.POLAR.0>
0

>  <SCORE.INTRA.REPUL>
0

>  <SCORE.INTRA.REPUL.0>
0

>  <SCORE.INTRA.SOLV>
-0.239904

>  <SCORE.INTRA.SOLV.lig_0>
-41.4168

>  <SCORE.INTRA.VDW>
-0.351742

>  <SCORE.INTRA.VDW.0>
-1.62533

>  <SCORE.INTRA.norm>
-0.0619345

>  <SCORE.RESTR>
0

>  <SCORE.RESTR.CAVITY>
0

>  <SCORE.RESTR.norm>
0

>  <SCORE.SYSTEM>
0

>  <SCORE.SYSTEM.CONST>
0

>  <SCORE.SYSTEM.DIHEDRAL>
0

>  <SCORE.SYSTEM.SOLV>
0

>  <SCORE.SYSTEM.norm>
0

>  <SCORE.heavy>
22

>  <SCORE.norm>
-0.874704

>  <RMSD>
0.866

$$$$
lig.pdb
 OpenBabel11021811523D
libRbt.so/2013.1/901 2013/11/27
 22 23  0  0  0  0  0  0  0  0999 V2000
   13.4148  -58.4681  -38.5661 O   0  0  0  0  0  0  0  0  0  0  0  0
   13.7840  -59.0302  -37.5469 C   0  0  0  0  0  0  0  0  0  0  0  0
   12.9298  -59.6695  -36.7479 N   0  0  0  0  0  0  0  0  0  0  0  0
   15.2253  -58.9934  -37.1691 C   0  0  0  0  0  0  0  0  0  0  0  0
   16.2760  -58.3543  -37.9769 C   0  0  0  0  0  0  0  0  0  0  0  0
   16.0644  -57.6774  -39.2498 N   0  0  0  0  0  0  0  0  0  0  0  0
   15.8965  -59.4698  -36.0974 N   0  0  0  0  0  0  0  0  0  0  0  0
   17.2202  -59.1520  -36.2442 C   0  0  0  0  0  0  0  0  0  0  0  0
   17.4551  -58.4723  -37.3877 N   0  0  0  0  0  0  0  0  0  0  0  0
   18.7549  -57.9617  -37.8824 C   0  0  1  0  0  0  0  0  0  0  0  0
   19.2007  -56.7597  -37.0661 C   0  0  1  0  0  0  0  0  0  0  0  0
   20.7030  -56.8810  -37.0769 C   0  0  2  0  0  0  0  0  0  0  0  0
   21.2184  -56.2888  -38.2709 O   0  0  0  0  0  0  0  0  0  0  0  0
   18.8006  -55.5374  -37.6875 O   0  0  0  0  0  0  0  0  0  0  0  0
   19.7834  -58.9499  -37.7496 O   0  0  0  0  0  0  0  0  0  0  0  0
   20.9362  -58.3785  -37.1264 C   0  0  2  0  0  0  0  0  0  0  0  0
   21.1022  -58.9274  -35.7178 C   0  0  0  0  0  0  0  0  0  0  0  0
   22.2334  -58.2971  -35.1193 O   0  0  0  0  0  0  0  0  0  0  0  0
   22.7005  -58.6543  -33.6193 P   0  0  0  0  0  0  0  0  0  0  0  0
   23.8685  -57.7358  -33.3440 O   0  0  0  0  0  0  0  0  0  0  0  0
   23.0695  -60.1158  -33.7141 O   0  0  0  0  0  0  0  0  0  0  0  0
   21.4713  -58.3626  -32.7909 O   0  0  0  0  0  0  0  0  0  0  0  0
  1  2  2  0  0  0  0
  2  4  1  0  0  0  0
  2  3  1  0  0  0  0
  4  7  1  0  0  0  0
  5  9  1  0  0  0  0
  5  4  2  0  0  0  0
  6  5  1  0  0  0  0
  8  7  2  0  0  0  0
  9  8  1  0  0  0  0
 10 15  1  0  0  0  0
 10  9  1  1  0  0  0
 10 11  1  0  0  0  0
 11 14  1  6  0  0  0
 11 12  1  0  0  0  0
 12 13  1  6  0  0  0
 15 16  1  0  0  0  0
 16 12  1  0  0  0  0
 16 17  1  1  0  0  0
 17 18  1  0  0  0  0
 18 19  1  0  0  0  0
 19 21  1  0  0  0  0
 19 20  1  0  0  0  0
 22 19  2  0  0  0  0
M  END
>  <CHROM.1>
-2.33386569,107.01777108,-60.69524954,-179.72160573,-177.19252422,19.07734283
-58.28078271,-36.34405582,2.81023244,-0.27511656,-0.96578335

>  <Name>
lig.pdb

>  <RI>
0

>  <Rbt.Current_Directory>
/home/itssahil/PROJECTS/Mol_Feturizer/New_Systems/rnas/5btp

>  <Rbt.Executable>
rbdock ($Id: //depot/dev/client3/rdock/2013.1/src/exe/rbdock.cxx#4 $)

>  <Rbt.Library>
libRbt.so (2013.1, Build901 2013/11/27)

>  <Rbt.Parameter_File>
/export/apps/rDock/src/rDock_2013.1_src/data/scripts/dock_solv.prm

>  <Rbt.Receptor>
prm/pocket_docking_2.prm

>  <SCORE>
-18.9783

>  <SCORE.INTER>
-17.7736

>  <SCORE.INTER.CONST>
1

>  <SCORE.INTER.POLAR>
0

>  <SCORE.INTER.ROT>
5

>  <SCORE.INTER.SOLV>
20.1303

>  <SCORE.INTER.VDW>
-25.4925

>  <SCORE.INTER.norm>
-0.807891

>  <SCORE.INTRA>
-1.20469

>  <SCORE.INTRA.DIHEDRAL>
-1.7533

>  <SCORE.INTRA.DIHEDRAL.0>
4.21161

>  <SCORE.INTRA.POLAR>
0

>  <SCORE.INTRA.POLAR.0>
0

>  <SCORE.INTRA.REPUL>
0

>  <SCORE.INTRA.REPUL.0>
0

>  <SCORE.INTRA.SOLV>
0.00693555

>  <SCORE.INTRA.SOLV.lig_0>
-41.4168

>  <SCORE.INTRA.VDW>
-0.33151

>  <SCORE.INTRA.VDW.0>
-1.62533

>  <SCORE.INTRA.norm>
-0.0547586

>  <SCORE.RESTR>
0

>  <SCORE.RESTR.CAVITY>
0

>  <SCORE.RESTR.norm>
0

>  <SCORE.SYSTEM>
0

>  <SCORE.SYSTEM.CONST>
0

>  <SCORE.SYSTEM.DIHEDRAL>
0

>  <SCORE.SYSTEM.SOLV>
0

>  <SCORE.SYSTEM.norm>
0

>  <SCORE.heavy>
22

>  <SCORE.norm>
-0.86265

>  <RMSD>
0.866

$$$$
lig.pdb
 OpenBabel11021811523D
libRbt.so/2013.1/901 2013/11/27
 22 23  0  0  0  0  0  0  0  0999 V2000
   13.4329  -58.6346  -38.6114 O   0  0  0  0  0  0  0  0  0  0  0  0
   13.7941  -59.1140  -37.5481 C   0  0  0  0  0  0  0  0  0  0  0  0
   12.9369  -59.7068  -36.7170 N   0  0  0  0  0  0  0  0  0  0  0  0
   15.2282  -59.0256  -37.1523 C   0  0  0  0  0  0  0  0  0  0  0  0
   16.2781  -58.4103  -37.9793 C   0  0  0  0  0  0  0  0  0  0  0  0
   16.0725  -57.8098  -39.2909 N   0  0  0  0  0  0  0  0  0  0  0  0
   15.8923  -59.4274  -36.0460 N   0  0  0  0  0  0  0  0  0  0  0  0
   17.2113  -59.0902  -36.1914 C   0  0  0  0  0  0  0  0  0  0  0  0
   17.4500  -58.4702  -37.3676 N   0  0  0  0  0  0  0  0  0  0  0  0
   18.7467  -57.9605  -37.8713 C   0  0  1  0  0  0  0  0  0  0  0  0
   19.1960  -56.7551  -37.0620 C   0  0  1  0  0  0  0  0  0  0  0  0
   20.6983  -56.8753  -37.0806 C   0  0  2  0  0  0  0  0  0  0  0  0
   21.2066  -56.2870  -38.2796 O   0  0  0  0  0  0  0  0  0  0  0  0
   18.7915  -55.5355  -37.6855 O   0  0  0  0  0  0  0  0  0  0  0  0
   19.7767  -58.9473  -37.7406 O   0  0  0  0  0  0  0  0  0  0  0  0
   20.9325  -58.3728  -37.1259 C   0  0  2  0  0  0  0  0  0  0  0  0
   21.1067  -58.9163  -35.7162 C   0  0  0  0  0  0  0  0  0  0  0  0
   22.2238  -58.2626  -35.1164 O   0  0  0  0  0  0  0  0  0  0  0  0
   22.6791  -58.5894  -33.6058 P   0  0  0  0  0  0  0  0  0  0  0  0
   23.0505  -60.0542  -33.6173 O   0  0  0  0  0  0  0  0  0  0  0  0
   21.4434  -58.2691  -32.7985 O   0  0  0  0  0  0  0  0  0  0  0  0
   23.8440  -57.6542  -33.3810 O   0  0  0  0  0  0  0  0  0  0  0  0
  1  2  2  0  0  0  0
  2  4  1  0  0  0  0
  2  3  1  0  0  0  0
  4  7  1  0  0  0  0
  5  9  1  0  0  0  0
  5  4  2  0  0  0  0
  6  5  1  0  0  0  0
  8  7  2  0  0  0  0
  9  8  1  0  0  0  0
 10 15  1  0  0  0  0
 10  9  1  1  0  0  0
 10 11  1  0  0  0  0
 11 14  1  6  0  0  0
 11 12  1  0  0  0  0
 12 13  1  6  0  0  0
 15 16  1  0  0  0  0
 16 12  1  0  0  0  0
 16 17  1  1  0  0  0
 17 18  1  0  0  0  0
 18 19  1  0  0  0  0
 19 21  1  0  0  0  0
 19 20  1  0  0  0  0
 22 19  2  0  0  0  0
M  END
>  <CHROM.1>
-1.26632499,110.42452674,-59.49975434,179.17612692,61.71924441,19.07075102
-58.27730331,-36.33650397,2.81355333,-0.28365321,-0.98302376

>  <Name>
lig.pdb

>  <RI>
0

>  <Rbt.Current_Directory>
/home/itssahil/PROJECTS/Mol_Feturizer/New_Systems/rnas/5btp

>  <Rbt.Executable>
rbdock ($Id: //depot/dev/client3/rdock/2013.1/src/exe/rbdock.cxx#4 $)

>  <Rbt.Library>
libRbt.so (2013.1, Build901 2013/11/27)

>  <Rbt.Parameter_File>
/export/apps/rDock/src/rDock_2013.1_src/data/scripts/dock_solv.prm

>  <Rbt.Receptor>
prm/pocket_docking_5.prm

>  <SCORE>
-19.186

>  <SCORE.INTER>
-17.8433

>  <SCORE.INTER.CONST>
1

>  <SCORE.INTER.POLAR>
0

>  <SCORE.INTER.ROT>
5

>  <SCORE.INTER.SOLV>
19.9417

>  <SCORE.INTER.VDW>
-25.4761

>  <SCORE.INTER.norm>
-0.811058

>  <SCORE.INTRA>
-1.34271

>  <SCORE.INTRA.DIHEDRAL>
-1.77483

>  <SCORE.INTRA.DIHEDRAL.0>
4.21161

>  <SCORE.INTRA.POLAR>
0

>  <SCORE.INTRA.POLAR.0>
0

>  <SCORE.INTRA.REPUL>
0

>  <SCORE.INTRA.REPUL.0>
0

>  <SCORE.INTRA.SOLV>
-0.244517

>  <SCORE.INTRA.SOLV.lig_0>
-41.4168

>  <SCORE.INTRA.VDW>
-0.333033

>  <SCORE.INTRA.VDW.0>
-1.62533

>  <SCORE.INTRA.norm>
-0.0610322

>  <SCORE.RESTR>
0

>  <SCORE.RESTR.CAVITY>
0

>  <SCORE.RESTR.norm>
0

>  <SCORE.SYSTEM>
0

>  <SCORE.SYSTEM.CONST>
0

>  <SCORE.SYSTEM.DIHEDRAL>
0

>  <SCORE.SYSTEM.SOLV>
0

>  <SCORE.SYSTEM.norm>
0

>  <SCORE.heavy>
22

>  <SCORE.norm>
-0.87209

>  <RMSD>
0.866

$$$$
lig.pdb
 OpenBabel11021811523D
libRbt.so/2013.1/901 2013/11/27
 22 23  0  0  0  0  0  0  0  0999 V2000
   13.4345  -58.4930  -38.6098 O   0  0  0  0  0  0  0  0  0  0  0  0
   13.7930  -58.9916  -37.5544 C   0  0  0  0  0  0  0  0  0  0  0  0
   12.9287  -59.5708  -36.7211 N   0  0  0  0  0  0  0  0  0  0  0  0
   15.2324  -58.9430  -37.1712 C   0  0  0  0  0  0  0  0  0  0  0  0
   16.2850  -58.3172  -37.9869 C   0  0  0  0  0  0  0  0  0  0  0  0
   16.0771  -57.6665  -39.2740 N   0  0  0  0  0  0  0  0  0  0  0  0
   15.9003  -59.3959  -36.0871 N   0  0  0  0  0  0  0  0  0  0  0  0
   17.2237  -59.0772  -36.2345 C   0  0  0  0  0  0  0  0  0  0  0  0
   17.4617  -58.4199  -37.3904 N   0  0  0  0  0  0  0  0  0  0  0  0
   18.7623  -57.9155  -37.8895 C   0  0  1  0  0  0  0  0  0  0  0  0
   19.2472  -56.7557  -37.0353 C   0  0  1  0  0  0  0  0  0  0  0  0
   20.7463  -56.9058  -37.0797 C   0  0  2  0  0  0  0  0  0  0  0  0
   21.2515  -56.2768  -38.2592 O   0  0  0  0  0  0  0  0  0  0  0  0
   18.8606  -55.5023  -37.6004 O   0  0  0  0  0  0  0  0  0  0  0  0
   19.7729  -58.9281  -37.8153 O   0  0  0  0  0  0  0  0  0  0  0  0
   20.9483  -58.4044  -37.1924 C   0  0  2  0  0  0  0  0  0  0  0  0
   21.1290  -59.0118  -35.8099 C   0  0  0  0  0  0  0  0  0  0  0  0
   22.2564  -58.3947  -35.1908 O   0  0  0  0  0  0  0  0  0  0  0  0
   22.6794  -58.7416  -33.6753 P   0  0  0  0  0  0  0  0  0  0  0  0
   23.9124  -57.9083  -33.4127 O   0  0  0  0  0  0  0  0  0  0  0  0
   22.9348  -60.2295  -33.7229 O   0  0  0  0  0  0  0  0  0  0  0  0
   21.4683  -58.3310  -32.8709 O   0  0  0  0  0  0  0  0  0  0  0  0
  1  2  2  0  0  0  0
  2  4  1  0  0  0  0
  2  3  1  0  0  0  0
  4  7  1  0  0  0  0
  5  9  1  0  0  0  0
  5  4  2  0  0  0  0
  6  5  1  0  0  0  0
  8  7  2  0  0  0  0
  9  8  1  0  0  0  0
 10 15  1  0  0  0  0
 10  9  1  1  0  0  0
 10 11  1  0  0  0  0
 11 14  1  6  0  0  0
 11 12  1  0  0  0  0
 12 13  1  6  0  0  0
 15 16  1  0  0  0  0
 16 12  1  0  0  0  0
 16 17  1  1  0  0  0
 17 18  1  0  0  0  0
 18 19  1  0  0  0  0
 19 21  1  0  0  0  0
 19 20  1  0  0  0  0
 22 19  2  0  0  0  0
M  END
>  <CHROM.1>
0.29036039,110.90343318,-58.72111460,176.25556292,179.17539891,19.08432621
-58.28997019,-36.36652229,2.80872118,-0.26312911,-0.95859323

>  <Name>
lig.pdb

>  <RI>
0

>  <Rbt.Current_Directory>
/home/itssahil/PROJECTS/Mol_Feturizer/New_Systems/rnas/5btp

>  <Rbt.Executable>
rbdock ($Id: //depot/dev/client3/rdock/2013.1/src/exe/rbdock.cxx#4 $)

>  <Rbt.Library>
libRbt.so (2013.1, Build901 2013/11/27)

>  <Rbt.Parameter_File>
/export/apps/rDock/src/rDock_2013.1_src/data/scripts/dock_solv.prm

>  <Rbt.Receptor>
prm/pocket_docking_2.prm

>  <SCORE>
-18.8456

>  <SCORE.INTER>
-17.6689

>  <SCORE.INTER.CONST>
1

>  <SCORE.INTER.POLAR>
0

>  <SCORE.INTER.ROT>
5

>  <SCORE.INTER.SOLV>
20.1334

>  <SCORE.INTER.VDW>
-25.4238

>  <SCORE.INTER.norm>
-0.803133

>  <SCORE.INTRA>
-1.17668

>  <SCORE.INTRA.DIHEDRAL>
-1.71436

>  <SCORE.INTRA.DIHEDRAL.0>
4.21161

>  <SCORE.INTRA.POLAR>
0

>  <SCORE.INTRA.POLAR.0>
0

>  <SCORE.INTRA.REPUL>
0

>  <SCORE.INTRA.REPUL.0>
0

>  <SCORE.INTRA.SOLV>
-0.00616825

>  <SCORE.INTRA.SOLV.lig_0>
-41.4168

>  <SCORE.INTRA.VDW>
-0.316414

>  <SCORE.INTRA.VDW.0>
-1.62533

>  <SCORE.INTRA.norm>
-0.0534854

>  <SCORE.RESTR>
0

>  <SCORE.RESTR.CAVITY>
0

>  <SCORE.RESTR.norm>
0

>  <SCORE.SYSTEM>
0

>  <SCORE.SYSTEM.CONST>
0

>  <SCORE.SYSTEM.DIHEDRAL>
0

>  <SCORE.SYSTEM.SOLV>
0

>  <SCORE.SYSTEM.norm>
0

>  <SCORE.heavy>
22

>  <SCORE.norm>
-0.856619

>  <RMSD>
0.867

$$$$
lig.pdb
 OpenBabel11021811523D
libRbt.so/2013.1/901 2013/11/27
 22 23  0  0  0  0  0  0  0  0999 V2000
   13.4137  -58.6301  -38.6110 O   0  0  0  0  0  0  0  0  0  0  0  0
   13.7724  -59.1243  -37.5536 C   0  0  0  0  0  0  0  0  0  0  0  0
   12.9126  -59.7252  -36.7311 N   0  0  0  0  0  0  0  0  0  0  0  0
   15.2063  -59.0452  -37.1553 C   0  0  0  0  0  0  0  0  0  0  0  0
   16.2575  -58.4153  -37.9697 C   0  0  0  0  0  0  0  0  0  0  0  0
   16.0534  -57.7894  -39.2696 N   0  0  0  0  0  0  0  0  0  0  0  0
   15.8693  -59.4690  -36.0566 N   0  0  0  0  0  0  0  0  0  0  0  0
   17.1888  -59.1306  -36.1946 C   0  0  0  0  0  0  0  0  0  0  0  0
   17.4289  -58.4884  -37.3585 N   0  0  0  0  0  0  0  0  0  0  0  0
   18.7265  -57.9705  -37.8515 C   0  0  1  0  0  0  0  0  0  0  0  0
   19.1753  -56.7796  -37.0206 C   0  0  1  0  0  0  0  0  0  0  0  0
   20.6776  -56.9002  -37.0393 C   0  0  2  0  0  0  0  0  0  0  0  0
   21.1877  -56.2913  -38.2272 O   0  0  0  0  0  0  0  0  0  0  0  0
   18.7722  -55.5491  -37.6233 O   0  0  0  0  0  0  0  0  0  0  0  0
   19.7559  -58.9600  -37.7367 O   0  0  0  0  0  0  0  0  0  0  0  0
   20.9112  -58.3968  -37.1105 C   0  0  2  0  0  0  0  0  0  0  0  0
   21.0832  -58.9650  -35.7103 C   0  0  0  0  0  0  0  0  0  0  0  0
   22.2178  -58.3439  -35.1086 O   0  0  0  0  0  0  0  0  0  0  0  0
   22.6827  -58.7111  -33.6103 P   0  0  0  0  0  0  0  0  0  0  0  0
   22.9897  -60.1902  -33.6473 O   0  0  0  0  0  0  0  0  0  0  0  0
   21.4755  -58.3486  -32.7783 O   0  0  0  0  0  0  0  0  0  0  0  0
   23.8909  -57.8305  -33.3929 O   0  0  0  0  0  0  0  0  0  0  0  0
  1  2  2  0  0  0  0
  2  4  1  0  0  0  0
  2  3  1  0  0  0  0
  4  7  1  0  0  0  0
  5  9  1  0  0  0  0
  5  4  2  0  0  0  0
  6  5  1  0  0  0  0
  8  7  2  0  0  0  0
  9  8  1  0  0  0  0
 10 15  1  0  0  0  0
 10  9  1  1  0  0  0
 10 11  1  0  0  0  0
 11 14  1  6  0  0  0
 11 12  1  0  0  0  0
 12 13  1  6  0  0  0
 15 16  1  0  0  0  0
 16 12  1  0  0  0  0
 16 17  1  1  0  0  0
 17 18  1  0  0  0  0
 18 19  1  0  0  0  0
 19 21  1  0  0  0  0
 19 20  1  0  0  0  0
 22 19  2  0  0  0  0
M  END
>  <CHROM.1>
-0.88497055,110.30736926,-60.77205033,179.65012644,60.12051642,19.05668496
-58.32357462,-36.32677334,2.81394637,-0.28154710,-0.95760139

>  <Name>
lig.pdb

>  <RI>
0

>  <Rbt.Current_Directory>
/home/itssahil/PROJECTS/Mol_Feturizer/New_Systems/rnas/5btp

>  <Rbt.Executable>
rbdock ($Id: //depot/dev/client3/rdock/2013.1/src/exe/rbdock.cxx#4 $)

>  <Rbt.Library>
libRbt.so (2013.1, Build901 2013/11/27)

>  <Rbt.Parameter_File>
/export/apps/rDock/src/rDock_2013.1_src/data/scripts/dock_solv.prm

>  <Rbt.Receptor>
prm/pocket_docking_7.prm

>  <SCORE>
-19.2461

>  <SCORE.INTER>
-17.8736

>  <SCORE.INTER.CONST>
1

>  <SCORE.INTER.POLAR>
0

>  <SCORE.INTER.ROT>
5

>  <SCORE.INTER.SOLV>
19.8711

>  <SCORE.INTER.VDW>
-25.4728

>  <SCORE.INTER.norm>
-0.812438

>  <SCORE.INTRA>
-1.37247

>  <SCORE.INTRA.DIHEDRAL>
-1.78311

>  <SCORE.INTRA.DIHEDRAL.0>
4.21161

>  <SCORE.INTRA.POLAR>
0

>  <SCORE.INTRA.POLAR.0>
0

>  <SCORE.INTRA.REPUL>
0

>  <SCORE.INTRA.REPUL.0>
0

>  <SCORE.INTRA.SOLV>
-0.252332

>  <SCORE.INTRA.SOLV.lig_0>
-41.4168

>  <SCORE.INTRA.VDW>
-0.354747

>  <SCORE.INTRA.VDW.0>
-1.62533

>  <SCORE.INTRA.norm>
-0.062385

>  <SCORE.RESTR>
0

>  <SCORE.RESTR.CAVITY>
0

>  <SCORE.RESTR.norm>
0

>  <SCORE.SYSTEM>
0

>  <SCORE.SYSTEM.CONST>
0

>  <SCORE.SYSTEM.DIHEDRAL>
0

>  <SCORE.SYSTEM.SOLV>
0

>  <SCORE.SYSTEM.norm>
0

>  <SCORE.heavy>
22

>  <SCORE.norm>
-0.874823

>  <RMSD>
0.867

$$$$
lig.pdb
 OpenBabel11021811523D
libRbt.so/2013.1/901 2013/11/27
 22 23  0  0  0  0  0  0  0  0999 V2000
   13.4500  -58.4913  -38.6049 O   0  0  0  0  0  0  0  0  0  0  0  0
   13.8166  -59.0277  -37.5710 C   0  0  0  0  0  0  0  0  0  0  0  0
   12.9609  -59.6505  -36.7607 N   0  0  0  0  0  0  0  0  0  0  0  0
   15.2560  -58.9771  -37.1881 C   0  0  0  0  0  0  0  0  0  0  0  0
   16.3057  -58.3397  -37.9985 C   0  0  0  0  0  0  0  0  0  0  0  0
   16.0945  -57.6778  -39.2793 N   0  0  0  0  0  0  0  0  0  0  0  0
   15.9262  -59.4376  -36.1087 N   0  0  0  0  0  0  0  0  0  0  0  0
   17.2483  -59.1125  -36.2537 C   0  0  0  0  0  0  0  0  0  0  0  0
   17.4831  -58.4434  -37.4035 N   0  0  0  0  0  0  0  0  0  0  0  0
   18.7815  -57.9294  -37.8986 C   0  0  1  0  0  0  0  0  0  0  0  0
   19.2566  -56.7679  -37.0412 C   0  0  1  0  0  0  0  0  0  0  0  0
   20.7567  -56.9079  -37.0822 C   0  0  2  0  0  0  0  0  0  0  0  0
   21.2605  -56.2734  -38.2593 O   0  0  0  0  0  0  0  0  0  0  0  0
   18.8629  -55.5161  -37.6049 O   0  0  0  0  0  0  0  0  0  0  0  0
   19.7987  -58.9353  -37.8238 O   0  0  0  0  0  0  0  0  0  0  0  0
   20.9690  -58.4049  -37.1972 C   0  0  2  0  0  0  0  0  0  0  0  0
   21.1505  -59.0136  -35.8153 C   0  0  0  0  0  0  0  0  0  0  0  0
   22.2920  -58.4136  -35.2053 O   0  0  0  0  0  0  0  0  0  0  0  0
   22.7505  -58.8036  -33.7108 P   0  0  0  0  0  0  0  0  0  0  0  0
   23.9731  -57.9568  -33.4431 O   0  0  0  0  0  0  0  0  0  0  0  0
   23.0317  -60.2840  -33.8139 O   0  0  0  0  0  0  0  0  0  0  0  0
   21.5481  -58.4430  -32.8703 O   0  0  0  0  0  0  0  0  0  0  0  0
  1  2  2  0  0  0  0
  2  4  1  0  0  0  0
  2  3  1  0  0  0  0
  4  7  1  0  0  0  0
  5  9  1  0  0  0  0
  5  4  2  0  0  0  0
  6  5  1  0  0  0  0
  8  7  2  0  0  0  0
  9  8  1  0  0  0  0
 10 15  1  0  0  0  0
 10  9  1  1  0  0  0
 10 11  1  0  0  0  0
 11 14  1  6  0  0  0
 11 12  1  0  0  0  0
 12 13  1  6  0  0  0
 15 16  1  0  0  0  0
 16 12  1  0  0  0  0
 16 17  1  1  0  0  0
 17 18  1  0  0  0  0
 18 19  1  0  0  0  0
 19 21  1  0  0  0  0
 19 20  1  0  0  0  0
 22 19  2  0  0  0  0
M  END
>  <CHROM.1>
-1.55214539,110.41163716,-60.13513057,178.40396910,-179.72821857,19.11759653
-58.32049371,-36.38368640,2.81442236,-0.26551970,-0.93789404

>  <Name>
lig.pdb

>  <RI>
0

>  <Rbt.Current_Directory>
/home/itssahil/PROJECTS/Mol_Feturizer/New_Systems/rnas/5btp

>  <Rbt.Executable>
rbdock ($Id: //depot/dev/client3/rdock/2013.1/src/exe/rbdock.cxx#4 $)

>  <Rbt.Library>
libRbt.so (2013.1, Build901 2013/11/27)

>  <Rbt.Parameter_File>
/export/apps/rDock/src/rDock_2013.1_src/data/scripts/dock_solv.prm

>  <Rbt.Receptor>
prm/pocket_docking_2.prm

>  <SCORE>
-18.9525

>  <SCORE.INTER>
-17.7418

>  <SCORE.INTER.CONST>
1

>  <SCORE.INTER.POLAR>
0

>  <SCORE.INTER.ROT>
5

>  <SCORE.INTER.SOLV>
20.068

>  <SCORE.INTER.VDW>
-25.4505

>  <SCORE.INTER.norm>
-0.806443

>  <SCORE.INTRA>
-1.21071

>  <SCORE.INTRA.DIHEDRAL>
-1.76818

>  <SCORE.INTRA.DIHEDRAL.0>
4.21161

>  <SCORE.INTRA.POLAR>
0

>  <SCORE.INTRA.POLAR.0>
0

>  <SCORE.INTRA.REPUL>
0

>  <SCORE.INTRA.REPUL.0>
0

>  <SCORE.INTRA.SOLV>
-0.0202958

>  <SCORE.INTRA.SOLV.lig_0>
-41.4168

>  <SCORE.INTRA.VDW>
-0.316472

>  <SCORE.INTRA.VDW.0>
-1.62533

>  <SCORE.INTRA.norm>
-0.0550323

>  <SCORE.RESTR>
0

>  <SCORE.RESTR.CAVITY>
0

>  <SCORE.RESTR.norm>
0

>  <SCORE.SYSTEM>
0

>  <SCORE.SYSTEM.CONST>
0

>  <SCORE.SYSTEM.DIHEDRAL>
0

>  <SCORE.SYSTEM.SOLV>
0

>  <SCORE.SYSTEM.norm>
0

>  <SCORE.heavy>
22

>  <SCORE.norm>
-0.861476

>  <RMSD>
0.868

$$$$
lig.pdb
 OpenBabel11021811523D
libRbt.so/2013.1/901 2013/11/27
 22 23  0  0  0  0  0  0  0  0999 V2000
   13.4075  -58.6037  -38.5812 O   0  0  0  0  0  0  0  0  0  0  0  0
   13.7743  -59.1078  -37.5313 C   0  0  0  0  0  0  0  0  0  0  0  0
   12.9213  -59.7182  -36.7088 N   0  0  0  0  0  0  0  0  0  0  0  0
   15.2110  -59.0306  -37.1424 C   0  0  0  0  0  0  0  0  0  0  0  0
   16.2583  -58.4054  -37.9655 C   0  0  0  0  0  0  0  0  0  0  0  0
   16.0472  -57.7832  -39.2660 N   0  0  0  0  0  0  0  0  0  0  0  0
   15.8801  -59.4523  -36.0467 N   0  0  0  0  0  0  0  0  0  0  0  0
   17.1994  -59.1172  -36.1941 C   0  0  0  0  0  0  0  0  0  0  0  0
   17.4334  -58.4791  -37.3616 N   0  0  0  0  0  0  0  0  0  0  0  0
   18.7289  -57.9656  -37.8645 C   0  0  1  0  0  0  0  0  0  0  0  0
   19.1805  -56.7667  -37.0467 C   0  0  1  0  0  0  0  0  0  0  0  0
   20.6828  -56.8871  -37.0700 C   0  0  2  0  0  0  0  0  0  0  0  0
   21.1882  -56.2893  -38.2656 O   0  0  0  0  0  0  0  0  0  0  0  0
   18.7747  -55.5421  -37.6594 O   0  0  0  0  0  0  0  0  0  0  0  0
   19.7591  -58.9536  -37.7442 O   0  0  0  0  0  0  0  0  0  0  0  0
   20.9166  -58.3842  -37.1279 C   0  0  2  0  0  0  0  0  0  0  0  0
   21.0942  -58.9390  -35.7230 C   0  0  0  0  0  0  0  0  0  0  0  0
   22.2231  -58.3024  -35.1269 O   0  0  0  0  0  0  0  0  0  0  0  0
   22.6883  -58.6485  -33.6236 P   0  0  0  0  0  0  0  0  0  0  0  0
   22.9791  -60.1313  -33.6355 O   0  0  0  0  0  0  0  0  0  0  0  0
   21.4874  -58.2584  -32.7949 O   0  0  0  0  0  0  0  0  0  0  0  0
   23.9065  -57.7774  -33.4248 O   0  0  0  0  0  0  0  0  0  0  0  0
  1  2  2  0  0  0  0
  2  4  1  0  0  0  0
  2  3  1  0  0  0  0
  4  7  1  0  0  0  0
  5  9  1  0  0  0  0
  5  4  2  0  0  0  0
  6  5  1  0  0  0  0
  8  7  2  0  0  0  0
  9  8  1  0  0  0  0
 10 15  1  0  0  0  0
 10  9  1  1  0  0  0
 10 11  1  0  0  0  0
 11 14  1  6  0  0  0
 11 12  1  0  0  0  0
 12 13  1  6  0  0  0
 15 16  1  0  0  0  0
 16 12  1  0  0  0  0
 16 17  1  1  0  0  0
 17 18  1  0  0  0  0
 18 19  1  0  0  0  0
 19 21  1  0  0  0  0
 19 20  1  0  0  0  0
 22 19  2  0  0  0  0
M  END
>  <CHROM.1>
-1.66316842,109.88944817,-60.22034863,179.40343765,58.99926015,19.06091409
-58.29737335,-36.33436212,2.81670887,-0.27974238,-0.96879553

>  <Name>
lig.pdb

>  <RI>
0

>  <Rbt.Current_Directory>
/home/itssahil/PROJECTS/Mol_Feturizer/New_Systems/rnas/5btp

>  <Rbt.Executable>
rbdock ($Id: //depot/dev/client3/rdock/2013.1/src/exe/rbdock.cxx#4 $)

>  <Rbt.Library>
libRbt.so (2013.1, Build901 2013/11/27)

>  <Rbt.Parameter_File>
/export/apps/rDock/src/rDock_2013.1_src/data/scripts/dock_solv.prm

>  <Rbt.Receptor>
prm/pocket_docking_5.prm

>  <SCORE>
-19.2537

>  <SCORE.INTER>
-17.8917

>  <SCORE.INTER.CONST>
1

>  <SCORE.INTER.POLAR>
0

>  <SCORE.INTER.ROT>
5

>  <SCORE.INTER.SOLV>
19.9214

>  <SCORE.INTER.VDW>
-25.5016

>  <SCORE.INTER.norm>
-0.81326

>  <SCORE.INTRA>
-1.36198

>  <SCORE.INTRA.DIHEDRAL>
-1.77614

>  <SCORE.INTRA.DIHEDRAL.0>
4.21161

>  <SCORE.INTRA.POLAR>
0

>  <SCORE.INTRA.POLAR.0>
0

>  <SCORE.INTRA.REPUL>
0

>  <SCORE.INTRA.REPUL.0>
0

>  <SCORE.INTRA.SOLV>
-0.24413

>  <SCORE.INTRA.SOLV.lig_0>
-41.4168

>  <SCORE.INTRA.VDW>
-0.351842

>  <SCORE.INTRA.VDW.0>
-1.62533

>  <SCORE.INTRA.norm>
-0.061908

>  <SCORE.RESTR>
0

>  <SCORE.RESTR.CAVITY>
0

>  <SCORE.RESTR.norm>
0

>  <SCORE.SYSTEM>
0

>  <SCORE.SYSTEM.CONST>
0

>  <SCORE.SYSTEM.DIHEDRAL>
0

>  <SCORE.SYSTEM.SOLV>
0

>  <SCORE.SYSTEM.norm>
0

>  <SCORE.heavy>
22

>  <SCORE.norm>
-0.875168

>  <RMSD>
0.870

$$$$
lig.pdb
 OpenBabel11021811523D
libRbt.so/2013.1/901 2013/11/27
 22 23  0  0  0  0  0  0  0  0999 V2000
   13.4382  -58.6175  -38.5980 O   0  0  0  0  0  0  0  0  0  0  0  0
   13.7995  -59.1115  -37.5414 C   0  0  0  0  0  0  0  0  0  0  0  0
   12.9416  -59.7111  -36.7160 N   0  0  0  0  0  0  0  0  0  0  0  0
   15.2348  -59.0339  -37.1475 C   0  0  0  0  0  0  0  0  0  0  0  0
   16.2842  -58.4056  -37.9654 C   0  0  0  0  0  0  0  0  0  0  0  0
   16.0769  -57.7801  -39.2650 N   0  0  0  0  0  0  0  0  0  0  0  0
   15.9007  -59.4580  -36.0507 N   0  0  0  0  0  0  0  0  0  0  0  0
   17.2201  -59.1212  -36.1928 C   0  0  0  0  0  0  0  0  0  0  0  0
   17.4574  -58.4798  -37.3578 N   0  0  0  0  0  0  0  0  0  0  0  0
   18.7541  -57.9636  -37.8550 C   0  0  1  0  0  0  0  0  0  0  0  0
   19.2370  -56.8124  -36.9881 C   0  0  1  0  0  0  0  0  0  0  0  0
   20.7366  -56.9555  -37.0394 C   0  0  2  0  0  0  0  0  0  0  0  0
   21.2350  -56.3097  -38.2127 O   0  0  0  0  0  0  0  0  0  0  0  0
   18.8431  -55.5537  -37.5362 O   0  0  0  0  0  0  0  0  0  0  0  0
   19.7693  -58.9726  -37.7969 O   0  0  0  0  0  0  0  0  0  0  0  0
   20.9446  -58.4517  -37.1715 C   0  0  2  0  0  0  0  0  0  0  0  0
   21.1326  -59.0754  -35.7972 C   0  0  0  0  0  0  0  0  0  0  0  0
   22.2765  -58.4813  -35.1858 O   0  0  0  0  0  0  0  0  0  0  0  0
   22.7505  -58.8981  -33.7034 P   0  0  0  0  0  0  0  0  0  0  0  0
   23.0752  -60.3710  -33.7960 O   0  0  0  0  0  0  0  0  0  0  0  0
   21.5416  -58.5814  -32.8553 O   0  0  0  0  0  0  0  0  0  0  0  0
   23.9486  -58.0114  -33.4567 O   0  0  0  0  0  0  0  0  0  0  0  0
  1  2  2  0  0  0  0
  2  4  1  0  0  0  0
  2  3  1  0  0  0  0
  4  7  1  0  0  0  0
  5  9  1  0  0  0  0
  5  4  2  0  0  0  0
  6  5  1  0  0  0  0
  8  7  2  0  0  0  0
  9  8  1  0  0  0  0
 10 15  1  0  0  0  0
 10  9  1  1  0  0  0
 10 11  1  0  0  0  0
 11 14  1  6  0  0  0
 11 12  1  0  0  0  0
 12 13  1  6  0  0  0
 15 16  1  0  0  0  0
 16 12  1  0  0  0  0
 16 17  1  1  0  0  0
 17 18  1  0  0  0  0
 18 19  1  0  0  0  0
 19 21  1  0  0  0  0
 19 20  1  0  0  0  0
 22 19  2  0  0  0  0
M  END
>  <CHROM.1>
-0.88303724,112.82327017,-59.93877594,179.02194417,61.32166609,19.10186104
-58.38434267,-36.35353767,2.81884989,-0.26586525,-0.92766121

>  <Name>
lig.pdb

>  <RI>
0

>  <Rbt.Current_Directory>
/home/itssahil/PROJECTS/Mol_Feturizer/New_Systems/rnas/5btp

>  <Rbt.Executable>
rbdock ($Id: //depot/dev/client3/rdock/2013.1/src/exe/rbdock.cxx#4 $)

>  <Rbt.Library>
libRbt.so (2013.1, Build901 2013/11/27)

>  <Rbt.Parameter_File>
/export/apps/rDock/src/rDock_2013.1_src/data/scripts/dock_solv.prm

>  <Rbt.Receptor>
prm/pocket_docking_7.prm

>  <SCORE>
-19.2012

>  <SCORE.INTER>
-17.8477

>  <SCORE.INTER.CONST>
1

>  <SCORE.INTER.POLAR>
0

>  <SCORE.INTER.ROT>
5

>  <SCORE.INTER.SOLV>
19.8471

>  <SCORE.INTER.VDW>
-25.4475

>  <SCORE.INTER.norm>
-0.811258

>  <SCORE.INTRA>
-1.35354

>  <SCORE.INTRA.DIHEDRAL>
-1.77971

>  <SCORE.INTRA.DIHEDRAL.0>
4.21161

>  <SCORE.INTRA.POLAR>
0

>  <SCORE.INTRA.POLAR.0>
0

>  <SCORE.INTRA.REPUL>
0

>  <SCORE.INTRA.REPUL.0>
0

>  <SCORE.INTRA.SOLV>
-0.269507

>  <SCORE.INTRA.SOLV.lig_0>
-41.4168

>  <SCORE.INTRA.VDW>
-0.328926

>  <SCORE.INTRA.VDW.0>
-1.62533

>  <SCORE.INTRA.norm>
-0.0615244

>  <SCORE.RESTR>
0

>  <SCORE.RESTR.CAVITY>
0

>  <SCORE.RESTR.norm>
0

>  <SCORE.SYSTEM>
0

>  <SCORE.SYSTEM.CONST>
0

>  <SCORE.SYSTEM.DIHEDRAL>
0

>  <SCORE.SYSTEM.SOLV>
0

>  <SCORE.SYSTEM.norm>
0

>  <SCORE.heavy>
22

>  <SCORE.norm>
-0.872783

>  <RMSD>
0.872

$$$$
lig.pdb
 OpenBabel11021811523D
libRbt.so/2013.1/901 2013/11/27
 22 23  0  0  0  0  0  0  0  0999 V2000
   13.4524  -58.6091  -38.5909 O   0  0  0  0  0  0  0  0  0  0  0  0
   13.8276  -59.1012  -37.5382 C   0  0  0  0  0  0  0  0  0  0  0  0
   12.9812  -59.7026  -36.7023 N   0  0  0  0  0  0  0  0  0  0  0  0
   15.2672  -59.0191  -37.1614 C   0  0  0  0  0  0  0  0  0  0  0  0
   16.3021  -58.3738  -37.9845 C   0  0  0  0  0  0  0  0  0  0  0  0
   16.0744  -57.7337  -39.2735 N   0  0  0  0  0  0  0  0  0  0  0  0
   15.9495  -59.4522  -36.0783 N   0  0  0  0  0  0  0  0  0  0  0  0
   17.2648  -59.1050  -36.2328 C   0  0  0  0  0  0  0  0  0  0  0  0
   17.4834  -58.4478  -37.3925 N   0  0  0  0  0  0  0  0  0  0  0  0
   18.7703  -57.9170  -37.8995 C   0  0  1  0  0  0  0  0  0  0  0  0
   19.2285  -56.7371  -37.0581 C   0  0  1  0  0  0  0  0  0  0  0  0
   20.7307  -56.8511  -37.1041 C   0  0  2  0  0  0  0  0  0  0  0  0
   21.2182  -56.2220  -38.2910 O   0  0  0  0  0  0  0  0  0  0  0  0
   18.8104  -55.4992  -37.6350 O   0  0  0  0  0  0  0  0  0  0  0  0
   19.8054  -58.9038  -37.8172 O   0  0  0  0  0  0  0  0  0  0  0  0
   20.9689  -58.3454  -37.2022 C   0  0  2  0  0  0  0  0  0  0  0  0
   21.1669  -58.9342  -35.8139 C   0  0  0  0  0  0  0  0  0  0  0  0
   22.3303  -58.3441  -35.2364 O   0  0  0  0  0  0  0  0  0  0  0  0
   22.8369  -58.7508  -33.7620 P   0  0  0  0  0  0  0  0  0  0  0  0
   24.0509  -57.8860  -33.5130 O   0  0  0  0  0  0  0  0  0  0  0  0
   23.1419  -60.2237  -33.8985 O   0  0  0  0  0  0  0  0  0  0  0  0
   21.6518  -58.4269  -32.8828 O   0  0  0  0  0  0  0  0  0  0  0  0
  1  2  2  0  0  0  0
  2  4  1  0  0  0  0
  2  3  1  0  0  0  0
  4  7  1  0  0  0  0
  5  9  1  0  0  0  0
  5  4  2  0  0  0  0
  6  5  1  0  0  0  0
  8  7  2  0  0  0  0
  9  8  1  0  0  0  0
 10 15  1  0  0  0  0
 10  9  1  1  0  0  0
 10 11  1  0  0  0  0
 11 14  1  6  0  0  0
 11 12  1  0  0  0  0
 12 13  1  6  0  0  0
 15 16  1  0  0  0  0
 16 12  1  0  0  0  0
 16 17  1  1  0  0  0
 17 18  1  0  0  0  0
 18 19  1  0  0  0  0
 19 21  1  0  0  0  0
 19 20  1  0  0  0  0
 22 19  2  0  0  0  0
M  END
>  <CHROM.1>
-0.09908676,110.52896327,-62.33136760,-179.68892390,-178.37467284,19.13799441
-58.30678496,-36.39380253,2.83243870,-0.27211896,-0.92852994

>  <Name>
lig.pdb

>  <RI>
0

>  <Rbt.Current_Directory>
/home/itssahil/PROJECTS/Mol_Feturizer/New_Systems/rnas/5btp

>  <Rbt.Executable>
rbdock ($Id: //depot/dev/client3/rdock/2013.1/src/exe/rbdock.cxx#4 $)

>  <Rbt.Library>
libRbt.so (2013.1, Build901 2013/11/27)

>  <Rbt.Parameter_File>
/export/apps/rDock/src/rDock_2013.1_src/data/scripts/dock_solv.prm

>  <Rbt.Receptor>
prm/pocket_docking_4.prm

>  <SCORE>
-18.9285

>  <SCORE.INTER>
-17.7053

>  <SCORE.INTER.CONST>
1

>  <SCORE.INTER.POLAR>
0

>  <SCORE.INTER.ROT>
5

>  <SCORE.INTER.SOLV>
20.0952

>  <SCORE.INTER.VDW>
-25.4353

>  <SCORE.INTER.norm>
-0.804788

>  <SCORE.INTRA>
-1.22314

>  <SCORE.INTRA.DIHEDRAL>
-1.76249

>  <SCORE.INTRA.DIHEDRAL.0>
4.21161

>  <SCORE.INTRA.POLAR>
0

>  <SCORE.INTRA.POLAR.0>
0

>  <SCORE.INTRA.REPUL>
0

>  <SCORE.INTRA.REPUL.0>
0

>  <SCORE.INTRA.SOLV>
-0.0410948

>  <SCORE.INTRA.SOLV.lig_0>
-41.4168

>  <SCORE.INTRA.VDW>
-0.321355

>  <SCORE.INTRA.VDW.0>
-1.62533

>  <SCORE.INTRA.norm>
-0.0555975

>  <SCORE.RESTR>
0

>  <SCORE.RESTR.CAVITY>
0

>  <SCORE.RESTR.norm>
0

>  <SCORE.SYSTEM>
0

>  <SCORE.SYSTEM.CONST>
0

>  <SCORE.SYSTEM.DIHEDRAL>
0

>  <SCORE.SYSTEM.SOLV>
0

>  <SCORE.SYSTEM.norm>
0

>  <SCORE.heavy>
22

>  <SCORE.norm>
-0.860385

>  <RMSD>
0.873

$$$$
lig.pdb
 OpenBabel11021811523D
libRbt.so/2013.1/901 2013/11/27
 22 23  0  0  0  0  0  0  0  0999 V2000
   13.4102  -58.6618  -38.6112 O   0  0  0  0  0  0  0  0  0  0  0  0
   13.7730  -59.1319  -37.5443 C   0  0  0  0  0  0  0  0  0  0  0  0
   12.9172  -59.7180  -36.7070 N   0  0  0  0  0  0  0  0  0  0  0  0
   15.2076  -59.0394  -37.1512 C   0  0  0  0  0  0  0  0  0  0  0  0
   16.2532  -58.4163  -37.9779 C   0  0  0  0  0  0  0  0  0  0  0  0
   16.0423  -57.8111  -39.2865 N   0  0  0  0  0  0  0  0  0  0  0  0
   15.8758  -59.4431  -36.0481 N   0  0  0  0  0  0  0  0  0  0  0  0
   17.1931  -59.1000  -36.1949 C   0  0  0  0  0  0  0  0  0  0  0  0
   17.4267  -58.4741  -37.3690 N   0  0  0  0  0  0  0  0  0  0  0  0
   18.7202  -57.9569  -37.8733 C   0  0  1  0  0  0  0  0  0  0  0  0
   19.1636  -56.7496  -37.0635 C   0  0  1  0  0  0  0  0  0  0  0  0
   20.6665  -56.8617  -37.0833 C   0  0  2  0  0  0  0  0  0  0  0  0
   21.1707  -56.2699  -38.2824 O   0  0  0  0  0  0  0  0  0  0  0  0
   18.7520  -55.5319  -37.6860 O   0  0  0  0  0  0  0  0  0  0  0  0
   19.7557  -58.9383  -37.7440 O   0  0  0  0  0  0  0  0  0  0  0  0
   20.9088  -58.3578  -37.1298 C   0  0  2  0  0  0  0  0  0  0  0  0
   21.0870  -58.9013  -35.7206 C   0  0  0  0  0  0  0  0  0  0  0  0
   22.1869  -58.2258  -35.1132 O   0  0  0  0  0  0  0  0  0  0  0  0
   22.6462  -58.5529  -33.6039 P   0  0  0  0  0  0  0  0  0  0  0  0
   22.9675  -60.0295  -33.6039 O   0  0  0  0  0  0  0  0  0  0  0  0
   21.4305  -58.1825  -32.7878 O   0  0  0  0  0  0  0  0  0  0  0  0
   23.8445  -57.6557  -33.4003 O   0  0  0  0  0  0  0  0  0  0  0  0
  1  2  2  0  0  0  0
  2  4  1  0  0  0  0
  2  3  1  0  0  0  0
  4  7  1  0  0  0  0
  5  9  1  0  0  0  0
  5  4  2  0  0  0  0
  6  5  1  0  0  0  0
  8  7  2  0  0  0  0
  9  8  1  0  0  0  0
 10 15  1  0  0  0  0
 10  9  1  1  0  0  0
 10 11  1  0  0  0  0
 11 14  1  6  0  0  0
 11 12  1  0  0  0  0
 12 13  1  6  0  0  0
 15 16  1  0  0  0  0
 16 12  1  0  0  0  0
 16 17  1  1  0  0  0
 17 18  1  0  0  0  0
 18 19  1  0  0  0  0
 19 21  1  0  0  0  0
 19 20  1  0  0  0  0
 22 19  2  0  0  0  0
M  END
>  <CHROM.1>
-0.50145821,110.18921179,-58.53126327,179.52487503,58.18735351,19.04319304
-58.26763648,-36.33628100,2.81617994,-0.28782742,-0.98556032

>  <Name>
lig.pdb

>  <RI>
0

>  <Rbt.Current_Directory>
/home/itssahil/PROJECTS/Mol_Feturizer/New_Systems/rnas/5btp

>  <Rbt.Executable>
rbdock ($Id: //depot/dev/client3/rdock/2013.1/src/exe/rbdock.cxx#4 $)

>  <Rbt.Library>
libRbt.so (2013.1, Build901 2013/11/27)

>  <Rbt.Parameter_File>
/export/apps/rDock/src/rDock_2013.1_src/data/scripts/dock_solv.prm

>  <Rbt.Receptor>
prm/pocket_docking_2.prm

>  <SCORE>
-19.2002

>  <SCORE.INTER>
-17.8669

>  <SCORE.INTER.CONST>
1

>  <SCORE.INTER.POLAR>
0

>  <SCORE.INTER.ROT>
5

>  <SCORE.INTER.SOLV>
20.0385

>  <SCORE.INTER.VDW>
-25.5241

>  <SCORE.INTER.norm>
-0.812133

>  <SCORE.INTRA>
-1.33333

>  <SCORE.INTRA.DIHEDRAL>
-1.77573

>  <SCORE.INTRA.DIHEDRAL.0>
4.21161

>  <SCORE.INTRA.POLAR>
0

>  <SCORE.INTRA.POLAR.0>
0

>  <SCORE.INTRA.REPUL>
0

>  <SCORE.INTRA.REPUL.0>
0

>  <SCORE.INTRA.SOLV>
-0.238645

>  <SCORE.INTRA.SOLV.lig_0>
-41.4168

>  <SCORE.INTRA.VDW>
-0.326136

>  <SCORE.INTRA.VDW.0>
-1.62533

>  <SCORE.INTRA.norm>
-0.0606057

>  <SCORE.RESTR>
0

>  <SCORE.RESTR.CAVITY>
0

>  <SCORE.RESTR.norm>
0

>  <SCORE.SYSTEM>
0

>  <SCORE.SYSTEM.CONST>
0

>  <SCORE.SYSTEM.DIHEDRAL>
0

>  <SCORE.SYSTEM.SOLV>
0

>  <SCORE.SYSTEM.norm>
0

>  <SCORE.heavy>
22

>  <SCORE.norm>
-0.872738

>  <RMSD>
0.875

$$$$
lig.pdb
 OpenBabel11021811523D
libRbt.so/2013.1/901 2013/11/27
 22 23  0  0  0  0  0  0  0  0999 V2000
   13.4456  -58.6845  -38.6154 O   0  0  0  0  0  0  0  0  0  0  0  0
   13.8025  -59.1404  -37.5403 C   0  0  0  0  0  0  0  0  0  0  0  0
   12.9398  -59.7033  -36.6942 N   0  0  0  0  0  0  0  0  0  0  0  0
   15.2376  -59.0562  -37.1472 C   0  0  0  0  0  0  0  0  0  0  0  0
   16.2829  -58.4193  -37.9636 C   0  0  0  0  0  0  0  0  0  0  0  0
   16.0711  -57.7903  -39.2609 N   0  0  0  0  0  0  0  0  0  0  0  0
   15.9066  -59.4804  -36.0523 N   0  0  0  0  0  0  0  0  0  0  0  0
   17.2241  -59.1359  -36.1943 C   0  0  0  0  0  0  0  0  0  0  0  0
   17.4570  -58.4891  -37.3572 N   0  0  0  0  0  0  0  0  0  0  0  0
   18.7504  -57.9641  -37.8535 C   0  0  1  0  0  0  0  0  0  0  0  0
   19.2522  -56.8464  -36.9541 C   0  0  1  0  0  0  0  0  0  0  0  0
   20.7500  -56.9968  -37.0302 C   0  0  2  0  0  0  0  0  0  0  0  0
   21.2373  -56.3140  -38.1872 O   0  0  0  0  0  0  0  0  0  0  0  0
   18.8594  -55.5672  -37.4533 O   0  0  0  0  0  0  0  0  0  0  0  0
   19.7596  -58.9807  -37.8437 O   0  0  0  0  0  0  0  0  0  0  0  0
   20.9464  -58.4888  -37.2165 C   0  0  2  0  0  0  0  0  0  0  0  0
   21.1483  -59.1607  -35.8671 C   0  0  0  0  0  0  0  0  0  0  0  0
   22.3057  -58.5972  -35.2522 O   0  0  0  0  0  0  0  0  0  0  0  0
   22.8031  -59.0760  -33.7964 P   0  0  0  0  0  0  0  0  0  0  0  0
   24.0478  -58.2644  -33.5217 O   0  0  0  0  0  0  0  0  0  0  0  0
   23.0553  -60.5526  -33.9889 O   0  0  0  0  0  0  0  0  0  0  0  0
   21.6334  -58.7435  -32.8999 O   0  0  0  0  0  0  0  0  0  0  0  0
  1  2  2  0  0  0  0
  2  4  1  0  0  0  0
  2  3  1  0  0  0  0
  4  7  1  0  0  0  0
  5  9  1  0  0  0  0
  5  4  2  0  0  0  0
  6  5  1  0  0  0  0
  8  7  2  0  0  0  0
  9  8  1  0  0  0  0
 10 15  1  0  0  0  0
 10  9  1  1  0  0  0
 10 11  1  0  0  0  0
 11 14  1  6  0  0  0
 11 12  1  0  0  0  0
 12 13  1  6  0  0  0
 15 16  1  0  0  0  0
 16 12  1  0  0  0  0
 16 17  1  1  0  0  0
 17 18  1  0  0  0  0
 18 19  1  0  0  0  0
 19 21  1  0  0  0  0
 19 20  1  0  0  0  0
 22 19  2  0  0  0  0
M  END
>  <CHROM.1>
1.57368533,114.85168434,-60.06959026,179.47649693,179.22040063,19.11925769
-58.45253522,-36.37987009,2.82589805,-0.25621485,-0.89391419

>  <Name>
lig.pdb

>  <RI>
0

>  <Rbt.Current_Directory>
/home/itssahil/PROJECTS/Mol_Feturizer/New_Systems/rnas/5btp

>  <Rbt.Executable>
rbdock ($Id: //depot/dev/client3/rdock/2013.1/src/exe/rbdock.cxx#4 $)

>  <Rbt.Library>
libRbt.so (2013.1, Build901 2013/11/27)

>  <Rbt.Parameter_File>
/export/apps/rDock/src/rDock_2013.1_src/data/scripts/dock_solv.prm

>  <Rbt.Receptor>
prm/pocket_docking_2.prm

>  <SCORE>
-18.8647

>  <SCORE.INTER>
-17.6493

>  <SCORE.INTER.CONST>
1

>  <SCORE.INTER.POLAR>
0

>  <SCORE.INTER.ROT>
5

>  <SCORE.INTER.SOLV>
20.167

>  <SCORE.INTER.VDW>
-25.4219

>  <SCORE.INTER.norm>
-0.802243

>  <SCORE.INTRA>
-1.21538

>  <SCORE.INTRA.DIHEDRAL>
-1.77974

>  <SCORE.INTRA.DIHEDRAL.0>
4.21161

>  <SCORE.INTRA.POLAR>
0

>  <SCORE.INTRA.POLAR.0>
0

>  <SCORE.INTRA.REPUL>
0

>  <SCORE.INTRA.REPUL.0>
0

>  <SCORE.INTRA.SOLV>
-0.0730642

>  <SCORE.INTRA.SOLV.lig_0>
-41.4168

>  <SCORE.INTRA.VDW>
-0.288984

>  <SCORE.INTRA.VDW.0>
-1.62533

>  <SCORE.INTRA.norm>
-0.0552447

>  <SCORE.RESTR>
0

>  <SCORE.RESTR.CAVITY>
0

>  <SCORE.RESTR.norm>
0

>  <SCORE.SYSTEM>
0

>  <SCORE.SYSTEM.CONST>
0

>  <SCORE.SYSTEM.DIHEDRAL>
0

>  <SCORE.SYSTEM.SOLV>
0

>  <SCORE.SYSTEM.norm>
0

>  <SCORE.heavy>
22

>  <SCORE.norm>
-0.857488

>  <RMSD>
0.896

$$$$
lig.pdb
 OpenBabel11021811523D
libRbt.so/2013.1/901 2013/11/27
 22 23  0  0  0  0  0  0  0  0999 V2000
   13.7610  -58.2109  -38.8893 O   0  0  0  0  0  0  0  0  0  0  0  0
   13.9053  -58.7181  -37.7880 C   0  0  0  0  0  0  0  0  0  0  0  0
   12.8646  -59.1082  -37.0520 N   0  0  0  0  0  0  0  0  0  0  0  0
   15.2781  -58.8965  -37.2360 C   0  0  0  0  0  0  0  0  0  0  0  0
   16.5012  -58.3963  -37.8830 C   0  0  0  0  0  0  0  0  0  0  0  0
   16.5486  -57.6673  -39.1438 N   0  0  0  0  0  0  0  0  0  0  0  0
   15.7355  -59.4883  -36.1104 N   0  0  0  0  0  0  0  0  0  0  0  0
   17.0983  -59.3599  -36.0817 C   0  0  0  0  0  0  0  0  0  0  0  0
   17.5683  -58.6951  -37.1596 N   0  0  0  0  0  0  0  0  0  0  0  0
   18.9786  -58.3647  -37.4710 C   0  0  1  0  0  0  0  0  0  0  0  0
   19.2326  -56.8786  -37.2788 C   0  0  1  0  0  0  0  0  0  0  0  0
   20.6682  -56.8365  -36.8216 C   0  0  2  0  0  0  0  0  0  0  0  0
   21.5300  -56.8587  -37.9612 O   0  0  0  0  0  0  0  0  0  0  0  0
   19.0861  -56.1672  -38.5086 O   0  0  0  0  0  0  0  0  0  0  0  0
   19.8771  -59.0499  -36.5906 O   0  0  0  0  0  0  0  0  0  0  0  0
   20.8320  -58.1326  -36.0517 C   0  0  2  0  0  0  0  0  0  0  0  0
   20.5637  -57.8983  -34.5731 C   0  0  0  0  0  0  0  0  0  0  0  0
   21.1801  -58.9496  -33.8315 O   0  0  0  0  0  0  0  0  0  0  0  0
   22.7814  -59.0482  -33.6827 P   0  0  0  0  0  0  0  0  0  0  0  0
   23.0168  -60.2154  -32.7523 O   0  0  0  0  0  0  0  0  0  0  0  0
   23.1547  -57.7055  -33.1005 O   0  0  0  0  0  0  0  0  0  0  0  0
   23.2512  -59.2781  -35.1000 O   0  0  0  0  0  0  0  0  0  0  0  0
  1  2  2  0  0  0  0
  2  4  1  0  0  0  0
  2  3  1  0  0  0  0
  4  7  1  0  0  0  0
  5  9  1  0  0  0  0
  5  4  2  0  0  0  0
  6  5  1  0  0  0  0
  8  7  2  0  0  0  0
  9  8  1  0  0  0  0
 10 15  1  0  0  0  0
 10  9  1  1  0  0  0
 10 11  1  0  0  0  0
 11 14  1  6  0  0  0
 11 12  1  0  0  0  0
 12 13  1  6  0  0  0
 15 16  1  0  0  0  0
 16 12  1  0  0  0  0
 16 17  1  1  0  0  0
 17 18  1  0  0  0  0
 18 19  1  0  0  0  0
 19 21  1  0  0  0  0
 19 20  1  0  0  0  0
 22 19  2  0  0  0  0
M  END
>  <CHROM.1>
5.36879000,72.23808380,-159.01883261,71.26237979,175.76250298,19.14043861
-58.39385621,-36.21712485,-2.74780187,0.24778292,2.17235254

>  <Name>
lig.pdb

>  <RI>
0

>  <Rbt.Current_Directory>
/home/itssahil/PROJECTS/Mol_Feturizer/New_Systems/rnas/5btp

>  <Rbt.Executable>
rbdock ($Id: //depot/dev/client3/rdock/2013.1/src/exe/rbdock.cxx#4 $)

>  <Rbt.Library>
libRbt.so (2013.1, Build901 2013/11/27)

>  <Rbt.Parameter_File>
/export/apps/rDock/src/rDock_2013.1_src/data/scripts/dock_solv.prm

>  <Rbt.Receptor>
prm/pocket_docking_2.prm

>  <SCORE>
-15.682

>  <SCORE.INTER>
-16.199

>  <SCORE.INTER.CONST>
1

>  <SCORE.INTER.POLAR>
0

>  <SCORE.INTER.ROT>
5

>  <SCORE.INTER.SOLV>
19.1639

>  <SCORE.INTER.VDW>
-24.1207

>  <SCORE.INTER.norm>
-0.73632

>  <SCORE.INTRA>
0.503908

>  <SCORE.INTRA.DIHEDRAL>
0.363347

>  <SCORE.INTRA.DIHEDRAL.0>
4.21161

>  <SCORE.INTRA.POLAR>
0

>  <SCORE.INTRA.POLAR.0>
0

>  <SCORE.INTRA.REPUL>
0

>  <SCORE.INTRA.REPUL.0>
0

>  <SCORE.INTRA.SOLV>
1.54616

>  <SCORE.INTRA.SOLV.lig_0>
-41.4168

>  <SCORE.INTRA.VDW>
-0.450844

>  <SCORE.INTRA.VDW.0>
-1.62533

>  <SCORE.INTRA.norm>
0.0229049

>  <SCORE.RESTR>
0.0131252

>  <SCORE.RESTR.CAVITY>
0.0131252

>  <SCORE.RESTR.norm>
0.000596602

>  <SCORE.SYSTEM>
0

>  <SCORE.SYSTEM.CONST>
0

>  <SCORE.SYSTEM.DIHEDRAL>
0

>  <SCORE.SYSTEM.SOLV>
0

>  <SCORE.SYSTEM.norm>
0

>  <SCORE.heavy>
22

>  <SCORE.norm>
-0.712818

>  <RMSD>
0.943

$$$$
lig.pdb
 OpenBabel11021811523D
libRbt.so/2013.1/901 2013/11/27
 22 23  0  0  0  0  0  0  0  0999 V2000
   13.1434  -59.6651  -36.8619 O   0  0  0  0  0  0  0  0  0  0  0  0
   13.9562  -59.0959  -37.5736 C   0  0  0  0  0  0  0  0  0  0  0  0
   13.6067  -58.5385  -38.7329 N   0  0  0  0  0  0  0  0  0  0  0  0
   15.3837  -59.0304  -37.1505 C   0  0  0  0  0  0  0  0  0  0  0  0
   16.4510  -58.3918  -37.9367 C   0  0  0  0  0  0  0  0  0  0  0  0
   16.2712  -57.7431  -39.2289 N   0  0  0  0  0  0  0  0  0  0  0  0
   16.0265  -59.4758  -36.0484 N   0  0  0  0  0  0  0  0  0  0  0  0
   17.3496  -59.1414  -36.1589 C   0  0  0  0  0  0  0  0  0  0  0  0
   17.6118  -58.4808  -37.3076 N   0  0  0  0  0  0  0  0  0  0  0  0
   18.9197  -57.9608  -37.7704 C   0  0  1  0  0  0  0  0  0  0  0  0
   19.1362  -56.5421  -37.2701 C   0  0  1  0  0  0  0  0  0  0  0  0
   20.6292  -56.4761  -37.0739 C   0  0  2  0  0  0  0  0  0  0  0  0
   21.2575  -56.1569  -38.3171 O   0  0  0  0  0  0  0  0  0  0  0  0
   18.7245  -55.5831  -38.2451 O   0  0  0  0  0  0  0  0  0  0  0  0
   20.0008  -58.7457  -37.2536 O   0  0  0  0  0  0  0  0  0  0  0  0
   20.9973  -57.8942  -36.6829 C   0  0  2  0  0  0  0  0  0  0  0  0
   21.0058  -58.0320  -35.1683 C   0  0  0  0  0  0  0  0  0  0  0  0
   21.5877  -59.2909  -34.8340 O   0  0  0  0  0  0  0  0  0  0  0  0
   21.9071  -59.6917  -33.3065 P   0  0  0  0  0  0  0  0  0  0  0  0
   20.5759  -59.6159  -32.5954 O   0  0  0  0  0  0  0  0  0  0  0  0
   22.9009  -58.6387  -32.8766 O   0  0  0  0  0  0  0  0  0  0  0  0
   22.4720  -61.0881  -33.4216 O   0  0  0  0  0  0  0  0  0  0  0  0
  1  2  2  0  0  0  0
  2  4  1  0  0  0  0
  2  3  1  0  0  0  0
  4  7  1  0  0  0  0
  5  9  1  0  0  0  0
  5  4  2  0  0  0  0
  6  5  1  0  0  0  0
  8  7  2  0  0  0  0
  9  8  1  0  0  0  0
 10 15  1  0  0  0  0
 10  9  1  1  0  0  0
 10 11  1  0  0  0  0
 11 14  1  6  0  0  0
 11 12  1  0  0  0  0
 12 13  1  6  0  0  0
 15 16  1  0  0  0  0
 16 12  1  0  0  0  0
 16 17  1  1  0  0  0
 17 18  1  0  0  0  0
 18 19  1  0  0  0  0
 19 21  1  0  0  0  0
 19 20  1  0  0  0  0
 22 19  2  0  0  0  0
M  END
>  <CHROM.1>
178.94779075,90.57713933,-169.51559525,172.92235210,58.63716545,18.92047809
-58.50019613,-36.21321589,2.68824533,-0.28511611,-0.87580018

>  <Name>
lig.pdb

>  <RI>
0

>  <Rbt.Current_Directory>
/home/itssahil/PROJECTS/Mol_Feturizer/New_Systems/rnas/5btp

>  <Rbt.Executable>
rbdock ($Id: //depot/dev/client3/rdock/2013.1/src/exe/rbdock.cxx#4 $)

>  <Rbt.Library>
libRbt.so (2013.1, Build901 2013/11/27)

>  <Rbt.Parameter_File>
/export/apps/rDock/src/rDock_2013.1_src/data/scripts/dock_solv.prm

>  <Rbt.Receptor>
prm/pocket_docking_2.prm

>  <SCORE>
-18.7807

>  <SCORE.INTER>
-17.6346

>  <SCORE.INTER.CONST>
1

>  <SCORE.INTER.POLAR>
0

>  <SCORE.INTER.ROT>
5

>  <SCORE.INTER.SOLV>
19.6806

>  <SCORE.INTER.VDW>
-25.25

>  <SCORE.INTER.norm>
-0.801574

>  <SCORE.INTRA>
-1.14603

>  <SCORE.INTRA.DIHEDRAL>
-1.15782

>  <SCORE.INTRA.DIHEDRAL.0>
4.21161

>  <SCORE.INTRA.POLAR>
0

>  <SCORE.INTRA.POLAR.0>
0

>  <SCORE.INTRA.REPUL>
0

>  <SCORE.INTRA.REPUL.0>
0

>  <SCORE.INTRA.SOLV>
-0.0386833

>  <SCORE.INTRA.SOLV.lig_0>
-41.4168

>  <SCORE.INTRA.VDW>
-0.547775

>  <SCORE.INTRA.VDW.0>
-1.62533

>  <SCORE.INTRA.norm>
-0.0520922

>  <SCORE.RESTR>
0

>  <SCORE.RESTR.CAVITY>
0

>  <SCORE.RESTR.norm>
0

>  <SCORE.SYSTEM>
0

>  <SCORE.SYSTEM.CONST>
0

>  <SCORE.SYSTEM.DIHEDRAL>
0

>  <SCORE.SYSTEM.SOLV>
0

>  <SCORE.SYSTEM.norm>
0

>  <SCORE.heavy>
22

>  <SCORE.norm>
-0.853666

>  <RMSD>
1.025

$$$$
lig.pdb
 OpenBabel11021811523D
libRbt.so/2013.1/901 2013/11/27
 22 23  0  0  0  0  0  0  0  0999 V2000
   13.5940  -58.5907  -38.6263 O   0  0  0  0  0  0  0  0  0  0  0  0
   13.9333  -59.0923  -37.5659 C   0  0  0  0  0  0  0  0  0  0  0  0
   13.0559  -59.6847  -36.7559 N   0  0  0  0  0  0  0  0  0  0  0  0
   15.3630  -59.0322  -37.1496 C   0  0  0  0  0  0  0  0  0  0  0  0
   16.4304  -58.4048  -37.9446 C   0  0  0  0  0  0  0  0  0  0  0  0
   16.2485  -57.7633  -39.2402 N   0  0  0  0  0  0  0  0  0  0  0  0
   16.0083  -59.4742  -36.0475 N   0  0  0  0  0  0  0  0  0  0  0  0
   17.3327  -59.1481  -36.1661 C   0  0  0  0  0  0  0  0  0  0  0  0
   17.5935  -58.4964  -37.3202 N   0  0  0  0  0  0  0  0  0  0  0  0
   18.9022  -57.9869  -37.7922 C   0  0  1  0  0  0  0  0  0  0  0  0
   19.2071  -56.6375  -37.1626 C   0  0  1  0  0  0  0  0  0  0  0  0
   20.7088  -56.6548  -37.0347 C   0  0  2  0  0  0  0  0  0  0  0  0
   21.2950  -56.2359  -38.2688 O   0  0  0  0  0  0  0  0  0  0  0  0
   18.7974  -55.5668  -38.0144 O   0  0  0  0  0  0  0  0  0  0  0  0
   19.9675  -58.8655  -37.4111 O   0  0  0  0  0  0  0  0  0  0  0  0
   21.0273  -58.1198  -36.8073 C   0  0  2  0  0  0  0  0  0  0  0  0
   21.0972  -58.4131  -35.3166 C   0  0  0  0  0  0  0  0  0  0  0  0
   21.4513  -59.7841  -35.1436 O   0  0  0  0  0  0  0  0  0  0  0  0
   21.7861  -60.3900  -33.6887 P   0  0  0  0  0  0  0  0  0  0  0  0
   20.6613  -59.9146  -32.7986 O   0  0  0  0  0  0  0  0  0  0  0  0
   23.1312  -59.7835  -33.3661 O   0  0  0  0  0  0  0  0  0  0  0  0
   21.8031  -61.8819  -33.9262 O   0  0  0  0  0  0  0  0  0  0  0  0
  1  2  2  0  0  0  0
  2  4  1  0  0  0  0
  2  3  1  0  0  0  0
  4  7  1  0  0  0  0
  5  9  1  0  0  0  0
  5  4  2  0  0  0  0
  6  5  1  0  0  0  0
  8  7  2  0  0  0  0
  9  8  1  0  0  0  0
 10 15  1  0  0  0  0
 10  9  1  1  0  0  0
 10 11  1  0  0  0  0
 11 14  1  6  0  0  0
 11 12  1  0  0  0  0
 12 13  1  6  0  0  0
 15 16  1  0  0  0  0
 16 12  1  0  0  0  0
 16 17  1  1  0  0  0
 17 18  1  0  0  0  0
 18 19  1  0  0  0  0
 19 21  1  0  0  0  0
 19 20  1  0  0  0  0
 22 19  2  0  0  0  0
M  END
>  <CHROM.1>
-0.43369591,97.62181908,-177.67727773,172.55687840,48.01048299,18.89240426
-58.74250256,-36.32537343,2.68292033,-0.23992587,-0.77208280

>  <Name>
lig.pdb

>  <RI>
0

>  <Rbt.Current_Directory>
/home/itssahil/PROJECTS/Mol_Feturizer/New_Systems/rnas/5btp

>  <Rbt.Executable>
rbdock ($Id: //depot/dev/client3/rdock/2013.1/src/exe/rbdock.cxx#4 $)

>  <Rbt.Library>
libRbt.so (2013.1, Build901 2013/11/27)

>  <Rbt.Parameter_File>
/export/apps/rDock/src/rDock_2013.1_src/data/scripts/dock_solv.prm

>  <Rbt.Receptor>
prm/pocket_docking_3.prm

>  <SCORE>
-19.4717

>  <SCORE.INTER>
-18.1097

>  <SCORE.INTER.CONST>
1

>  <SCORE.INTER.POLAR>
0

>  <SCORE.INTER.ROT>
5

>  <SCORE.INTER.SOLV>
19.7619

>  <SCORE.INTER.VDW>
-25.5938

>  <SCORE.INTER.norm>
-0.82317

>  <SCORE.INTRA>
-1.362

>  <SCORE.INTRA.DIHEDRAL>
-1.27142

>  <SCORE.INTRA.DIHEDRAL.0>
4.21161

>  <SCORE.INTRA.POLAR>
0

>  <SCORE.INTRA.POLAR.0>
0

>  <SCORE.INTRA.REPUL>
0

>  <SCORE.INTRA.REPUL.0>
0

>  <SCORE.INTRA.SOLV>
-0.331545

>  <SCORE.INTRA.SOLV.lig_0>
-41.4168

>  <SCORE.INTRA.VDW>
-0.56052

>  <SCORE.INTRA.VDW.0>
-1.62533

>  <SCORE.INTRA.norm>
-0.0619093

>  <SCORE.RESTR>
0

>  <SCORE.RESTR.CAVITY>
0

>  <SCORE.RESTR.norm>
0

>  <SCORE.SYSTEM>
0

>  <SCORE.SYSTEM.CONST>
0

>  <SCORE.SYSTEM.DIHEDRAL>
0

>  <SCORE.SYSTEM.SOLV>
0

>  <SCORE.SYSTEM.norm>
0

>  <SCORE.heavy>
22

>  <SCORE.norm>
-0.885079

>  <RMSD>
1.033

$$$$
lig.pdb
 OpenBabel11021811523D
libRbt.so/2013.1/901 2013/11/27
 22 23  0  0  0  0  0  0  0  0999 V2000
   12.8730  -59.0602  -37.0932 O   0  0  0  0  0  0  0  0  0  0  0  0
   13.8311  -58.7288  -37.7738 C   0  0  0  0  0  0  0  0  0  0  0  0
   13.6830  -58.2350  -39.0031 N   0  0  0  0  0  0  0  0  0  0  0  0
   15.2092  -58.8913  -37.2300 C   0  0  0  0  0  0  0  0  0  0  0  0
   16.4279  -58.4309  -37.9138 C   0  0  0  0  0  0  0  0  0  0  0  0
   16.4653  -57.7622  -39.2079 N   0  0  0  0  0  0  0  0  0  0  0  0
   15.6759  -59.4330  -36.0832 N   0  0  0  0  0  0  0  0  0  0  0  0
   17.0398  -59.3135  -36.0763 C   0  0  0  0  0  0  0  0  0  0  0  0
   17.5014  -58.7034  -37.1896 N   0  0  0  0  0  0  0  0  0  0  0  0
   18.9101  -58.3984  -37.5324 C   0  0  1  0  0  0  0  0  0  0  0  0
   19.2277  -56.9422  -37.2346 C   0  0  1  0  0  0  0  0  0  0  0  0
   20.6804  -56.9869  -36.8355 C   0  0  2  0  0  0  0  0  0  0  0  0
   21.4961  -56.9476  -38.0082 O   0  0  0  0  0  0  0  0  0  0  0  0
   19.0608  -56.1299  -38.3974 O   0  0  0  0  0  0  0  0  0  0  0  0
   19.8153  -59.1829  -36.7468 O   0  0  0  0  0  0  0  0  0  0  0  0
   20.8246  -58.3455  -36.1775 C   0  0  2  0  0  0  0  0  0  0  0  0
   20.6228  -58.2214  -34.6752 C   0  0  0  0  0  0  0  0  0  0  0  0
   21.7485  -57.5398  -34.1245 O   0  0  0  0  0  0  0  0  0  0  0  0
   23.1233  -58.3134  -33.7965 P   0  0  0  0  0  0  0  0  0  0  0  0
   22.7858  -59.2443  -32.6550 O   0  0  0  0  0  0  0  0  0  0  0  0
   24.0666  -57.1937  -33.4258 O   0  0  0  0  0  0  0  0  0  0  0  0
   23.4491  -59.0140  -35.0948 O   0  0  0  0  0  0  0  0  0  0  0  0
  1  2  2  0  0  0  0
  2  4  1  0  0  0  0
  2  3  1  0  0  0  0
  4  7  1  0  0  0  0
  5  9  1  0  0  0  0
  5  4  2  0  0  0  0
  6  5  1  0  0  0  0
  8  7  2  0  0  0  0
  9  8  1  0  0  0  0
 10 15  1  0  0  0  0
 10  9  1  1  0  0  0
 10 11  1  0  0  0  0
 11 14  1  6  0  0  0
 11 12  1  0  0  0  0
 12 13  1  6  0  0  0
 15 16  1  0  0  0  0
 16 12  1  0  0  0  0
 16 17  1  1  0  0  0
 17 18  1  0  0  0  0
 18 19  1  0  0  0  0
 19 21  1  0  0  0  0
 19 20  1  0  0  0  0
 22 19  2  0  0  0  0
M  END
>  <CHROM.1>
-175.00087684,79.85525733,-70.76118259,-81.73647906,-67.57082795,19.20918591
-58.21855428,-36.26651980,2.80006099,-0.26020066,-1.06612342

>  <Name>
lig.pdb

>  <RI>
0

>  <Rbt.Current_Directory>
/home/itssahil/PROJECTS/Mol_Feturizer/New_Systems/rnas/5btp

>  <Rbt.Executable>
rbdock ($Id: //depot/dev/client3/rdock/2013.1/src/exe/rbdock.cxx#4 $)

>  <Rbt.Library>
libRbt.so (2013.1, Build901 2013/11/27)

>  <Rbt.Parameter_File>
/export/apps/rDock/src/rDock_2013.1_src/data/scripts/dock_solv.prm

>  <Rbt.Receptor>
prm/pocket_docking_2.prm

>  <SCORE>
-15.7444

>  <SCORE.INTER>
-16.3607

>  <SCORE.INTER.CONST>
1

>  <SCORE.INTER.POLAR>
0

>  <SCORE.INTER.ROT>
5

>  <SCORE.INTER.SOLV>
19.1802

>  <SCORE.INTER.VDW>
-24.2339

>  <SCORE.INTER.norm>
-0.743669

>  <SCORE.INTRA>
0.616338

>  <SCORE.INTRA.DIHEDRAL>
0.897618

>  <SCORE.INTRA.DIHEDRAL.0>
4.21161

>  <SCORE.INTRA.POLAR>
0

>  <SCORE.INTRA.POLAR.0>
0

>  <SCORE.INTRA.REPUL>
0

>  <SCORE.INTRA.REPUL.0>
0

>  <SCORE.INTRA.SOLV>
1.52837

>  <SCORE.INTRA.SOLV.lig_0>
-41.4168

>  <SCORE.INTRA.VDW>
-0.596656

>  <SCORE.INTRA.VDW.0>
-1.62533

>  <SCORE.INTRA.norm>
0.0280154

>  <SCORE.RESTR>
0

>  <SCORE.RESTR.CAVITY>
0

>  <SCORE.RESTR.norm>
0

>  <SCORE.SYSTEM>
0

>  <SCORE.SYSTEM.CONST>
0

>  <SCORE.SYSTEM.DIHEDRAL>
0

>  <SCORE.SYSTEM.SOLV>
0

>  <SCORE.SYSTEM.norm>
0

>  <SCORE.heavy>
22

>  <SCORE.norm>
-0.715654

>  <RMSD>
1.061

$$$$
lig.pdb
 OpenBabel11021811523D
libRbt.so/2013.1/901 2013/11/27
 22 23  0  0  0  0  0  0  0  0999 V2000
   12.8366  -59.0401  -37.0791 O   0  0  0  0  0  0  0  0  0  0  0  0
   13.8037  -58.7301  -37.7572 C   0  0  0  0  0  0  0  0  0  0  0  0
   13.6705  -58.2502  -38.9936 N   0  0  0  0  0  0  0  0  0  0  0  0
   15.1757  -58.9038  -37.2017 C   0  0  0  0  0  0  0  0  0  0  0  0
   16.4058  -58.4778  -37.8876 C   0  0  0  0  0  0  0  0  0  0  0  0
   16.4616  -57.8368  -39.1950 N   0  0  0  0  0  0  0  0  0  0  0  0
   15.6269  -59.4291  -36.0413 N   0  0  0  0  0  0  0  0  0  0  0  0
   16.9925  -59.3318  -36.0285 C   0  0  0  0  0  0  0  0  0  0  0  0
   17.4705  -58.7526  -37.1514 N   0  0  0  0  0  0  0  0  0  0  0  0
   18.8860  -58.4779  -37.4918 C   0  0  1  0  0  0  0  0  0  0  0  0
   19.2292  -57.0243  -37.2103 C   0  0  1  0  0  0  0  0  0  0  0  0
   20.6793  -57.0910  -36.8046 C   0  0  2  0  0  0  0  0  0  0  0  0
   21.5003  -57.0810  -37.9743 O   0  0  0  0  0  0  0  0  0  0  0  0
   19.0822  -56.2232  -38.3835 O   0  0  0  0  0  0  0  0  0  0  0  0
   19.7734  -59.2693  -36.6930 O   0  0  0  0  0  0  0  0  0  0  0  0
   20.7956  -58.4439  -36.1296 C   0  0  2  0  0  0  0  0  0  0  0  0
   20.5901  -58.2978  -34.6298 C   0  0  0  0  0  0  0  0  0  0  0  0
   21.7360  -57.6504  -34.0793 O   0  0  0  0  0  0  0  0  0  0  0  0
   23.0885  -58.4641  -33.7560 P   0  0  0  0  0  0  0  0  0  0  0  0
   22.6845  -59.5066  -32.7394 O   0  0  0  0  0  0  0  0  0  0  0  0
   24.0103  -57.3961  -33.2166 O   0  0  0  0  0  0  0  0  0  0  0  0
   23.4878  -59.0276  -35.0996 O   0  0  0  0  0  0  0  0  0  0  0  0
  1  2  2  0  0  0  0
  2  4  1  0  0  0  0
  2  3  1  0  0  0  0
  4  7  1  0  0  0  0
  5  9  1  0  0  0  0
  5  4  2  0  0  0  0
  6  5  1  0  0  0  0
  8  7  2  0  0  0  0
  9  8  1  0  0  0  0
 10 15  1  0  0  0  0
 10  9  1  1  0  0  0
 10 11  1  0  0  0  0
 11 14  1  6  0  0  0
 11 12  1  0  0  0  0
 12 13  1  6  0  0  0
 15 16  1  0  0  0  0
 16 12  1  0  0  0  0
 16 17  1  1  0  0  0
 17 18  1  0  0  0  0
 18 19  1  0  0  0  0
 19 21  1  0  0  0  0
 19 20  1  0  0  0  0
 22 19  2  0  0  0  0
M  END
>  <CHROM.1>
-175.49501796,80.37273528,-71.71058170,-80.82779125,-60.66083254,19.18457327
-58.30169800,-36.23268706,2.78805968,-0.24497636,-1.07588396

>  <Name>
lig.pdb

>  <RI>
0

>  <Rbt.Current_Directory>
/home/itssahil/PROJECTS/Mol_Feturizer/New_Systems/rnas/5btp

>  <Rbt.Executable>
rbdock ($Id: //depot/dev/client3/rdock/2013.1/src/exe/rbdock.cxx#4 $)

>  <Rbt.Library>
libRbt.so (2013.1, Build901 2013/11/27)

>  <Rbt.Parameter_File>
/export/apps/rDock/src/rDock_2013.1_src/data/scripts/dock_solv.prm

>  <Rbt.Receptor>
prm/pocket_docking_2.prm

>  <SCORE>
-15.7851

>  <SCORE.INTER>
-16.2392

>  <SCORE.INTER.CONST>
1

>  <SCORE.INTER.POLAR>
0

>  <SCORE.INTER.ROT>
5

>  <SCORE.INTER.SOLV>
19.3009

>  <SCORE.INTER.VDW>
-24.1931

>  <SCORE.INTER.norm>
-0.738145

>  <SCORE.INTRA>
0.454074

>  <SCORE.INTRA.DIHEDRAL>
0.709775

>  <SCORE.INTRA.DIHEDRAL.0>
4.21161

>  <SCORE.INTRA.POLAR>
0

>  <SCORE.INTRA.POLAR.0>
0

>  <SCORE.INTRA.REPUL>
0

>  <SCORE.INTRA.REPUL.0>
0

>  <SCORE.INTRA.SOLV>
1.52673

>  <SCORE.INTRA.SOLV.lig_0>
-41.4168

>  <SCORE.INTRA.VDW>
-0.664178

>  <SCORE.INTRA.VDW.0>
-1.62533

>  <SCORE.INTRA.norm>
0.0206397

>  <SCORE.RESTR>
0

>  <SCORE.RESTR.CAVITY>
0

>  <SCORE.RESTR.norm>
0

>  <SCORE.SYSTEM>
0

>  <SCORE.SYSTEM.CONST>
0

>  <SCORE.SYSTEM.DIHEDRAL>
0

>  <SCORE.SYSTEM.SOLV>
0

>  <SCORE.SYSTEM.norm>
0

>  <SCORE.heavy>
22

>  <SCORE.norm>
-0.717506

>  <RMSD>
1.075

$$$$
lig.pdb
 OpenBabel11021811523D
libRbt.so/2013.1/901 2013/11/27
 22 23  0  0  0  0  0  0  0  0999 V2000
   12.9710  -59.5797  -36.8914 O   0  0  0  0  0  0  0  0  0  0  0  0
   13.7974  -59.0369  -37.6080 C   0  0  0  0  0  0  0  0  0  0  0  0
   13.4619  -58.4829  -38.7731 N   0  0  0  0  0  0  0  0  0  0  0  0
   15.2258  -59.0009  -37.1844 C   0  0  0  0  0  0  0  0  0  0  0  0
   16.3100  -58.4048  -37.9807 C   0  0  0  0  0  0  0  0  0  0  0  0
   16.1482  -57.7752  -39.2847 N   0  0  0  0  0  0  0  0  0  0  0  0
   15.8560  -59.4428  -36.0735 N   0  0  0  0  0  0  0  0  0  0  0  0
   17.1874  -59.1451  -36.1884 C   0  0  0  0  0  0  0  0  0  0  0  0
   17.4677  -58.5125  -37.3487 N   0  0  0  0  0  0  0  0  0  0  0  0
   18.7890  -58.0353  -37.8191 C   0  0  1  0  0  0  0  0  0  0  0  0
   19.2610  -56.8599  -36.9792 C   0  0  1  0  0  0  0  0  0  0  0  0
   20.7588  -57.0277  -36.9728 C   0  0  2  0  0  0  0  0  0  0  0  0
   21.3078  -56.4341  -38.1512 O   0  0  0  0  0  0  0  0  0  0  0  0
   18.9070  -55.6168  -37.5869 O   0  0  0  0  0  0  0  0  0  0  0  0
   19.7847  -59.0568  -37.6884 O   0  0  0  0  0  0  0  0  0  0  0  0
   20.9464  -58.5308  -37.0421 C   0  0  2  0  0  0  0  0  0  0  0  0
   21.0769  -59.1053  -35.6400 C   0  0  0  0  0  0  0  0  0  0  0  0
   22.2456  -58.5549  -35.0348 O   0  0  0  0  0  0  0  0  0  0  0  0
   22.6861  -58.9545  -33.5374 P   0  0  0  0  0  0  0  0  0  0  0  0
   23.9796  -58.2106  -33.2984 O   0  0  0  0  0  0  0  0  0  0  0  0
   22.8385  -60.4551  -33.6140 O   0  0  0  0  0  0  0  0  0  0  0  0
   21.5285  -58.4764  -32.6926 O   0  0  0  0  0  0  0  0  0  0  0  0
  1  2  2  0  0  0  0
  2  4  1  0  0  0  0
  2  3  1  0  0  0  0
  4  7  1  0  0  0  0
  5  9  1  0  0  0  0
  5  4  2  0  0  0  0
  6  5  1  0  0  0  0
  8  7  2  0  0  0  0
  9  8  1  0  0  0  0
 10 15  1  0  0  0  0
 10  9  1  1  0  0  0
 10 11  1  0  0  0  0
 11 14  1  6  0  0  0
 11 12  1  0  0  0  0
 12 13  1  6  0  0  0
 15 16  1  0  0  0  0
 16 12  1  0  0  0  0
 16 17  1  1  0  0  0
 17 18  1  0  0  0  0
 18 19  1  0  0  0  0
 19 21  1  0  0  0  0
 19 20  1  0  0  0  0
 22 19  2  0  0  0  0
M  END
>  <CHROM.1>
178.45254615,110.47248979,-62.70679265,-179.93188447,177.88296815,19.09223937
-58.41900062,-36.29444871,2.78499402,-0.26355283,-0.95346710

>  <Name>
lig.pdb

>  <RI>
0

>  <Rbt.Current_Directory>
/home/itssahil/PROJECTS/Mol_Feturizer/New_Systems/rnas/5btp

>  <Rbt.Executable>
rbdock ($Id: //depot/dev/client3/rdock/2013.1/src/exe/rbdock.cxx#4 $)

>  <Rbt.Library>
libRbt.so (2013.1, Build901 2013/11/27)

>  <Rbt.Parameter_File>
/export/apps/rDock/src/rDock_2013.1_src/data/scripts/dock_solv.prm

>  <Rbt.Receptor>
prm/pocket_docking_4.prm

>  <SCORE>
-18.7636

>  <SCORE.INTER>
-17.6758

>  <SCORE.INTER.CONST>
1

>  <SCORE.INTER.POLAR>
0

>  <SCORE.INTER.ROT>
5

>  <SCORE.INTER.SOLV>
19.6976

>  <SCORE.INTER.VDW>
-25.2831

>  <SCORE.INTER.norm>
-0.803445

>  <SCORE.INTRA>
-1.08784

>  <SCORE.INTRA.DIHEDRAL>
-1.74556

>  <SCORE.INTRA.DIHEDRAL.0>
4.21161

>  <SCORE.INTRA.POLAR>
0

>  <SCORE.INTRA.POLAR.0>
0

>  <SCORE.INTRA.REPUL>
0

>  <SCORE.INTRA.REPUL.0>
0

>  <SCORE.INTRA.SOLV>
0.188364

>  <SCORE.INTRA.SOLV.lig_0>
-41.4168

>  <SCORE.INTRA.VDW>
-0.309239

>  <SCORE.INTRA.VDW.0>
-1.62533

>  <SCORE.INTRA.norm>
-0.0494471

>  <SCORE.RESTR>
0

>  <SCORE.RESTR.CAVITY>
0

>  <SCORE.RESTR.norm>
0

>  <SCORE.SYSTEM>
0

>  <SCORE.SYSTEM.CONST>
0

>  <SCORE.SYSTEM.DIHEDRAL>
0

>  <SCORE.SYSTEM.SOLV>
0

>  <SCORE.SYSTEM.norm>
0

>  <SCORE.heavy>
22

>  <SCORE.norm>
-0.852892

>  <RMSD>
1.083

$$$$
lig.pdb
 OpenBabel11021811523D
libRbt.so/2013.1/901 2013/11/27
 22 23  0  0  0  0  0  0  0  0999 V2000
   12.9671  -59.5760  -36.8643 O   0  0  0  0  0  0  0  0  0  0  0  0
   13.7769  -58.9972  -37.5716 C   0  0  0  0  0  0  0  0  0  0  0  0
   13.4174  -58.3991  -38.7073 N   0  0  0  0  0  0  0  0  0  0  0  0
   15.2120  -58.9662  -37.1706 C   0  0  0  0  0  0  0  0  0  0  0  0
   16.2815  -58.3498  -37.9713 C   0  0  0  0  0  0  0  0  0  0  0  0
   16.0968  -57.6928  -39.2587 N   0  0  0  0  0  0  0  0  0  0  0  0
   15.8613  -59.4300  -36.0799 N   0  0  0  0  0  0  0  0  0  0  0  0
   17.1899  -59.1259  -36.2100 C   0  0  0  0  0  0  0  0  0  0  0  0
   17.4495  -58.4677  -37.3607 N   0  0  0  0  0  0  0  0  0  0  0  0
   18.7618  -57.9766  -37.8421 C   0  0  1  0  0  0  0  0  0  0  0  0
   19.2242  -56.7907  -37.0116 C   0  0  1  0  0  0  0  0  0  0  0  0
   20.7241  -56.9397  -37.0139 C   0  0  2  0  0  0  0  0  0  0  0  0
   21.2581  -56.3459  -38.1989 O   0  0  0  0  0  0  0  0  0  0  0  0
   18.8508  -55.5556  -37.6238 O   0  0  0  0  0  0  0  0  0  0  0  0
   19.7710  -58.9848  -37.7122 O   0  0  0  0  0  0  0  0  0  0  0  0
   20.9301  -58.4407  -37.0762 C   0  0  2  0  0  0  0  0  0  0  0  0
   21.0766  -59.0058  -35.6718 C   0  0  0  0  0  0  0  0  0  0  0  0
   22.2078  -58.3929  -35.0556 O   0  0  0  0  0  0  0  0  0  0  0  0
   22.6813  -58.8003  -33.5705 P   0  0  0  0  0  0  0  0  0  0  0  0
   23.0084  -60.2733  -33.6543 O   0  0  0  0  0  0  0  0  0  0  0  0
   21.4711  -58.4807  -32.7252 O   0  0  0  0  0  0  0  0  0  0  0  0
   23.8778  -57.9104  -33.3279 O   0  0  0  0  0  0  0  0  0  0  0  0
  1  2  2  0  0  0  0
  2  4  1  0  0  0  0
  2  3  1  0  0  0  0
  4  7  1  0  0  0  0
  5  9  1  0  0  0  0
  5  4  2  0  0  0  0
  6  5  1  0  0  0  0
  8  7  2  0  0  0  0
  9  8  1  0  0  0  0
 10 15  1  0  0  0  0
 10  9  1  1  0  0  0
 10 11  1  0  0  0  0
 11 14  1  6  0  0  0
 11 12  1  0  0  0  0
 12 13  1  6  0  0  0
 15 16  1  0  0  0  0
 16 12  1  0  0  0  0
 16 17  1  1  0  0  0
 17 18  1  0  0  0  0
 18 19  1  0  0  0  0
 19 21  1  0  0  0  0
 19 20  1  0  0  0  0
 22 19  2  0  0  0  0
M  END
>  <CHROM.1>
177.29645632,108.73050114,-60.15628640,-177.96987077,60.42872588,19.07313033
-58.33138675,-36.30954180,2.79722795,-0.26789675,-0.95742565

>  <Name>
lig.pdb

>  <RI>
0

>  <Rbt.Current_Directory>
/home/itssahil/PROJECTS/Mol_Feturizer/New_Systems/rnas/5btp

>  <Rbt.Executable>
rbdock ($Id: //depot/dev/client3/rdock/2013.1/src/exe/rbdock.cxx#4 $)

>  <Rbt.Library>
libRbt.so (2013.1, Build901 2013/11/27)

>  <Rbt.Parameter_File>
/export/apps/rDock/src/rDock_2013.1_src/data/scripts/dock_solv.prm

>  <Rbt.Receptor>
prm/pocket_docking_4.prm

>  <SCORE>
-19.1086

>  <SCORE.INTER>
-17.9036

>  <SCORE.INTER.CONST>
1

>  <SCORE.INTER.POLAR>
0

>  <SCORE.INTER.ROT>
5

>  <SCORE.INTER.SOLV>
19.3591

>  <SCORE.INTER.VDW>
-25.3221

>  <SCORE.INTER.norm>
-0.813799

>  <SCORE.INTRA>
-1.20503

>  <SCORE.INTRA.DIHEDRAL>
-1.7428

>  <SCORE.INTRA.DIHEDRAL.0>
4.21161

>  <SCORE.INTRA.POLAR>
0

>  <SCORE.INTRA.POLAR.0>
0

>  <SCORE.INTRA.REPUL>
0

>  <SCORE.INTRA.REPUL.0>
0

>  <SCORE.INTRA.SOLV>
-0.00275478

>  <SCORE.INTRA.SOLV.lig_0>
-41.4168

>  <SCORE.INTRA.VDW>
-0.332254

>  <SCORE.INTRA.VDW.0>
-1.62533

>  <SCORE.INTRA.norm>
-0.0547742

>  <SCORE.RESTR>
0

>  <SCORE.RESTR.CAVITY>
0

>  <SCORE.RESTR.norm>
0

>  <SCORE.SYSTEM>
0

>  <SCORE.SYSTEM.CONST>
0

>  <SCORE.SYSTEM.DIHEDRAL>
0

>  <SCORE.SYSTEM.SOLV>
0

>  <SCORE.SYSTEM.norm>
0

>  <SCORE.heavy>
22

>  <SCORE.norm>
-0.868573

>  <RMSD>
1.084

$$$$
lig.pdb
 OpenBabel11021811523D
libRbt.so/2013.1/901 2013/11/27
 22 23  0  0  0  0  0  0  0  0999 V2000
   13.7487  -58.4829  -38.7083 O   0  0  0  0  0  0  0  0  0  0  0  0
   14.0932  -59.0767  -37.6985 C   0  0  0  0  0  0  0  0  0  0  0  0
   13.2291  -59.7814  -36.9680 N   0  0  0  0  0  0  0  0  0  0  0  0
   15.5138  -59.0053  -37.2535 C   0  0  0  0  0  0  0  0  0  0  0  0
   16.5845  -58.3355  -38.0085 C   0  0  0  0  0  0  0  0  0  0  0  0
   16.4152  -57.6575  -39.2871 N   0  0  0  0  0  0  0  0  0  0  0  0
   16.1463  -59.4702  -36.1534 N   0  0  0  0  0  0  0  0  0  0  0  0
   17.4668  -59.1181  -36.2368 C   0  0  0  0  0  0  0  0  0  0  0  0
   17.7373  -58.4266  -37.3653 N   0  0  0  0  0  0  0  0  0  0  0  0
   19.0454  -57.8806  -37.7964 C   0  0  1  0  0  0  0  0  0  0  0  0
   19.2333  -56.4680  -37.2683 C   0  0  1  0  0  0  0  0  0  0  0  0
   20.7216  -56.3847  -37.0454 C   0  0  2  0  0  0  0  0  0  0  0  0
   21.3664  -56.0353  -38.2719 O   0  0  0  0  0  0  0  0  0  0  0  0
   18.8246  -55.4980  -38.2337 O   0  0  0  0  0  0  0  0  0  0  0  0
   20.1286  -58.6593  -37.2746 O   0  0  0  0  0  0  0  0  0  0  0  0
   21.1031  -57.8041  -36.6723 C   0  0  2  0  0  0  0  0  0  0  0  0
   21.0878  -57.9680  -35.1604 C   0  0  0  0  0  0  0  0  0  0  0  0
   21.6326  -59.2471  -34.8407 O   0  0  0  0  0  0  0  0  0  0  0  0
   21.9293  -59.6788  -33.3170 P   0  0  0  0  0  0  0  0  0  0  0  0
   22.4836  -61.0816  -33.4086 O   0  0  0  0  0  0  0  0  0  0  0  0
   20.5699  -59.5902  -32.6648 O   0  0  0  0  0  0  0  0  0  0  0  0
   22.9267  -58.6455  -32.8481 O   0  0  0  0  0  0  0  0  0  0  0  0
  1  2  2  0  0  0  0
  2  4  1  0  0  0  0
  2  3  1  0  0  0  0
  4  7  1  0  0  0  0
  5  9  1  0  0  0  0
  5  4  2  0  0  0  0
  6  5  1  0  0  0  0
  8  7  2  0  0  0  0
  9  8  1  0  0  0  0
 10 15  1  0  0  0  0
 10  9  1  1  0  0  0
 10 11  1  0  0  0  0
 11 14  1  6  0  0  0
 11 12  1  0  0  0  0
 12 13  1  6  0  0  0
 15 16  1  0  0  0  0
 16 12  1  0  0  0  0
 16 17  1  1  0  0  0
 17 18  1  0  0  0  0
 18 19  1  0  0  0  0
 19 21  1  0  0  0  0
 19 20  1  0  0  0  0
 22 19  2  0  0  0  0
M  END
>  <CHROM.1>
-4.68637762,90.11205874,-171.80646489,172.55876931,179.70727838,19.01169066
-58.45016534,-36.25118222,2.67851217,-0.30562830,-0.85553128

>  <Name>
lig.pdb

>  <RI>
0

>  <Rbt.Current_Directory>
/home/itssahil/PROJECTS/Mol_Feturizer/New_Systems/rnas/5btp

>  <Rbt.Executable>
rbdock ($Id: //depot/dev/client3/rdock/2013.1/src/exe/rbdock.cxx#4 $)

>  <Rbt.Library>
libRbt.so (2013.1, Build901 2013/11/27)

>  <Rbt.Parameter_File>
/export/apps/rDock/src/rDock_2013.1_src/data/scripts/dock_solv.prm

>  <Rbt.Receptor>
prm/pocket_docking_2.prm

>  <SCORE>
-18.753

>  <SCORE.INTER>
-17.5641

>  <SCORE.INTER.CONST>
1

>  <SCORE.INTER.POLAR>
0

>  <SCORE.INTER.ROT>
5

>  <SCORE.INTER.SOLV>
19.3246

>  <SCORE.INTER.VDW>
-25.0843

>  <SCORE.INTER.norm>
-0.798369

>  <SCORE.INTRA>
-1.18892

>  <SCORE.INTRA.DIHEDRAL>
-1.2094

>  <SCORE.INTRA.DIHEDRAL.0>
4.21161

>  <SCORE.INTRA.POLAR>
0

>  <SCORE.INTRA.POLAR.0>
0

>  <SCORE.INTRA.REPUL>
0

>  <SCORE.INTRA.REPUL.0>
0

>  <SCORE.INTRA.SOLV>
-0.032195

>  <SCORE.INTRA.SOLV.lig_0>
-41.4168

>  <SCORE.INTRA.VDW>
-0.568118

>  <SCORE.INTRA.VDW.0>
-1.62533

>  <SCORE.INTRA.norm>
-0.0540417

>  <SCORE.RESTR>
0

>  <SCORE.RESTR.CAVITY>
0

>  <SCORE.RESTR.norm>
0

>  <SCORE.SYSTEM>
0

>  <SCORE.SYSTEM.CONST>
0

>  <SCORE.SYSTEM.DIHEDRAL>
0

>  <SCORE.SYSTEM.SOLV>
0

>  <SCORE.SYSTEM.norm>
0

>  <SCORE.heavy>
22

>  <SCORE.norm>
-0.85241

>  <RMSD>
1.087

$$$$
lig.pdb
 OpenBabel11021811523D
libRbt.so/2013.1/901 2013/11/27
 22 23  0  0  0  0  0  0  0  0999 V2000
   12.9781  -59.7205  -36.8259 O   0  0  0  0  0  0  0  0  0  0  0  0
   13.7679  -59.1232  -37.5404 C   0  0  0  0  0  0  0  0  0  0  0  0
   13.3860  -58.5406  -38.6768 N   0  0  0  0  0  0  0  0  0  0  0  0
   15.2037  -59.0510  -37.1474 C   0  0  0  0  0  0  0  0  0  0  0  0
   16.2524  -58.4133  -37.9590 C   0  0  0  0  0  0  0  0  0  0  0  0
   16.0436  -57.7719  -39.2506 N   0  0  0  0  0  0  0  0  0  0  0  0
   15.8708  -59.4886  -36.0566 N   0  0  0  0  0  0  0  0  0  0  0  0
   17.1902  -59.1507  -36.1964 C   0  0  0  0  0  0  0  0  0  0  0  0
   17.4263  -58.4954  -37.3538 N   0  0  0  0  0  0  0  0  0  0  0  0
   18.7226  -57.9738  -37.8464 C   0  0  1  0  0  0  0  0  0  0  0  0
   19.1779  -56.7948  -37.0023 C   0  0  1  0  0  0  0  0  0  0  0  0
   20.6799  -56.9182  -37.0299 C   0  0  2  0  0  0  0  0  0  0  0  0
   21.1856  -56.2950  -38.2122 O   0  0  0  0  0  0  0  0  0  0  0  0
   18.7746  -55.5557  -37.5870 O   0  0  0  0  0  0  0  0  0  0  0  0
   19.7505  -58.9668  -37.7494 O   0  0  0  0  0  0  0  0  0  0  0  0
   20.9099  -58.4142  -37.1217 C   0  0  2  0  0  0  0  0  0  0  0  0
   21.0875  -59.0009  -35.7298 C   0  0  0  0  0  0  0  0  0  0  0  0
   22.2129  -58.3739  -35.1171 O   0  0  0  0  0  0  0  0  0  0  0  0
   22.6919  -58.7704  -33.6307 P   0  0  0  0  0  0  0  0  0  0  0  0
   23.8984  -57.9008  -33.3633 O   0  0  0  0  0  0  0  0  0  0  0  0
   23.0034  -60.2433  -33.7525 O   0  0  0  0  0  0  0  0  0  0  0  0
   21.4890  -58.4447  -32.7767 O   0  0  0  0  0  0  0  0  0  0  0  0
  1  2  2  0  0  0  0
  2  4  1  0  0  0  0
  2  3  1  0  0  0  0
  4  7  1  0  0  0  0
  5  9  1  0  0  0  0
  5  4  2  0  0  0  0
  6  5  1  0  0  0  0
  8  7  2  0  0  0  0
  9  8  1  0  0  0  0
 10 15  1  0  0  0  0
 10  9  1  1  0  0  0
 10 11  1  0  0  0  0
 11 14  1  6  0  0  0
 11 12  1  0  0  0  0
 12 13  1  6  0  0  0
 15 16  1  0  0  0  0
 16 12  1  0  0  0  0
 16 17  1  1  0  0  0
 17 18  1  0  0  0  0
 18 19  1  0  0  0  0
 19 21  1  0  0  0  0
 19 20  1  0  0  0  0
 22 19  2  0  0  0  0
M  END
>  <CHROM.1>
177.09400669,110.39378959,-59.81373325,-179.57077701,179.62838507,19.05703814
-58.34958606,-36.32474765,2.81847465,-0.27842051,-0.94432280

>  <Name>
lig.pdb

>  <RI>
0

>  <Rbt.Current_Directory>
/home/itssahil/PROJECTS/Mol_Feturizer/New_Systems/rnas/5btp

>  <Rbt.Executable>
rbdock ($Id: //depot/dev/client3/rdock/2013.1/src/exe/rbdock.cxx#4 $)

>  <Rbt.Library>
libRbt.so (2013.1, Build901 2013/11/27)

>  <Rbt.Parameter_File>
/export/apps/rDock/src/rDock_2013.1_src/data/scripts/dock_solv.prm

>  <Rbt.Receptor>
prm/pocket_docking_2.prm

>  <SCORE>
-18.8433

>  <SCORE.INTER>
-17.7754

>  <SCORE.INTER.CONST>
1

>  <SCORE.INTER.POLAR>
0

>  <SCORE.INTER.ROT>
5

>  <SCORE.INTER.SOLV>
19.836

>  <SCORE.INTER.VDW>
-25.3956

>  <SCORE.INTER.norm>
-0.807971

>  <SCORE.INTRA>
-1.06798

>  <SCORE.INTRA.DIHEDRAL>
-1.75941

>  <SCORE.INTRA.DIHEDRAL.0>
4.21161

>  <SCORE.INTRA.POLAR>
0

>  <SCORE.INTRA.POLAR.0>
0

>  <SCORE.INTRA.REPUL>
0

>  <SCORE.INTRA.REPUL.0>
0

>  <SCORE.INTRA.SOLV>
0.207701

>  <SCORE.INTRA.SOLV.lig_0>
-41.4168

>  <SCORE.INTRA.VDW>
-0.29213

>  <SCORE.INTRA.VDW.0>
-1.62533

>  <SCORE.INTRA.norm>
-0.0485447

>  <SCORE.RESTR>
0

>  <SCORE.RESTR.CAVITY>
0

>  <SCORE.RESTR.norm>
0

>  <SCORE.SYSTEM>
0

>  <SCORE.SYSTEM.CONST>
0

>  <SCORE.SYSTEM.DIHEDRAL>
0

>  <SCORE.SYSTEM.SOLV>
0

>  <SCORE.SYSTEM.norm>
0

>  <SCORE.heavy>
22

>  <SCORE.norm>
-0.856516

>  <RMSD>
1.091

$$$$
lig.pdb
 OpenBabel11021811523D
libRbt.so/2013.1/901 2013/11/27
 22 23  0  0  0  0  0  0  0  0999 V2000
   12.9371  -59.6328  -36.8204 O   0  0  0  0  0  0  0  0  0  0  0  0
   13.7436  -59.0690  -37.5434 C   0  0  0  0  0  0  0  0  0  0  0  0
   13.3790  -58.4956  -38.6902 N   0  0  0  0  0  0  0  0  0  0  0  0
   15.1803  -59.0286  -37.1491 C   0  0  0  0  0  0  0  0  0  0  0  0
   16.2419  -58.4051  -37.9548 C   0  0  0  0  0  0  0  0  0  0  0  0
   16.0469  -57.7492  -39.2412 N   0  0  0  0  0  0  0  0  0  0  0  0
   15.8378  -59.4883  -36.0616 N   0  0  0  0  0  0  0  0  0  0  0  0
   17.1637  -59.1755  -36.1979 C   0  0  0  0  0  0  0  0  0  0  0  0
   17.4136  -58.5155  -37.3497 N   0  0  0  0  0  0  0  0  0  0  0  0
   18.7203  -58.0157  -37.8373 C   0  0  1  0  0  0  0  0  0  0  0  0
   19.1770  -56.8244  -37.0114 C   0  0  1  0  0  0  0  0  0  0  0  0
   20.6779  -56.9621  -37.0189 C   0  0  2  0  0  0  0  0  0  0  0  0
   21.2030  -56.3672  -38.2074 O   0  0  0  0  0  0  0  0  0  0  0  0
   18.7921  -55.5935  -37.6251 O   0  0  0  0  0  0  0  0  0  0  0  0
   19.7376  -59.0160  -37.7087 O   0  0  0  0  0  0  0  0  0  0  0  0
   20.8949  -58.4617  -37.0784 C   0  0  2  0  0  0  0  0  0  0  0  0
   21.0509  -59.0222  -35.6732 C   0  0  0  0  0  0  0  0  0  0  0  0
   22.2027  -58.4283  -35.0768 O   0  0  0  0  0  0  0  0  0  0  0  0
   22.6735  -58.8165  -33.5857 P   0  0  0  0  0  0  0  0  0  0  0  0
   23.9329  -58.0147  -33.3518 O   0  0  0  0  0  0  0  0  0  0  0  0
   22.8950  -60.3079  -33.6736 O   0  0  0  0  0  0  0  0  0  0  0  0
   21.5019  -58.3983  -32.7285 O   0  0  0  0  0  0  0  0  0  0  0  0
  1  2  2  0  0  0  0
  2  4  1  0  0  0  0
  2  3  1  0  0  0  0
  4  7  1  0  0  0  0
  5  9  1  0  0  0  0
  5  4  2  0  0  0  0
  6  5  1  0  0  0  0
  8  7  2  0  0  0  0
  9  8  1  0  0  0  0
 10 15  1  0  0  0  0
 10  9  1  1  0  0  0
 10 11  1  0  0  0  0
 11 14  1  6  0  0  0
 11 12  1  0  0  0  0
 12 13  1  6  0  0  0
 15 16  1  0  0  0  0
 16 12  1  0  0  0  0
 16 17  1  1  0  0  0
 17 18  1  0  0  0  0
 18 19  1  0  0  0  0
 19 21  1  0  0  0  0
 19 20  1  0  0  0  0
 22 19  2  0  0  0  0
M  END
>  <CHROM.1>
178.58724918,108.56483690,-61.82505183,-179.15500516,178.29346375,19.04333741
-58.36959802,-36.30697682,2.80484710,-0.26975477,-0.95545698

>  <Name>
lig.pdb

>  <RI>
0

>  <Rbt.Current_Directory>
/home/itssahil/PROJECTS/Mol_Feturizer/New_Systems/rnas/5btp

>  <Rbt.Executable>
rbdock ($Id: //depot/dev/client3/rdock/2013.1/src/exe/rbdock.cxx#4 $)

>  <Rbt.Library>
libRbt.so (2013.1, Build901 2013/11/27)

>  <Rbt.Parameter_File>
/export/apps/rDock/src/rDock_2013.1_src/data/scripts/dock_solv.prm

>  <Rbt.Receptor>
prm/pocket_docking_2.prm

>  <SCORE>
-18.8464

>  <SCORE.INTER>
-17.7649

>  <SCORE.INTER.CONST>
1

>  <SCORE.INTER.POLAR>
0

>  <SCORE.INTER.ROT>
5

>  <SCORE.INTER.SOLV>
19.882

>  <SCORE.INTER.VDW>
-25.404

>  <SCORE.INTER.norm>
-0.807498

>  <SCORE.INTRA>
-1.08141

>  <SCORE.INTRA.DIHEDRAL>
-1.76034

>  <SCORE.INTRA.DIHEDRAL.0>
4.21161

>  <SCORE.INTRA.POLAR>
0

>  <SCORE.INTRA.POLAR.0>
0

>  <SCORE.INTRA.REPUL>
0

>  <SCORE.INTRA.REPUL.0>
0

>  <SCORE.INTRA.SOLV>
0.208802

>  <SCORE.INTRA.SOLV.lig_0>
-41.4168

>  <SCORE.INTRA.VDW>
-0.305639

>  <SCORE.INTRA.VDW.0>
-1.62533

>  <SCORE.INTRA.norm>
-0.0491549

>  <SCORE.RESTR>
0

>  <SCORE.RESTR.CAVITY>
0

>  <SCORE.RESTR.norm>
0

>  <SCORE.SYSTEM>
0

>  <SCORE.SYSTEM.CONST>
0

>  <SCORE.SYSTEM.DIHEDRAL>
0

>  <SCORE.SYSTEM.SOLV>
0

>  <SCORE.SYSTEM.norm>
0

>  <SCORE.heavy>
22

>  <SCORE.norm>
-0.856653

>  <RMSD>
1.093

$$$$
lig.pdb
 OpenBabel11021811523D
libRbt.so/2013.1/901 2013/11/27
 22 23  0  0  0  0  0  0  0  0999 V2000
   12.9816  -59.7236  -36.8254 O   0  0  0  0  0  0  0  0  0  0  0  0
   13.7683  -59.1263  -37.5433 C   0  0  0  0  0  0  0  0  0  0  0  0
   13.3822  -58.5470  -38.6800 N   0  0  0  0  0  0  0  0  0  0  0  0
   15.2049  -59.0501  -37.1542 C   0  0  0  0  0  0  0  0  0  0  0  0
   16.2497  -58.4103  -37.9690 C   0  0  0  0  0  0  0  0  0  0  0  0
   16.0359  -57.7703  -39.2605 N   0  0  0  0  0  0  0  0  0  0  0  0
   15.8760  -59.4853  -36.0650 N   0  0  0  0  0  0  0  0  0  0  0  0
   17.1942  -59.1441  -36.2085 C   0  0  0  0  0  0  0  0  0  0  0  0
   17.4256  -58.4889  -37.3669 N   0  0  0  0  0  0  0  0  0  0  0  0
   18.7191  -57.9643  -37.8633 C   0  0  1  0  0  0  0  0  0  0  0  0
   19.1618  -56.7685  -37.0363 C   0  0  1  0  0  0  0  0  0  0  0  0
   20.6648  -56.8799  -37.0569 C   0  0  2  0  0  0  0  0  0  0  0  0
   21.1694  -56.2710  -38.2472 O   0  0  0  0  0  0  0  0  0  0  0  0
   18.7502  -55.5421  -37.6416 O   0  0  0  0  0  0  0  0  0  0  0  0
   19.7548  -58.9471  -37.7474 O   0  0  0  0  0  0  0  0  0  0  0  0
   20.9075  -58.3751  -37.1245 C   0  0  2  0  0  0  0  0  0  0  0  0
   21.0852  -58.9385  -35.7230 C   0  0  0  0  0  0  0  0  0  0  0  0
   22.2189  -58.3113  -35.1260 O   0  0  0  0  0  0  0  0  0  0  0  0
   22.6834  -58.6655  -33.6244 P   0  0  0  0  0  0  0  0  0  0  0  0
   23.8847  -57.7852  -33.3686 O   0  0  0  0  0  0  0  0  0  0  0  0
   23.0003  -60.1402  -33.7026 O   0  0  0  0  0  0  0  0  0  0  0  0
   21.4709  -58.3203  -32.7921 O   0  0  0  0  0  0  0  0  0  0  0  0
  1  2  2  0  0  0  0
  2  4  1  0  0  0  0
  2  3  1  0  0  0  0
  4  7  1  0  0  0  0
  5  9  1  0  0  0  0
  5  4  2  0  0  0  0
  6  5  1  0  0  0  0
  8  7  2  0  0  0  0
  9  8  1  0  0  0  0
 10 15  1  0  0  0  0
 10  9  1  1  0  0  0
 10 11  1  0  0  0  0
 11 14  1  6  0  0  0
 11 12  1  0  0  0  0
 12 13  1  6  0  0  0
 15 16  1  0  0  0  0
 16 12  1  0  0  0  0
 16 17  1  1  0  0  0
 17 18  1  0  0  0  0
 18 19  1  0  0  0  0
 19 21  1  0  0  0  0
 19 20  1  0  0  0  0
 22 19  2  0  0  0  0
M  END
>  <CHROM.1>
177.18720556,109.41083776,-60.92065865,179.25978165,-179.07128132,19.05151338
-58.30983435,-36.33295461,2.82071068,-0.28446284,-0.95712706

>  <Name>
lig.pdb

>  <RI>
0

>  <Rbt.Current_Directory>
/home/itssahil/PROJECTS/Mol_Feturizer/New_Systems/rnas/5btp

>  <Rbt.Executable>
rbdock ($Id: //depot/dev/client3/rdock/2013.1/src/exe/rbdock.cxx#4 $)

>  <Rbt.Library>
libRbt.so (2013.1, Build901 2013/11/27)

>  <Rbt.Parameter_File>
/export/apps/rDock/src/rDock_2013.1_src/data/scripts/dock_solv.prm

>  <Rbt.Receptor>
prm/pocket_docking_4.prm

>  <SCORE>
-18.9248

>  <SCORE.INTER>
-17.8457

>  <SCORE.INTER.CONST>
1

>  <SCORE.INTER.POLAR>
0

>  <SCORE.INTER.ROT>
5

>  <SCORE.INTER.SOLV>
19.887

>  <SCORE.INTER.VDW>
-25.4595

>  <SCORE.INTER.norm>
-0.81117

>  <SCORE.INTRA>
-1.07909

>  <SCORE.INTRA.DIHEDRAL>
-1.75373

>  <SCORE.INTRA.DIHEDRAL.0>
4.21161

>  <SCORE.INTRA.POLAR>
0

>  <SCORE.INTRA.POLAR.0>
0

>  <SCORE.INTRA.REPUL>
0

>  <SCORE.INTRA.REPUL.0>
0

>  <SCORE.INTRA.SOLV>
0.22343

>  <SCORE.INTRA.SOLV.lig_0>
-41.4168

>  <SCORE.INTRA.VDW>
-0.313935

>  <SCORE.INTRA.VDW.0>
-1.62533

>  <SCORE.INTRA.norm>
-0.0490493

>  <SCORE.RESTR>
0

>  <SCORE.RESTR.CAVITY>
0

>  <SCORE.RESTR.norm>
0

>  <SCORE.SYSTEM>
0

>  <SCORE.SYSTEM.CONST>
0

>  <SCORE.SYSTEM.DIHEDRAL>
0

>  <SCORE.SYSTEM.SOLV>
0

>  <SCORE.SYSTEM.norm>
0

>  <SCORE.heavy>
22

>  <SCORE.norm>
-0.860219

>  <RMSD>
1.093

$$$$
lig.pdb
 OpenBabel11021811523D
libRbt.so/2013.1/901 2013/11/27
 22 23  0  0  0  0  0  0  0  0999 V2000
   12.9871  -59.7029  -36.7936 O   0  0  0  0  0  0  0  0  0  0  0  0
   13.7748  -59.1209  -37.5230 C   0  0  0  0  0  0  0  0  0  0  0  0
   13.3885  -58.5578  -38.6677 N   0  0  0  0  0  0  0  0  0  0  0  0
   15.2128  -59.0457  -37.1389 C   0  0  0  0  0  0  0  0  0  0  0  0
   16.2561  -58.4110  -37.9596 C   0  0  0  0  0  0  0  0  0  0  0  0
   16.0392  -57.7759  -39.2530 N   0  0  0  0  0  0  0  0  0  0  0  0
   15.8867  -59.4776  -36.0500 N   0  0  0  0  0  0  0  0  0  0  0  0
   17.2050  -59.1393  -36.1992 C   0  0  0  0  0  0  0  0  0  0  0  0
   17.4337  -58.4893  -37.3611 N   0  0  0  0  0  0  0  0  0  0  0  0
   18.7266  -57.9690  -37.8638 C   0  0  1  0  0  0  0  0  0  0  0  0
   19.1690  -56.7643  -37.0496 C   0  0  1  0  0  0  0  0  0  0  0  0
   20.6720  -56.8748  -37.0701 C   0  0  2  0  0  0  0  0  0  0  0  0
   21.1754  -56.2781  -38.2670 O   0  0  0  0  0  0  0  0  0  0  0  0
   18.7561  -55.5446  -37.6674 O   0  0  0  0  0  0  0  0  0  0  0  0
   19.7631  -58.9498  -37.7383 O   0  0  0  0  0  0  0  0  0  0  0  0
   20.9157  -58.3705  -37.1222 C   0  0  2  0  0  0  0  0  0  0  0  0
   21.0947  -58.9191  -35.7150 C   0  0  0  0  0  0  0  0  0  0  0  0
   22.2290  -58.2857  -35.1257 O   0  0  0  0  0  0  0  0  0  0  0  0
   22.6904  -58.6183  -33.6183 P   0  0  0  0  0  0  0  0  0  0  0  0
   22.9697  -60.1034  -33.6132 O   0  0  0  0  0  0  0  0  0  0  0  0
   21.4920  -58.2096  -32.7949 O   0  0  0  0  0  0  0  0  0  0  0  0
   23.9153  -57.7546  -33.4283 O   0  0  0  0  0  0  0  0  0  0  0  0
  1  2  2  0  0  0  0
  2  4  1  0  0  0  0
  2  3  1  0  0  0  0
  4  7  1  0  0  0  0
  5  9  1  0  0  0  0
  5  4  2  0  0  0  0
  6  5  1  0  0  0  0
  8  7  2  0  0  0  0
  9  8  1  0  0  0  0
 10 15  1  0  0  0  0
 10  9  1  1  0  0  0
 10 11  1  0  0  0  0
 11 14  1  6  0  0  0
 11 12  1  0  0  0  0
 12 13  1  6  0  0  0
 15 16  1  0  0  0  0
 16 12  1  0  0  0  0
 16 17  1  1  0  0  0
 17 18  1  0  0  0  0
 18 19  1  0  0  0  0
 19 21  1  0  0  0  0
 19 20  1  0  0  0  0
 22 19  2  0  0  0  0
M  END
>  <CHROM.1>
177.88952330,108.99212779,-60.96465357,178.93662296,59.06232157,19.05890273
-58.29381162,-36.32819628,2.82157790,-0.28398928,-0.96802694

>  <Name>
lig.pdb

>  <RI>
0

>  <Rbt.Current_Directory>
/home/itssahil/PROJECTS/Mol_Feturizer/New_Systems/rnas/5btp

>  <Rbt.Executable>
rbdock ($Id: //depot/dev/client3/rdock/2013.1/src/exe/rbdock.cxx#4 $)

>  <Rbt.Library>
libRbt.so (2013.1, Build901 2013/11/27)

>  <Rbt.Parameter_File>
/export/apps/rDock/src/rDock_2013.1_src/data/scripts/dock_solv.prm

>  <Rbt.Receptor>
prm/pocket_docking_2.prm

>  <SCORE>
-19.2202

>  <SCORE.INTER>
-17.9909

>  <SCORE.INTER.CONST>
1

>  <SCORE.INTER.POLAR>
0

>  <SCORE.INTER.ROT>
5

>  <SCORE.INTER.SOLV>
19.5776

>  <SCORE.INTER.VDW>
-25.4531

>  <SCORE.INTER.norm>
-0.817768

>  <SCORE.INTRA>
-1.22928

>  <SCORE.INTRA.DIHEDRAL>
-1.76259

>  <SCORE.INTRA.DIHEDRAL.0>
4.21161

>  <SCORE.INTRA.POLAR>
0

>  <SCORE.INTRA.POLAR.0>
0

>  <SCORE.INTRA.REPUL>
0

>  <SCORE.INTRA.REPUL.0>
0

>  <SCORE.INTRA.SOLV>
0.00494818

>  <SCORE.INTRA.SOLV.lig_0>
-41.4168

>  <SCORE.INTRA.VDW>
-0.350462

>  <SCORE.INTRA.VDW.0>
-1.62533

>  <SCORE.INTRA.norm>
-0.0558765

>  <SCORE.RESTR>
0

>  <SCORE.RESTR.CAVITY>
0

>  <SCORE.RESTR.norm>
0

>  <SCORE.SYSTEM>
0

>  <SCORE.SYSTEM.CONST>
0

>  <SCORE.SYSTEM.DIHEDRAL>
0

>  <SCORE.SYSTEM.SOLV>
0

>  <SCORE.SYSTEM.norm>
0

>  <SCORE.heavy>
22

>  <SCORE.norm>
-0.873644

>  <RMSD>
1.095

$$$$
lig.pdb
 OpenBabel11021811523D
libRbt.so/2013.1/901 2013/11/27
 22 23  0  0  0  0  0  0  0  0999 V2000
   12.9764  -59.7106  -36.8235 O   0  0  0  0  0  0  0  0  0  0  0  0
   13.7667  -59.1263  -37.5481 C   0  0  0  0  0  0  0  0  0  0  0  0
   13.3863  -58.5678  -38.6971 N   0  0  0  0  0  0  0  0  0  0  0  0
   15.2013  -59.0428  -37.1531 C   0  0  0  0  0  0  0  0  0  0  0  0
   16.2496  -58.4145  -37.9724 C   0  0  0  0  0  0  0  0  0  0  0  0
   16.0417  -57.7948  -39.2747 N   0  0  0  0  0  0  0  0  0  0  0  0
   15.8673  -59.4604  -36.0539 N   0  0  0  0  0  0  0  0  0  0  0  0
   17.1859  -59.1202  -36.1961 C   0  0  0  0  0  0  0  0  0  0  0  0
   17.4224  -58.4827  -37.3634 N   0  0  0  0  0  0  0  0  0  0  0  0
   18.7180  -57.9647  -37.8614 C   0  0  1  0  0  0  0  0  0  0  0  0
   19.1748  -56.7801  -37.0258 C   0  0  1  0  0  0  0  0  0  0  0  0
   20.6767  -56.9039  -37.0549 C   0  0  2  0  0  0  0  0  0  0  0  0
   21.1807  -56.2887  -38.2421 O   0  0  0  0  0  0  0  0  0  0  0  0
   18.7707  -55.5449  -37.6182 O   0  0  0  0  0  0  0  0  0  0  0  0
   19.7459  -58.9572  -37.7593 O   0  0  0  0  0  0  0  0  0  0  0  0
   20.9064  -58.4006  -37.1370 C   0  0  2  0  0  0  0  0  0  0  0  0
   21.0860  -58.9780  -35.7415 C   0  0  0  0  0  0  0  0  0  0  0  0
   22.2240  -58.3610  -35.1420 O   0  0  0  0  0  0  0  0  0  0  0  0
   22.6880  -58.7268  -33.6430 P   0  0  0  0  0  0  0  0  0  0  0  0
   22.9782  -60.2095  -33.6741 O   0  0  0  0  0  0  0  0  0  0  0  0
   21.4867  -58.3471  -32.8101 O   0  0  0  0  0  0  0  0  0  0  0  0
   23.9065  -57.8590  -33.4320 O   0  0  0  0  0  0  0  0  0  0  0  0
  1  2  2  0  0  0  0
  2  4  1  0  0  0  0
  2  3  1  0  0  0  0
  4  7  1  0  0  0  0
  5  9  1  0  0  0  0
  5  4  2  0  0  0  0
  6  5  1  0  0  0  0
  8  7  2  0  0  0  0
  9  8  1  0  0  0  0
 10 15  1  0  0  0  0
 10  9  1  1  0  0  0
 10 11  1  0  0  0  0
 11 14  1  6  0  0  0
 11 12  1  0  0  0  0
 12 13  1  6  0  0  0
 15 16  1  0  0  0  0
 16 12  1  0  0  0  0
 16 17  1  1  0  0  0
 17 18  1  0  0  0  0
 18 19  1  0  0  0  0
 19 21  1  0  0  0  0
 19 20  1  0  0  0  0
 22 19  2  0  0  0  0
M  END
>  <CHROM.1>
177.35039974,111.01197973,-60.64375810,178.99868797,59.73538745,19.05411636
-58.33074027,-36.33831520,2.81980515,-0.27954715,-0.95232199

>  <Name>
lig.pdb

>  <RI>
0

>  <Rbt.Current_Directory>
/home/itssahil/PROJECTS/Mol_Feturizer/New_Systems/rnas/5btp

>  <Rbt.Executable>
rbdock ($Id: //depot/dev/client3/rdock/2013.1/src/exe/rbdock.cxx#4 $)

>  <Rbt.Library>
libRbt.so (2013.1, Build901 2013/11/27)

>  <Rbt.Parameter_File>
/export/apps/rDock/src/rDock_2013.1_src/data/scripts/dock_solv.prm

>  <Rbt.Receptor>
prm/pocket_docking_3.prm

>  <SCORE>
-19.1604

>  <SCORE.INTER>
-17.9377

>  <SCORE.INTER.CONST>
1

>  <SCORE.INTER.POLAR>
0

>  <SCORE.INTER.ROT>
5

>  <SCORE.INTER.SOLV>
19.5873

>  <SCORE.INTER.VDW>
-25.4209

>  <SCORE.INTER.norm>
-0.815351

>  <SCORE.INTRA>
-1.22265

>  <SCORE.INTRA.DIHEDRAL>
-1.75848

>  <SCORE.INTRA.DIHEDRAL.0>
4.21161

>  <SCORE.INTRA.POLAR>
0

>  <SCORE.INTRA.POLAR.0>
0

>  <SCORE.INTRA.REPUL>
0

>  <SCORE.INTRA.REPUL.0>
0

>  <SCORE.INTRA.SOLV>
-0.0140783

>  <SCORE.INTRA.SOLV.lig_0>
-41.4168

>  <SCORE.INTRA.VDW>
-0.336368

>  <SCORE.INTRA.VDW.0>
-1.62533

>  <SCORE.INTRA.norm>
-0.0555748

>  <SCORE.RESTR>
0

>  <SCORE.RESTR.CAVITY>
0

>  <SCORE.RESTR.norm>
0

>  <SCORE.SYSTEM>
0

>  <SCORE.SYSTEM.CONST>
0

>  <SCORE.SYSTEM.DIHEDRAL>
0

>  <SCORE.SYSTEM.SOLV>
0

>  <SCORE.SYSTEM.norm>
0

>  <SCORE.heavy>
22

>  <SCORE.norm>
-0.870926

>  <RMSD>
1.096

$$$$
lig.pdb
 OpenBabel11021811523D
libRbt.so/2013.1/901 2013/11/27
 22 23  0  0  0  0  0  0  0  0999 V2000
   13.6268  -58.4743  -38.6807 O   0  0  0  0  0  0  0  0  0  0  0  0
   13.9286  -59.0152  -37.6283 C   0  0  0  0  0  0  0  0  0  0  0  0
   13.0196  -59.6173  -36.8615 N   0  0  0  0  0  0  0  0  0  0  0  0
   15.3473  -58.9938  -37.1723 C   0  0  0  0  0  0  0  0  0  0  0  0
   16.4455  -58.3564  -37.9157 C   0  0  0  0  0  0  0  0  0  0  0  0
   16.3089  -57.6663  -39.1918 N   0  0  0  0  0  0  0  0  0  0  0  0
   15.9554  -59.4853  -36.0702 N   0  0  0  0  0  0  0  0  0  0  0  0
   17.2875  -59.1773  -36.1417 C   0  0  0  0  0  0  0  0  0  0  0  0
   17.5897  -58.4894  -37.2643 N   0  0  0  0  0  0  0  0  0  0  0  0
   18.9186  -57.9853  -37.6827 C   0  0  1  0  0  0  0  0  0  0  0  0
   19.0392  -56.4980  -37.3943 C   0  0  1  0  0  0  0  0  0  0  0  0
   20.5032  -56.3321  -37.0765 C   0  0  2  0  0  0  0  0  0  0  0  0
   21.2382  -56.1781  -38.2923 O   0  0  0  0  0  0  0  0  0  0  0  0
   18.6928  -55.7206  -38.5412 O   0  0  0  0  0  0  0  0  0  0  0  0
   19.9696  -58.6296  -36.9531 O   0  0  0  0  0  0  0  0  0  0  0  0
   20.8778  -57.6543  -36.4356 C   0  0  2  0  0  0  0  0  0  0  0  0
   20.7441  -57.5574  -34.9237 C   0  0  0  0  0  0  0  0  0  0  0  0
   20.9177  -58.8614  -34.3718 O   0  0  0  0  0  0  0  0  0  0  0  0
   22.3419  -59.6134  -34.4205 P   0  0  0  0  0  0  0  0  0  0  0  0
   22.1777  -60.8206  -33.5265 O   0  0  0  0  0  0  0  0  0  0  0  0
   23.2975  -58.5722  -33.8876 O   0  0  0  0  0  0  0  0  0  0  0  0
   22.5141  -59.9427  -35.8848 O   0  0  0  0  0  0  0  0  0  0  0  0
  1  2  2  0  0  0  0
  2  4  1  0  0  0  0
  2  3  1  0  0  0  0
  4  7  1  0  0  0  0
  5  9  1  0  0  0  0
  5  4  2  0  0  0  0
  6  5  1  0  0  0  0
  8  7  2  0  0  0  0
  9  8  1  0  0  0  0
 10 15  1  0  0  0  0
 10  9  1  1  0  0  0
 10 11  1  0  0  0  0
 11 14  1  6  0  0  0
 11 12  1  0  0  0  0
 12 13  1  6  0  0  0
 15 16  1  0  0  0  0
 16 12  1  0  0  0  0
 16 17  1  1  0  0  0
 17 18  1  0  0  0  0
 18 19  1  0  0  0  0
 19 21  1  0  0  0  0
 19 20  1  0  0  0  0
 22 19  2  0  0  0  0
M  END
>  <CHROM.1>
-0.20315805,78.62007261,171.86722773,68.05531379,169.81095372,18.99022484
-58.41912062,-36.49640524,2.83334377,-0.25343133,-0.75407048

>  <Name>
lig.pdb

>  <RI>
0

>  <Rbt.Current_Directory>
/home/itssahil/PROJECTS/Mol_Feturizer/New_Systems/rnas/5btp

>  <Rbt.Executable>
rbdock ($Id: //depot/dev/client3/rdock/2013.1/src/exe/rbdock.cxx#4 $)

>  <Rbt.Library>
libRbt.so (2013.1, Build901 2013/11/27)

>  <Rbt.Parameter_File>
/export/apps/rDock/src/rDock_2013.1_src/data/scripts/dock_solv.prm

>  <Rbt.Receptor>
prm/pocket_docking_3.prm

>  <SCORE>
-17.6255

>  <SCORE.INTER>
-17.3334

>  <SCORE.INTER.CONST>
1

>  <SCORE.INTER.POLAR>
0

>  <SCORE.INTER.ROT>
5

>  <SCORE.INTER.SOLV>
19.2012

>  <SCORE.INTER.VDW>
-24.8894

>  <SCORE.INTER.norm>
-0.787884

>  <SCORE.INTRA>
-0.292012

>  <SCORE.INTRA.DIHEDRAL>
-1.06496

>  <SCORE.INTRA.DIHEDRAL.0>
4.21161

>  <SCORE.INTRA.POLAR>
0

>  <SCORE.INTRA.POLAR.0>
0

>  <SCORE.INTRA.REPUL>
0

>  <SCORE.INTRA.REPUL.0>
0

>  <SCORE.INTRA.SOLV>
1.65093

>  <SCORE.INTRA.SOLV.lig_0>
-41.4168

>  <SCORE.INTRA.VDW>
-0.584998

>  <SCORE.INTRA.VDW.0>
-1.62533

>  <SCORE.INTRA.norm>
-0.0132733

>  <SCORE.RESTR>
0

>  <SCORE.RESTR.CAVITY>
0

>  <SCORE.RESTR.norm>
0

>  <SCORE.SYSTEM>
0

>  <SCORE.SYSTEM.CONST>
0

>  <SCORE.SYSTEM.DIHEDRAL>
0

>  <SCORE.SYSTEM.SOLV>
0

>  <SCORE.SYSTEM.norm>
0

>  <SCORE.heavy>
22

>  <SCORE.norm>
-0.801157

>  <RMSD>
1.096

$$$$
lig.pdb
 OpenBabel11021811523D
libRbt.so/2013.1/901 2013/11/27
 22 23  0  0  0  0  0  0  0  0999 V2000
   12.9639  -59.5964  -36.8296 O   0  0  0  0  0  0  0  0  0  0  0  0
   13.7676  -59.0460  -37.5659 C   0  0  0  0  0  0  0  0  0  0  0  0
   13.3993  -58.4983  -38.7240 N   0  0  0  0  0  0  0  0  0  0  0  0
   15.2048  -58.9933  -37.1752 C   0  0  0  0  0  0  0  0  0  0  0  0
   16.2597  -58.3644  -37.9855 C   0  0  0  0  0  0  0  0  0  0  0  0
   16.0566  -57.7141  -39.2735 N   0  0  0  0  0  0  0  0  0  0  0  0
   15.8684  -59.4444  -36.0878 N   0  0  0  0  0  0  0  0  0  0  0  0
   17.1916  -59.1220  -36.2283 C   0  0  0  0  0  0  0  0  0  0  0  0
   17.4337  -58.4638  -37.3828 N   0  0  0  0  0  0  0  0  0  0  0  0
   18.7354  -57.9556  -37.8752 C   0  0  1  0  0  0  0  0  0  0  0  0
   19.2074  -56.7876  -37.0249 C   0  0  1  0  0  0  0  0  0  0  0  0
   20.7076  -56.9299  -37.0567 C   0  0  2  0  0  0  0  0  0  0  0  0
   21.2186  -56.3058  -38.2363 O   0  0  0  0  0  0  0  0  0  0  0  0
   18.8185  -55.5400  -37.6011 O   0  0  0  0  0  0  0  0  0  0  0  0
   19.7508  -58.9621  -37.7866 O   0  0  0  0  0  0  0  0  0  0  0  0
   20.9185  -58.4281  -37.1581 C   0  0  2  0  0  0  0  0  0  0  0  0
   21.0917  -59.0255  -35.7702 C   0  0  0  0  0  0  0  0  0  0  0  0
   22.2412  -58.4349  -35.1661 O   0  0  0  0  0  0  0  0  0  0  0  0
   22.7033  -58.8277  -33.6734 P   0  0  0  0  0  0  0  0  0  0  0  0
   23.9139  -57.9659  -33.3989 O   0  0  0  0  0  0  0  0  0  0  0  0
   23.0047  -60.3034  -33.7851 O   0  0  0  0  0  0  0  0  0  0  0  0
   21.4950  -58.4887  -32.8322 O   0  0  0  0  0  0  0  0  0  0  0  0
  1  2  2  0  0  0  0
  2  4  1  0  0  0  0
  2  3  1  0  0  0  0
  4  7  1  0  0  0  0
  5  9  1  0  0  0  0
  5  4  2  0  0  0  0
  6  5  1  0  0  0  0
  8  7  2  0  0  0  0
  9  8  1  0  0  0  0
 10 15  1  0  0  0  0
 10  9  1  1  0  0  0
 10 11  1  0  0  0  0
 11 14  1  6  0  0  0
 11 12  1  0  0  0  0
 12 13  1  6  0  0  0
 15 16  1  0  0  0  0
 16 12  1  0  0  0  0
 16 17  1  1  0  0  0
 17 18  1  0  0  0  0
 18 19  1  0  0  0  0
 19 21  1  0  0  0  0
 19 20  1  0  0  0  0
 22 19  2  0  0  0  0
M  END
>  <CHROM.1>
179.66521734,110.46999105,-60.89774253,179.05199234,-178.35097360,19.06858670
-58.34540872,-36.35687632,2.81201011,-0.26621712,-0.94222828

>  <Name>
lig.pdb

>  <RI>
0

>  <Rbt.Current_Directory>
/home/itssahil/PROJECTS/Mol_Feturizer/New_Systems/rnas/5btp

>  <Rbt.Executable>
rbdock ($Id: //depot/dev/client3/rdock/2013.1/src/exe/rbdock.cxx#4 $)

>  <Rbt.Library>
libRbt.so (2013.1, Build901 2013/11/27)

>  <Rbt.Parameter_File>
/export/apps/rDock/src/rDock_2013.1_src/data/scripts/dock_solv.prm

>  <Rbt.Receptor>
prm/pocket_docking_2.prm

>  <SCORE>
-18.7677

>  <SCORE.INTER>
-17.6801

>  <SCORE.INTER.CONST>
1

>  <SCORE.INTER.POLAR>
0

>  <SCORE.INTER.ROT>
5

>  <SCORE.INTER.SOLV>
19.8894

>  <SCORE.INTER.VDW>
-25.3499

>  <SCORE.INTER.norm>
-0.803642

>  <SCORE.INTRA>
-1.08759

>  <SCORE.INTRA.DIHEDRAL>
-1.77594

>  <SCORE.INTRA.DIHEDRAL.0>
4.21161

>  <SCORE.INTRA.POLAR>
0

>  <SCORE.INTRA.POLAR.0>
0

>  <SCORE.INTRA.REPUL>
0

>  <SCORE.INTRA.REPUL.0>
0

>  <SCORE.INTRA.SOLV>
0.2171

>  <SCORE.INTRA.SOLV.lig_0>
-41.4168

>  <SCORE.INTRA.VDW>
-0.308173

>  <SCORE.INTRA.VDW.0>
-1.62533

>  <SCORE.INTRA.norm>
-0.0494361

>  <SCORE.RESTR>
0

>  <SCORE.RESTR.CAVITY>
0

>  <SCORE.RESTR.norm>
0

>  <SCORE.SYSTEM>
0

>  <SCORE.SYSTEM.CONST>
0

>  <SCORE.SYSTEM.DIHEDRAL>
0

>  <SCORE.SYSTEM.SOLV>
0

>  <SCORE.SYSTEM.norm>
0

>  <SCORE.heavy>
22

>  <SCORE.norm>
-0.853078

>  <RMSD>
1.097

$$$$
lig.pdb
 OpenBabel11021811523D
libRbt.so/2013.1/901 2013/11/27
 22 23  0  0  0  0  0  0  0  0999 V2000
   12.9764  -59.7031  -36.8115 O   0  0  0  0  0  0  0  0  0  0  0  0
   13.7650  -59.1146  -37.5345 C   0  0  0  0  0  0  0  0  0  0  0  0
   13.3808  -58.5442  -38.6764 N   0  0  0  0  0  0  0  0  0  0  0  0
   15.2018  -59.0395  -37.1460 C   0  0  0  0  0  0  0  0  0  0  0  0
   16.2476  -58.4045  -37.9633 C   0  0  0  0  0  0  0  0  0  0  0  0
   16.0347  -57.7691  -39.2572 N   0  0  0  0  0  0  0  0  0  0  0  0
   15.8723  -59.4717  -36.0551 N   0  0  0  0  0  0  0  0  0  0  0  0
   17.1910  -59.1333  -36.2001 C   0  0  0  0  0  0  0  0  0  0  0  0
   17.4234  -58.4829  -37.3611 N   0  0  0  0  0  0  0  0  0  0  0  0
   18.7178  -57.9625  -37.8597 C   0  0  1  0  0  0  0  0  0  0  0  0
   19.1757  -56.7808  -37.0207 C   0  0  1  0  0  0  0  0  0  0  0  0
   20.6776  -56.9039  -37.0530 C   0  0  2  0  0  0  0  0  0  0  0  0
   21.1791  -56.2842  -38.2390 O   0  0  0  0  0  0  0  0  0  0  0  0
   18.7700  -55.5436  -37.6078 O   0  0  0  0  0  0  0  0  0  0  0  0
   19.7463  -58.9550  -37.7632 O   0  0  0  0  0  0  0  0  0  0  0  0
   20.9077  -58.4001  -37.1410 C   0  0  2  0  0  0  0  0  0  0  0  0
   21.0902  -58.9826  -35.7480 C   0  0  0  0  0  0  0  0  0  0  0  0
   22.2294  -58.3677  -35.1486 O   0  0  0  0  0  0  0  0  0  0  0  0
   22.6898  -58.7305  -33.6478 P   0  0  0  0  0  0  0  0  0  0  0  0
   22.9691  -60.2153  -33.6723 O   0  0  0  0  0  0  0  0  0  0  0  0
   21.4907  -58.3383  -32.8173 O   0  0  0  0  0  0  0  0  0  0  0  0
   23.9144  -57.8707  -33.4397 O   0  0  0  0  0  0  0  0  0  0  0  0
  1  2  2  0  0  0  0
  2  4  1  0  0  0  0
  2  3  1  0  0  0  0
  4  7  1  0  0  0  0
  5  9  1  0  0  0  0
  5  4  2  0  0  0  0
  6  5  1  0  0  0  0
  8  7  2  0  0  0  0
  9  8  1  0  0  0  0
 10 15  1  0  0  0  0
 10  9  1  1  0  0  0
 10 11  1  0  0  0  0
 11 14  1  6  0  0  0
 11 12  1  0  0  0  0
 12 13  1  6  0  0  0
 15 16  1  0  0  0  0
 16 12  1  0  0  0  0
 16 17  1  1  0  0  0
 17 18  1  0  0  0  0
 18 19  1  0  0  0  0
 19 21  1  0  0  0  0
 19 20  1  0  0  0  0
 22 19  2  0  0  0  0
M  END
>  <CHROM.1>
177.48657133,110.48774451,-60.66472519,178.51699466,59.49558823,19.05469906
-58.32919614,-36.33618333,2.82115347,-0.27790349,-0.94953013

>  <Name>
lig.pdb

>  <RI>
0

>  <Rbt.Current_Directory>
/home/itssahil/PROJECTS/Mol_Feturizer/New_Systems/rnas/5btp

>  <Rbt.Executable>
rbdock ($Id: //depot/dev/client3/rdock/2013.1/src/exe/rbdock.cxx#4 $)

>  <Rbt.Library>
libRbt.so (2013.1, Build901 2013/11/27)

>  <Rbt.Parameter_File>
/export/apps/rDock/src/rDock_2013.1_src/data/scripts/dock_solv.prm

>  <Rbt.Receptor>
prm/pocket_docking_5.prm

>  <SCORE>
-19.1923

>  <SCORE.INTER>
-17.9713

>  <SCORE.INTER.CONST>
1

>  <SCORE.INTER.POLAR>
0

>  <SCORE.INTER.ROT>
5

>  <SCORE.INTER.SOLV>
19.5632

>  <SCORE.INTER.VDW>
-25.4353

>  <SCORE.INTER.norm>
-0.816879

>  <SCORE.INTRA>
-1.22094

>  <SCORE.INTRA.DIHEDRAL>
-1.75442

>  <SCORE.INTRA.DIHEDRAL.0>
4.21161

>  <SCORE.INTRA.POLAR>
0

>  <SCORE.INTRA.POLAR.0>
0

>  <SCORE.INTRA.REPUL>
0

>  <SCORE.INTRA.REPUL.0>
0

>  <SCORE.INTRA.SOLV>
-0.0064948

>  <SCORE.INTRA.SOLV.lig_0>
-41.4168

>  <SCORE.INTRA.VDW>
-0.340476

>  <SCORE.INTRA.VDW.0>
-1.62533

>  <SCORE.INTRA.norm>
-0.0554971

>  <SCORE.RESTR>
0

>  <SCORE.RESTR.CAVITY>
0

>  <SCORE.RESTR.norm>
0

>  <SCORE.SYSTEM>
0

>  <SCORE.SYSTEM.CONST>
0

>  <SCORE.SYSTEM.DIHEDRAL>
0

>  <SCORE.SYSTEM.SOLV>
0

>  <SCORE.SYSTEM.norm>
0

>  <SCORE.heavy>
22

>  <SCORE.norm>
-0.872376

>  <RMSD>
1.097

$$$$
lig.pdb
 OpenBabel11021811523D
libRbt.so/2013.1/901 2013/11/27
 22 23  0  0  0  0  0  0  0  0999 V2000
   12.9167  -59.5900  -36.8202 O   0  0  0  0  0  0  0  0  0  0  0  0
   13.7346  -59.0654  -37.5598 C   0  0  0  0  0  0  0  0  0  0  0  0
   13.3857  -58.5420  -38.7350 N   0  0  0  0  0  0  0  0  0  0  0  0
   15.1676  -59.0175  -37.1531 C   0  0  0  0  0  0  0  0  0  0  0  0
   16.2369  -58.4105  -37.9611 C   0  0  0  0  0  0  0  0  0  0  0  0
   16.0541  -57.7800  -39.2620 N   0  0  0  0  0  0  0  0  0  0  0  0
   15.8148  -59.4558  -36.0506 N   0  0  0  0  0  0  0  0  0  0  0  0
   17.1421  -59.1461  -36.1808 C   0  0  0  0  0  0  0  0  0  0  0  0
   17.4029  -58.5091  -37.3431 N   0  0  0  0  0  0  0  0  0  0  0  0
   18.7143  -58.0194  -37.8284 C   0  0  1  0  0  0  0  0  0  0  0  0
   19.1840  -56.8388  -36.9944 C   0  0  1  0  0  0  0  0  0  0  0  0
   20.6834  -56.9920  -37.0044 C   0  0  2  0  0  0  0  0  0  0  0  0
   21.2136  -56.3940  -38.1890 O   0  0  0  0  0  0  0  0  0  0  0  0
   18.8113  -55.5997  -37.5989 O   0  0  0  0  0  0  0  0  0  0  0  0
   19.7213  -59.0311  -37.7079 O   0  0  0  0  0  0  0  0  0  0  0  0
   20.8848  -58.4933  -37.0748 C   0  0  2  0  0  0  0  0  0  0  0  0
   21.0363  -59.0655  -35.6738 C   0  0  0  0  0  0  0  0  0  0  0  0
   22.1807  -58.4695  -35.0653 O   0  0  0  0  0  0  0  0  0  0  0  0
   22.6197  -58.8354  -33.5589 P   0  0  0  0  0  0  0  0  0  0  0  0
   22.8929  -60.3214  -33.5809 O   0  0  0  0  0  0  0  0  0  0  0  0
   21.4116  -58.4386  -32.7439 O   0  0  0  0  0  0  0  0  0  0  0  0
   23.8453  -57.9811  -33.3341 O   0  0  0  0  0  0  0  0  0  0  0  0
  1  2  2  0  0  0  0
  2  4  1  0  0  0  0
  2  3  1  0  0  0  0
  4  7  1  0  0  0  0
  5  9  1  0  0  0  0
  5  4  2  0  0  0  0
  6  5  1  0  0  0  0
  8  7  2  0  0  0  0
  9  8  1  0  0  0  0
 10 15  1  0  0  0  0
 10  9  1  1  0  0  0
 10 11  1  0  0  0  0
 11 14  1  6  0  0  0
 11 12  1  0  0  0  0
 12 13  1  6  0  0  0
 15 16  1  0  0  0  0
 16 12  1  0  0  0  0
 16 17  1  1  0  0  0
 17 18  1  0  0  0  0
 18 19  1  0  0  0  0
 19 21  1  0  0  0  0
 19 20  1  0  0  0  0
 22 19  2  0  0  0  0
M  END
>  <CHROM.1>
-179.89500646,110.31336963,-60.77998564,178.98522671,60.35250738,19.02473478
-58.37970268,-36.29771760,2.79710789,-0.26778285,-0.96564639

>  <Name>
lig.pdb

>  <RI>
0

>  <Rbt.Current_Directory>
/home/itssahil/PROJECTS/Mol_Feturizer/New_Systems/rnas/5btp

>  <Rbt.Executable>
rbdock ($Id: //depot/dev/client3/rdock/2013.1/src/exe/rbdock.cxx#4 $)

>  <Rbt.Library>
libRbt.so (2013.1, Build901 2013/11/27)

>  <Rbt.Parameter_File>
/export/apps/rDock/src/rDock_2013.1_src/data/scripts/dock_solv.prm

>  <Rbt.Receptor>
prm/pocket_docking_2.prm

>  <SCORE>
-19.1053

>  <SCORE.INTER>
-17.8716

>  <SCORE.INTER.CONST>
1

>  <SCORE.INTER.POLAR>
0

>  <SCORE.INTER.ROT>
5

>  <SCORE.INTER.SOLV>
19.6126

>  <SCORE.INTER.VDW>
-25.3852

>  <SCORE.INTER.norm>
-0.812345

>  <SCORE.INTRA>
-1.23369

>  <SCORE.INTRA.DIHEDRAL>
-1.78086

>  <SCORE.INTRA.DIHEDRAL.0>
4.21161

>  <SCORE.INTRA.POLAR>
0

>  <SCORE.INTRA.POLAR.0>
0

>  <SCORE.INTRA.REPUL>
0

>  <SCORE.INTRA.REPUL.0>
0

>  <SCORE.INTRA.SOLV>
-0.00745568

>  <SCORE.INTRA.SOLV.lig_0>
-41.4168

>  <SCORE.INTRA.VDW>
-0.339535

>  <SCORE.INTRA.VDW.0>
-1.62533

>  <SCORE.INTRA.norm>
-0.0560769

>  <SCORE.RESTR>
0

>  <SCORE.RESTR.CAVITY>
0

>  <SCORE.RESTR.norm>
0

>  <SCORE.SYSTEM>
0

>  <SCORE.SYSTEM.CONST>
0

>  <SCORE.SYSTEM.DIHEDRAL>
0

>  <SCORE.SYSTEM.SOLV>
0

>  <SCORE.SYSTEM.norm>
0

>  <SCORE.heavy>
22

>  <SCORE.norm>
-0.868422

>  <RMSD>
1.099

$$$$
lig.pdb
 OpenBabel11021811523D
libRbt.so/2013.1/901 2013/11/27
 22 23  0  0  0  0  0  0  0  0999 V2000
   12.9822  -59.7048  -36.8231 O   0  0  0  0  0  0  0  0  0  0  0  0
   13.7745  -59.1135  -37.5399 C   0  0  0  0  0  0  0  0  0  0  0  0
   13.3951  -58.5347  -38.6792 N   0  0  0  0  0  0  0  0  0  0  0  0
   15.2104  -59.0446  -37.1467 C   0  0  0  0  0  0  0  0  0  0  0  0
   16.2623  -58.4179  -37.9625 C   0  0  0  0  0  0  0  0  0  0  0  0
   16.0572  -57.7858  -39.2593 N   0  0  0  0  0  0  0  0  0  0  0  0
   15.8748  -59.4765  -36.0520 N   0  0  0  0  0  0  0  0  0  0  0  0
   17.1958  -59.1455  -36.1936 C   0  0  0  0  0  0  0  0  0  0  0  0
   17.4355  -58.5003  -37.3560 N   0  0  0  0  0  0  0  0  0  0  0  0
   18.7344  -57.9884  -37.8518 C   0  0  1  0  0  0  0  0  0  0  0  0
   19.2183  -56.8363  -36.9867 C   0  0  1  0  0  0  0  0  0  0  0  0
   20.7176  -56.9830  -37.0347 C   0  0  2  0  0  0  0  0  0  0  0  0
   21.2199  -56.3411  -38.2085 O   0  0  0  0  0  0  0  0  0  0  0  0
   18.8284  -55.5780  -37.5384 O   0  0  0  0  0  0  0  0  0  0  0  0
   19.7470  -58.9996  -37.7894 O   0  0  0  0  0  0  0  0  0  0  0  0
   20.9224  -58.4800  -37.1630 C   0  0  2  0  0  0  0  0  0  0  0  0
   21.1063  -59.1011  -35.7869 C   0  0  0  0  0  0  0  0  0  0  0  0
   22.2533  -58.5119  -35.1766 O   0  0  0  0  0  0  0  0  0  0  0  0
   22.7318  -58.9367  -33.6980 P   0  0  0  0  0  0  0  0  0  0  0  0
   23.9521  -58.0888  -33.4229 O   0  0  0  0  0  0  0  0  0  0  0  0
   23.0211  -60.4120  -33.8420 O   0  0  0  0  0  0  0  0  0  0  0  0
   21.5371  -58.6056  -32.8347 O   0  0  0  0  0  0  0  0  0  0  0  0
  1  2  2  0  0  0  0
  2  4  1  0  0  0  0
  2  3  1  0  0  0  0
  4  7  1  0  0  0  0
  5  9  1  0  0  0  0
  5  4  2  0  0  0  0
  6  5  1  0  0  0  0
  8  7  2  0  0  0  0
  9  8  1  0  0  0  0
 10 15  1  0  0  0  0
 10  9  1  1  0  0  0
 10 11  1  0  0  0  0
 11 14  1  6  0  0  0
 11 12  1  0  0  0  0
 12 13  1  6  0  0  0
 15 16  1  0  0  0  0
 16 12  1  0  0  0  0
 16 17  1  1  0  0  0
 17 18  1  0  0  0  0
 18 19  1  0  0  0  0
 19 21  1  0  0  0  0
 19 20  1  0  0  0  0
 22 19  2  0  0  0  0
M  END
>  <CHROM.1>
176.89528056,112.39511436,-60.15588832,179.56415848,-179.54602584,19.08025697
-58.41212800,-36.34743062,2.81841381,-0.26401587,-0.92529136

>  <Name>
lig.pdb

>  <RI>
0

>  <Rbt.Current_Directory>
/home/itssahil/PROJECTS/Mol_Feturizer/New_Systems/rnas/5btp

>  <Rbt.Executable>
rbdock ($Id: //depot/dev/client3/rdock/2013.1/src/exe/rbdock.cxx#4 $)

>  <Rbt.Library>
libRbt.so (2013.1, Build901 2013/11/27)

>  <Rbt.Parameter_File>
/export/apps/rDock/src/rDock_2013.1_src/data/scripts/dock_solv.prm

>  <Rbt.Receptor>
prm/pocket_docking_2.prm

>  <SCORE>
-18.8202

>  <SCORE.INTER>
-17.7504

>  <SCORE.INTER.CONST>
1

>  <SCORE.INTER.POLAR>
0

>  <SCORE.INTER.ROT>
5

>  <SCORE.INTER.SOLV>
19.8696

>  <SCORE.INTER.VDW>
-25.3901

>  <SCORE.INTER.norm>
-0.806835

>  <SCORE.INTRA>
-1.06981

>  <SCORE.INTRA.DIHEDRAL>
-1.75547

>  <SCORE.INTRA.DIHEDRAL.0>
4.21161

>  <SCORE.INTRA.POLAR>
0

>  <SCORE.INTRA.POLAR.0>
0

>  <SCORE.INTRA.REPUL>
0

>  <SCORE.INTRA.REPUL.0>
0

>  <SCORE.INTRA.SOLV>
0.194299

>  <SCORE.INTRA.SOLV.lig_0>
-41.4168

>  <SCORE.INTRA.VDW>
-0.28922

>  <SCORE.INTRA.VDW.0>
-1.62533

>  <SCORE.INTRA.norm>
-0.0486276

>  <SCORE.RESTR>
0

>  <SCORE.RESTR.CAVITY>
0

>  <SCORE.RESTR.norm>
0

>  <SCORE.SYSTEM>
0

>  <SCORE.SYSTEM.CONST>
0

>  <SCORE.SYSTEM.DIHEDRAL>
0

>  <SCORE.SYSTEM.SOLV>
0

>  <SCORE.SYSTEM.norm>
0

>  <SCORE.heavy>
22

>  <SCORE.norm>
-0.855463

>  <RMSD>
1.100

$$$$
lig.pdb
 OpenBabel11021811523D
libRbt.so/2013.1/901 2013/11/27
 22 23  0  0  0  0  0  0  0  0999 V2000
   12.9551  -59.5963  -36.7809 O   0  0  0  0  0  0  0  0  0  0  0  0
   13.7620  -59.0633  -37.5264 C   0  0  0  0  0  0  0  0  0  0  0  0
   13.3958  -58.5266  -38.6903 N   0  0  0  0  0  0  0  0  0  0  0  0
   15.2009  -59.0201  -37.1405 C   0  0  0  0  0  0  0  0  0  0  0  0
   16.2573  -58.3986  -37.9546 C   0  0  0  0  0  0  0  0  0  0  0  0
   16.0543  -57.7476  -39.2423 N   0  0  0  0  0  0  0  0  0  0  0  0
   15.8650  -59.4751  -36.0551 N   0  0  0  0  0  0  0  0  0  0  0  0
   17.1898  -59.1616  -36.2001 C   0  0  0  0  0  0  0  0  0  0  0  0
   17.4325  -58.5056  -37.3558 N   0  0  0  0  0  0  0  0  0  0  0  0
   18.7359  -58.0064  -37.8527 C   0  0  1  0  0  0  0  0  0  0  0  0
   19.2253  -56.8502  -36.9961 C   0  0  1  0  0  0  0  0  0  0  0  0
   20.7238  -57.0072  -37.0391 C   0  0  2  0  0  0  0  0  0  0  0  0
   21.2331  -56.3786  -38.2171 O   0  0  0  0  0  0  0  0  0  0  0  0
   18.8451  -55.5941  -37.5595 O   0  0  0  0  0  0  0  0  0  0  0  0
   19.7418  -59.0237  -37.7792 O   0  0  0  0  0  0  0  0  0  0  0  0
   20.9189  -58.5065  -37.1542 C   0  0  2  0  0  0  0  0  0  0  0  0
   21.0954  -59.1170  -35.7724 C   0  0  0  0  0  0  0  0  0  0  0  0
   22.2225  -58.5033  -35.1496 O   0  0  0  0  0  0  0  0  0  0  0  0
   22.6911  -58.9147  -33.6640 P   0  0  0  0  0  0  0  0  0  0  0  0
   23.8834  -58.0336  -33.3716 O   0  0  0  0  0  0  0  0  0  0  0  0
   23.0231  -60.3816  -33.8032 O   0  0  0  0  0  0  0  0  0  0  0  0
   21.4753  -58.6167  -32.8182 O   0  0  0  0  0  0  0  0  0  0  0  0
  1  2  2  0  0  0  0
  2  4  1  0  0  0  0
  2  3  1  0  0  0  0
  4  7  1  0  0  0  0
  5  9  1  0  0  0  0
  5  4  2  0  0  0  0
  6  5  1  0  0  0  0
  8  7  2  0  0  0  0
  9  8  1  0  0  0  0
 10 15  1  0  0  0  0
 10  9  1  1  0  0  0
 10 11  1  0  0  0  0
 11 14  1  6  0  0  0
 11 12  1  0  0  0  0
 12 13  1  6  0  0  0
 15 16  1  0  0  0  0
 16 12  1  0  0  0  0
 16 17  1  1  0  0  0
 17 18  1  0  0  0  0
 18 19  1  0  0  0  0
 19 21  1  0  0  0  0
 19 20  1  0  0  0  0
 22 19  2  0  0  0  0
M  END
>  <CHROM.1>
-179.61300697,111.03547885,-58.55099281,179.75578194,-179.09173030,19.06672800
-58.40388742,-36.33540745,2.80940791,-0.25754348,-0.94516297

>  <Name>
lig.pdb

>  <RI>
0

>  <Rbt.Current_Directory>
/home/itssahil/PROJECTS/Mol_Feturizer/New_Systems/rnas/5btp

>  <Rbt.Executable>
rbdock ($Id: //depot/dev/client3/rdock/2013.1/src/exe/rbdock.cxx#4 $)

>  <Rbt.Library>
libRbt.so (2013.1, Build901 2013/11/27)

>  <Rbt.Parameter_File>
/export/apps/rDock/src/rDock_2013.1_src/data/scripts/dock_solv.prm

>  <Rbt.Receptor>
prm/pocket_docking_4.prm

>  <SCORE>
-18.8042

>  <SCORE.INTER>
-17.7511

>  <SCORE.INTER.CONST>
1

>  <SCORE.INTER.POLAR>
0

>  <SCORE.INTER.ROT>
5

>  <SCORE.INTER.SOLV>
19.9465

>  <SCORE.INTER.VDW>
-25.4162

>  <SCORE.INTER.norm>
-0.806867

>  <SCORE.INTRA>
-1.05315

>  <SCORE.INTRA.DIHEDRAL>
-1.78072

>  <SCORE.INTRA.DIHEDRAL.0>
4.21161

>  <SCORE.INTRA.POLAR>
0

>  <SCORE.INTRA.POLAR.0>
0

>  <SCORE.INTRA.REPUL>
0

>  <SCORE.INTRA.REPUL.0>
0

>  <SCORE.INTRA.SOLV>
0.21673

>  <SCORE.INTRA.SOLV.lig_0>
-41.4168

>  <SCORE.INTRA.VDW>
-0.271158

>  <SCORE.INTRA.VDW.0>
-1.62533

>  <SCORE.INTRA.norm>
-0.0478706

>  <SCORE.RESTR>
0

>  <SCORE.RESTR.CAVITY>
0

>  <SCORE.RESTR.norm>
0

>  <SCORE.SYSTEM>
0

>  <SCORE.SYSTEM.CONST>
0

>  <SCORE.SYSTEM.DIHEDRAL>
0

>  <SCORE.SYSTEM.SOLV>
0

>  <SCORE.SYSTEM.norm>
0

>  <SCORE.heavy>
22

>  <SCORE.norm>
-0.854738

>  <RMSD>
1.101

$$$$
lig.pdb
 OpenBabel11021811523D
libRbt.so/2013.1/901 2013/11/27
 22 23  0  0  0  0  0  0  0  0999 V2000
   12.9021  -59.6314  -36.7911 O   0  0  0  0  0  0  0  0  0  0  0  0
   13.7108  -59.0781  -37.5196 C   0  0  0  0  0  0  0  0  0  0  0  0
   13.3491  -58.5177  -38.6737 N   0  0  0  0  0  0  0  0  0  0  0  0
   15.1471  -59.0361  -37.1237 C   0  0  0  0  0  0  0  0  0  0  0  0
   16.2130  -58.4347  -37.9405 C   0  0  0  0  0  0  0  0  0  0  0  0
   16.0232  -57.8052  -39.2408 N   0  0  0  0  0  0  0  0  0  0  0  0
   15.8005  -59.4758  -36.0256 N   0  0  0  0  0  0  0  0  0  0  0  0
   17.1282  -59.1721  -36.1661 C   0  0  0  0  0  0  0  0  0  0  0  0
   17.3831  -58.5377  -37.3311 N   0  0  0  0  0  0  0  0  0  0  0  0
   18.6930  -58.0545  -37.8268 C   0  0  1  0  0  0  0  0  0  0  0  0
   19.1707  -56.8703  -37.0025 C   0  0  1  0  0  0  0  0  0  0  0  0
   20.6696  -57.0277  -37.0203 C   0  0  2  0  0  0  0  0  0  0  0  0
   21.1945  -56.4381  -38.2115 O   0  0  0  0  0  0  0  0  0  0  0  0
   18.7978  -55.6337  -37.6122 O   0  0  0  0  0  0  0  0  0  0  0  0
   19.6979  -59.0682  -37.7062 O   0  0  0  0  0  0  0  0  0  0  0  0
   20.8665  -58.5299  -37.0830 C   0  0  2  0  0  0  0  0  0  0  0  0
   21.0245  -59.0942  -35.6796 C   0  0  0  0  0  0  0  0  0  0  0  0
   22.1855  -58.5128  -35.0886 O   0  0  0  0  0  0  0  0  0  0  0  0
   22.6426  -58.8843  -33.5889 P   0  0  0  0  0  0  0  0  0  0  0  0
   22.8365  -60.3829  -33.5989 O   0  0  0  0  0  0  0  0  0  0  0  0
   21.4781  -58.4150  -32.7495 O   0  0  0  0  0  0  0  0  0  0  0  0
   23.9167  -58.0936  -33.4052 O   0  0  0  0  0  0  0  0  0  0  0  0
  1  2  2  0  0  0  0
  2  4  1  0  0  0  0
  2  3  1  0  0  0  0
  4  7  1  0  0  0  0
  5  9  1  0  0  0  0
  5  4  2  0  0  0  0
  6  5  1  0  0  0  0
  8  7  2  0  0  0  0
  9  8  1  0  0  0  0
 10 15  1  0  0  0  0
 10  9  1  1  0  0  0
 10 11  1  0  0  0  0
 11 14  1  6  0  0  0
 11 12  1  0  0  0  0
 12 13  1  6  0  0  0
 15 16  1  0  0  0  0
 16 12  1  0  0  0  0
 16 17  1  1  0  0  0
 17 18  1  0  0  0  0
 18 19  1  0  0  0  0
 19 21  1  0  0  0  0
 19 20  1  0  0  0  0
 22 19  2  0  0  0  0
M  END
>  <CHROM.1>
178.04280112,110.01508898,-61.63642610,179.51012396,57.88367338,19.01717311
-58.41311122,-36.29900423,2.80222948,-0.26069932,-0.96166645

>  <Name>
lig.pdb

>  <RI>
0

>  <Rbt.Current_Directory>
/home/itssahil/PROJECTS/Mol_Feturizer/New_Systems/rnas/5btp

>  <Rbt.Executable>
rbdock ($Id: //depot/dev/client3/rdock/2013.1/src/exe/rbdock.cxx#4 $)

>  <Rbt.Library>
libRbt.so (2013.1, Build901 2013/11/27)

>  <Rbt.Parameter_File>
/export/apps/rDock/src/rDock_2013.1_src/data/scripts/dock_solv.prm

>  <Rbt.Receptor>
prm/pocket_docking_2.prm

>  <SCORE>
-19.1211

>  <SCORE.INTER>
-17.882

>  <SCORE.INTER.CONST>
1

>  <SCORE.INTER.POLAR>
0

>  <SCORE.INTER.ROT>
5

>  <SCORE.INTER.SOLV>
19.7033

>  <SCORE.INTER.VDW>
-25.4225

>  <SCORE.INTER.norm>
-0.812819

>  <SCORE.INTRA>
-1.23903

>  <SCORE.INTRA.DIHEDRAL>
-1.75694

>  <SCORE.INTRA.DIHEDRAL.0>
4.21161

>  <SCORE.INTRA.POLAR>
0

>  <SCORE.INTRA.POLAR.0>
0

>  <SCORE.INTRA.REPUL>
0

>  <SCORE.INTRA.REPUL.0>
0

>  <SCORE.INTRA.SOLV>
-0.0116228

>  <SCORE.INTRA.SOLV.lig_0>
-41.4168

>  <SCORE.INTRA.VDW>
-0.354745

>  <SCORE.INTRA.VDW.0>
-1.62533

>  <SCORE.INTRA.norm>
-0.0563195

>  <SCORE.RESTR>
0

>  <SCORE.RESTR.CAVITY>
0

>  <SCORE.RESTR.norm>
0

>  <SCORE.SYSTEM>
0

>  <SCORE.SYSTEM.CONST>
0

>  <SCORE.SYSTEM.DIHEDRAL>
0

>  <SCORE.SYSTEM.SOLV>
0

>  <SCORE.SYSTEM.norm>
0

>  <SCORE.heavy>
22

>  <SCORE.norm>
-0.869139

>  <RMSD>
1.108

$$$$
lig.pdb
 OpenBabel11021811523D
libRbt.so/2013.1/901 2013/11/27
 22 23  0  0  0  0  0  0  0  0999 V2000
   12.9363  -59.6172  -36.8307 O   0  0  0  0  0  0  0  0  0  0  0  0
   13.7507  -59.0650  -37.5537 C   0  0  0  0  0  0  0  0  0  0  0  0
   13.3970  -58.5013  -38.7087 N   0  0  0  0  0  0  0  0  0  0  0  0
   15.1848  -59.0280  -37.1498 C   0  0  0  0  0  0  0  0  0  0  0  0
   16.2559  -58.4215  -37.9561 C   0  0  0  0  0  0  0  0  0  0  0  0
   16.0738  -57.7812  -39.2523 N   0  0  0  0  0  0  0  0  0  0  0  0
   15.8319  -59.4774  -36.0518 N   0  0  0  0  0  0  0  0  0  0  0  0
   17.1606  -59.1744  -36.1828 C   0  0  0  0  0  0  0  0  0  0  0  0
   17.4226  -58.5309  -37.3413 N   0  0  0  0  0  0  0  0  0  0  0  0
   18.7357  -58.0454  -37.8261 C   0  0  1  0  0  0  0  0  0  0  0  0
   19.2386  -56.9077  -36.9529 C   0  0  1  0  0  0  0  0  0  0  0  0
   20.7347  -57.0868  -36.9913 C   0  0  2  0  0  0  0  0  0  0  0  0
   21.2589  -56.4513  -38.1589 O   0  0  0  0  0  0  0  0  0  0  0  0
   18.8800  -55.6389  -37.5020 O   0  0  0  0  0  0  0  0  0  0  0  0
   19.7256  -59.0787  -37.7610 O   0  0  0  0  0  0  0  0  0  0  0  0
   20.9076  -58.5874  -37.1244 C   0  0  2  0  0  0  0  0  0  0  0  0
   21.0684  -59.2179  -35.7497 C   0  0  0  0  0  0  0  0  0  0  0  0
   22.2261  -58.6593  -35.1308 O   0  0  0  0  0  0  0  0  0  0  0  0
   22.6718  -59.0830  -33.6416 P   0  0  0  0  0  0  0  0  0  0  0  0
   22.9287  -60.5701  -33.7182 O   0  0  0  0  0  0  0  0  0  0  0  0
   21.4738  -58.7026  -32.8041 O   0  0  0  0  0  0  0  0  0  0  0  0
   23.9081  -58.2502  -33.3958 O   0  0  0  0  0  0  0  0  0  0  0  0
  1  2  2  0  0  0  0
  2  4  1  0  0  0  0
  2  3  1  0  0  0  0
  4  7  1  0  0  0  0
  5  9  1  0  0  0  0
  5  4  2  0  0  0  0
  6  5  1  0  0  0  0
  8  7  2  0  0  0  0
  9  8  1  0  0  0  0
 10 15  1  0  0  0  0
 10  9  1  1  0  0  0
 10 11  1  0  0  0  0
 11 14  1  6  0  0  0
 11 12  1  0  0  0  0
 12 13  1  6  0  0  0
 15 16  1  0  0  0  0
 16 12  1  0  0  0  0
 16 17  1  1  0  0  0
 17 18  1  0  0  0  0
 18 19  1  0  0  0  0
 19 21  1  0  0  0  0
 19 20  1  0  0  0  0
 22 19  2  0  0  0  0
M  END
>  <CHROM.1>
178.41126668,112.45927008,-60.33151962,178.53017197,60.56971550,19.05909454
-58.47805183,-36.31906842,2.79859300,-0.25147378,-0.93027200

>  <Name>
lig.pdb

>  <RI>
0

>  <Rbt.Current_Directory>
/home/itssahil/PROJECTS/Mol_Feturizer/New_Systems/rnas/5btp

>  <Rbt.Executable>
rbdock ($Id: //depot/dev/client3/rdock/2013.1/src/exe/rbdock.cxx#4 $)

>  <Rbt.Library>
libRbt.so (2013.1, Build901 2013/11/27)

>  <Rbt.Parameter_File>
/export/apps/rDock/src/rDock_2013.1_src/data/scripts/dock_solv.prm

>  <Rbt.Receptor>
prm/pocket_docking_4.prm

>  <SCORE>
-19.1338

>  <SCORE.INTER>
-17.9136

>  <SCORE.INTER.CONST>
1

>  <SCORE.INTER.POLAR>
0

>  <SCORE.INTER.ROT>
5

>  <SCORE.INTER.SOLV>
19.5772

>  <SCORE.INTER.VDW>
-25.4015

>  <SCORE.INTER.norm>
-0.814255

>  <SCORE.INTRA>
-1.22021

>  <SCORE.INTRA.DIHEDRAL>
-1.76948

>  <SCORE.INTRA.DIHEDRAL.0>
4.21161

>  <SCORE.INTRA.POLAR>
0

>  <SCORE.INTRA.POLAR.0>
0

>  <SCORE.INTRA.REPUL>
0

>  <SCORE.INTRA.REPUL.0>
0

>  <SCORE.INTRA.SOLV>
-0.0239157

>  <SCORE.INTRA.SOLV.lig_0>
-41.4168

>  <SCORE.INTRA.VDW>
-0.323516

>  <SCORE.INTRA.VDW.0>
-1.62533

>  <SCORE.INTRA.norm>
-0.0554643

>  <SCORE.RESTR>
0

>  <SCORE.RESTR.CAVITY>
0

>  <SCORE.RESTR.norm>
0

>  <SCORE.SYSTEM>
0

>  <SCORE.SYSTEM.CONST>
0

>  <SCORE.SYSTEM.DIHEDRAL>
0

>  <SCORE.SYSTEM.SOLV>
0

>  <SCORE.SYSTEM.norm>
0

>  <SCORE.heavy>
22

>  <SCORE.norm>
-0.869719

>  <RMSD>
1.114

$$$$
lig.pdb
 OpenBabel11021811523D
libRbt.so/2013.1/901 2013/11/27
 22 23  0  0  0  0  0  0  0  0999 V2000
   12.8756  -59.5482  -36.7824 O   0  0  0  0  0  0  0  0  0  0  0  0
   13.6968  -59.0407  -37.5302 C   0  0  0  0  0  0  0  0  0  0  0  0
   13.3488  -58.5210  -38.7074 N   0  0  0  0  0  0  0  0  0  0  0  0
   15.1325  -59.0101  -37.1316 C   0  0  0  0  0  0  0  0  0  0  0  0
   16.2037  -58.4112  -37.9433 C   0  0  0  0  0  0  0  0  0  0  0  0
   16.0202  -57.7734  -39.2405 N   0  0  0  0  0  0  0  0  0  0  0  0
   15.7812  -59.4601  -36.0348 N   0  0  0  0  0  0  0  0  0  0  0  0
   17.1110  -59.1642  -36.1714 C   0  0  0  0  0  0  0  0  0  0  0  0
   17.3721  -58.5251  -37.3325 N   0  0  0  0  0  0  0  0  0  0  0  0
   18.6859  -58.0477  -37.8233 C   0  0  1  0  0  0  0  0  0  0  0  0
   19.1721  -56.8743  -36.9886 C   0  0  1  0  0  0  0  0  0  0  0  0
   20.6698  -57.0429  -37.0069 C   0  0  2  0  0  0  0  0  0  0  0  0
   21.2000  -56.4472  -38.1927 O   0  0  0  0  0  0  0  0  0  0  0  0
   18.8091  -55.6297  -37.5879 O   0  0  0  0  0  0  0  0  0  0  0  0
   19.6830  -59.0700  -37.7109 O   0  0  0  0  0  0  0  0  0  0  0  0
   20.8553  -58.5460  -37.0824 C   0  0  2  0  0  0  0  0  0  0  0  0
   21.0082  -59.1235  -35.6838 C   0  0  0  0  0  0  0  0  0  0  0  0
   22.1649  -58.5451  -35.0818 O   0  0  0  0  0  0  0  0  0  0  0  0
   22.6240  -58.9408  -33.5889 P   0  0  0  0  0  0  0  0  0  0  0  0
   22.8888  -60.4276  -33.6421 O   0  0  0  0  0  0  0  0  0  0  0  0
   21.4302  -58.5529  -32.7491 O   0  0  0  0  0  0  0  0  0  0  0  0
   23.8573  -58.0970  -33.3667 O   0  0  0  0  0  0  0  0  0  0  0  0
  1  2  2  0  0  0  0
  2  4  1  0  0  0  0
  2  3  1  0  0  0  0
  4  7  1  0  0  0  0
  5  9  1  0  0  0  0
  5  4  2  0  0  0  0
  6  5  1  0  0  0  0
  8  7  2  0  0  0  0
  9  8  1  0  0  0  0
 10 15  1  0  0  0  0
 10  9  1  1  0  0  0
 10 11  1  0  0  0  0
 11 14  1  6  0  0  0
 11 12  1  0  0  0  0
 12 13  1  6  0  0  0
 15 16  1  0  0  0  0
 16 12  1  0  0  0  0
 16 17  1  1  0  0  0
 17 18  1  0  0  0  0
 18 19  1  0  0  0  0
 19 21  1  0  0  0  0
 19 20  1  0  0  0  0
 22 19  2  0  0  0  0
M  END
>  <CHROM.1>
-179.20382603,110.21601600,-61.01250650,-179.89018485,60.38206188,19.00574783
-58.42177881,-36.29839769,2.79635722,-0.25455823,-0.95822666

>  <Name>
lig.pdb

>  <RI>
0

>  <Rbt.Current_Directory>
/home/itssahil/PROJECTS/Mol_Feturizer/New_Systems/rnas/5btp

>  <Rbt.Executable>
rbdock ($Id: //depot/dev/client3/rdock/2013.1/src/exe/rbdock.cxx#4 $)

>  <Rbt.Library>
libRbt.so (2013.1, Build901 2013/11/27)

>  <Rbt.Parameter_File>
/export/apps/rDock/src/rDock_2013.1_src/data/scripts/dock_solv.prm

>  <Rbt.Receptor>
prm/pocket_docking_5.prm

>  <SCORE>
-19.0923

>  <SCORE.INTER>
-17.8538

>  <SCORE.INTER.CONST>
1

>  <SCORE.INTER.POLAR>
0

>  <SCORE.INTER.ROT>
5

>  <SCORE.INTER.SOLV>
19.6978

>  <SCORE.INTER.VDW>
-25.4018

>  <SCORE.INTER.norm>
-0.811538

>  <SCORE.INTRA>
-1.23847

>  <SCORE.INTRA.DIHEDRAL>
-1.78181

>  <SCORE.INTRA.DIHEDRAL.0>
4.21161

>  <SCORE.INTRA.POLAR>
0

>  <SCORE.INTRA.POLAR.0>
0

>  <SCORE.INTRA.REPUL>
0

>  <SCORE.INTRA.REPUL.0>
0

>  <SCORE.INTRA.SOLV>
-0.0133633

>  <SCORE.INTRA.SOLV.lig_0>
-41.4168

>  <SCORE.INTRA.VDW>
-0.340882

>  <SCORE.INTRA.VDW.0>
-1.62533

>  <SCORE.INTRA.norm>
-0.0562941

>  <SCORE.RESTR>
0

>  <SCORE.RESTR.CAVITY>
0

>  <SCORE.RESTR.norm>
0

>  <SCORE.SYSTEM>
0

>  <SCORE.SYSTEM.CONST>
0

>  <SCORE.SYSTEM.DIHEDRAL>
0

>  <SCORE.SYSTEM.SOLV>
0

>  <SCORE.SYSTEM.norm>
0

>  <SCORE.heavy>
22

>  <SCORE.norm>
-0.867832

>  <RMSD>
1.114

$$$$
lig.pdb
 OpenBabel11021811523D
libRbt.so/2013.1/901 2013/11/27
 22 23  0  0  0  0  0  0  0  0999 V2000
   12.9313  -59.6570  -36.7678 O   0  0  0  0  0  0  0  0  0  0  0  0
   13.7283  -59.1268  -37.5259 C   0  0  0  0  0  0  0  0  0  0  0  0
   13.3520  -58.6226  -38.7011 N   0  0  0  0  0  0  0  0  0  0  0  0
   15.1665  -59.0497  -37.1426 C   0  0  0  0  0  0  0  0  0  0  0  0
   16.2097  -58.4201  -37.9672 C   0  0  0  0  0  0  0  0  0  0  0  0
   15.9928  -57.7925  -39.2642 N   0  0  0  0  0  0  0  0  0  0  0  0
   15.8404  -59.4755  -36.0514 N   0  0  0  0  0  0  0  0  0  0  0  0
   17.1588  -59.1384  -36.2028 C   0  0  0  0  0  0  0  0  0  0  0  0
   17.3875  -58.4952  -37.3684 N   0  0  0  0  0  0  0  0  0  0  0  0
   18.6804  -57.9782  -37.8744 C   0  0  1  0  0  0  0  0  0  0  0  0
   19.1592  -56.8145  -37.0220 C   0  0  1  0  0  0  0  0  0  0  0  0
   20.6594  -56.9505  -37.0749 C   0  0  2  0  0  0  0  0  0  0  0  0
   21.1520  -56.3158  -38.2567 O   0  0  0  0  0  0  0  0  0  0  0  0
   18.7576  -55.5643  -37.5838 O   0  0  0  0  0  0  0  0  0  0  0  0
   19.7009  -58.9812  -37.8069 O   0  0  0  0  0  0  0  0  0  0  0  0
   20.8748  -58.4470  -37.1901 C   0  0  2  0  0  0  0  0  0  0  0  0
   21.0690  -59.0538  -35.8091 C   0  0  0  0  0  0  0  0  0  0  0  0
   22.2002  -58.4339  -35.2000 O   0  0  0  0  0  0  0  0  0  0  0  0
   22.6814  -58.8337  -33.7152 P   0  0  0  0  0  0  0  0  0  0  0  0
   22.9818  -60.3129  -33.7862 O   0  0  0  0  0  0  0  0  0  0  0  0
   21.4856  -58.4837  -32.8615 O   0  0  0  0  0  0  0  0  0  0  0  0
   23.8957  -57.9624  -33.4942 O   0  0  0  0  0  0  0  0  0  0  0  0
  1  2  2  0  0  0  0
  2  4  1  0  0  0  0
  2  3  1  0  0  0  0
  4  7  1  0  0  0  0
  5  9  1  0  0  0  0
  5  4  2  0  0  0  0
  6  5  1  0  0  0  0
  8  7  2  0  0  0  0
  9  8  1  0  0  0  0
 10 15  1  0  0  0  0
 10  9  1  1  0  0  0
 10 11  1  0  0  0  0
 11 14  1  6  0  0  0
 11 12  1  0  0  0  0
 12 13  1  6  0  0  0
 15 16  1  0  0  0  0
 16 12  1  0  0  0  0
 16 17  1  1  0  0  0
 17 18  1  0  0  0  0
 18 19  1  0  0  0  0
 19 21  1  0  0  0  0
 19 20  1  0  0  0  0
 22 19  2  0  0  0  0
M  END
>  <CHROM.1>
-179.17840527,111.95919810,-59.16259581,179.37471252,59.08081275,19.02948019
-58.37512144,-36.36233288,2.82439290,-0.26707099,-0.94136893

>  <Name>
lig.pdb

>  <RI>
0

>  <Rbt.Current_Directory>
/home/itssahil/PROJECTS/Mol_Feturizer/New_Systems/rnas/5btp

>  <Rbt.Executable>
rbdock ($Id: //depot/dev/client3/rdock/2013.1/src/exe/rbdock.cxx#4 $)

>  <Rbt.Library>
libRbt.so (2013.1, Build901 2013/11/27)

>  <Rbt.Parameter_File>
/export/apps/rDock/src/rDock_2013.1_src/data/scripts/dock_solv.prm

>  <Rbt.Receptor>
prm/pocket_docking_2.prm

>  <SCORE>
-19.1026

>  <SCORE.INTER>
-17.8921

>  <SCORE.INTER.CONST>
1

>  <SCORE.INTER.POLAR>
0

>  <SCORE.INTER.ROT>
5

>  <SCORE.INTER.SOLV>
19.8

>  <SCORE.INTER.VDW>
-25.4614

>  <SCORE.INTER.norm>
-0.813277

>  <SCORE.INTRA>
-1.21053

>  <SCORE.INTRA.DIHEDRAL>
-1.78236

>  <SCORE.INTRA.DIHEDRAL.0>
4.21161

>  <SCORE.INTRA.POLAR>
0

>  <SCORE.INTRA.POLAR.0>
0

>  <SCORE.INTRA.REPUL>
0

>  <SCORE.INTRA.REPUL.0>
0

>  <SCORE.INTRA.SOLV>
-0.0172891

>  <SCORE.INTRA.SOLV.lig_0>
-41.4168

>  <SCORE.INTRA.VDW>
-0.310709

>  <SCORE.INTRA.VDW.0>
-1.62533

>  <SCORE.INTRA.norm>
-0.0550243

>  <SCORE.RESTR>
0

>  <SCORE.RESTR.CAVITY>
0

>  <SCORE.RESTR.norm>
0

>  <SCORE.SYSTEM>
0

>  <SCORE.SYSTEM.CONST>
0

>  <SCORE.SYSTEM.DIHEDRAL>
0

>  <SCORE.SYSTEM.SOLV>
0

>  <SCORE.SYSTEM.norm>
0

>  <SCORE.heavy>
22

>  <SCORE.norm>
-0.868302

>  <RMSD>
1.116

$$$$
lig.pdb
 OpenBabel11021811523D
libRbt.so/2013.1/901 2013/11/27
 22 23  0  0  0  0  0  0  0  0999 V2000
   12.9292  -59.6105  -36.7880 O   0  0  0  0  0  0  0  0  0  0  0  0
   13.7369  -59.0679  -37.5257 C   0  0  0  0  0  0  0  0  0  0  0  0
   13.3723  -58.5183  -38.6841 N   0  0  0  0  0  0  0  0  0  0  0  0
   15.1749  -59.0270  -37.1363 C   0  0  0  0  0  0  0  0  0  0  0  0
   16.2366  -58.4207  -37.9549 C   0  0  0  0  0  0  0  0  0  0  0  0
   16.0403  -57.7844  -39.2510 N   0  0  0  0  0  0  0  0  0  0  0  0
   15.8338  -59.4721  -36.0436 N   0  0  0  0  0  0  0  0  0  0  0  0
   17.1605  -59.1669  -36.1887 C   0  0  0  0  0  0  0  0  0  0  0  0
   17.4096  -58.5261  -37.3516 N   0  0  0  0  0  0  0  0  0  0  0  0
   18.7169  -58.0394  -37.8508 C   0  0  1  0  0  0  0  0  0  0  0  0
   19.2295  -56.9029  -36.9818 C   0  0  1  0  0  0  0  0  0  0  0  0
   20.7251  -57.0814  -37.0378 C   0  0  2  0  0  0  0  0  0  0  0  0
   21.2355  -56.4440  -38.2105 O   0  0  0  0  0  0  0  0  0  0  0  0
   18.8642  -55.6334  -37.5248 O   0  0  0  0  0  0  0  0  0  0  0  0
   19.7078  -59.0725  -37.7988 O   0  0  0  0  0  0  0  0  0  0  0  0
   20.8970  -58.5817  -37.1752 C   0  0  2  0  0  0  0  0  0  0  0  0
   21.0739  -59.2142  -35.8034 C   0  0  0  0  0  0  0  0  0  0  0  0
   22.2523  -58.6745  -35.2074 O   0  0  0  0  0  0  0  0  0  0  0  0
   22.7229  -59.1093  -33.7291 P   0  0  0  0  0  0  0  0  0  0  0  0
   24.0304  -58.3853  -33.5058 O   0  0  0  0  0  0  0  0  0  0  0  0
   22.8556  -60.6098  -33.8391 O   0  0  0  0  0  0  0  0  0  0  0  0
   21.5912  -58.6353  -32.8477 O   0  0  0  0  0  0  0  0  0  0  0  0
  1  2  2  0  0  0  0
  2  4  1  0  0  0  0
  2  3  1  0  0  0  0
  4  7  1  0  0  0  0
  5  9  1  0  0  0  0
  5  4  2  0  0  0  0
  6  5  1  0  0  0  0
  8  7  2  0  0  0  0
  9  8  1  0  0  0  0
 10 15  1  0  0  0  0
 10  9  1  1  0  0  0
 10 11  1  0  0  0  0
 11 14  1  6  0  0  0
 11 12  1  0  0  0  0
 12 13  1  6  0  0  0
 15 16  1  0  0  0  0
 16 12  1  0  0  0  0
 16 17  1  1  0  0  0
 17 18  1  0  0  0  0
 18 19  1  0  0  0  0
 19 21  1  0  0  0  0
 19 20  1  0  0  0  0
 22 19  2  0  0  0  0
M  END
>  <CHROM.1>
178.98288582,112.73714067,-61.39679548,178.78160306,176.94082980,19.06395164
-58.48436834,-36.35355102,2.80923172,-0.24344759,-0.92112323

>  <Name>
lig.pdb

>  <RI>
0

>  <Rbt.Current_Directory>
/home/itssahil/PROJECTS/Mol_Feturizer/New_Systems/rnas/5btp

>  <Rbt.Executable>
rbdock ($Id: //depot/dev/client3/rdock/2013.1/src/exe/rbdock.cxx#4 $)

>  <Rbt.Library>
libRbt.so (2013.1, Build901 2013/11/27)

>  <Rbt.Parameter_File>
/export/apps/rDock/src/rDock_2013.1_src/data/scripts/dock_solv.prm

>  <Rbt.Receptor>
prm/pocket_docking_3.prm

>  <SCORE>
-18.7946

>  <SCORE.INTER>
-17.7241

>  <SCORE.INTER.CONST>
1

>  <SCORE.INTER.POLAR>
0

>  <SCORE.INTER.ROT>
5

>  <SCORE.INTER.SOLV>
20.0184

>  <SCORE.INTER.VDW>
-25.4222

>  <SCORE.INTER.norm>
-0.805641

>  <SCORE.INTRA>
-1.07054

>  <SCORE.INTRA.DIHEDRAL>
-1.75636

>  <SCORE.INTRA.DIHEDRAL.0>
4.21161

>  <SCORE.INTRA.POLAR>
0

>  <SCORE.INTRA.POLAR.0>
0

>  <SCORE.INTRA.REPUL>
0

>  <SCORE.INTRA.REPUL.0>
0

>  <SCORE.INTRA.SOLV>
0.178683

>  <SCORE.INTRA.SOLV.lig_0>
-41.4168

>  <SCORE.INTRA.VDW>
-0.281705

>  <SCORE.INTRA.VDW.0>
-1.62533

>  <SCORE.INTRA.norm>
-0.048661

>  <SCORE.RESTR>
0

>  <SCORE.RESTR.CAVITY>
0

>  <SCORE.RESTR.norm>
0

>  <SCORE.SYSTEM>
0

>  <SCORE.SYSTEM.CONST>
0

>  <SCORE.SYSTEM.DIHEDRAL>
0

>  <SCORE.SYSTEM.SOLV>
0

>  <SCORE.SYSTEM.norm>
0

>  <SCORE.heavy>
22

>  <SCORE.norm>
-0.854302

>  <RMSD>
1.127

$$$$
lig.pdb
 OpenBabel11021811523D
libRbt.so/2013.1/901 2013/11/27
 22 23  0  0  0  0  0  0  0  0999 V2000
   13.6097  -58.4991  -38.6994 O   0  0  0  0  0  0  0  0  0  0  0  0
   13.8996  -59.0308  -37.6390 C   0  0  0  0  0  0  0  0  0  0  0  0
   12.9793  -59.6112  -36.8690 N   0  0  0  0  0  0  0  0  0  0  0  0
   15.3165  -59.0225  -37.1768 C   0  0  0  0  0  0  0  0  0  0  0  0
   16.4251  -58.4022  -37.9192 C   0  0  0  0  0  0  0  0  0  0  0  0
   16.3019  -57.7188  -39.2003 N   0  0  0  0  0  0  0  0  0  0  0  0
   15.9141  -59.5139  -36.0689 N   0  0  0  0  0  0  0  0  0  0  0  0
   17.2499  -59.2214  -36.1364 C   0  0  0  0  0  0  0  0  0  0  0  0
   17.5649  -58.5441  -37.2620 N   0  0  0  0  0  0  0  0  0  0  0  0
   18.9011  -58.0577  -37.6776 C   0  0  1  0  0  0  0  0  0  0  0  0
   19.0512  -56.5783  -37.3631 C   0  0  1  0  0  0  0  0  0  0  0  0
   20.5195  -56.4458  -37.0494 C   0  0  2  0  0  0  0  0  0  0  0  0
   21.2519  -56.2839  -38.2657 O   0  0  0  0  0  0  0  0  0  0  0  0
   18.7145  -55.7740  -38.4943 O   0  0  0  0  0  0  0  0  0  0  0  0
   19.9430  -58.7347  -36.9646 O   0  0  0  0  0  0  0  0  0  0  0  0
   20.8718  -57.7862  -36.4341 C   0  0  2  0  0  0  0  0  0  0  0  0
   20.7466  -57.7140  -34.9200 C   0  0  0  0  0  0  0  0  0  0  0  0
   21.0215  -59.0069  -34.3834 O   0  0  0  0  0  0  0  0  0  0  0  0
   22.5040  -59.6369  -34.4225 P   0  0  0  0  0  0  0  0  0  0  0  0
   23.3922  -58.5862  -33.7974 O   0  0  0  0  0  0  0  0  0  0  0  0
   22.7447  -59.8552  -35.8975 O   0  0  0  0  0  0  0  0  0  0  0  0
   22.3685  -60.9017  -33.6075 O   0  0  0  0  0  0  0  0  0  0  0  0
  1  2  2  0  0  0  0
  2  4  1  0  0  0  0
  2  3  1  0  0  0  0
  4  7  1  0  0  0  0
  5  9  1  0  0  0  0
  5  4  2  0  0  0  0
  6  5  1  0  0  0  0
  8  7  2  0  0  0  0
  9  8  1  0  0  0  0
 10 15  1  0  0  0  0
 10  9  1  1  0  0  0
 10 11  1  0  0  0  0
 11 14  1  6  0  0  0
 11 12  1  0  0  0  0
 12 13  1  6  0  0  0
 15 16  1  0  0  0  0
 16 12  1  0  0  0  0
 16 17  1  1  0  0  0
 17 18  1  0  0  0  0
 18 19  1  0  0  0  0
 19 21  1  0  0  0  0
 19 20  1  0  0  0  0
 22 19  2  0  0  0  0
M  END
>  <CHROM.1>
0.16520169,80.16668267,177.21040421,69.49929881,52.91941358,19.02615783,-58.47561726
-36.49350917,2.83417882,-0.24501508,-0.75771352

>  <Name>
lig.pdb

>  <RI>
0

>  <Rbt.Current_Directory>
/home/itssahil/PROJECTS/Mol_Feturizer/New_Systems/rnas/5btp

>  <Rbt.Executable>
rbdock ($Id: //depot/dev/client3/rdock/2013.1/src/exe/rbdock.cxx#4 $)

>  <Rbt.Library>
libRbt.so (2013.1, Build901 2013/11/27)

>  <Rbt.Parameter_File>
/export/apps/rDock/src/rDock_2013.1_src/data/scripts/dock_solv.prm

>  <Rbt.Receptor>
prm/pocket_docking_3.prm

>  <SCORE>
-17.9717

>  <SCORE.INTER>
-17.154

>  <SCORE.INTER.CONST>
1

>  <SCORE.INTER.POLAR>
0

>  <SCORE.INTER.ROT>
5

>  <SCORE.INTER.SOLV>
19.3583

>  <SCORE.INTER.VDW>
-24.8221

>  <SCORE.INTER.norm>
-0.779729

>  <SCORE.INTRA>
-0.817674

>  <SCORE.INTRA.DIHEDRAL>
-1.23931

>  <SCORE.INTRA.DIHEDRAL.0>
4.21161

>  <SCORE.INTRA.POLAR>
0

>  <SCORE.INTRA.POLAR.0>
0

>  <SCORE.INTRA.REPUL>
0

>  <SCORE.INTRA.REPUL.0>
0

>  <SCORE.INTRA.SOLV>
0.780419

>  <SCORE.INTRA.SOLV.lig_0>
-41.4168

>  <SCORE.INTRA.VDW>
-0.588229

>  <SCORE.INTRA.VDW.0>
-1.62533

>  <SCORE.INTRA.norm>
-0.037167

>  <SCORE.RESTR>
0

>  <SCORE.RESTR.CAVITY>
0

>  <SCORE.RESTR.norm>
0

>  <SCORE.SYSTEM>
0

>  <SCORE.SYSTEM.CONST>
0

>  <SCORE.SYSTEM.DIHEDRAL>
0

>  <SCORE.SYSTEM.SOLV>
0

>  <SCORE.SYSTEM.norm>
0

>  <SCORE.heavy>
22

>  <SCORE.norm>
-0.816896

>  <RMSD>
1.170

$$$$
lig.pdb
 OpenBabel11021811523D
libRbt.so/2013.1/901 2013/11/27
 22 23  0  0  0  0  0  0  0  0999 V2000
   13.4750  -58.5517  -38.5081 O   0  0  0  0  0  0  0  0  0  0  0  0
   13.8751  -59.1226  -37.5056 C   0  0  0  0  0  0  0  0  0  0  0  0
   13.0553  -59.8208  -36.7199 N   0  0  0  0  0  0  0  0  0  0  0  0
   15.3152  -59.0298  -37.1333 C   0  0  0  0  0  0  0  0  0  0  0  0
   16.3404  -58.3654  -37.9532 C   0  0  0  0  0  0  0  0  0  0  0  0
   16.1013  -57.7139  -39.2345 N   0  0  0  0  0  0  0  0  0  0  0  0
   16.0060  -59.4675  -36.0574 N   0  0  0  0  0  0  0  0  0  0  0  0
   17.3172  -59.1053  -36.2130 C   0  0  0  0  0  0  0  0  0  0  0  0
   17.5246  -58.4336  -37.3665 N   0  0  0  0  0  0  0  0  0  0  0  0
   18.8042  -57.8844  -37.8725 C   0  0  1  0  0  0  0  0  0  0  0  0
   19.1550  -56.5959  -37.1470 C   0  0  1  0  0  0  0  0  0  0  0  0
   20.6616  -56.6243  -37.1151 C   0  0  2  0  0  0  0  0  0  0  0  0
   21.1722  -56.0982  -38.3417 O   0  0  0  0  0  0  0  0  0  0  0  0
   18.6990  -55.4542  -37.8739 O   0  0  0  0  0  0  0  0  0  0  0  0
   19.8863  -58.7932  -37.6376 O   0  0  0  0  0  0  0  0  0  0  0  0
   20.9856  -58.1036  -37.0379 C   0  0  2  0  0  0  0  0  0  0  0  0
   21.1465  -58.5272  -35.5861 C   0  0  0  0  0  0  0  0  0  0  0  0
   21.5321  -59.9004  -35.5578 O   0  0  0  0  0  0  0  0  0  0  0  0
   21.8666  -60.6526  -34.1727 P   0  0  0  0  0  0  0  0  0  0  0  0
   20.6594  -60.4131  -33.2959 O   0  0  0  0  0  0  0  0  0  0  0  0
   23.1231  -59.9597  -33.7012 O   0  0  0  0  0  0  0  0  0  0  0  0
   22.0549  -62.0916  -34.5924 O   0  0  0  0  0  0  0  0  0  0  0  0
  1  2  2  0  0  0  0
  2  4  1  0  0  0  0
  2  3  1  0  0  0  0
  4  7  1  0  0  0  0
  5  9  1  0  0  0  0
  5  4  2  0  0  0  0
  6  5  1  0  0  0  0
  8  7  2  0  0  0  0
  9  8  1  0  0  0  0
 10 15  1  0  0  0  0
 10  9  1  1  0  0  0
 10 11  1  0  0  0  0
 11 14  1  6  0  0  0
 11 12  1  0  0  0  0
 12 13  1  6  0  0  0
 15 16  1  0  0  0  0
 16 12  1  0  0  0  0
 16 17  1  1  0  0  0
 17 18  1  0  0  0  0
 18 19  1  0  0  0  0
 19 21  1  0  0  0  0
 19 20  1  0  0  0  0
 22 19  2  0  0  0  0
M  END
>  <CHROM.1>
-4.69380106,102.62286193,-176.40805845,176.64676189,53.29334147,18.87080363
-58.79404985,-36.49169382,2.72610454,-0.20793679,-0.67558168

>  <Name>
lig.pdb

>  <RI>
0

>  <Rbt.Current_Directory>
/home/itssahil/PROJECTS/Mol_Feturizer/New_Systems/rnas/5btp

>  <Rbt.Executable>
rbdock ($Id: //depot/dev/client3/rdock/2013.1/src/exe/rbdock.cxx#4 $)

>  <Rbt.Library>
libRbt.so (2013.1, Build901 2013/11/27)

>  <Rbt.Parameter_File>
/export/apps/rDock/src/rDock_2013.1_src/data/scripts/dock_solv.prm

>  <Rbt.Receptor>
prm/pocket_docking_3.prm

>  <SCORE>
-19.5087

>  <SCORE.INTER>
-17.959

>  <SCORE.INTER.CONST>
1

>  <SCORE.INTER.POLAR>
0

>  <SCORE.INTER.ROT>
5

>  <SCORE.INTER.SOLV>
20.143

>  <SCORE.INTER.VDW>
-25.6203

>  <SCORE.INTER.norm>
-0.816318

>  <SCORE.INTRA>
-1.55036

>  <SCORE.INTRA.DIHEDRAL>
-1.54104

>  <SCORE.INTRA.DIHEDRAL.0>
4.21161

>  <SCORE.INTRA.POLAR>
0

>  <SCORE.INTRA.POLAR.0>
0

>  <SCORE.INTRA.REPUL>
0

>  <SCORE.INTRA.REPUL.0>
0

>  <SCORE.INTRA.SOLV>
-0.385229

>  <SCORE.INTRA.SOLV.lig_0>
-41.4168

>  <SCORE.INTRA.VDW>
-0.587227

>  <SCORE.INTRA.VDW.0>
-1.62533

>  <SCORE.INTRA.norm>
-0.070471

>  <SCORE.RESTR>
0.00065856

>  <SCORE.RESTR.CAVITY>
0.00065856

>  <SCORE.RESTR.norm>
2.99345e-05

>  <SCORE.SYSTEM>
0

>  <SCORE.SYSTEM.CONST>
0

>  <SCORE.SYSTEM.DIHEDRAL>
0

>  <SCORE.SYSTEM.SOLV>
0

>  <SCORE.SYSTEM.norm>
0

>  <SCORE.heavy>
22

>  <SCORE.norm>
-0.886759

>  <RMSD>
1.182

$$$$
lig.pdb
 OpenBabel11021811523D
libRbt.so/2013.1/901 2013/11/27
 22 23  0  0  0  0  0  0  0  0999 V2000
   14.0480  -58.8282  -38.6165 O   0  0  0  0  0  0  0  0  0  0  0  0
   14.4509  -59.3174  -37.5728 C   0  0  0  0  0  0  0  0  0  0  0  0
   13.6778  -60.0980  -36.8179 N   0  0  0  0  0  0  0  0  0  0  0  0
   15.8388  -59.0275  -37.1138 C   0  0  0  0  0  0  0  0  0  0  0  0
   16.7837  -58.1592  -37.8336 C   0  0  0  0  0  0  0  0  0  0  0  0
   16.5056  -57.4690  -39.0864 N   0  0  0  0  0  0  0  0  0  0  0  0
   16.5383  -59.4233  -36.0273 N   0  0  0  0  0  0  0  0  0  0  0  0
   17.7815  -58.8527  -36.0863 C   0  0  0  0  0  0  0  0  0  0  0  0
   17.9346  -58.0818  -37.1850 N   0  0  0  0  0  0  0  0  0  0  0  0
   19.1336  -57.3086  -37.5840 C   0  0  1  0  0  0  0  0  0  0  0  0
   19.7285  -56.5907  -36.3837 C   0  0  1  0  0  0  0  0  0  0  0  0
   21.2044  -56.5851  -36.6895 C   0  0  2  0  0  0  0  0  0  0  0  0
   21.5099  -55.4731  -37.5334 O   0  0  0  0  0  0  0  0  0  0  0  0
   19.2398  -55.2521  -36.2892 O   0  0  0  0  0  0  0  0  0  0  0  0
   20.1584  -58.1696  -38.0943 O   0  0  0  0  0  0  0  0  0  0  0  0
   21.4087  -57.8693  -37.4694 C   0  0  2  0  0  0  0  0  0  0  0  0
   21.8120  -58.9931  -36.5273 C   0  0  0  0  0  0  0  0  0  0  0  0
   20.9807  -58.9303  -35.3697 O   0  0  0  0  0  0  0  0  0  0  0  0
   21.2612  -59.8552  -34.0806 P   0  0  0  0  0  0  0  0  0  0  0  0
   20.4392  -59.2404  -32.9716 O   0  0  0  0  0  0  0  0  0  0  0  0
   22.7541  -59.7312  -33.8881 O   0  0  0  0  0  0  0  0  0  0  0  0
   20.7893  -61.2213  -34.5204 O   0  0  0  0  0  0  0  0  0  0  0  0
  1  2  2  0  0  0  0
  2  4  1  0  0  0  0
  2  3  1  0  0  0  0
  4  7  1  0  0  0  0
  5  9  1  0  0  0  0
  5  4  2  0  0  0  0
  6  5  1  0  0  0  0
  8  7  2  0  0  0  0
  9  8  1  0  0  0  0
 10 15  1  0  0  0  0
 10  9  1  1  0  0  0
 10 11  1  0  0  0  0
 11 14  1  6  0  0  0
 11 12  1  0  0  0  0
 12 13  1  6  0  0  0
 15 16  1  0  0  0  0
 16 12  1  0  0  0  0
 16 17  1  1  0  0  0
 17 18  1  0  0  0  0
 18 19  1  0  0  0  0
 19 21  1  0  0  0  0
 19 20  1  0  0  0  0
 22 19  2  0  0  0  0
M  END
>  <CHROM.1>
0.78232995,136.68776938,43.97970367,-171.93036598,164.90535535,19.04085671
-58.46544267,-36.35524554,2.86611776,-0.30907647,-0.70759822

>  <Name>
lig.pdb

>  <RI>
0

>  <Rbt.Current_Directory>
/home/itssahil/PROJECTS/Mol_Feturizer/New_Systems/rnas/5btp

>  <Rbt.Executable>
rbdock ($Id: //depot/dev/client3/rdock/2013.1/src/exe/rbdock.cxx#4 $)

>  <Rbt.Library>
libRbt.so (2013.1, Build901 2013/11/27)

>  <Rbt.Parameter_File>
/export/apps/rDock/src/rDock_2013.1_src/data/scripts/dock_solv.prm

>  <Rbt.Receptor>
prm/pocket_docking_3.prm

>  <SCORE>
-15.5899

>  <SCORE.INTER>
-15.6036

>  <SCORE.INTER.CONST>
1

>  <SCORE.INTER.POLAR>
0

>  <SCORE.INTER.ROT>
5

>  <SCORE.INTER.SOLV>
19.389

>  <SCORE.INTER.VDW>
-23.7988

>  <SCORE.INTER.norm>
-0.709256

>  <SCORE.INTRA>
0.0136865

>  <SCORE.INTRA.DIHEDRAL>
-0.245085

>  <SCORE.INTRA.DIHEDRAL.0>
4.21161

>  <SCORE.INTRA.POLAR>
0

>  <SCORE.INTRA.POLAR.0>
0

>  <SCORE.INTRA.REPUL>
0

>  <SCORE.INTRA.REPUL.0>
0

>  <SCORE.INTRA.SOLV>
0.607109

>  <SCORE.INTRA.SOLV.lig_0>
-41.4168

>  <SCORE.INTRA.VDW>
-0.167326

>  <SCORE.INTRA.VDW.0>
-1.62533

>  <SCORE.INTRA.norm>
0.000622115

>  <SCORE.RESTR>
0

>  <SCORE.RESTR.CAVITY>
0

>  <SCORE.RESTR.norm>
0

>  <SCORE.SYSTEM>
0

>  <SCORE.SYSTEM.CONST>
0

>  <SCORE.SYSTEM.DIHEDRAL>
0

>  <SCORE.SYSTEM.SOLV>
0

>  <SCORE.SYSTEM.norm>
0

>  <SCORE.heavy>
22

>  <SCORE.norm>
-0.708634

>  <RMSD>
1.189

$$$$
lig.pdb
 OpenBabel11021811523D
libRbt.so/2013.1/901 2013/11/27
 22 23  0  0  0  0  0  0  0  0999 V2000
   13.7640  -58.4293  -38.7723 O   0  0  0  0  0  0  0  0  0  0  0  0
   13.9976  -58.9759  -37.7056 C   0  0  0  0  0  0  0  0  0  0  0  0
   13.0355  -59.5540  -36.9866 N   0  0  0  0  0  0  0  0  0  0  0  0
   15.3910  -58.9890  -37.1770 C   0  0  0  0  0  0  0  0  0  0  0  0
   16.5439  -58.3919  -37.8693 C   0  0  0  0  0  0  0  0  0  0  0  0
   16.4931  -57.7139  -39.1580 N   0  0  0  0  0  0  0  0  0  0  0  0
   15.9272  -59.4841  -36.0397 N   0  0  0  0  0  0  0  0  0  0  0  0
   17.2695  -59.2147  -36.0454 C   0  0  0  0  0  0  0  0  0  0  0  0
   17.6488  -58.5493  -37.1582 N   0  0  0  0  0  0  0  0  0  0  0  0
   19.0114  -58.0881  -37.5126 C   0  0  1  0  0  0  0  0  0  0  0  0
   19.1018  -56.5737  -37.4216 C   0  0  1  0  0  0  0  0  0  0  0  0
   20.5278  -56.3446  -36.9907 C   0  0  2  0  0  0  0  0  0  0  0  0
   21.3771  -56.3480  -38.1399 O   0  0  0  0  0  0  0  0  0  0  0  0
   18.8674  -55.9658  -38.6926 O   0  0  0  0  0  0  0  0  0  0  0  0
   19.9874  -58.6110  -36.6037 O   0  0  0  0  0  0  0  0  0  0  0  0
   20.8400  -57.5609  -36.1407 C   0  0  2  0  0  0  0  0  0  0  0  0
   20.5601  -57.2598  -34.6765 C   0  0  0  0  0  0  0  0  0  0  0  0
   20.5019  -58.4954  -33.9658 O   0  0  0  0  0  0  0  0  0  0  0  0
   21.8118  -59.4107  -33.7602 P   0  0  0  0  0  0  0  0  0  0  0  0
   22.8700  -58.4676  -33.2366 O   0  0  0  0  0  0  0  0  0  0  0  0
   22.0830  -59.9380  -35.1493 O   0  0  0  0  0  0  0  0  0  0  0  0
   21.3585  -60.4517  -32.7636 O   0  0  0  0  0  0  0  0  0  0  0  0
  1  2  2  0  0  0  0
  2  4  1  0  0  0  0
  2  3  1  0  0  0  0
  4  7  1  0  0  0  0
  5  9  1  0  0  0  0
  5  4  2  0  0  0  0
  6  5  1  0  0  0  0
  8  7  2  0  0  0  0
  9  8  1  0  0  0  0
 10 15  1  0  0  0  0
 10  9  1  1  0  0  0
 10 11  1  0  0  0  0
 11 14  1  6  0  0  0
 11 12  1  0  0  0  0
 12 13  1  6  0  0  0
 15 16  1  0  0  0  0
 16 12  1  0  0  0  0
 16 17  1  1  0  0  0
 17 18  1  0  0  0  0
 18 19  1  0  0  0  0
 19 21  1  0  0  0  0
 19 20  1  0  0  0  0
 22 19  2  0  0  0  0
M  END
>  <CHROM.1>
-0.84090371,70.63764186,164.12816991,67.91877424,49.77330225,18.87628490
-58.37041051,-36.26250095,2.74225133,-0.30031082,-0.88977373

>  <Name>
lig.pdb

>  <RI>
0

>  <Rbt.Current_Directory>
/home/itssahil/PROJECTS/Mol_Feturizer/New_Systems/rnas/5btp

>  <Rbt.Executable>
rbdock ($Id: //depot/dev/client3/rdock/2013.1/src/exe/rbdock.cxx#4 $)

>  <Rbt.Library>
libRbt.so (2013.1, Build901 2013/11/27)

>  <Rbt.Parameter_File>
/export/apps/rDock/src/rDock_2013.1_src/data/scripts/dock_solv.prm

>  <Rbt.Receptor>
prm/pocket_docking_3.prm

>  <SCORE>
-18.005

>  <SCORE.INTER>
-17.6337

>  <SCORE.INTER.CONST>
1

>  <SCORE.INTER.POLAR>
0

>  <SCORE.INTER.ROT>
5

>  <SCORE.INTER.SOLV>
19.9191

>  <SCORE.INTER.VDW>
-25.3288

>  <SCORE.INTER.norm>
-0.801531

>  <SCORE.INTRA>
-0.371313

>  <SCORE.INTRA.DIHEDRAL>
-0.448495

>  <SCORE.INTRA.DIHEDRAL.0>
4.21161

>  <SCORE.INTRA.POLAR>
0

>  <SCORE.INTRA.POLAR.0>
0

>  <SCORE.INTRA.REPUL>
0

>  <SCORE.INTRA.REPUL.0>
0

>  <SCORE.INTRA.SOLV>
0.989262

>  <SCORE.INTRA.SOLV.lig_0>
-41.4168

>  <SCORE.INTRA.VDW>
-0.641697

>  <SCORE.INTRA.VDW.0>
-1.62533

>  <SCORE.INTRA.norm>
-0.0168779

>  <SCORE.RESTR>
0

>  <SCORE.RESTR.CAVITY>
0

>  <SCORE.RESTR.norm>
0

>  <SCORE.SYSTEM>
0

>  <SCORE.SYSTEM.CONST>
0

>  <SCORE.SYSTEM.DIHEDRAL>
0

>  <SCORE.SYSTEM.SOLV>
0

>  <SCORE.SYSTEM.norm>
0

>  <SCORE.heavy>
22

>  <SCORE.norm>
-0.818408

>  <RMSD>
1.204

$$$$
lig.pdb
 OpenBabel11021811523D
libRbt.so/2013.1/901 2013/11/27
 22 23  0  0  0  0  0  0  0  0999 V2000
   13.7463  -58.4216  -38.8574 O   0  0  0  0  0  0  0  0  0  0  0  0
   13.9380  -58.8158  -37.7177 C   0  0  0  0  0  0  0  0  0  0  0  0
   12.9316  -59.1600  -36.9143 N   0  0  0  0  0  0  0  0  0  0  0  0
   15.3313  -58.9037  -37.1959 C   0  0  0  0  0  0  0  0  0  0  0  0
   16.5126  -58.3794  -37.8992 C   0  0  0  0  0  0  0  0  0  0  0  0
   16.4934  -57.7108  -39.1938 N   0  0  0  0  0  0  0  0  0  0  0  0
   15.8446  -59.4187  -36.0568 N   0  0  0  0  0  0  0  0  0  0  0  0
   17.2001  -59.2263  -36.0717 C   0  0  0  0  0  0  0  0  0  0  0  0
   17.6106  -58.5933  -37.1922 N   0  0  0  0  0  0  0  0  0  0  0  0
   18.9953  -58.2136  -37.5575 C   0  0  1  0  0  0  0  0  0  0  0  0
   19.2374  -56.7410  -37.2700 C   0  0  1  0  0  0  0  0  0  0  0  0
   20.6962  -56.7047  -36.8929 C   0  0  2  0  0  0  0  0  0  0  0  0
   21.4908  -56.6263  -38.0781 O   0  0  0  0  0  0  0  0  0  0  0  0
   19.0091  -55.9442  -38.4331 O   0  0  0  0  0  0  0  0  0  0  0  0
   19.9536  -58.9441  -36.7829 O   0  0  0  0  0  0  0  0  0  0  0  0
   20.9240  -58.0503  -36.2321 C   0  0  2  0  0  0  0  0  0  0  0  0
   20.7383  -57.9306  -34.7274 C   0  0  0  0  0  0  0  0  0  0  0  0
   21.0245  -59.1970  -34.1362 O   0  0  0  0  0  0  0  0  0  0  0  0
   22.5284  -59.7701  -34.0604 P   0  0  0  0  0  0  0  0  0  0  0  0
   22.9343  -59.9954  -35.4984 O   0  0  0  0  0  0  0  0  0  0  0  0
   22.3719  -61.0376  -33.2541 O   0  0  0  0  0  0  0  0  0  0  0  0
   23.2894  -58.6656  -33.3651 O   0  0  0  0  0  0  0  0  0  0  0  0
  1  2  2  0  0  0  0
  2  4  1  0  0  0  0
  2  3  1  0  0  0  0
  4  7  1  0  0  0  0
  5  9  1  0  0  0  0
  5  4  2  0  0  0  0
  6  5  1  0  0  0  0
  8  7  2  0  0  0  0
  9  8  1  0  0  0  0
 10 15  1  0  0  0  0
 10  9  1  1  0  0  0
 10 11  1  0  0  0  0
 11 14  1  6  0  0  0
 11 12  1  0  0  0  0
 12 13  1  6  0  0  0
 15 16  1  0  0  0  0
 16 12  1  0  0  0  0
 16 17  1  1  0  0  0
 17 18  1  0  0  0  0
 18 19  1  0  0  0  0
 19 21  1  0  0  0  0
 19 20  1  0  0  0  0
 22 19  2  0  0  0  0
M  END
>  <CHROM.1>
8.38442176,79.63192146,-177.18124503,71.22805631,-65.35186480,19.09391627
-58.55397699,-36.34465804,2.75958297,-0.22737421,-0.82802733

>  <Name>
lig.pdb

>  <RI>
0

>  <Rbt.Current_Directory>
/home/itssahil/PROJECTS/Mol_Feturizer/New_Systems/rnas/5btp

>  <Rbt.Executable>
rbdock ($Id: //depot/dev/client3/rdock/2013.1/src/exe/rbdock.cxx#4 $)

>  <Rbt.Library>
libRbt.so (2013.1, Build901 2013/11/27)

>  <Rbt.Parameter_File>
/export/apps/rDock/src/rDock_2013.1_src/data/scripts/dock_solv.prm

>  <Rbt.Receptor>
prm/pocket_docking_2.prm

>  <SCORE>
-17.234

>  <SCORE.INTER>
-16.7135

>  <SCORE.INTER.CONST>
1

>  <SCORE.INTER.POLAR>
0

>  <SCORE.INTER.ROT>
5

>  <SCORE.INTER.SOLV>
19.1804

>  <SCORE.INTER.VDW>
-24.4691

>  <SCORE.INTER.norm>
-0.759703

>  <SCORE.INTRA>
-0.520532

>  <SCORE.INTRA.DIHEDRAL>
-0.866385

>  <SCORE.INTRA.DIHEDRAL.0>
4.21161

>  <SCORE.INTRA.POLAR>
0

>  <SCORE.INTRA.POLAR.0>
0

>  <SCORE.INTRA.REPUL>
0

>  <SCORE.INTRA.REPUL.0>
0

>  <SCORE.INTRA.SOLV>
1.09174

>  <SCORE.INTRA.SOLV.lig_0>
-41.4168

>  <SCORE.INTRA.VDW>
-0.633209

>  <SCORE.INTRA.VDW.0>
-1.62533

>  <SCORE.INTRA.norm>
-0.0236606

>  <SCORE.RESTR>
0

>  <SCORE.RESTR.CAVITY>
0

>  <SCORE.RESTR.norm>
0

>  <SCORE.SYSTEM>
0

>  <SCORE.SYSTEM.CONST>
0

>  <SCORE.SYSTEM.DIHEDRAL>
0

>  <SCORE.SYSTEM.SOLV>
0

>  <SCORE.SYSTEM.norm>
0

>  <SCORE.heavy>
22

>  <SCORE.norm>
-0.783363

>  <RMSD>
1.217

$$$$
lig.pdb
 OpenBabel11021811523D
libRbt.so/2013.1/901 2013/11/27
 22 23  0  0  0  0  0  0  0  0999 V2000
   12.8341  -59.0388  -37.0871 O   0  0  0  0  0  0  0  0  0  0  0  0
   13.8020  -58.7180  -37.7589 C   0  0  0  0  0  0  0  0  0  0  0  0
   13.6712  -58.2344  -38.9942 N   0  0  0  0  0  0  0  0  0  0  0  0
   15.1726  -58.8820  -37.1968 C   0  0  0  0  0  0  0  0  0  0  0  0
   16.4044  -58.4670  -37.8862 C   0  0  0  0  0  0  0  0  0  0  0  0
   16.4637  -57.8476  -39.2038 N   0  0  0  0  0  0  0  0  0  0  0  0
   15.6206  -59.3880  -36.0266 N   0  0  0  0  0  0  0  0  0  0  0  0
   16.9861  -59.2902  -36.0117 C   0  0  0  0  0  0  0  0  0  0  0  0
   17.4671  -58.7294  -37.1426 N   0  0  0  0  0  0  0  0  0  0  0  0
   18.8835  -58.4599  -37.4836 C   0  0  1  0  0  0  0  0  0  0  0  0
   19.2358  -57.0109  -37.1901 C   0  0  1  0  0  0  0  0  0  0  0  0
   20.6863  -57.0895  -36.7880 C   0  0  2  0  0  0  0  0  0  0  0  0
   21.5049  -57.0741  -37.9593 O   0  0  0  0  0  0  0  0  0  0  0  0
   19.0910  -56.1987  -38.3560 O   0  0  0  0  0  0  0  0  0  0  0  0
   19.7679  -59.2635  -36.6936 O   0  0  0  0  0  0  0  0  0  0  0  0
   20.7961  -58.4489  -36.1252 C   0  0  2  0  0  0  0  0  0  0  0  0
   20.5945  -58.3147  -34.6237 C   0  0  0  0  0  0  0  0  0  0  0  0
   21.7471  -57.6828  -34.0693 O   0  0  0  0  0  0  0  0  0  0  0  0
   23.0906  -58.5127  -33.7500 P   0  0  0  0  0  0  0  0  0  0  0  0
   24.0749  -57.4841  -33.2435 O   0  0  0  0  0  0  0  0  0  0  0  0
   23.4513  -59.1096  -35.0897 O   0  0  0  0  0  0  0  0  0  0  0  0
   22.6453  -59.5128  -32.7089 O   0  0  0  0  0  0  0  0  0  0  0  0
  1  2  2  0  0  0  0
  2  4  1  0  0  0  0
  2  3  1  0  0  0  0
  4  7  1  0  0  0  0
  5  9  1  0  0  0  0
  5  4  2  0  0  0  0
  6  5  1  0  0  0  0
  8  7  2  0  0  0  0
  9  8  1  0  0  0  0
 10 15  1  0  0  0  0
 10  9  1  1  0  0  0
 10 11  1  0  0  0  0
 11 14  1  6  0  0  0
 11 12  1  0  0  0  0
 12 13  1  6  0  0  0
 15 16  1  0  0  0  0
 16 12  1  0  0  0  0
 16 17  1  1  0  0  0
 17 18  1  0  0  0  0
 18 19  1  0  0  0  0
 19 21  1  0  0  0  0
 19 20  1  0  0  0  0
 22 19  2  0  0  0  0
M  END
>  <CHROM.1>
-176.76001133,81.88450070,-71.89523860,-81.09660473,177.50560813,19.18490056
-58.30790309,-36.22570911,2.78554198,-0.24094142,-1.07072011

>  <Name>
lig.pdb

>  <RI>
0

>  <Rbt.Current_Directory>
/home/itssahil/PROJECTS/Mol_Feturizer/New_Systems/rnas/5btp

>  <Rbt.Executable>
rbdock ($Id: //depot/dev/client3/rdock/2013.1/src/exe/rbdock.cxx#4 $)

>  <Rbt.Library>
libRbt.so (2013.1, Build901 2013/11/27)

>  <Rbt.Parameter_File>
/export/apps/rDock/src/rDock_2013.1_src/data/scripts/dock_solv.prm

>  <Rbt.Receptor>
prm/pocket_docking_2.prm

>  <SCORE>
-15.9628

>  <SCORE.INTER>
-16.2429

>  <SCORE.INTER.CONST>
1

>  <SCORE.INTER.POLAR>
0

>  <SCORE.INTER.ROT>
5

>  <SCORE.INTER.SOLV>
19.2625

>  <SCORE.INTER.VDW>
-24.1828

>  <SCORE.INTER.norm>
-0.738316

>  <SCORE.INTRA>
0.280167

>  <SCORE.INTRA.DIHEDRAL>
0.744981

>  <SCORE.INTRA.DIHEDRAL.0>
4.21161

>  <SCORE.INTRA.POLAR>
0

>  <SCORE.INTRA.POLAR.0>
0

>  <SCORE.INTRA.REPUL>
0

>  <SCORE.INTRA.REPUL.0>
0

>  <SCORE.INTRA.SOLV>
1.03563

>  <SCORE.INTRA.SOLV.lig_0>
-41.4168

>  <SCORE.INTRA.VDW>
-0.61014

>  <SCORE.INTRA.VDW.0>
-1.62533

>  <SCORE.INTRA.norm>
0.0127349

>  <SCORE.RESTR>
0

>  <SCORE.RESTR.CAVITY>
0

>  <SCORE.RESTR.norm>
0

>  <SCORE.SYSTEM>
0

>  <SCORE.SYSTEM.CONST>
0

>  <SCORE.SYSTEM.DIHEDRAL>
0

>  <SCORE.SYSTEM.SOLV>
0

>  <SCORE.SYSTEM.norm>
0

>  <SCORE.heavy>
22

>  <SCORE.norm>
-0.725581

>  <RMSD>
1.217

$$$$
lig.pdb
 OpenBabel11021811523D
libRbt.so/2013.1/901 2013/11/27
 22 23  0  0  0  0  0  0  0  0999 V2000
   13.8617  -58.6593  -38.4592 O   0  0  0  0  0  0  0  0  0  0  0  0
   14.3086  -59.2666  -37.4987 C   0  0  0  0  0  0  0  0  0  0  0  0
   13.5670  -60.1317  -36.8070 N   0  0  0  0  0  0  0  0  0  0  0  0
   15.7164  -59.0297  -37.0708 C   0  0  0  0  0  0  0  0  0  0  0  0
   16.6763  -58.1947  -37.8099 C   0  0  0  0  0  0  0  0  0  0  0  0
   16.3956  -57.4906  -39.0544 N   0  0  0  0  0  0  0  0  0  0  0  0
   16.4252  -59.4547  -36.0015 N   0  0  0  0  0  0  0  0  0  0  0  0
   17.6870  -58.9304  -36.0873 C   0  0  0  0  0  0  0  0  0  0  0  0
   17.8436  -58.1621  -37.1874 N   0  0  0  0  0  0  0  0  0  0  0  0
   19.0612  -57.4325  -37.6118 C   0  0  1  0  0  0  0  0  0  0  0  0
   19.6787  -56.6961  -36.4344 C   0  0  1  0  0  0  0  0  0  0  0  0
   21.1532  -56.7380  -36.7440 C   0  0  2  0  0  0  0  0  0  0  0  0
   21.4849  -55.6593  -37.6206 O   0  0  0  0  0  0  0  0  0  0  0  0
   19.2255  -55.3429  -36.3775 O   0  0  0  0  0  0  0  0  0  0  0  0
   20.0614  -58.3346  -38.0995 O   0  0  0  0  0  0  0  0  0  0  0  0
   21.3212  -58.0493  -37.4868 C   0  0  2  0  0  0  0  0  0  0  0  0
   21.6980  -59.1555  -36.5135 C   0  0  0  0  0  0  0  0  0  0  0  0
   20.8915  -59.0208  -35.3445 O   0  0  0  0  0  0  0  0  0  0  0  0
   21.1167  -59.9583  -34.0537 P   0  0  0  0  0  0  0  0  0  0  0  0
   20.4344  -59.2313  -32.9182 O   0  0  0  0  0  0  0  0  0  0  0  0
   22.6210  -60.0220  -33.9346 O   0  0  0  0  0  0  0  0  0  0  0  0
   20.4555  -61.2588  -34.4459 O   0  0  0  0  0  0  0  0  0  0  0  0
  1  2  2  0  0  0  0
  2  4  1  0  0  0  0
  2  3  1  0  0  0  0
  4  7  1  0  0  0  0
  5  9  1  0  0  0  0
  5  4  2  0  0  0  0
  6  5  1  0  0  0  0
  8  7  2  0  0  0  0
  9  8  1  0  0  0  0
 10 15  1  0  0  0  0
 10  9  1  1  0  0  0
 10 11  1  0  0  0  0
 11 14  1  6  0  0  0
 11 12  1  0  0  0  0
 12 13  1  6  0  0  0
 15 16  1  0  0  0  0
 16 12  1  0  0  0  0
 16 17  1  1  0  0  0
 17 18  1  0  0  0  0
 18 19  1  0  0  0  0
 19 21  1  0  0  0  0
 19 20  1  0  0  0  0
 22 19  2  0  0  0  0
M  END
>  <CHROM.1>
-6.21519361,134.45387336,42.80337400,-174.76797678,161.53558520,18.93406635
-58.54694460,-36.34612605,2.84623546,-0.28121499,-0.73054886

>  <Name>
lig.pdb

>  <RI>
0

>  <Rbt.Current_Directory>
/home/itssahil/PROJECTS/Mol_Feturizer/New_Systems/rnas/5btp

>  <Rbt.Executable>
rbdock ($Id: //depot/dev/client3/rdock/2013.1/src/exe/rbdock.cxx#4 $)

>  <Rbt.Library>
libRbt.so (2013.1, Build901 2013/11/27)

>  <Rbt.Parameter_File>
/export/apps/rDock/src/rDock_2013.1_src/data/scripts/dock_solv.prm

>  <Rbt.Receptor>
prm/pocket_docking_8.prm

>  <SCORE>
-15.9931

>  <SCORE.INTER>
-16.1892

>  <SCORE.INTER.CONST>
1

>  <SCORE.INTER.POLAR>
0

>  <SCORE.INTER.ROT>
5

>  <SCORE.INTER.SOLV>
20.0145

>  <SCORE.INTER.VDW>
-24.3976

>  <SCORE.INTER.norm>
-0.735872

>  <SCORE.INTRA>
0.196073

>  <SCORE.INTRA.DIHEDRAL>
-0.0102965

>  <SCORE.INTRA.DIHEDRAL.0>
4.21161

>  <SCORE.INTRA.POLAR>
0

>  <SCORE.INTRA.POLAR.0>
0

>  <SCORE.INTRA.REPUL>
0

>  <SCORE.INTRA.REPUL.0>
0

>  <SCORE.INTRA.SOLV>
0.63287

>  <SCORE.INTRA.SOLV.lig_0>
-41.4168

>  <SCORE.INTRA.VDW>
-0.115213

>  <SCORE.INTRA.VDW.0>
-1.62533

>  <SCORE.INTRA.norm>
0.00891242

>  <SCORE.RESTR>
0

>  <SCORE.RESTR.CAVITY>
0

>  <SCORE.RESTR.norm>
0

>  <SCORE.SYSTEM>
0

>  <SCORE.SYSTEM.CONST>
0

>  <SCORE.SYSTEM.DIHEDRAL>
0

>  <SCORE.SYSTEM.SOLV>
0

>  <SCORE.SYSTEM.norm>
0

>  <SCORE.heavy>
22

>  <SCORE.norm>
-0.726959

>  <RMSD>
1.242

$$$$
lig.pdb
 OpenBabel11021811523D
libRbt.so/2013.1/901 2013/11/27
 22 23  0  0  0  0  0  0  0  0999 V2000
   13.2194  -59.6434  -36.8130 O   0  0  0  0  0  0  0  0  0  0  0  0
   14.0274  -59.0702  -37.5269 C   0  0  0  0  0  0  0  0  0  0  0  0
   13.6679  -58.4953  -38.6745 N   0  0  0  0  0  0  0  0  0  0  0  0
   15.4603  -59.0197  -37.1202 C   0  0  0  0  0  0  0  0  0  0  0  0
   16.5197  -58.3643  -37.9030 C   0  0  0  0  0  0  0  0  0  0  0  0
   16.3260  -57.6820  -39.1759 N   0  0  0  0  0  0  0  0  0  0  0  0
   16.1154  -59.4952  -36.0380 N   0  0  0  0  0  0  0  0  0  0  0  0
   17.4380  -59.1619  -36.1565 C   0  0  0  0  0  0  0  0  0  0  0  0
   17.6881  -58.4727  -37.2911 N   0  0  0  0  0  0  0  0  0  0  0  0
   18.9917  -57.9448  -37.7567 C   0  0  1  0  0  0  0  0  0  0  0  0
   19.2043  -56.5278  -37.2501 C   0  0  1  0  0  0  0  0  0  0  0  0
   20.6978  -56.4564  -37.0599 C   0  0  2  0  0  0  0  0  0  0  0  0
   21.3195  -56.1282  -38.3041 O   0  0  0  0  0  0  0  0  0  0  0  0
   18.7844  -55.5656  -38.2185 O   0  0  0  0  0  0  0  0  0  0  0  0
   20.0783  -58.7278  -37.2485 O   0  0  0  0  0  0  0  0  0  0  0  0
   21.0736  -57.8749  -36.6777 C   0  0  2  0  0  0  0  0  0  0  0  0
   21.0892  -58.0204  -35.1639 C   0  0  0  0  0  0  0  0  0  0  0  0
   21.6484  -59.2920  -34.8395 O   0  0  0  0  0  0  0  0  0  0  0  0
   21.9681  -59.7072  -33.3159 P   0  0  0  0  0  0  0  0  0  0  0  0
   22.8976  -58.6314  -32.8039 O   0  0  0  0  0  0  0  0  0  0  0  0
   22.6112  -61.0663  -33.4588 O   0  0  0  0  0  0  0  0  0  0  0  0
   20.6062  -59.7152  -32.6620 O   0  0  0  0  0  0  0  0  0  0  0  0
  1  2  2  0  0  0  0
  2  4  1  0  0  0  0
  2  3  1  0  0  0  0
  4  7  1  0  0  0  0
  5  9  1  0  0  0  0
  5  4  2  0  0  0  0
  6  5  1  0  0  0  0
  8  7  2  0  0  0  0
  9  8  1  0  0  0  0
 10 15  1  0  0  0  0
 10  9  1  1  0  0  0
 10 11  1  0  0  0  0
 11 14  1  6  0  0  0
 11 12  1  0  0  0  0
 12 13  1  6  0  0  0
 15 16  1  0  0  0  0
 16 12  1  0  0  0  0
 16 17  1  1  0  0  0
 17 18  1  0  0  0  0
 18 19  1  0  0  0  0
 19 21  1  0  0  0  0
 19 20  1  0  0  0  0
 22 19  2  0  0  0  0
M  END
>  <CHROM.1>
179.69480644,89.23843115,-170.88534509,172.99938230,-56.73504189,18.98861156
-58.49227991,-36.19908453,2.69042146,-0.28121128,-0.86764292

>  <Name>
lig.pdb

>  <RI>
0

>  <Rbt.Current_Directory>
/home/itssahil/PROJECTS/Mol_Feturizer/New_Systems/rnas/5btp

>  <Rbt.Executable>
rbdock ($Id: //depot/dev/client3/rdock/2013.1/src/exe/rbdock.cxx#4 $)

>  <Rbt.Library>
libRbt.so (2013.1, Build901 2013/11/27)

>  <Rbt.Parameter_File>
/export/apps/rDock/src/rDock_2013.1_src/data/scripts/dock_solv.prm

>  <Rbt.Receptor>
prm/pocket_docking_2.prm

>  <SCORE>
-18.0748

>  <SCORE.INTER>
-16.9605

>  <SCORE.INTER.CONST>
1

>  <SCORE.INTER.POLAR>
0

>  <SCORE.INTER.ROT>
5

>  <SCORE.INTER.SOLV>
20.1954

>  <SCORE.INTER.VDW>
-24.9721

>  <SCORE.INTER.norm>
-0.77093

>  <SCORE.INTRA>
-1.11432

>  <SCORE.INTRA.DIHEDRAL>
-1.24227

>  <SCORE.INTRA.DIHEDRAL.0>
4.21161

>  <SCORE.INTRA.POLAR>
0

>  <SCORE.INTRA.POLAR.0>
0

>  <SCORE.INTRA.REPUL>
0

>  <SCORE.INTRA.REPUL.0>
0

>  <SCORE.INTRA.SOLV>
0.190625

>  <SCORE.INTRA.SOLV.lig_0>
-41.4168

>  <SCORE.INTRA.VDW>
-0.588498

>  <SCORE.INTRA.VDW.0>
-1.62533

>  <SCORE.INTRA.norm>
-0.050651

>  <SCORE.RESTR>
0

>  <SCORE.RESTR.CAVITY>
0

>  <SCORE.RESTR.norm>
0

>  <SCORE.SYSTEM>
0

>  <SCORE.SYSTEM.CONST>
0

>  <SCORE.SYSTEM.DIHEDRAL>
0

>  <SCORE.SYSTEM.SOLV>
0

>  <SCORE.SYSTEM.norm>
0

>  <SCORE.heavy>
22

>  <SCORE.norm>
-0.821581

>  <RMSD>
1.262

$$$$
lig.pdb
 OpenBabel11021811523D
libRbt.so/2013.1/901 2013/11/27
 22 23  0  0  0  0  0  0  0  0999 V2000
   13.1435  -59.6417  -36.8577 O   0  0  0  0  0  0  0  0  0  0  0  0
   13.9583  -59.0746  -37.5687 C   0  0  0  0  0  0  0  0  0  0  0  0
   13.6092  -58.5069  -38.7231 N   0  0  0  0  0  0  0  0  0  0  0  0
   15.3878  -59.0234  -37.1504 C   0  0  0  0  0  0  0  0  0  0  0  0
   16.4560  -58.3811  -37.9323 C   0  0  0  0  0  0  0  0  0  0  0  0
   16.2752  -57.7142  -39.2152 N   0  0  0  0  0  0  0  0  0  0  0  0
   16.0321  -59.4873  -36.0568 N   0  0  0  0  0  0  0  0  0  0  0  0
   17.3568  -59.1596  -36.1681 C   0  0  0  0  0  0  0  0  0  0  0  0
   17.6187  -58.4855  -37.3091 N   0  0  0  0  0  0  0  0  0  0  0  0
   18.9279  -57.9675  -37.7701 C   0  0  1  0  0  0  0  0  0  0  0  0
   19.1482  -56.5509  -37.2652 C   0  0  1  0  0  0  0  0  0  0  0  0
   20.6413  -56.4895  -37.0688 C   0  0  2  0  0  0  0  0  0  0  0  0
   21.2705  -56.1680  -38.3109 O   0  0  0  0  0  0  0  0  0  0  0  0
   18.7391  -55.5877  -38.2372 O   0  0  0  0  0  0  0  0  0  0  0  0
   20.0069  -58.7569  -37.2557 O   0  0  0  0  0  0  0  0  0  0  0  0
   21.0057  -57.9098  -36.6823 C   0  0  2  0  0  0  0  0  0  0  0  0
   21.0137  -58.0525  -35.1681 C   0  0  0  0  0  0  0  0  0  0  0  0
   21.6304  -59.2954  -34.8363 O   0  0  0  0  0  0  0  0  0  0  0  0
   21.9733  -59.6843  -33.3108 P   0  0  0  0  0  0  0  0  0  0  0  0
   22.8303  -58.5490  -32.8007 O   0  0  0  0  0  0  0  0  0  0  0  0
   22.7033  -60.9993  -33.4482 O   0  0  0  0  0  0  0  0  0  0  0  0
   20.6136  -59.7783  -32.6592 O   0  0  0  0  0  0  0  0  0  0  0  0
  1  2  2  0  0  0  0
  2  4  1  0  0  0  0
  2  3  1  0  0  0  0
  4  7  1  0  0  0  0
  5  9  1  0  0  0  0
  5  4  2  0  0  0  0
  6  5  1  0  0  0  0
  8  7  2  0  0  0  0
  9  8  1  0  0  0  0
 10 15  1  0  0  0  0
 10  9  1  1  0  0  0
 10 11  1  0  0  0  0
 11 14  1  6  0  0  0
 11 12  1  0  0  0  0
 12 13  1  6  0  0  0
 15 16  1  0  0  0  0
 16 12  1  0  0  0  0
 16 17  1  1  0  0  0
 17 18  1  0  0  0  0
 18 19  1  0  0  0  0
 19 21  1  0  0  0  0
 19 20  1  0  0  0  0
 22 19  2  0  0  0  0
M  END
>  <CHROM.1>
179.35255483,89.92972411,-167.71597776,172.15566910,-55.52448278,18.94346229
-58.49915115,-36.21265147,2.69042378,-0.28170429,-0.87429548

>  <Name>
lig.pdb

>  <RI>
0

>  <Rbt.Current_Directory>
/home/itssahil/PROJECTS/Mol_Feturizer/New_Systems/rnas/5btp

>  <Rbt.Executable>
rbdock ($Id: //depot/dev/client3/rdock/2013.1/src/exe/rbdock.cxx#4 $)

>  <Rbt.Library>
libRbt.so (2013.1, Build901 2013/11/27)

>  <Rbt.Parameter_File>
/export/apps/rDock/src/rDock_2013.1_src/data/scripts/dock_solv.prm

>  <Rbt.Receptor>
prm/pocket_docking_2.prm

>  <SCORE>
-18.1515

>  <SCORE.INTER>
-17.2106

>  <SCORE.INTER.CONST>
1

>  <SCORE.INTER.POLAR>
0

>  <SCORE.INTER.ROT>
5

>  <SCORE.INTER.SOLV>
20.454

>  <SCORE.INTER.VDW>
-25.2251

>  <SCORE.INTER.norm>
-0.782299

>  <SCORE.INTRA>
-0.940965

>  <SCORE.INTRA.DIHEDRAL>
-0.936809

>  <SCORE.INTRA.DIHEDRAL.0>
4.21161

>  <SCORE.INTRA.POLAR>
0

>  <SCORE.INTRA.POLAR.0>
0

>  <SCORE.INTRA.REPUL>
0

>  <SCORE.INTRA.REPUL.0>
0

>  <SCORE.INTRA.SOLV>
0.157599

>  <SCORE.INTRA.SOLV.lig_0>
-41.4168

>  <SCORE.INTRA.VDW>
-0.55136

>  <SCORE.INTRA.VDW.0>
-1.62533

>  <SCORE.INTRA.norm>
-0.0427711

>  <SCORE.RESTR>
0

>  <SCORE.RESTR.CAVITY>
0

>  <SCORE.RESTR.norm>
0

>  <SCORE.SYSTEM>
0

>  <SCORE.SYSTEM.CONST>
0

>  <SCORE.SYSTEM.DIHEDRAL>
0

>  <SCORE.SYSTEM.SOLV>
0

>  <SCORE.SYSTEM.norm>
0

>  <SCORE.heavy>
22

>  <SCORE.norm>
-0.82507

>  <RMSD>
1.262

$$$$
lig.pdb
 OpenBabel11021811523D
libRbt.so/2013.1/901 2013/11/27
 22 23  0  0  0  0  0  0  0  0999 V2000
   13.1698  -59.6665  -36.8369 O   0  0  0  0  0  0  0  0  0  0  0  0
   13.9767  -59.0775  -37.5391 C   0  0  0  0  0  0  0  0  0  0  0  0
   13.6156  -58.4785  -38.6738 N   0  0  0  0  0  0  0  0  0  0  0  0
   15.4099  -59.0343  -37.1326 C   0  0  0  0  0  0  0  0  0  0  0  0
   16.4718  -58.3805  -37.9135 C   0  0  0  0  0  0  0  0  0  0  0  0
   16.2805  -57.6929  -39.1839 N   0  0  0  0  0  0  0  0  0  0  0  0
   16.0633  -59.5164  -36.0524 N   0  0  0  0  0  0  0  0  0  0  0  0
   17.3873  -59.1881  -36.1701 C   0  0  0  0  0  0  0  0  0  0  0  0
   17.6398  -58.4960  -37.3023 N   0  0  0  0  0  0  0  0  0  0  0  0
   18.9455  -57.9718  -37.7665 C   0  0  1  0  0  0  0  0  0  0  0  0
   19.1620  -56.5556  -37.2591 C   0  0  1  0  0  0  0  0  0  0  0  0
   20.6555  -56.4888  -37.0674 C   0  0  2  0  0  0  0  0  0  0  0  0
   21.2793  -56.1620  -38.3109 O   0  0  0  0  0  0  0  0  0  0  0  0
   18.7459  -55.5917  -38.2274 O   0  0  0  0  0  0  0  0  0  0  0  0
   20.0293  -58.7582  -37.2576 O   0  0  0  0  0  0  0  0  0  0  0  0
   21.0266  -57.9086  -36.6854 C   0  0  2  0  0  0  0  0  0  0  0  0
   21.0403  -58.0548  -35.1717 C   0  0  0  0  0  0  0  0  0  0  0  0
   21.6210  -59.3165  -34.8464 O   0  0  0  0  0  0  0  0  0  0  0  0
   21.9396  -59.7287  -33.3217 P   0  0  0  0  0  0  0  0  0  0  0  0
   22.8740  -58.6554  -32.8133 O   0  0  0  0  0  0  0  0  0  0  0  0
   22.5768  -61.0909  -33.4610 O   0  0  0  0  0  0  0  0  0  0  0  0
   20.5780  -59.7289  -32.6672 O   0  0  0  0  0  0  0  0  0  0  0  0
  1  2  2  0  0  0  0
  2  4  1  0  0  0  0
  2  3  1  0  0  0  0
  4  7  1  0  0  0  0
  5  9  1  0  0  0  0
  5  4  2  0  0  0  0
  6  5  1  0  0  0  0
  8  7  2  0  0  0  0
  9  8  1  0  0  0  0
 10 15  1  0  0  0  0
 10  9  1  1  0  0  0
 10 11  1  0  0  0  0
 11 14  1  6  0  0  0
 11 12  1  0  0  0  0
 12 13  1  6  0  0  0
 15 16  1  0  0  0  0
 16 12  1  0  0  0  0
 16 17  1  1  0  0  0
 17 18  1  0  0  0  0
 18 19  1  0  0  0  0
 19 21  1  0  0  0  0
 19 20  1  0  0  0  0
 22 19  2  0  0  0  0
M  END
>  <CHROM.1>
178.63430043,89.03502915,-169.69177676,173.17612204,-58.10930372,18.94692781
-58.51427327,-36.20800780,2.68961007,-0.27948918,-0.86808085

>  <Name>
lig.pdb

>  <RI>
0

>  <Rbt.Current_Directory>
/home/itssahil/PROJECTS/Mol_Feturizer/New_Systems/rnas/5btp

>  <Rbt.Executable>
rbdock ($Id: //depot/dev/client3/rdock/2013.1/src/exe/rbdock.cxx#4 $)

>  <Rbt.Library>
libRbt.so (2013.1, Build901 2013/11/27)

>  <Rbt.Parameter_File>
/export/apps/rDock/src/rDock_2013.1_src/data/scripts/dock_solv.prm

>  <Rbt.Receptor>
prm/pocket_docking_2.prm

>  <SCORE>
-18.1225

>  <SCORE.INTER>
-17.042

>  <SCORE.INTER.CONST>
1

>  <SCORE.INTER.POLAR>
0

>  <SCORE.INTER.ROT>
5

>  <SCORE.INTER.SOLV>
20.4101

>  <SCORE.INTER.VDW>
-25.0981

>  <SCORE.INTER.norm>
-0.774638

>  <SCORE.INTRA>
-1.0805

>  <SCORE.INTRA.DIHEDRAL>
-1.18117

>  <SCORE.INTRA.DIHEDRAL.0>
4.21161

>  <SCORE.INTRA.POLAR>
0

>  <SCORE.INTRA.POLAR.0>
0

>  <SCORE.INTRA.REPUL>
0

>  <SCORE.INTRA.REPUL.0>
0

>  <SCORE.INTRA.SOLV>
0.192546

>  <SCORE.INTRA.SOLV.lig_0>
-41.4168

>  <SCORE.INTRA.VDW>
-0.586188

>  <SCORE.INTRA.VDW.0>
-1.62533

>  <SCORE.INTRA.norm>
-0.0491137

>  <SCORE.RESTR>
0

>  <SCORE.RESTR.CAVITY>
0

>  <SCORE.RESTR.norm>
0

>  <SCORE.SYSTEM>
0

>  <SCORE.SYSTEM.CONST>
0

>  <SCORE.SYSTEM.DIHEDRAL>
0

>  <SCORE.SYSTEM.SOLV>
0

>  <SCORE.SYSTEM.norm>
0

>  <SCORE.heavy>
22

>  <SCORE.norm>
-0.823752

>  <RMSD>
1.273

$$$$
lig.pdb
 OpenBabel11021811523D
libRbt.so/2013.1/901 2013/11/27
 22 23  0  0  0  0  0  0  0  0999 V2000
   13.8522  -58.4033  -38.8481 O   0  0  0  0  0  0  0  0  0  0  0  0
   14.0660  -58.9625  -37.7839 C   0  0  0  0  0  0  0  0  0  0  0  0
   13.0900  -59.5449  -37.0873 N   0  0  0  0  0  0  0  0  0  0  0  0
   15.4504  -58.9866  -37.2324 C   0  0  0  0  0  0  0  0  0  0  0  0
   16.6181  -58.3931  -37.9024 C   0  0  0  0  0  0  0  0  0  0  0  0
   16.5927  -57.7084  -39.1884 N   0  0  0  0  0  0  0  0  0  0  0  0
   15.9646  -59.4907  -36.0888 N   0  0  0  0  0  0  0  0  0  0  0  0
   17.3085  -59.2294  -36.0710 C   0  0  0  0  0  0  0  0  0  0  0  0
   17.7101  -58.5608  -37.1740 N   0  0  0  0  0  0  0  0  0  0  0  0
   19.0811  -58.1060  -37.5034 C   0  0  1  0  0  0  0  0  0  0  0  0
   19.1790  -56.5927  -37.4034 C   0  0  1  0  0  0  0  0  0  0  0  0
   20.5990  -56.3742  -36.9479 C   0  0  2  0  0  0  0  0  0  0  0  0
   21.4673  -56.3772  -38.0829 O   0  0  0  0  0  0  0  0  0  0  0  0
   18.9693  -55.9773  -38.6751 O   0  0  0  0  0  0  0  0  0  0  0  0
   20.0388  -58.6392  -36.5811 O   0  0  0  0  0  0  0  0  0  0  0  0
   20.8898  -57.5966  -36.0989 C   0  0  2  0  0  0  0  0  0  0  0  0
   20.5874  -57.3009  -34.6380 C   0  0  0  0  0  0  0  0  0  0  0  0
   20.4543  -58.5411  -33.9458 O   0  0  0  0  0  0  0  0  0  0  0  0
   21.7203  -59.5057  -33.6955 P   0  0  0  0  0  0  0  0  0  0  0  0
   22.0965  -60.0210  -35.0654 O   0  0  0  0  0  0  0  0  0  0  0  0
   21.1690  -60.5606  -32.7658 O   0  0  0  0  0  0  0  0  0  0  0  0
   22.7446  -58.5851  -33.0746 O   0  0  0  0  0  0  0  0  0  0  0  0
  1  2  2  0  0  0  0
  2  4  1  0  0  0  0
  2  3  1  0  0  0  0
  4  7  1  0  0  0  0
  5  9  1  0  0  0  0
  5  4  2  0  0  0  0
  6  5  1  0  0  0  0
  8  7  2  0  0  0  0
  9  8  1  0  0  0  0
 10 15  1  0  0  0  0
 10  9  1  1  0  0  0
 10 11  1  0  0  0  0
 11 14  1  6  0  0  0
 11 12  1  0  0  0  0
 12 13  1  6  0  0  0
 15 16  1  0  0  0  0
 16 12  1  0  0  0  0
 16 17  1  1  0  0  0
 17 18  1  0  0  0  0
 18 19  1  0  0  0  0
 19 21  1  0  0  0  0
 19 20  1  0  0  0  0
 22 19  2  0  0  0  0
M  END
>  <CHROM.1>
-1.21218992,70.63030455,161.71700152,69.11781707,-68.48909423,18.89821194
-58.40457133,-36.25197604,2.71754309,-0.30701683,-0.89043548

>  <Name>
lig.pdb

>  <RI>
0

>  <Rbt.Current_Directory>
/home/itssahil/PROJECTS/Mol_Feturizer/New_Systems/rnas/5btp

>  <Rbt.Executable>
rbdock ($Id: //depot/dev/client3/rdock/2013.1/src/exe/rbdock.cxx#4 $)

>  <Rbt.Library>
libRbt.so (2013.1, Build901 2013/11/27)

>  <Rbt.Parameter_File>
/export/apps/rDock/src/rDock_2013.1_src/data/scripts/dock_solv.prm

>  <Rbt.Receptor>
prm/pocket_docking_4.prm

>  <SCORE>
-17.9573

>  <SCORE.INTER>
-17.88

>  <SCORE.INTER.CONST>
1

>  <SCORE.INTER.POLAR>
0

>  <SCORE.INTER.ROT>
5

>  <SCORE.INTER.SOLV>
19.5977

>  <SCORE.INTER.VDW>
-25.3859

>  <SCORE.INTER.norm>
-0.812725

>  <SCORE.INTRA>
-0.0773009

>  <SCORE.INTRA.DIHEDRAL>
-0.140213

>  <SCORE.INTRA.DIHEDRAL.0>
4.21161

>  <SCORE.INTRA.POLAR>
0

>  <SCORE.INTRA.POLAR.0>
0

>  <SCORE.INTRA.REPUL>
0

>  <SCORE.INTRA.REPUL.0>
0

>  <SCORE.INTRA.SOLV>
1.37779

>  <SCORE.INTRA.SOLV.lig_0>
-41.4168

>  <SCORE.INTRA.VDW>
-0.696091

>  <SCORE.INTRA.VDW.0>
-1.62533

>  <SCORE.INTRA.norm>
-0.00351368

>  <SCORE.RESTR>
0

>  <SCORE.RESTR.CAVITY>
0

>  <SCORE.RESTR.norm>
0

>  <SCORE.SYSTEM>
0

>  <SCORE.SYSTEM.CONST>
0

>  <SCORE.SYSTEM.DIHEDRAL>
0

>  <SCORE.SYSTEM.SOLV>
0

>  <SCORE.SYSTEM.norm>
0

>  <SCORE.heavy>
22

>  <SCORE.norm>
-0.816239

>  <RMSD>
1.275

$$$$
lig.pdb
 OpenBabel11021811523D
libRbt.so/2013.1/901 2013/11/27
 22 23  0  0  0  0  0  0  0  0999 V2000
   13.1359  -59.6705  -36.8882 O   0  0  0  0  0  0  0  0  0  0  0  0
   13.9516  -59.0918  -37.5887 C   0  0  0  0  0  0  0  0  0  0  0  0
   13.6053  -58.5110  -38.7374 N   0  0  0  0  0  0  0  0  0  0  0  0
   15.3793  -59.0412  -37.1640 C   0  0  0  0  0  0  0  0  0  0  0  0
   16.4511  -58.3988  -37.9408 C   0  0  0  0  0  0  0  0  0  0  0  0
   16.2762  -57.7313  -39.2243 N   0  0  0  0  0  0  0  0  0  0  0  0
   16.0186  -59.5057  -36.0677 N   0  0  0  0  0  0  0  0  0  0  0  0
   17.3438  -59.1782  -36.1730 C   0  0  0  0  0  0  0  0  0  0  0  0
   17.6110  -58.5037  -37.3125 N   0  0  0  0  0  0  0  0  0  0  0  0
   18.9224  -57.9858  -37.7674 C   0  0  1  0  0  0  0  0  0  0  0  0
   19.1360  -56.5656  -37.2700 C   0  0  1  0  0  0  0  0  0  0  0  0
   20.6276  -56.4998  -37.0633 C   0  0  2  0  0  0  0  0  0  0  0  0
   21.2650  -56.1847  -38.3028 O   0  0  0  0  0  0  0  0  0  0  0  0
   18.7319  -55.6094  -38.2509 O   0  0  0  0  0  0  0  0  0  0  0  0
   19.9993  -58.7697  -37.2404 O   0  0  0  0  0  0  0  0  0  0  0  0
   20.9921  -57.9168  -36.6652 C   0  0  2  0  0  0  0  0  0  0  0  0
   20.9897  -58.0500  -35.1502 C   0  0  0  0  0  0  0  0  0  0  0  0
   21.6068  -59.2893  -34.8061 O   0  0  0  0  0  0  0  0  0  0  0  0
   21.9173  -59.6783  -33.2737 P   0  0  0  0  0  0  0  0  0  0  0  0
   22.5689  -61.0401  -33.3401 O   0  0  0  0  0  0  0  0  0  0  0  0
   20.5484  -59.6760  -32.6355 O   0  0  0  0  0  0  0  0  0  0  0  0
   22.8353  -58.5715  -32.8105 O   0  0  0  0  0  0  0  0  0  0  0  0
  1  2  2  0  0  0  0
  2  4  1  0  0  0  0
  2  3  1  0  0  0  0
  4  7  1  0  0  0  0
  5  9  1  0  0  0  0
  5  4  2  0  0  0  0
  6  5  1  0  0  0  0
  8  7  2  0  0  0  0
  9  8  1  0  0  0  0
 10 15  1  0  0  0  0
 10  9  1  1  0  0  0
 10 11  1  0  0  0  0
 11 14  1  6  0  0  0
 11 12  1  0  0  0  0
 12 13  1  6  0  0  0
 15 16  1  0  0  0  0
 16 12  1  0  0  0  0
 16 17  1  1  0  0  0
 17 18  1  0  0  0  0
 18 19  1  0  0  0  0
 19 21  1  0  0  0  0
 19 20  1  0  0  0  0
 22 19  2  0  0  0  0
M  END
>  <CHROM.1>
178.63363002,89.49380013,-167.70548706,173.19397073,-179.64978163,18.92120841
-58.50727896,-36.20456201,2.68431014,-0.28709609,-0.88084050

>  <Name>
lig.pdb

>  <RI>
0

>  <Rbt.Current_Directory>
/home/itssahil/PROJECTS/Mol_Feturizer/New_Systems/rnas/5btp

>  <Rbt.Executable>
rbdock ($Id: //depot/dev/client3/rdock/2013.1/src/exe/rbdock.cxx#4 $)

>  <Rbt.Library>
libRbt.so (2013.1, Build901 2013/11/27)

>  <Rbt.Parameter_File>
/export/apps/rDock/src/rDock_2013.1_src/data/scripts/dock_solv.prm

>  <Rbt.Receptor>
prm/pocket_docking_2.prm

>  <SCORE>
-18.5606

>  <SCORE.INTER>
-17.6299

>  <SCORE.INTER.CONST>
1

>  <SCORE.INTER.POLAR>
0

>  <SCORE.INTER.ROT>
5

>  <SCORE.INTER.SOLV>
19.6818

>  <SCORE.INTER.VDW>
-25.2472

>  <SCORE.INTER.norm>
-0.801358

>  <SCORE.INTRA>
-0.930736

>  <SCORE.INTRA.DIHEDRAL>
-1.03774

>  <SCORE.INTRA.DIHEDRAL.0>
4.21161

>  <SCORE.INTRA.POLAR>
0

>  <SCORE.INTRA.POLAR.0>
0

>  <SCORE.INTRA.REPUL>
0

>  <SCORE.INTRA.REPUL.0>
0

>  <SCORE.INTRA.SOLV>
0.200444

>  <SCORE.INTRA.SOLV.lig_0>
-41.4168

>  <SCORE.INTRA.VDW>
-0.512088

>  <SCORE.INTRA.VDW.0>
-1.62533

>  <SCORE.INTRA.norm>
-0.0423062

>  <SCORE.RESTR>
0

>  <SCORE.RESTR.CAVITY>
0

>  <SCORE.RESTR.norm>
0

>  <SCORE.SYSTEM>
0

>  <SCORE.SYSTEM.CONST>
0

>  <SCORE.SYSTEM.DIHEDRAL>
0

>  <SCORE.SYSTEM.SOLV>
0

>  <SCORE.SYSTEM.norm>
0

>  <SCORE.heavy>
22

>  <SCORE.norm>
-0.843664

>  <RMSD>
1.276

$$$$
lig.pdb
 OpenBabel11021811523D
libRbt.so/2013.1/901 2013/11/27
 22 23  0  0  0  0  0  0  0  0999 V2000
   13.1507  -59.6136  -36.8337 O   0  0  0  0  0  0  0  0  0  0  0  0
   13.9690  -59.0574  -37.5492 C   0  0  0  0  0  0  0  0  0  0  0  0
   13.6232  -58.4952  -38.7073 N   0  0  0  0  0  0  0  0  0  0  0  0
   15.3993  -59.0139  -37.1324 C   0  0  0  0  0  0  0  0  0  0  0  0
   16.4697  -58.3756  -37.9145 C   0  0  0  0  0  0  0  0  0  0  0  0
   16.2908  -57.7059  -39.1961 N   0  0  0  0  0  0  0  0  0  0  0  0
   16.0425  -59.4827  -36.0403 N   0  0  0  0  0  0  0  0  0  0  0  0
   17.3686  -59.1613  -36.1525 C   0  0  0  0  0  0  0  0  0  0  0  0
   17.6326  -58.4867  -37.2927 N   0  0  0  0  0  0  0  0  0  0  0  0
   18.9439  -57.9744  -37.7543 C   0  0  1  0  0  0  0  0  0  0  0  0
   19.1700  -56.5584  -37.2507 C   0  0  1  0  0  0  0  0  0  0  0  0
   20.6634  -56.5029  -37.0545 C   0  0  2  0  0  0  0  0  0  0  0  0
   21.2937  -56.1849  -38.2969 O   0  0  0  0  0  0  0  0  0  0  0  0
   18.7646  -55.5943  -38.2233 O   0  0  0  0  0  0  0  0  0  0  0  0
   20.0197  -58.7678  -37.2396 O   0  0  0  0  0  0  0  0  0  0  0  0
   21.0220  -57.9244  -36.6669 C   0  0  2  0  0  0  0  0  0  0  0  0
   21.0297  -58.0659  -35.1526 C   0  0  0  0  0  0  0  0  0  0  0  0
   21.5931  -59.3341  -34.8218 O   0  0  0  0  0  0  0  0  0  0  0  0
   21.9266  -59.7353  -33.2975 P   0  0  0  0  0  0  0  0  0  0  0  0
   22.6204  -61.0747  -33.3882 O   0  0  0  0  0  0  0  0  0  0  0  0
   20.5629  -59.7857  -32.6501 O   0  0  0  0  0  0  0  0  0  0  0  0
   22.8125  -58.6068  -32.8241 O   0  0  0  0  0  0  0  0  0  0  0  0
  1  2  2  0  0  0  0
  2  4  1  0  0  0  0
  2  3  1  0  0  0  0
  4  7  1  0  0  0  0
  5  9  1  0  0  0  0
  5  4  2  0  0  0  0
  6  5  1  0  0  0  0
  8  7  2  0  0  0  0
  9  8  1  0  0  0  0
 10 15  1  0  0  0  0
 10  9  1  1  0  0  0
 10 11  1  0  0  0  0
 11 14  1  6  0  0  0
 11 12  1  0  0  0  0
 12 13  1  6  0  0  0
 15 16  1  0  0  0  0
 16 12  1  0  0  0  0
 16 17  1  1  0  0  0
 17 18  1  0  0  0  0
 18 19  1  0  0  0  0
 19 21  1  0  0  0  0
 19 20  1  0  0  0  0
 22 19  2  0  0  0  0
M  END
>  <CHROM.1>
179.85880866,89.77621722,-169.98257001,172.06998010,-174.69301311,18.94098823
-58.51308561,-36.19667210,2.68364762,-0.27757034,-0.87382090

>  <Name>
lig.pdb

>  <RI>
0

>  <Rbt.Current_Directory>
/home/itssahil/PROJECTS/Mol_Feturizer/New_Systems/rnas/5btp

>  <Rbt.Executable>
rbdock ($Id: //depot/dev/client3/rdock/2013.1/src/exe/rbdock.cxx#4 $)

>  <Rbt.Library>
libRbt.so (2013.1, Build901 2013/11/27)

>  <Rbt.Parameter_File>
/export/apps/rDock/src/rDock_2013.1_src/data/scripts/dock_solv.prm

>  <Rbt.Receptor>
prm/pocket_docking_2.prm

>  <SCORE>
-18.5032

>  <SCORE.INTER>
-17.5656

>  <SCORE.INTER.CONST>
1

>  <SCORE.INTER.POLAR>
0

>  <SCORE.INTER.ROT>
5

>  <SCORE.INTER.SOLV>
19.5149

>  <SCORE.INTER.VDW>
-25.1487

>  <SCORE.INTER.norm>
-0.798435

>  <SCORE.INTRA>
-0.937656

>  <SCORE.INTRA.DIHEDRAL>
-1.08799

>  <SCORE.INTRA.DIHEDRAL.0>
4.21161

>  <SCORE.INTRA.POLAR>
0

>  <SCORE.INTRA.POLAR.0>
0

>  <SCORE.INTRA.REPUL>
0

>  <SCORE.INTRA.REPUL.0>
0

>  <SCORE.INTRA.SOLV>
0.222682

>  <SCORE.INTRA.SOLV.lig_0>
-41.4168

>  <SCORE.INTRA.VDW>
-0.505004

>  <SCORE.INTRA.VDW.0>
-1.62533

>  <SCORE.INTRA.norm>
-0.0426207

>  <SCORE.RESTR>
0

>  <SCORE.RESTR.CAVITY>
0

>  <SCORE.RESTR.norm>
0

>  <SCORE.SYSTEM>
0

>  <SCORE.SYSTEM.CONST>
0

>  <SCORE.SYSTEM.DIHEDRAL>
0

>  <SCORE.SYSTEM.SOLV>
0

>  <SCORE.SYSTEM.norm>
0

>  <SCORE.heavy>
22

>  <SCORE.norm>
-0.841056

>  <RMSD>
1.279

$$$$
lig.pdb
 OpenBabel11021811523D
libRbt.so/2013.1/901 2013/11/27
 22 23  0  0  0  0  0  0  0  0999 V2000
   12.9673  -59.3613  -37.0103 O   0  0  0  0  0  0  0  0  0  0  0  0
   13.8612  -58.8893  -37.6953 C   0  0  0  0  0  0  0  0  0  0  0  0
   13.6200  -58.3441  -38.8875 N   0  0  0  0  0  0  0  0  0  0  0  0
   15.2663  -58.9329  -37.2002 C   0  0  0  0  0  0  0  0  0  0  0  0
   16.4166  -58.3708  -37.9254 C   0  0  0  0  0  0  0  0  0  0  0  0
   16.3513  -57.7025  -39.2186 N   0  0  0  0  0  0  0  0  0  0  0  0
   15.8175  -59.4317  -36.0717 N   0  0  0  0  0  0  0  0  0  0  0  0
   17.1656  -59.1961  -36.1122 C   0  0  0  0  0  0  0  0  0  0  0  0
   17.5341  -58.5498  -37.2397 N   0  0  0  0  0  0  0  0  0  0  0  0
   18.8988  -58.1258  -37.6309 C   0  0  1  0  0  0  0  0  0  0  0  0
   19.1065  -56.6514  -37.3262 C   0  0  1  0  0  0  0  0  0  0  0  0
   20.5722  -56.5796  -36.9824 C   0  0  2  0  0  0  0  0  0  0  0  0
   21.3363  -56.4613  -38.1842 O   0  0  0  0  0  0  0  0  0  0  0  0
   18.8289  -55.8442  -38.4713 O   0  0  0  0  0  0  0  0  0  0  0  0
   19.8950  -58.8404  -36.8900 O   0  0  0  0  0  0  0  0  0  0  0  0
   20.8529  -57.9280  -36.3479 C   0  0  2  0  0  0  0  0  0  0  0  0
   20.6992  -57.8359  -34.8376 C   0  0  0  0  0  0  0  0  0  0  0  0
   20.9042  -59.1346  -34.2842 O   0  0  0  0  0  0  0  0  0  0  0  0
   22.3535  -59.8383  -34.3023 P   0  0  0  0  0  0  0  0  0  0  0  0
   22.1855  -61.1012  -33.4896 O   0  0  0  0  0  0  0  0  0  0  0  0
   23.2457  -58.8020  -33.6610 O   0  0  0  0  0  0  0  0  0  0  0  0
   22.6098  -60.0743  -35.7723 O   0  0  0  0  0  0  0  0  0  0  0  0
  1  2  2  0  0  0  0
  2  4  1  0  0  0  0
  2  3  1  0  0  0  0
  4  7  1  0  0  0  0
  5  9  1  0  0  0  0
  5  4  2  0  0  0  0
  6  5  1  0  0  0  0
  8  7  2  0  0  0  0
  9  8  1  0  0  0  0
 10 15  1  0  0  0  0
 10  9  1  1  0  0  0
 10 11  1  0  0  0  0
 11 14  1  6  0  0  0
 11 12  1  0  0  0  0
 12 13  1  6  0  0  0
 15 16  1  0  0  0  0
 16 12  1  0  0  0  0
 16 17  1  1  0  0  0
 17 18  1  0  0  0  0
 18 19  1  0  0  0  0
 19 21  1  0  0  0  0
 19 20  1  0  0  0  0
 22 19  2  0  0  0  0
M  END
>  <CHROM.1>
-178.62336077,80.52120657,177.12130284,68.73821824,173.46693180,18.97844354
-58.54373099,-36.44339538,2.79028165,-0.23030837,-0.77601128

>  <Name>
lig.pdb

>  <RI>
0

>  <Rbt.Current_Directory>
/home/itssahil/PROJECTS/Mol_Feturizer/New_Systems/rnas/5btp

>  <Rbt.Executable>
rbdock ($Id: //depot/dev/client3/rdock/2013.1/src/exe/rbdock.cxx#4 $)

>  <Rbt.Library>
libRbt.so (2013.1, Build901 2013/11/27)

>  <Rbt.Parameter_File>
/export/apps/rDock/src/rDock_2013.1_src/data/scripts/dock_solv.prm

>  <Rbt.Receptor>
prm/pocket_docking_6.prm

>  <SCORE>
-17.4802

>  <SCORE.INTER>
-17.2342

>  <SCORE.INTER.CONST>
1

>  <SCORE.INTER.POLAR>
0

>  <SCORE.INTER.ROT>
5

>  <SCORE.INTER.SOLV>
19.1191

>  <SCORE.INTER.VDW>
-24.7959

>  <SCORE.INTER.norm>
-0.783375

>  <SCORE.INTRA>
-0.246

>  <SCORE.INTRA.DIHEDRAL>
-1.30847

>  <SCORE.INTRA.DIHEDRAL.0>
4.21161

>  <SCORE.INTRA.POLAR>
0

>  <SCORE.INTRA.POLAR.0>
0

>  <SCORE.INTRA.REPUL>
0

>  <SCORE.INTRA.REPUL.0>
0

>  <SCORE.INTRA.SOLV>
1.82583

>  <SCORE.INTRA.SOLV.lig_0>
-41.4168

>  <SCORE.INTRA.VDW>
-0.504684

>  <SCORE.INTRA.VDW.0>
-1.62533

>  <SCORE.INTRA.norm>
-0.0111818

>  <SCORE.RESTR>
0

>  <SCORE.RESTR.CAVITY>
0

>  <SCORE.RESTR.norm>
0

>  <SCORE.SYSTEM>
0

>  <SCORE.SYSTEM.CONST>
0

>  <SCORE.SYSTEM.DIHEDRAL>
0

>  <SCORE.SYSTEM.SOLV>
0

>  <SCORE.SYSTEM.norm>
0

>  <SCORE.heavy>
22

>  <SCORE.norm>
-0.794557

>  <RMSD>
1.293

$$$$
lig.pdb
 OpenBabel11021811523D
libRbt.so/2013.1/901 2013/11/27
 22 23  0  0  0  0  0  0  0  0999 V2000
   13.0666  -59.6814  -36.7905 O   0  0  0  0  0  0  0  0  0  0  0  0
   13.8574  -59.0952  -37.5131 C   0  0  0  0  0  0  0  0  0  0  0  0
   13.4747  -58.5198  -38.6530 N   0  0  0  0  0  0  0  0  0  0  0  0
   15.2952  -59.0288  -37.1264 C   0  0  0  0  0  0  0  0  0  0  0  0
   16.3416  -58.3891  -37.9392 C   0  0  0  0  0  0  0  0  0  0  0  0
   16.1286  -57.7399  -39.2261 N   0  0  0  0  0  0  0  0  0  0  0  0
   15.9662  -59.4743  -36.0412 N   0  0  0  0  0  0  0  0  0  0  0  0
   17.2857  -59.1388  -36.1852 C   0  0  0  0  0  0  0  0  0  0  0  0
   17.5182  -58.4775  -37.3399 N   0  0  0  0  0  0  0  0  0  0  0  0
   18.8135  -57.9563  -37.8355 C   0  0  1  0  0  0  0  0  0  0  0  0
   19.1760  -56.6642  -37.1220 C   0  0  1  0  0  0  0  0  0  0  0  0
   20.6814  -56.7172  -37.0692 C   0  0  2  0  0  0  0  0  0  0  0  0
   21.2172  -56.2159  -38.2955 O   0  0  0  0  0  0  0  0  0  0  0  0
   18.7490  -55.5249  -37.8700 O   0  0  0  0  0  0  0  0  0  0  0  0
   19.8769  -58.8797  -37.5740 O   0  0  0  0  0  0  0  0  0  0  0  0
   20.9795  -58.2005  -36.9684 C   0  0  2  0  0  0  0  0  0  0  0  0
   21.1138  -58.6075  -35.5091 C   0  0  0  0  0  0  0  0  0  0  0  0
   21.5487  -59.9652  -35.4585 O   0  0  0  0  0  0  0  0  0  0  0  0
   21.9498  -60.6694  -34.0659 P   0  0  0  0  0  0  0  0  0  0  0  0
   20.7097  -60.5742  -33.2078 O   0  0  0  0  0  0  0  0  0  0  0  0
   23.1074  -59.8304  -33.5786 O   0  0  0  0  0  0  0  0  0  0  0  0
   22.3149  -62.0764  -34.4774 O   0  0  0  0  0  0  0  0  0  0  0  0
  1  2  2  0  0  0  0
  2  4  1  0  0  0  0
  2  3  1  0  0  0  0
  4  7  1  0  0  0  0
  5  9  1  0  0  0  0
  5  4  2  0  0  0  0
  6  5  1  0  0  0  0
  8  7  2  0  0  0  0
  9  8  1  0  0  0  0
 10 15  1  0  0  0  0
 10  9  1  1  0  0  0
 10 11  1  0  0  0  0
 11 14  1  6  0  0  0
 11 12  1  0  0  0  0
 12 13  1  6  0  0  0
 15 16  1  0  0  0  0
 16 12  1  0  0  0  0
 16 17  1  1  0  0  0
 17 18  1  0  0  0  0
 18 19  1  0  0  0  0
 19 21  1  0  0  0  0
 19 20  1  0  0  0  0
 22 19  2  0  0  0  0
M  END
>  <CHROM.1>
177.93747743,102.10147403,-173.19968275,173.15513594,58.90758276,18.89281626
-58.83327305,-36.44032327,2.71641496,-0.20555078,-0.69378092

>  <Name>
lig.pdb

>  <RI>
0

>  <Rbt.Current_Directory>
/home/itssahil/PROJECTS/Mol_Feturizer/New_Systems/rnas/5btp

>  <Rbt.Executable>
rbdock ($Id: //depot/dev/client3/rdock/2013.1/src/exe/rbdock.cxx#4 $)

>  <Rbt.Library>
libRbt.so (2013.1, Build901 2013/11/27)

>  <Rbt.Parameter_File>
/export/apps/rDock/src/rDock_2013.1_src/data/scripts/dock_solv.prm

>  <Rbt.Receptor>
prm/pocket_docking_3.prm

>  <SCORE>
-19.4428

>  <SCORE.INTER>
-18.104

>  <SCORE.INTER.CONST>
1

>  <SCORE.INTER.POLAR>
0

>  <SCORE.INTER.ROT>
5

>  <SCORE.INTER.SOLV>
19.6708

>  <SCORE.INTER.VDW>
-25.5596

>  <SCORE.INTER.norm>
-0.82291

>  <SCORE.INTRA>
-1.33878

>  <SCORE.INTRA.DIHEDRAL>
-1.38318

>  <SCORE.INTRA.DIHEDRAL.0>
4.21161

>  <SCORE.INTRA.POLAR>
0

>  <SCORE.INTRA.POLAR.0>
0

>  <SCORE.INTRA.REPUL>
0

>  <SCORE.INTRA.REPUL.0>
0

>  <SCORE.INTRA.SOLV>
-0.166013

>  <SCORE.INTRA.SOLV.lig_0>
-41.4168

>  <SCORE.INTRA.VDW>
-0.564179

>  <SCORE.INTRA.VDW.0>
-1.62533

>  <SCORE.INTRA.norm>
-0.0608536

>  <SCORE.RESTR>
0

>  <SCORE.RESTR.CAVITY>
0

>  <SCORE.RESTR.norm>
0

>  <SCORE.SYSTEM>
0

>  <SCORE.SYSTEM.CONST>
0

>  <SCORE.SYSTEM.DIHEDRAL>
0

>  <SCORE.SYSTEM.SOLV>
0

>  <SCORE.SYSTEM.norm>
0

>  <SCORE.heavy>
22

>  <SCORE.norm>
-0.883764

>  <RMSD>
1.321

$$$$
lig.pdb
 OpenBabel11021811523D
libRbt.so/2013.1/901 2013/11/27
 22 23  0  0  0  0  0  0  0  0999 V2000
   13.0564  -59.6632  -36.7970 O   0  0  0  0  0  0  0  0  0  0  0  0
   13.8510  -59.0852  -37.5220 C   0  0  0  0  0  0  0  0  0  0  0  0
   13.4716  -58.5094  -38.6627 N   0  0  0  0  0  0  0  0  0  0  0  0
   15.2898  -59.0297  -37.1372 C   0  0  0  0  0  0  0  0  0  0  0  0
   16.3363  -58.3784  -37.9406 C   0  0  0  0  0  0  0  0  0  0  0  0
   16.1224  -57.7057  -39.2153 N   0  0  0  0  0  0  0  0  0  0  0  0
   15.9618  -59.4964  -36.0616 N   0  0  0  0  0  0  0  0  0  0  0  0
   17.2820  -59.1621  -36.2024 C   0  0  0  0  0  0  0  0  0  0  0  0
   17.5139  -58.4807  -37.3456 N   0  0  0  0  0  0  0  0  0  0  0  0
   18.8096  -57.9544  -37.8346 C   0  0  1  0  0  0  0  0  0  0  0  0
   19.1718  -56.6702  -37.1068 C   0  0  1  0  0  0  0  0  0  0  0  0
   20.6771  -56.7239  -37.0535 C   0  0  2  0  0  0  0  0  0  0  0  0
   21.2138  -56.2093  -38.2738 O   0  0  0  0  0  0  0  0  0  0  0  0
   18.7454  -55.5227  -37.8425 O   0  0  0  0  0  0  0  0  0  0  0  0
   19.8727  -58.8807  -37.5824 O   0  0  0  0  0  0  0  0  0  0  0  0
   20.9750  -58.2083  -36.9686 C   0  0  2  0  0  0  0  0  0  0  0  0
   21.1082  -58.6311  -35.5137 C   0  0  0  0  0  0  0  0  0  0  0  0
   21.5894  -59.9736  -35.4773 O   0  0  0  0  0  0  0  0  0  0  0  0
   21.9012  -60.7186  -34.0831 P   0  0  0  0  0  0  0  0  0  0  0  0
   20.5536  -60.8907  -33.4215 O   0  0  0  0  0  0  0  0  0  0  0  0
   22.8206  -59.7514  -33.3758 O   0  0  0  0  0  0  0  0  0  0  0  0
   22.5517  -62.0120  -34.5151 O   0  0  0  0  0  0  0  0  0  0  0  0
  1  2  2  0  0  0  0
  2  4  1  0  0  0  0
  2  3  1  0  0  0  0
  4  7  1  0  0  0  0
  5  9  1  0  0  0  0
  5  4  2  0  0  0  0
  6  5  1  0  0  0  0
  8  7  2  0  0  0  0
  9  8  1  0  0  0  0
 10 15  1  0  0  0  0
 10  9  1  1  0  0  0
 10 11  1  0  0  0  0
 11 14  1  6  0  0  0
 11 12  1  0  0  0  0
 12 13  1  6  0  0  0
 15 16  1  0  0  0  0
 16 12  1  0  0  0  0
 16 17  1  1  0  0  0
 17 18  1  0  0  0  0
 18 19  1  0  0  0  0
 19 21  1  0  0  0  0
 19 20  1  0  0  0  0
 22 19  2  0  0  0  0
M  END
>  <CHROM.1>
179.14067391,101.64277897,-171.11985287,177.55495909,67.30254418,18.87676026
-58.84653569,-36.44499944,2.71223562,-0.20495331,-0.68491110

>  <Name>
lig.pdb

>  <RI>
0

>  <Rbt.Current_Directory>
/home/itssahil/PROJECTS/Mol_Feturizer/New_Systems/rnas/5btp

>  <Rbt.Executable>
rbdock ($Id: //depot/dev/client3/rdock/2013.1/src/exe/rbdock.cxx#4 $)

>  <Rbt.Library>
libRbt.so (2013.1, Build901 2013/11/27)

>  <Rbt.Parameter_File>
/export/apps/rDock/src/rDock_2013.1_src/data/scripts/dock_solv.prm

>  <Rbt.Receptor>
prm/pocket_docking_3.prm

>  <SCORE>
-19.3271

>  <SCORE.INTER>
-18.0211

>  <SCORE.INTER.CONST>
1

>  <SCORE.INTER.POLAR>
0

>  <SCORE.INTER.ROT>
5

>  <SCORE.INTER.SOLV>
19.6199

>  <SCORE.INTER.VDW>
-25.4874

>  <SCORE.INTER.norm>
-0.819143

>  <SCORE.INTRA>
-1.30599

>  <SCORE.INTRA.DIHEDRAL>
-1.39571

>  <SCORE.INTRA.DIHEDRAL.0>
4.21161

>  <SCORE.INTRA.POLAR>
0

>  <SCORE.INTRA.POLAR.0>
0

>  <SCORE.INTRA.REPUL>
0

>  <SCORE.INTRA.REPUL.0>
0

>  <SCORE.INTRA.SOLV>
-0.153609

>  <SCORE.INTRA.SOLV.lig_0>
-41.4168

>  <SCORE.INTRA.VDW>
-0.531332

>  <SCORE.INTRA.VDW.0>
-1.62533

>  <SCORE.INTRA.norm>
-0.0593632

>  <SCORE.RESTR>
0

>  <SCORE.RESTR.CAVITY>
0

>  <SCORE.RESTR.norm>
0

>  <SCORE.SYSTEM>
0

>  <SCORE.SYSTEM.CONST>
0

>  <SCORE.SYSTEM.DIHEDRAL>
0

>  <SCORE.SYSTEM.SOLV>
0

>  <SCORE.SYSTEM.norm>
0

>  <SCORE.heavy>
22

>  <SCORE.norm>
-0.878506

>  <RMSD>
1.352

$$$$
lig.pdb
 OpenBabel11021811523D
libRbt.so/2013.1/901 2013/11/27
 22 23  0  0  0  0  0  0  0  0999 V2000
   12.9946  -59.2120  -37.0778 O   0  0  0  0  0  0  0  0  0  0  0  0
   13.9310  -58.8005  -37.7448 C   0  0  0  0  0  0  0  0  0  0  0  0
   13.7519  -58.2630  -38.9514 N   0  0  0  0  0  0  0  0  0  0  0  0
   15.3178  -58.9116  -37.2104 C   0  0  0  0  0  0  0  0  0  0  0  0
   16.5125  -58.3950  -37.8965 C   0  0  0  0  0  0  0  0  0  0  0  0
   16.5146  -57.7126  -39.1840 N   0  0  0  0  0  0  0  0  0  0  0  0
   15.8133  -59.4449  -36.0719 N   0  0  0  0  0  0  0  0  0  0  0  0
   17.1712  -59.2697  -36.0715 C   0  0  0  0  0  0  0  0  0  0  0  0
   17.6007  -58.6302  -37.1812 N   0  0  0  0  0  0  0  0  0  0  0  0
   18.9936  -58.2643  -37.5289 C   0  0  1  0  0  0  0  0  0  0  0  0
   19.2338  -56.7845  -37.2795 C   0  0  1  0  0  0  0  0  0  0  0  0
   20.6847  -56.7403  -36.8738 C   0  0  2  0  0  0  0  0  0  0  0  0
   21.5037  -56.6983  -38.0441 O   0  0  0  0  0  0  0  0  0  0  0  0
   19.0316  -56.0215  -38.4698 O   0  0  0  0  0  0  0  0  0  0  0  0
   19.9338  -58.9739  -36.7137 O   0  0  0  0  0  0  0  0  0  0  0  0
   20.8953  -58.0666  -36.1695 C   0  0  2  0  0  0  0  0  0  0  0  0
   20.6791  -57.9025  -34.6730 C   0  0  0  0  0  0  0  0  0  0  0  0
   20.9897  -59.1400  -34.0348 O   0  0  0  0  0  0  0  0  0  0  0  0
   22.5104  -59.6495  -33.8810 P   0  0  0  0  0  0  0  0  0  0  0  0
   22.9840  -59.9000  -35.2939 O   0  0  0  0  0  0  0  0  0  0  0  0
   22.3704  -60.8982  -33.0430 O   0  0  0  0  0  0  0  0  0  0  0  0
   23.1981  -58.4954  -33.1899 O   0  0  0  0  0  0  0  0  0  0  0  0
  1  2  2  0  0  0  0
  2  4  1  0  0  0  0
  2  3  1  0  0  0  0
  4  7  1  0  0  0  0
  5  9  1  0  0  0  0
  5  4  2  0  0  0  0
  6  5  1  0  0  0  0
  8  7  2  0  0  0  0
  9  8  1  0  0  0  0
 10 15  1  0  0  0  0
 10  9  1  1  0  0  0
 10 11  1  0  0  0  0
 11 14  1  6  0  0  0
 11 12  1  0  0  0  0
 12 13  1  6  0  0  0
 15 16  1  0  0  0  0
 16 12  1  0  0  0  0
 16 17  1  1  0  0  0
 17 18  1  0  0  0  0
 18 19  1  0  0  0  0
 19 21  1  0  0  0  0
 19 20  1  0  0  0  0
 22 19  2  0  0  0  0
M  END
>  <CHROM.1>
-177.04880347,77.20123418,-175.40496267,72.80037721,-65.49728229,19.08053588
-58.53852685,-36.28611913,2.74530338,-0.23675451,-0.86613367

>  <Name>
lig.pdb

>  <RI>
0

>  <Rbt.Current_Directory>
/home/itssahil/PROJECTS/Mol_Feturizer/New_Systems/rnas/5btp

>  <Rbt.Executable>
rbdock ($Id: //depot/dev/client3/rdock/2013.1/src/exe/rbdock.cxx#4 $)

>  <Rbt.Library>
libRbt.so (2013.1, Build901 2013/11/27)

>  <Rbt.Parameter_File>
/export/apps/rDock/src/rDock_2013.1_src/data/scripts/dock_solv.prm

>  <Rbt.Receptor>
prm/pocket_docking_2.prm

>  <SCORE>
-17.1415

>  <SCORE.INTER>
-16.7467

>  <SCORE.INTER.CONST>
1

>  <SCORE.INTER.POLAR>
0

>  <SCORE.INTER.ROT>
5

>  <SCORE.INTER.SOLV>
18.9

>  <SCORE.INTER.VDW>
-24.3978

>  <SCORE.INTER.norm>
-0.761214

>  <SCORE.INTRA>
-0.394823

>  <SCORE.INTRA.DIHEDRAL>
-0.857557

>  <SCORE.INTRA.DIHEDRAL.0>
4.21161

>  <SCORE.INTRA.POLAR>
0

>  <SCORE.INTRA.POLAR.0>
0

>  <SCORE.INTRA.REPUL>
0

>  <SCORE.INTRA.REPUL.0>
0

>  <SCORE.INTRA.SOLV>
1.32758

>  <SCORE.INTRA.SOLV.lig_0>
-41.4168

>  <SCORE.INTRA.VDW>
-0.629834

>  <SCORE.INTRA.VDW.0>
-1.62533

>  <SCORE.INTRA.norm>
-0.0179465

>  <SCORE.RESTR>
0

>  <SCORE.RESTR.CAVITY>
0

>  <SCORE.RESTR.norm>
0

>  <SCORE.SYSTEM>
0

>  <SCORE.SYSTEM.CONST>
0

>  <SCORE.SYSTEM.DIHEDRAL>
0

>  <SCORE.SYSTEM.SOLV>
0

>  <SCORE.SYSTEM.norm>
0

>  <SCORE.heavy>
22

>  <SCORE.norm>
-0.77916

>  <RMSD>
1.368

$$$$
lig.pdb
 OpenBabel11021811523D
libRbt.so/2013.1/901 2013/11/27
 22 23  0  0  0  0  0  0  0  0999 V2000
   13.8156  -60.1764  -36.7031 O   0  0  0  0  0  0  0  0  0  0  0  0
   14.4728  -59.3806  -37.3556 C   0  0  0  0  0  0  0  0  0  0  0  0
   13.9701  -58.7636  -38.4250 N   0  0  0  0  0  0  0  0  0  0  0  0
   15.8820  -59.0959  -36.9629 C   0  0  0  0  0  0  0  0  0  0  0  0
   16.7894  -58.2168  -37.7170 C   0  0  0  0  0  0  0  0  0  0  0  0
   16.4487  -57.5095  -38.9445 N   0  0  0  0  0  0  0  0  0  0  0  0
   16.6352  -59.5062  -35.9185 N   0  0  0  0  0  0  0  0  0  0  0  0
   17.8738  -58.9338  -36.0318 C   0  0  0  0  0  0  0  0  0  0  0  0
   17.9714  -58.1475  -37.1259 N   0  0  0  0  0  0  0  0  0  0  0  0
   19.1488  -57.3678  -37.5738 C   0  0  1  0  0  0  0  0  0  0  0  0
   19.7391  -56.5812  -36.4150 C   0  0  1  0  0  0  0  0  0  0  0  0
   21.2115  -56.5575  -36.7367 C   0  0  2  0  0  0  0  0  0  0  0  0
   21.4836  -55.4801  -37.6352 O   0  0  0  0  0  0  0  0  0  0  0  0
   19.2214  -55.2506  -36.3782 O   0  0  0  0  0  0  0  0  0  0  0  0
   20.1876  -58.2292  -38.0542 O   0  0  0  0  0  0  0  0  0  0  0  0
   21.4369  -57.8723  -37.4577 C   0  0  2  0  0  0  0  0  0  0  0  0
   21.8746  -58.9413  -36.4683 C   0  0  0  0  0  0  0  0  0  0  0  0
   21.1044  -58.7941  -35.2765 O   0  0  0  0  0  0  0  0  0  0  0  0
   21.5915  -59.4247  -33.8761 P   0  0  0  0  0  0  0  0  0  0  0  0
   21.8920  -60.8735  -34.1828 O   0  0  0  0  0  0  0  0  0  0  0  0
   20.3989  -59.2161  -32.9731 O   0  0  0  0  0  0  0  0  0  0  0  0
   22.8063  -58.5986  -33.5239 O   0  0  0  0  0  0  0  0  0  0  0  0
  1  2  2  0  0  0  0
  2  4  1  0  0  0  0
  2  3  1  0  0  0  0
  4  7  1  0  0  0  0
  5  9  1  0  0  0  0
  5  4  2  0  0  0  0
  6  5  1  0  0  0  0
  8  7  2  0  0  0  0
  9  8  1  0  0  0  0
 10 15  1  0  0  0  0
 10  9  1  1  0  0  0
 10 11  1  0  0  0  0
 11 14  1  6  0  0  0
 11 12  1  0  0  0  0
 12 13  1  6  0  0  0
 15 16  1  0  0  0  0
 16 12  1  0  0  0  0
 16 17  1  1  0  0  0
 17 18  1  0  0  0  0
 18 19  1  0  0  0  0
 19 21  1  0  0  0  0
 19 20  1  0  0  0  0
 22 19  2  0  0  0  0
M  END
>  <CHROM.1>
176.38356925,132.32917461,40.76382233,-160.48295837,-51.63982518,19.14678333
-58.37429904,-36.24715606,2.88890061,-0.31394000,-0.77482420

>  <Name>
lig.pdb

>  <RI>
0

>  <Rbt.Current_Directory>
/home/itssahil/PROJECTS/Mol_Feturizer/New_Systems/rnas/5btp

>  <Rbt.Executable>
rbdock ($Id: //depot/dev/client3/rdock/2013.1/src/exe/rbdock.cxx#4 $)

>  <Rbt.Library>
libRbt.so (2013.1, Build901 2013/11/27)

>  <Rbt.Parameter_File>
/export/apps/rDock/src/rDock_2013.1_src/data/scripts/dock_solv.prm

>  <Rbt.Receptor>
prm/pocket_docking_2.prm

>  <SCORE>
-14.1403

>  <SCORE.INTER>
-15.0465

>  <SCORE.INTER.CONST>
1

>  <SCORE.INTER.POLAR>
0

>  <SCORE.INTER.ROT>
5

>  <SCORE.INTER.SOLV>
18.1999

>  <SCORE.INTER.VDW>
-23.031

>  <SCORE.INTER.norm>
-0.683932

>  <SCORE.INTRA>
0.906207

>  <SCORE.INTRA.DIHEDRAL>
1.31912

>  <SCORE.INTRA.DIHEDRAL.0>
4.21161

>  <SCORE.INTRA.POLAR>
0

>  <SCORE.INTRA.POLAR.0>
0

>  <SCORE.INTRA.REPUL>
0

>  <SCORE.INTRA.REPUL.0>
0

>  <SCORE.INTRA.SOLV>
0.888944

>  <SCORE.INTRA.SOLV.lig_0>
-41.4168

>  <SCORE.INTRA.VDW>
-0.197823

>  <SCORE.INTRA.VDW.0>
-1.62533

>  <SCORE.INTRA.norm>
0.0411912

>  <SCORE.RESTR>
0

>  <SCORE.RESTR.CAVITY>
0

>  <SCORE.RESTR.norm>
0

>  <SCORE.SYSTEM>
0

>  <SCORE.SYSTEM.CONST>
0

>  <SCORE.SYSTEM.DIHEDRAL>
0

>  <SCORE.SYSTEM.SOLV>
0

>  <SCORE.SYSTEM.norm>
0

>  <SCORE.heavy>
22

>  <SCORE.norm>
-0.642741

>  <RMSD>
1.369

$$$$
lig.pdb
 OpenBabel11021811523D
libRbt.so/2013.1/901 2013/11/27
 22 23  0  0  0  0  0  0  0  0999 V2000
   13.6222  -58.4719  -38.7028 O   0  0  0  0  0  0  0  0  0  0  0  0
   13.9091  -59.0222  -37.6511 C   0  0  0  0  0  0  0  0  0  0  0  0
   12.9873  -59.6198  -36.8962 N   0  0  0  0  0  0  0  0  0  0  0  0
   15.3238  -59.0178  -37.1823 C   0  0  0  0  0  0  0  0  0  0  0  0
   16.4393  -58.4102  -37.9248 C   0  0  0  0  0  0  0  0  0  0  0  0
   16.3260  -57.7372  -39.2122 N   0  0  0  0  0  0  0  0  0  0  0  0
   15.9135  -59.5029  -36.0673 N   0  0  0  0  0  0  0  0  0  0  0  0
   17.2512  -59.2184  -36.1311 C   0  0  0  0  0  0  0  0  0  0  0  0
   17.5752  -58.5527  -37.2609 N   0  0  0  0  0  0  0  0  0  0  0  0
   18.9161  -58.0774  -37.6744 C   0  0  1  0  0  0  0  0  0  0  0  0
   19.1037  -56.6172  -37.2969 C   0  0  1  0  0  0  0  0  0  0  0  0
   20.5787  -56.5308  -36.9995 C   0  0  2  0  0  0  0  0  0  0  0  0
   21.2976  -56.3306  -38.2182 O   0  0  0  0  0  0  0  0  0  0  0  0
   18.7693  -55.7560  -38.3861 O   0  0  0  0  0  0  0  0  0  0  0  0
   19.9524  -58.8080  -37.0078 O   0  0  0  0  0  0  0  0  0  0  0  0
   20.9095  -57.9046  -36.4495 C   0  0  2  0  0  0  0  0  0  0  0  0
   20.8070  -57.8975  -34.9321 C   0  0  0  0  0  0  0  0  0  0  0  0
   21.8075  -57.0205  -34.4174 O   0  0  0  0  0  0  0  0  0  0  0  0
   21.9382  -56.7267  -32.8386 P   0  0  0  0  0  0  0  0  0  0  0  0
   23.2296  -55.9564  -32.6895 O   0  0  0  0  0  0  0  0  0  0  0  0
   21.9678  -58.1104  -32.2339 O   0  0  0  0  0  0  0  0  0  0  0  0
   20.6962  -55.9247  -32.5277 O   0  0  0  0  0  0  0  0  0  0  0  0
  1  2  2  0  0  0  0
  2  4  1  0  0  0  0
  2  3  1  0  0  0  0
  4  7  1  0  0  0  0
  5  9  1  0  0  0  0
  5  4  2  0  0  0  0
  6  5  1  0  0  0  0
  8  7  2  0  0  0  0
  9  8  1  0  0  0  0
 10 15  1  0  0  0  0
 10  9  1  1  0  0  0
 10 11  1  0  0  0  0
 11 14  1  6  0  0  0
 11 12  1  0  0  0  0
 12 13  1  6  0  0  0
 15 16  1  0  0  0  0
 16 12  1  0  0  0  0
 16 17  1  1  0  0  0
 17 18  1  0  0  0  0
 18 19  1  0  0  0  0
 19 21  1  0  0  0  0
 19 20  1  0  0  0  0
 22 19  2  0  0  0  0
M  END
>  <CHROM.1>
-1.47700928,83.54161187,-64.66278706,177.26624944,170.85140876,18.90251396
-57.67563172,-36.05629972,2.67487397,-0.39203941,-1.34827929

>  <Name>
lig.pdb

>  <RI>
0

>  <Rbt.Current_Directory>
/home/itssahil/PROJECTS/Mol_Feturizer/New_Systems/rnas/5btp

>  <Rbt.Executable>
rbdock ($Id: //depot/dev/client3/rdock/2013.1/src/exe/rbdock.cxx#4 $)

>  <Rbt.Library>
libRbt.so (2013.1, Build901 2013/11/27)

>  <Rbt.Parameter_File>
/export/apps/rDock/src/rDock_2013.1_src/data/scripts/dock_solv.prm

>  <Rbt.Receptor>
prm/pocket_docking_4.prm

>  <SCORE>
-18.5471

>  <SCORE.INTER>
-17.5627

>  <SCORE.INTER.CONST>
1

>  <SCORE.INTER.POLAR>
0

>  <SCORE.INTER.ROT>
5

>  <SCORE.INTER.SOLV>
20.7419

>  <SCORE.INTER.VDW>
-25.5558

>  <SCORE.INTER.norm>
-0.798307

>  <SCORE.INTRA>
-0.984348

>  <SCORE.INTRA.DIHEDRAL>
-1.52634

>  <SCORE.INTRA.DIHEDRAL.0>
4.21161

>  <SCORE.INTRA.POLAR>
0

>  <SCORE.INTRA.POLAR.0>
0

>  <SCORE.INTRA.REPUL>
0

>  <SCORE.INTRA.REPUL.0>
0

>  <SCORE.INTRA.SOLV>
0.258333

>  <SCORE.INTRA.SOLV.lig_0>
-41.4168

>  <SCORE.INTRA.VDW>
-0.350347

>  <SCORE.INTRA.VDW.0>
-1.62533

>  <SCORE.INTRA.norm>
-0.0447431

>  <SCORE.RESTR>
0

>  <SCORE.RESTR.CAVITY>
0

>  <SCORE.RESTR.norm>
0

>  <SCORE.SYSTEM>
0

>  <SCORE.SYSTEM.CONST>
0

>  <SCORE.SYSTEM.DIHEDRAL>
0

>  <SCORE.SYSTEM.SOLV>
0

>  <SCORE.SYSTEM.norm>
0

>  <SCORE.heavy>
22

>  <SCORE.norm>
-0.84305

>  <RMSD>
1.370

$$$$
lig.pdb
 OpenBabel11021811523D
libRbt.so/2013.1/901 2013/11/27
 22 23  0  0  0  0  0  0  0  0999 V2000
   13.5671  -58.6206  -38.6548 O   0  0  0  0  0  0  0  0  0  0  0  0
   13.9273  -59.0863  -37.5850 C   0  0  0  0  0  0  0  0  0  0  0  0
   13.0673  -59.6575  -36.7419 N   0  0  0  0  0  0  0  0  0  0  0  0
   15.3635  -59.0052  -37.1953 C   0  0  0  0  0  0  0  0  0  0  0  0
   16.4018  -58.3387  -37.9971 C   0  0  0  0  0  0  0  0  0  0  0  0
   16.1811  -57.6738  -39.2747 N   0  0  0  0  0  0  0  0  0  0  0  0
   16.0394  -59.4569  -36.1158 N   0  0  0  0  0  0  0  0  0  0  0  0
   17.3542  -59.1007  -36.2529 C   0  0  0  0  0  0  0  0  0  0  0  0
   17.5787  -58.4192  -37.3974 N   0  0  0  0  0  0  0  0  0  0  0  0
   18.8670  -57.8725  -37.8835 C   0  0  1  0  0  0  0  0  0  0  0  0
   19.2123  -56.5881  -37.1478 C   0  0  1  0  0  0  0  0  0  0  0  0
   20.7182  -56.6220  -37.0952 C   0  0  2  0  0  0  0  0  0  0  0  0
   21.2475  -56.0927  -38.3125 O   0  0  0  0  0  0  0  0  0  0  0  0
   18.7703  -55.4419  -37.8763 O   0  0  0  0  0  0  0  0  0  0  0  0
   19.9426  -58.7860  -37.6374 O   0  0  0  0  0  0  0  0  0  0  0  0
   21.0360  -58.1028  -37.0196 C   0  0  2  0  0  0  0  0  0  0  0  0
   21.1753  -58.5329  -35.5675 C   0  0  0  0  0  0  0  0  0  0  0  0
   21.6034  -59.8934  -35.5400 O   0  0  0  0  0  0  0  0  0  0  0  0
   21.8956  -60.6561  -34.1512 P   0  0  0  0  0  0  0  0  0  0  0  0
   22.4507  -62.0028  -34.5535 O   0  0  0  0  0  0  0  0  0  0  0  0
   20.5341  -60.7158  -33.4999 O   0  0  0  0  0  0  0  0  0  0  0  0
   22.8911  -59.7546  -33.4593 O   0  0  0  0  0  0  0  0  0  0  0  0
  1  2  2  0  0  0  0
  2  4  1  0  0  0  0
  2  3  1  0  0  0  0
  4  7  1  0  0  0  0
  5  9  1  0  0  0  0
  5  4  2  0  0  0  0
  6  5  1  0  0  0  0
  8  7  2  0  0  0  0
  9  8  1  0  0  0  0
 10 15  1  0  0  0  0
 10  9  1  1  0  0  0
 10 11  1  0  0  0  0
 11 14  1  6  0  0  0
 11 12  1  0  0  0  0
 12 13  1  6  0  0  0
 15 16  1  0  0  0  0
 16 12  1  0  0  0  0
 16 17  1  1  0  0  0
 17 18  1  0  0  0  0
 18 19  1  0  0  0  0
 19 21  1  0  0  0  0
 19 20  1  0  0  0  0
 22 19  2  0  0  0  0
M  END
>  <CHROM.1>
2.73872774,102.26492420,-174.30251777,178.07451700,-174.46172624,18.91827327
-58.78286924,-36.50379592,2.71522923,-0.21493107,-0.67695522

>  <Name>
lig.pdb

>  <RI>
0

>  <Rbt.Current_Directory>
/home/itssahil/PROJECTS/Mol_Feturizer/New_Systems/rnas/5btp

>  <Rbt.Executable>
rbdock ($Id: //depot/dev/client3/rdock/2013.1/src/exe/rbdock.cxx#4 $)

>  <Rbt.Library>
libRbt.so (2013.1, Build901 2013/11/27)

>  <Rbt.Parameter_File>
/export/apps/rDock/src/rDock_2013.1_src/data/scripts/dock_solv.prm

>  <Rbt.Receptor>
prm/pocket_docking_3.prm

>  <SCORE>
-19.2005

>  <SCORE.INTER>
-17.788

>  <SCORE.INTER.CONST>
1

>  <SCORE.INTER.POLAR>
0

>  <SCORE.INTER.ROT>
5

>  <SCORE.INTER.SOLV>
19.8734

>  <SCORE.INTER.VDW>
-25.4165

>  <SCORE.INTER.norm>
-0.808544

>  <SCORE.INTRA>
-1.41254

>  <SCORE.INTRA.DIHEDRAL>
-1.57979

>  <SCORE.INTRA.DIHEDRAL.0>
4.21161

>  <SCORE.INTRA.POLAR>
0

>  <SCORE.INTRA.POLAR.0>
0

>  <SCORE.INTRA.REPUL>
0

>  <SCORE.INTRA.REPUL.0>
0

>  <SCORE.INTRA.SOLV>
-0.145503

>  <SCORE.INTRA.SOLV.lig_0>
-41.4168

>  <SCORE.INTRA.VDW>
-0.549889

>  <SCORE.INTRA.VDW.0>
-1.62533

>  <SCORE.INTRA.norm>
-0.0642062

>  <SCORE.RESTR>
0

>  <SCORE.RESTR.CAVITY>
0

>  <SCORE.RESTR.norm>
0

>  <SCORE.SYSTEM>
0

>  <SCORE.SYSTEM.CONST>
0

>  <SCORE.SYSTEM.DIHEDRAL>
0

>  <SCORE.SYSTEM.SOLV>
0

>  <SCORE.SYSTEM.norm>
0

>  <SCORE.heavy>
22

>  <SCORE.norm>
-0.872751

>  <RMSD>
1.388

$$$$
lig.pdb
 OpenBabel11021811523D
libRbt.so/2013.1/901 2013/11/27
 22 23  0  0  0  0  0  0  0  0999 V2000
   13.9223  -58.7954  -38.6108 O   0  0  0  0  0  0  0  0  0  0  0  0
   14.3230  -59.3296  -37.5885 C   0  0  0  0  0  0  0  0  0  0  0  0
   13.5484  -60.1422  -36.8699 N   0  0  0  0  0  0  0  0  0  0  0  0
   15.7101  -59.0601  -37.1145 C   0  0  0  0  0  0  0  0  0  0  0  0
   16.6769  -58.2096  -37.8264 C   0  0  0  0  0  0  0  0  0  0  0  0
   16.4243  -57.5197  -39.0847 N   0  0  0  0  0  0  0  0  0  0  0  0
   16.3906  -59.4629  -36.0187 N   0  0  0  0  0  0  0  0  0  0  0  0
   17.6433  -58.9125  -36.0652 C   0  0  0  0  0  0  0  0  0  0  0  0
   17.8213  -58.1482  -37.1647 N   0  0  0  0  0  0  0  0  0  0  0  0
   19.0370  -57.3955  -37.5526 C   0  0  1  0  0  0  0  0  0  0  0  0
   19.6366  -56.6931  -36.3455 C   0  0  1  0  0  0  0  0  0  0  0  0
   21.1144  -56.7134  -36.6411 C   0  0  2  0  0  0  0  0  0  0  0  0
   21.4461  -55.6041  -37.4787 O   0  0  0  0  0  0  0  0  0  0  0  0
   19.1717  -55.3460  -36.2493 O   0  0  0  0  0  0  0  0  0  0  0  0
   20.0494  -58.2733  -38.0590 O   0  0  0  0  0  0  0  0  0  0  0  0
   21.3006  -57.9983  -37.4244 C   0  0  2  0  0  0  0  0  0  0  0  0
   21.6767  -59.1327  -36.4837 C   0  0  0  0  0  0  0  0  0  0  0  0
   20.8458  -59.0525  -35.3269 O   0  0  0  0  0  0  0  0  0  0  0  0
   21.0370  -60.0571  -34.0818 P   0  0  0  0  0  0  0  0  0  0  0  0
   20.2264  -61.2815  -34.4388 O   0  0  0  0  0  0  0  0  0  0  0  0
   20.4880  -59.2676  -32.9171 O   0  0  0  0  0  0  0  0  0  0  0  0
   22.5294  -60.2884  -34.0444 O   0  0  0  0  0  0  0  0  0  0  0  0
  1  2  2  0  0  0  0
  2  4  1  0  0  0  0
  2  3  1  0  0  0  0
  4  7  1  0  0  0  0
  5  9  1  0  0  0  0
  5  4  2  0  0  0  0
  6  5  1  0  0  0  0
  8  7  2  0  0  0  0
  9  8  1  0  0  0  0
 10 15  1  0  0  0  0
 10  9  1  1  0  0  0
 10 11  1  0  0  0  0
 11 14  1  6  0  0  0
 11 12  1  0  0  0  0
 12 13  1  6  0  0  0
 15 16  1  0  0  0  0
 16 12  1  0  0  0  0
 16 17  1  1  0  0  0
 17 18  1  0  0  0  0
 18 19  1  0  0  0  0
 19 21  1  0  0  0  0
 19 20  1  0  0  0  0
 22 19  2  0  0  0  0
M  END
>  <CHROM.1>
-2.11910360,137.20047893,43.52600158,-176.36852269,-85.81788799,18.90004565
-58.57376853,-36.33981047,2.84997449,-0.30200710,-0.69747170

>  <Name>
lig.pdb

>  <RI>
0

>  <Rbt.Current_Directory>
/home/itssahil/PROJECTS/Mol_Feturizer/New_Systems/rnas/5btp

>  <Rbt.Executable>
rbdock ($Id: //depot/dev/client3/rdock/2013.1/src/exe/rbdock.cxx#4 $)

>  <Rbt.Library>
libRbt.so (2013.1, Build901 2013/11/27)

>  <Rbt.Parameter_File>
/export/apps/rDock/src/rDock_2013.1_src/data/scripts/dock_solv.prm

>  <Rbt.Receptor>
prm/pocket_docking_4.prm

>  <SCORE>
-16.2758

>  <SCORE.INTER>
-16.6483

>  <SCORE.INTER.CONST>
1

>  <SCORE.INTER.POLAR>
0

>  <SCORE.INTER.ROT>
5

>  <SCORE.INTER.SOLV>
19.3106

>  <SCORE.INTER.VDW>
-24.4691

>  <SCORE.INTER.norm>
-0.756741

>  <SCORE.INTRA>
0.372542

>  <SCORE.INTRA.DIHEDRAL>
0.145658

>  <SCORE.INTRA.DIHEDRAL.0>
4.21161

>  <SCORE.INTRA.POLAR>
0

>  <SCORE.INTRA.POLAR.0>
0

>  <SCORE.INTRA.REPUL>
0

>  <SCORE.INTRA.REPUL.0>
0

>  <SCORE.INTRA.SOLV>
0.675142

>  <SCORE.INTRA.SOLV.lig_0>
-41.4168

>  <SCORE.INTRA.VDW>
-0.0378577

>  <SCORE.INTRA.VDW.0>
-1.62533

>  <SCORE.INTRA.norm>
0.0169337

>  <SCORE.RESTR>
0

>  <SCORE.RESTR.CAVITY>
0

>  <SCORE.RESTR.norm>
0

>  <SCORE.SYSTEM>
0

>  <SCORE.SYSTEM.CONST>
0

>  <SCORE.SYSTEM.DIHEDRAL>
0

>  <SCORE.SYSTEM.SOLV>
0

>  <SCORE.SYSTEM.norm>
0

>  <SCORE.heavy>
22

>  <SCORE.norm>
-0.739807

>  <RMSD>
1.397

$$$$
lig.pdb
 OpenBabel11021811523D
libRbt.so/2013.1/901 2013/11/27
 22 23  0  0  0  0  0  0  0  0999 V2000
   13.4736  -58.6150  -38.6102 O   0  0  0  0  0  0  0  0  0  0  0  0
   13.8438  -59.1001  -37.5525 C   0  0  0  0  0  0  0  0  0  0  0  0
   12.9947  -59.7027  -36.7202 N   0  0  0  0  0  0  0  0  0  0  0  0
   15.2800  -59.0076  -37.1653 C   0  0  0  0  0  0  0  0  0  0  0  0
   16.3182  -58.3644  -37.9858 C   0  0  0  0  0  0  0  0  0  0  0  0
   16.0974  -57.7365  -39.2821 N   0  0  0  0  0  0  0  0  0  0  0  0
   15.9559  -59.4281  -36.0732 N   0  0  0  0  0  0  0  0  0  0  0  0
   17.2707  -59.0758  -36.2205 C   0  0  0  0  0  0  0  0  0  0  0  0
   17.4951  -58.4275  -37.3842 N   0  0  0  0  0  0  0  0  0  0  0  0
   18.7834  -57.8948  -37.8857 C   0  0  1  0  0  0  0  0  0  0  0  0
   19.1409  -56.6030  -37.1692 C   0  0  1  0  0  0  0  0  0  0  0  0
   20.6469  -56.6450  -37.1260 C   0  0  2  0  0  0  0  0  0  0  0  0
   21.1713  -56.1349  -38.3535 O   0  0  0  0  0  0  0  0  0  0  0  0
   18.7009  -55.4638  -37.9099 O   0  0  0  0  0  0  0  0  0  0  0  0
   19.8552  -58.8114  -37.6345 O   0  0  0  0  0  0  0  0  0  0  0  0
   20.9566  -58.1265  -37.0330 C   0  0  2  0  0  0  0  0  0  0  0  0
   21.1029  -58.5383  -35.5762 C   0  0  0  0  0  0  0  0  0  0  0  0
   21.4750  -59.9148  -35.5326 O   0  0  0  0  0  0  0  0  0  0  0  0
   21.8362  -60.6456  -34.1429 P   0  0  0  0  0  0  0  0  0  0  0  0
   22.0493  -62.0965  -34.5076 O   0  0  0  0  0  0  0  0  0  0  0  0
   20.6127  -60.3925  -33.2944 O   0  0  0  0  0  0  0  0  0  0  0  0
   23.0853  -59.9296  -33.6851 O   0  0  0  0  0  0  0  0  0  0  0  0
  1  2  2  0  0  0  0
  2  4  1  0  0  0  0
  2  3  1  0  0  0  0
  4  7  1  0  0  0  0
  5  9  1  0  0  0  0
  5  4  2  0  0  0  0
  6  5  1  0  0  0  0
  8  7  2  0  0  0  0
  9  8  1  0  0  0  0
 10 15  1  0  0  0  0
 10  9  1  1  0  0  0
 10 11  1  0  0  0  0
 11 14  1  6  0  0  0
 11 12  1  0  0  0  0
 12 13  1  6  0  0  0
 15 16  1  0  0  0  0
 16 12  1  0  0  0  0
 16 17  1  1  0  0  0
 17 18  1  0  0  0  0
 18 19  1  0  0  0  0
 19 21  1  0  0  0  0
 19 20  1  0  0  0  0
 22 19  2  0  0  0  0
M  END
>  <CHROM.1>
-0.33903024,103.28973922,-176.42867508,174.73757793,175.09734172,18.84316453
-58.79214373,-36.49884952,2.71748657,-0.20921514,-0.68804352

>  <Name>
lig.pdb

>  <RI>
0

>  <Rbt.Current_Directory>
/home/itssahil/PROJECTS/Mol_Feturizer/New_Systems/rnas/5btp

>  <Rbt.Executable>
rbdock ($Id: //depot/dev/client3/rdock/2013.1/src/exe/rbdock.cxx#4 $)

>  <Rbt.Library>
libRbt.so (2013.1, Build901 2013/11/27)

>  <Rbt.Parameter_File>
/export/apps/rDock/src/rDock_2013.1_src/data/scripts/dock_solv.prm

>  <Rbt.Receptor>
prm/pocket_docking_3.prm

>  <SCORE>
-19.4921

>  <SCORE.INTER>
-18.0737

>  <SCORE.INTER.CONST>
1

>  <SCORE.INTER.POLAR>
0

>  <SCORE.INTER.ROT>
5

>  <SCORE.INTER.SOLV>
20.2712

>  <SCORE.INTER.VDW>
-25.7395

>  <SCORE.INTER.norm>
-0.82153

>  <SCORE.INTRA>
-1.41843

>  <SCORE.INTRA.DIHEDRAL>
-1.56991

>  <SCORE.INTRA.DIHEDRAL.0>
4.21161

>  <SCORE.INTRA.POLAR>
0

>  <SCORE.INTRA.POLAR.0>
0

>  <SCORE.INTRA.REPUL>
0

>  <SCORE.INTRA.REPUL.0>
0

>  <SCORE.INTRA.SOLV>
-0.185505

>  <SCORE.INTRA.SOLV.lig_0>
-41.4168

>  <SCORE.INTRA.VDW>
-0.540726

>  <SCORE.INTRA.VDW.0>
-1.62533

>  <SCORE.INTRA.norm>
-0.0644743

>  <SCORE.RESTR>
0

>  <SCORE.RESTR.CAVITY>
0

>  <SCORE.RESTR.norm>
0

>  <SCORE.SYSTEM>
0

>  <SCORE.SYSTEM.CONST>
0

>  <SCORE.SYSTEM.DIHEDRAL>
0

>  <SCORE.SYSTEM.SOLV>
0

>  <SCORE.SYSTEM.norm>
0

>  <SCORE.heavy>
22

>  <SCORE.norm>
-0.886005

>  <RMSD>
1.403

$$$$
lig.pdb
 OpenBabel11021811523D
libRbt.so/2013.1/901 2013/11/27
 22 23  0  0  0  0  0  0  0  0999 V2000
   13.5039  -58.6259  -38.6472 O   0  0  0  0  0  0  0  0  0  0  0  0
   13.8762  -59.1536  -37.6109 C   0  0  0  0  0  0  0  0  0  0  0  0
   13.0366  -59.8252  -36.8230 N   0  0  0  0  0  0  0  0  0  0  0  0
   15.3038  -59.0364  -37.1990 C   0  0  0  0  0  0  0  0  0  0  0  0
   16.3458  -58.3804  -38.0044 C   0  0  0  0  0  0  0  0  0  0  0  0
   16.1379  -57.7619  -39.3073 N   0  0  0  0  0  0  0  0  0  0  0  0
   15.9671  -59.4411  -36.0934 N   0  0  0  0  0  0  0  0  0  0  0  0
   17.2785  -59.0685  -36.2193 C   0  0  0  0  0  0  0  0  0  0  0  0
   17.5129  -58.4219  -37.3820 N   0  0  0  0  0  0  0  0  0  0  0  0
   18.8011  -57.8709  -37.8635 C   0  0  1  0  0  0  0  0  0  0  0  0
   19.1896  -56.6422  -37.0576 C   0  0  1  0  0  0  0  0  0  0  0  0
   20.6953  -56.7086  -37.0430 C   0  0  2  0  0  0  0  0  0  0  0  0
   21.2080  -56.1143  -38.2372 O   0  0  0  0  0  0  0  0  0  0  0  0
   18.7554  -55.4441  -37.7026 O   0  0  0  0  0  0  0  0  0  0  0  0
   19.8626  -58.8188  -37.7003 O   0  0  0  0  0  0  0  0  0  0  0  0
   20.9837  -58.1971  -37.0674 C   0  0  2  0  0  0  0  0  0  0  0  0
   21.1466  -58.7200  -35.6486 C   0  0  0  0  0  0  0  0  0  0  0  0
   22.1710  -59.7128  -35.6495 O   0  0  0  0  0  0  0  0  0  0  0  0
   23.7291  -59.3147  -35.7497 P   0  0  0  0  0  0  0  0  0  0  0  0
   24.0059  -58.5016  -34.5064 O   0  0  0  0  0  0  0  0  0  0  0  0
   23.7991  -58.5255  -37.0355 O   0  0  0  0  0  0  0  0  0  0  0  0
   24.4305  -60.6522  -35.7870 O   0  0  0  0  0  0  0  0  0  0  0  0
  1  2  2  0  0  0  0
  2  4  1  0  0  0  0
  2  3  1  0  0  0  0
  4  7  1  0  0  0  0
  5  9  1  0  0  0  0
  5  4  2  0  0  0  0
  6  5  1  0  0  0  0
  8  7  2  0  0  0  0
  9  8  1  0  0  0  0
 10 15  1  0  0  0  0
 10  9  1  1  0  0  0
 10 11  1  0  0  0  0
 11 14  1  6  0  0  0
 11 12  1  0  0  0  0
 12 13  1  6  0  0  0
 15 16  1  0  0  0  0
 16 12  1  0  0  0  0
 16 17  1  1  0  0  0
 17 18  1  0  0  0  0
 18 19  1  0  0  0  0
 19 21  1  0  0  0  0
 19 20  1  0  0  0  0
 22 19  2  0  0  0  0
M  END
>  <CHROM.1>
-3.71834130,108.58530532,-142.95898393,75.37437531,62.62014468,19.39069226
-58.45024081,-36.93371205,3.01428539,-0.15969754,-0.53940441

>  <Name>
lig.pdb

>  <RI>
0

>  <Rbt.Current_Directory>
/home/itssahil/PROJECTS/Mol_Feturizer/New_Systems/rnas/5btp

>  <Rbt.Executable>
rbdock ($Id: //depot/dev/client3/rdock/2013.1/src/exe/rbdock.cxx#4 $)

>  <Rbt.Library>
libRbt.so (2013.1, Build901 2013/11/27)

>  <Rbt.Parameter_File>
/export/apps/rDock/src/rDock_2013.1_src/data/scripts/dock_solv.prm

>  <Rbt.Receptor>
prm/pocket_docking_3.prm

>  <SCORE>
-17.1706

>  <SCORE.INTER>
-18.1878

>  <SCORE.INTER.CONST>
1

>  <SCORE.INTER.POLAR>
0

>  <SCORE.INTER.ROT>
5

>  <SCORE.INTER.SOLV>
19.754

>  <SCORE.INTER.VDW>
-25.6432

>  <SCORE.INTER.norm>
-0.82672

>  <SCORE.INTRA>
1.01727

>  <SCORE.INTRA.DIHEDRAL>
2.92658

>  <SCORE.INTRA.DIHEDRAL.0>
4.21161

>  <SCORE.INTRA.POLAR>
0

>  <SCORE.INTRA.POLAR.0>
0

>  <SCORE.INTRA.REPUL>
0

>  <SCORE.INTRA.REPUL.0>
0

>  <SCORE.INTRA.SOLV>
0.269215

>  <SCORE.INTRA.SOLV.lig_0>
-41.4168

>  <SCORE.INTRA.VDW>
-0.580624

>  <SCORE.INTRA.VDW.0>
-1.62533

>  <SCORE.INTRA.norm>
0.0462397

>  <SCORE.RESTR>
0

>  <SCORE.RESTR.CAVITY>
0

>  <SCORE.RESTR.norm>
0

>  <SCORE.SYSTEM>
0

>  <SCORE.SYSTEM.CONST>
0

>  <SCORE.SYSTEM.DIHEDRAL>
0

>  <SCORE.SYSTEM.SOLV>
0

>  <SCORE.SYSTEM.norm>
0

>  <SCORE.heavy>
22

>  <SCORE.norm>
-0.78048

>  <RMSD>
1.459

$$$$
lig.pdb
 OpenBabel11021811523D
libRbt.so/2013.1/901 2013/11/27
 22 23  0  0  0  0  0  0  0  0999 V2000
   13.0762  -59.5885  -36.9234 O   0  0  0  0  0  0  0  0  0  0  0  0
   13.9137  -59.0356  -37.6190 C   0  0  0  0  0  0  0  0  0  0  0  0
   13.5961  -58.4624  -38.7798 N   0  0  0  0  0  0  0  0  0  0  0  0
   15.3359  -59.0087  -37.1740 C   0  0  0  0  0  0  0  0  0  0  0  0
   16.4275  -58.3755  -37.9305 C   0  0  0  0  0  0  0  0  0  0  0  0
   16.2802  -57.6956  -39.2108 N   0  0  0  0  0  0  0  0  0  0  0  0
   15.9530  -59.4909  -36.0727 N   0  0  0  0  0  0  0  0  0  0  0  0
   17.2841  -59.1816  -36.1567 C   0  0  0  0  0  0  0  0  0  0  0  0
   17.5768  -58.5020  -37.2869 N   0  0  0  0  0  0  0  0  0  0  0  0
   18.9017  -57.9993  -37.7192 C   0  0  1  0  0  0  0  0  0  0  0  0
   19.0856  -56.5508  -37.2974 C   0  0  1  0  0  0  0  0  0  0  0  0
   20.5672  -56.4594  -37.0363 C   0  0  2  0  0  0  0  0  0  0  0  0
   21.2514  -56.2108  -38.2660 O   0  0  0  0  0  0  0  0  0  0  0  0
   18.7143  -55.6568  -38.3475 O   0  0  0  0  0  0  0  0  0  0  0  0
   19.9622  -58.7413  -37.1054 O   0  0  0  0  0  0  0  0  0  0  0  0
   20.9254  -57.8475  -36.5422 C   0  0  2  0  0  0  0  0  0  0  0  0
   20.8635  -57.8926  -35.0233 C   0  0  0  0  0  0  0  0  0  0  0  0
   21.8333  -56.9833  -34.5059 O   0  0  0  0  0  0  0  0  0  0  0  0
   23.4131  -57.2539  -34.6702 P   0  0  0  0  0  0  0  0  0  0  0  0
   23.6130  -58.6849  -34.2276 O   0  0  0  0  0  0  0  0  0  0  0  0
   24.0339  -56.2280  -33.7519 O   0  0  0  0  0  0  0  0  0  0  0  0
   23.6574  -57.0184  -36.1423 O   0  0  0  0  0  0  0  0  0  0  0  0
  1  2  2  0  0  0  0
  2  4  1  0  0  0  0
  2  3  1  0  0  0  0
  4  7  1  0  0  0  0
  5  9  1  0  0  0  0
  5  4  2  0  0  0  0
  6  5  1  0  0  0  0
  8  7  2  0  0  0  0
  9  8  1  0  0  0  0
 10 15  1  0  0  0  0
 10  9  1  1  0  0  0
 10 11  1  0  0  0  0
 11 14  1  6  0  0  0
 11 12  1  0  0  0  0
 12 13  1  6  0  0  0
 15 16  1  0  0  0  0
 16 12  1  0  0  0  0
 16 17  1  1  0  0  0
 17 18  1  0  0  0  0
 18 19  1  0  0  0  0
 19 21  1  0  0  0  0
 19 20  1  0  0  0  0
 22 19  2  0  0  0  0
M  END
>  <CHROM.1>
179.86116834,85.23214804,-62.39377602,-68.10466659,-48.77565839,19.30185748
-57.79050282,-36.56634922,2.99743472,-0.33697621,-0.95459406

>  <Name>
lig.pdb

>  <RI>
0

>  <Rbt.Current_Directory>
/home/itssahil/PROJECTS/Mol_Feturizer/New_Systems/rnas/5btp

>  <Rbt.Executable>
rbdock ($Id: //depot/dev/client3/rdock/2013.1/src/exe/rbdock.cxx#4 $)

>  <Rbt.Library>
libRbt.so (2013.1, Build901 2013/11/27)

>  <Rbt.Parameter_File>
/export/apps/rDock/src/rDock_2013.1_src/data/scripts/dock_solv.prm

>  <Rbt.Receptor>
prm/pocket_docking_7.prm

>  <SCORE>
-16.9062

>  <SCORE.INTER>
-16.7406

>  <SCORE.INTER.CONST>
1

>  <SCORE.INTER.POLAR>
0

>  <SCORE.INTER.ROT>
5

>  <SCORE.INTER.SOLV>
18.9286

>  <SCORE.INTER.VDW>
-24.4033

>  <SCORE.INTER.norm>
-0.760937

>  <SCORE.INTRA>
-0.165533

>  <SCORE.INTRA.DIHEDRAL>
-1.23974

>  <SCORE.INTRA.DIHEDRAL.0>
4.21161

>  <SCORE.INTRA.POLAR>
0

>  <SCORE.INTRA.POLAR.0>
0

>  <SCORE.INTRA.REPUL>
0

>  <SCORE.INTRA.REPUL.0>
0

>  <SCORE.INTRA.SOLV>
2.07358

>  <SCORE.INTRA.SOLV.lig_0>
-41.4168

>  <SCORE.INTRA.VDW>
-0.582453

>  <SCORE.INTRA.VDW.0>
-1.62533

>  <SCORE.INTRA.norm>
-0.00752422

>  <SCORE.RESTR>
0

>  <SCORE.RESTR.CAVITY>
0

>  <SCORE.RESTR.norm>
0

>  <SCORE.SYSTEM>
0

>  <SCORE.SYSTEM.CONST>
0

>  <SCORE.SYSTEM.DIHEDRAL>
0

>  <SCORE.SYSTEM.SOLV>
0

>  <SCORE.SYSTEM.norm>
0

>  <SCORE.heavy>
22

>  <SCORE.norm>
-0.768462

>  <RMSD>
1.463

$$$$
lig.pdb
 OpenBabel11021811523D
libRbt.so/2013.1/901 2013/11/27
 22 23  0  0  0  0  0  0  0  0999 V2000
   13.5701  -58.9003  -38.7630 O   0  0  0  0  0  0  0  0  0  0  0  0
   13.8870  -59.1798  -37.6173 C   0  0  0  0  0  0  0  0  0  0  0  0
   12.9927  -59.6031  -36.7241 N   0  0  0  0  0  0  0  0  0  0  0  0
   15.3077  -59.0323  -37.1918 C   0  0  0  0  0  0  0  0  0  0  0  0
   16.3543  -58.3986  -38.0090 C   0  0  0  0  0  0  0  0  0  0  0  0
   16.1582  -57.8343  -39.3380 N   0  0  0  0  0  0  0  0  0  0  0  0
   15.9597  -59.3863  -36.0623 N   0  0  0  0  0  0  0  0  0  0  0  0
   17.2692  -59.0061  -36.1858 C   0  0  0  0  0  0  0  0  0  0  0  0
   17.5133  -58.4039  -37.3702 N   0  0  0  0  0  0  0  0  0  0  0  0
   18.8027  -57.8598  -37.8563 C   0  0  1  0  0  0  0  0  0  0  0  0
   19.2227  -56.6600  -37.0232 C   0  0  1  0  0  0  0  0  0  0  0  0
   20.7272  -56.7501  -37.0338 C   0  0  2  0  0  0  0  0  0  0  0  0
   21.2313  -56.1311  -38.2190 O   0  0  0  0  0  0  0  0  0  0  0  0
   18.7980  -55.4380  -37.6283 O   0  0  0  0  0  0  0  0  0  0  0  0
   19.8513  -58.8282  -37.7357 O   0  0  0  0  0  0  0  0  0  0  0  0
   20.9915  -58.2416  -37.1034 C   0  0  2  0  0  0  0  0  0  0  0  0
   21.1675  -58.8061  -35.7022 C   0  0  0  0  0  0  0  0  0  0  0  0
   22.4227  -58.3603  -35.1915 O   0  0  0  0  0  0  0  0  0  0  0  0
   23.8161  -58.9139  -35.7813 P   0  0  0  0  0  0  0  0  0  0  0  0
   23.6252  -60.4083  -35.8987 O   0  0  0  0  0  0  0  0  0  0  0  0
   24.8213  -58.4973  -34.7339 O   0  0  0  0  0  0  0  0  0  0  0  0
   23.9452  -58.1976  -37.1052 O   0  0  0  0  0  0  0  0  0  0  0  0
  1  2  2  0  0  0  0
  2  4  1  0  0  0  0
  2  3  1  0  0  0  0
  4  7  1  0  0  0  0
  5  9  1  0  0  0  0
  5  4  2  0  0  0  0
  6  5  1  0  0  0  0
  8  7  2  0  0  0  0
  9  8  1  0  0  0  0
 10 15  1  0  0  0  0
 10  9  1  1  0  0  0
 10 11  1  0  0  0  0
 11 14  1  6  0  0  0
 11 12  1  0  0  0  0
 12 13  1  6  0  0  0
 15 16  1  0  0  0  0
 16 12  1  0  0  0  0
 16 17  1  1  0  0  0
 17 18  1  0  0  0  0
 18 19  1  0  0  0  0
 19 21  1  0  0  0  0
 19 20  1  0  0  0  0
 22 19  2  0  0  0  0
M  END
>  <CHROM.1>
8.41900494,113.01841287,-71.77720207,-70.15834808,-44.89894089,19.42748165
-58.33031831,-36.93295756,3.05066593,-0.17699088,-0.59526466

>  <Name>
lig.pdb

>  <RI>
0

>  <Rbt.Current_Directory>
/home/itssahil/PROJECTS/Mol_Feturizer/New_Systems/rnas/5btp

>  <Rbt.Executable>
rbdock ($Id: //depot/dev/client3/rdock/2013.1/src/exe/rbdock.cxx#4 $)

>  <Rbt.Library>
libRbt.so (2013.1, Build901 2013/11/27)

>  <Rbt.Parameter_File>
/export/apps/rDock/src/rDock_2013.1_src/data/scripts/dock_solv.prm

>  <Rbt.Receptor>
prm/pocket_docking_7.prm

>  <SCORE>
-17.8671

>  <SCORE.INTER>
-17.6946

>  <SCORE.INTER.CONST>
1

>  <SCORE.INTER.POLAR>
0

>  <SCORE.INTER.ROT>
5

>  <SCORE.INTER.SOLV>
20.5528

>  <SCORE.INTER.VDW>
-25.5806

>  <SCORE.INTER.norm>
-0.804298

>  <SCORE.INTRA>
-0.172577

>  <SCORE.INTRA.DIHEDRAL>
-0.195644

>  <SCORE.INTRA.DIHEDRAL.0>
4.21161

>  <SCORE.INTRA.POLAR>
0

>  <SCORE.INTRA.POLAR.0>
0

>  <SCORE.INTRA.REPUL>
0

>  <SCORE.INTRA.REPUL.0>
0

>  <SCORE.INTRA.SOLV>
1.15847

>  <SCORE.INTRA.SOLV.lig_0>
-41.4168

>  <SCORE.INTRA.VDW>
-0.653991

>  <SCORE.INTRA.VDW.0>
-1.62533

>  <SCORE.INTRA.norm>
-0.00784439

>  <SCORE.RESTR>
0

>  <SCORE.RESTR.CAVITY>
0

>  <SCORE.RESTR.norm>
0

>  <SCORE.SYSTEM>
0

>  <SCORE.SYSTEM.CONST>
0

>  <SCORE.SYSTEM.DIHEDRAL>
0

>  <SCORE.SYSTEM.SOLV>
0

>  <SCORE.SYSTEM.norm>
0

>  <SCORE.heavy>
22

>  <SCORE.norm>
-0.812143

>  <RMSD>
1.508

$$$$
lig.pdb
 OpenBabel11021811523D
libRbt.so/2013.1/901 2013/11/27
 22 23  0  0  0  0  0  0  0  0999 V2000
   12.9831  -59.7057  -36.8154 O   0  0  0  0  0  0  0  0  0  0  0  0
   13.7739  -59.1156  -37.5347 C   0  0  0  0  0  0  0  0  0  0  0  0
   13.3940  -58.5465  -38.6786 N   0  0  0  0  0  0  0  0  0  0  0  0
   15.2086  -59.0371  -37.1391 C   0  0  0  0  0  0  0  0  0  0  0  0
   16.2604  -58.4175  -37.9605 C   0  0  0  0  0  0  0  0  0  0  0  0
   16.0563  -57.8026  -39.2657 N   0  0  0  0  0  0  0  0  0  0  0  0
   15.8720  -59.4529  -36.0376 N   0  0  0  0  0  0  0  0  0  0  0  0
   17.1922  -59.1196  -36.1804 C   0  0  0  0  0  0  0  0  0  0  0  0
   17.4325  -58.4884  -37.3503 N   0  0  0  0  0  0  0  0  0  0  0  0
   18.7309  -57.9787  -37.8497 C   0  0  1  0  0  0  0  0  0  0  0  0
   19.2798  -56.9130  -36.9155 C   0  0  1  0  0  0  0  0  0  0  0  0
   20.7712  -57.1006  -37.0264 C   0  0  2  0  0  0  0  0  0  0  0  0
   21.2563  -56.3843  -38.1638 O   0  0  0  0  0  0  0  0  0  0  0  0
   18.9139  -55.6041  -37.3546 O   0  0  0  0  0  0  0  0  0  0  0  0
   19.7114  -59.0218  -37.9006 O   0  0  0  0  0  0  0  0  0  0  0  0
   20.9226  -58.5885  -37.2768 C   0  0  2  0  0  0  0  0  0  0  0  0
   21.1301  -59.3206  -35.9600 C   0  0  0  0  0  0  0  0  0  0  0  0
   22.5324  -59.4326  -35.7232 O   0  0  0  0  0  0  0  0  0  0  0  0
   23.4515  -58.1320  -35.4790 P   0  0  0  0  0  0  0  0  0  0  0  0
   22.6256  -57.2303  -34.5911 O   0  0  0  0  0  0  0  0  0  0  0  0
   23.6681  -57.5984  -36.8752 O   0  0  0  0  0  0  0  0  0  0  0  0
   24.6867  -58.6955  -34.8163 O   0  0  0  0  0  0  0  0  0  0  0  0
  1  2  2  0  0  0  0
  2  4  1  0  0  0  0
  2  3  1  0  0  0  0
  4  7  1  0  0  0  0
  5  9  1  0  0  0  0
  5  4  2  0  0  0  0
  6  5  1  0  0  0  0
  8  7  2  0  0  0  0
  9  8  1  0  0  0  0
 10 15  1  0  0  0  0
 10  9  1  1  0  0  0
 10 11  1  0  0  0  0
 11 14  1  6  0  0  0
 11 12  1  0  0  0  0
 12 13  1  6  0  0  0
 15 16  1  0  0  0  0
 16 12  1  0  0  0  0
 16 17  1  1  0  0  0
 17 18  1  0  0  0  0
 18 19  1  0  0  0  0
 19 21  1  0  0  0  0
 19 20  1  0  0  0  0
 22 19  2  0  0  0  0
M  END
>  <CHROM.1>
176.54768835,118.31308211,-92.54121168,64.80578362,40.96306433,19.29002319
-58.23148835,-36.84155486,3.07039138,-0.21733967,-0.73179171

>  <Name>
lig.pdb

>  <RI>
0

>  <Rbt.Current_Directory>
/home/itssahil/PROJECTS/Mol_Feturizer/New_Systems/rnas/5btp

>  <Rbt.Executable>
rbdock ($Id: //depot/dev/client3/rdock/2013.1/src/exe/rbdock.cxx#4 $)

>  <Rbt.Library>
libRbt.so (2013.1, Build901 2013/11/27)

>  <Rbt.Parameter_File>
/export/apps/rDock/src/rDock_2013.1_src/data/scripts/dock_solv.prm

>  <Rbt.Receptor>
prm/pocket_docking_6.prm

>  <SCORE>
-17.2437

>  <SCORE.INTER>
-18.1921

>  <SCORE.INTER.CONST>
1

>  <SCORE.INTER.POLAR>
0

>  <SCORE.INTER.ROT>
5

>  <SCORE.INTER.SOLV>
19.6435

>  <SCORE.INTER.VDW>
-25.6092

>  <SCORE.INTER.norm>
-0.826913

>  <SCORE.INTRA>
0.948407

>  <SCORE.INTRA.DIHEDRAL>
1.89349

>  <SCORE.INTRA.DIHEDRAL.0>
4.21161

>  <SCORE.INTRA.POLAR>
0

>  <SCORE.INTRA.POLAR.0>
0

>  <SCORE.INTRA.REPUL>
0

>  <SCORE.INTRA.REPUL.0>
0

>  <SCORE.INTRA.SOLV>
1.34984

>  <SCORE.INTRA.SOLV.lig_0>
-41.4168

>  <SCORE.INTRA.VDW>
-0.673258

>  <SCORE.INTRA.VDW.0>
-1.62533

>  <SCORE.INTRA.norm>
0.0431094

>  <SCORE.RESTR>
0

>  <SCORE.RESTR.CAVITY>
0

>  <SCORE.RESTR.norm>
0

>  <SCORE.SYSTEM>
0

>  <SCORE.SYSTEM.CONST>
0

>  <SCORE.SYSTEM.DIHEDRAL>
0

>  <SCORE.SYSTEM.SOLV>
0

>  <SCORE.SYSTEM.norm>
0

>  <SCORE.heavy>
22

>  <SCORE.norm>
-0.783803

>  <RMSD>
1.509

$$$$
lig.pdb
 OpenBabel11021811523D
libRbt.so/2013.1/901 2013/11/27
 22 23  0  0  0  0  0  0  0  0999 V2000
   13.0639  -59.6661  -36.7820 O   0  0  0  0  0  0  0  0  0  0  0  0
   13.8575  -59.0892  -37.5089 C   0  0  0  0  0  0  0  0  0  0  0  0
   13.4768  -58.5165  -38.6508 N   0  0  0  0  0  0  0  0  0  0  0  0
   15.2965  -59.0312  -37.1252 C   0  0  0  0  0  0  0  0  0  0  0  0
   16.3425  -58.3843  -37.9328 C   0  0  0  0  0  0  0  0  0  0  0  0
   16.1278  -57.7191  -39.2113 N   0  0  0  0  0  0  0  0  0  0  0  0
   15.9690  -59.4914  -36.0472 N   0  0  0  0  0  0  0  0  0  0  0  0
   17.2891  -59.1577  -36.1905 C   0  0  0  0  0  0  0  0  0  0  0  0
   17.5203  -58.4830  -37.3378 N   0  0  0  0  0  0  0  0  0  0  0  0
   18.8157  -57.9592  -37.8304 C   0  0  1  0  0  0  0  0  0  0  0  0
   19.1730  -56.6654  -37.1176 C   0  0  1  0  0  0  0  0  0  0  0  0
   20.6784  -56.7145  -37.0604 C   0  0  2  0  0  0  0  0  0  0  0  0
   21.2164  -56.2134  -38.2858 O   0  0  0  0  0  0  0  0  0  0  0  0
   18.7453  -55.5281  -37.8682 O   0  0  0  0  0  0  0  0  0  0  0  0
   19.8807  -58.8796  -37.5647 O   0  0  0  0  0  0  0  0  0  0  0  0
   20.9799  -58.1970  -36.9568 C   0  0  2  0  0  0  0  0  0  0  0  0
   21.1111  -58.6017  -35.4967 C   0  0  0  0  0  0  0  0  0  0  0  0
   21.5250  -59.9659  -35.4430 O   0  0  0  0  0  0  0  0  0  0  0  0
   21.9380  -60.6662  -34.0520 P   0  0  0  0  0  0  0  0  0  0  0  0
   22.2762  -62.0930  -34.4175 O   0  0  0  0  0  0  0  0  0  0  0  0
   20.6918  -60.5199  -33.2113 O   0  0  0  0  0  0  0  0  0  0  0  0
   23.1185  -59.8475  -33.5847 O   0  0  0  0  0  0  0  0  0  0  0  0
  1  2  2  0  0  0  0
  2  4  1  0  0  0  0
  2  3  1  0  0  0  0
  4  7  1  0  0  0  0
  5  9  1  0  0  0  0
  5  4  2  0  0  0  0
  6  5  1  0  0  0  0
  8  7  2  0  0  0  0
  9  8  1  0  0  0  0
 10 15  1  0  0  0  0
 10  9  1  1  0  0  0
 10 11  1  0  0  0  0
 11 14  1  6  0  0  0
 11 12  1  0  0  0  0
 12 13  1  6  0  0  0
 15 16  1  0  0  0  0
 16 12  1  0  0  0  0
 16 17  1  1  0  0  0
 17 18  1  0  0  0  0
 18 19  1  0  0  0  0
 19 21  1  0  0  0  0
 19 20  1  0  0  0  0
 22 19  2  0  0  0  0
M  END
>  <CHROM.1>
178.94234899,101.22499094,-174.27458108,172.28760822,178.78150742,18.88842426
-58.83134271,-36.43193515,2.71466461,-0.20657702,-0.69435866

>  <Name>
lig.pdb

>  <RI>
0

>  <Rbt.Current_Directory>
/home/itssahil/PROJECTS/Mol_Feturizer/New_Systems/rnas/5btp

>  <Rbt.Executable>
rbdock ($Id: //depot/dev/client3/rdock/2013.1/src/exe/rbdock.cxx#4 $)

>  <Rbt.Library>
libRbt.so (2013.1, Build901 2013/11/27)

>  <Rbt.Parameter_File>
/export/apps/rDock/src/rDock_2013.1_src/data/scripts/dock_solv.prm

>  <Rbt.Receptor>
prm/pocket_docking_3.prm

>  <SCORE>
-19.2812

>  <SCORE.INTER>
-18.0965

>  <SCORE.INTER.CONST>
1

>  <SCORE.INTER.POLAR>
0

>  <SCORE.INTER.ROT>
5

>  <SCORE.INTER.SOLV>
19.6087

>  <SCORE.INTER.VDW>
-25.5339

>  <SCORE.INTER.norm>
-0.822567

>  <SCORE.INTRA>
-1.18475

>  <SCORE.INTRA.DIHEDRAL>
-1.37902

>  <SCORE.INTRA.DIHEDRAL.0>
4.21161

>  <SCORE.INTRA.POLAR>
0

>  <SCORE.INTRA.POLAR.0>
0

>  <SCORE.INTRA.REPUL>
0

>  <SCORE.INTRA.REPUL.0>
0

>  <SCORE.INTRA.SOLV>
0.0759216

>  <SCORE.INTRA.SOLV.lig_0>
-41.4168

>  <SCORE.INTRA.VDW>
-0.533203

>  <SCORE.INTRA.VDW.0>
-1.62533

>  <SCORE.INTRA.norm>
-0.0538524

>  <SCORE.RESTR>
0

>  <SCORE.RESTR.CAVITY>
0

>  <SCORE.RESTR.norm>
0

>  <SCORE.SYSTEM>
0

>  <SCORE.SYSTEM.CONST>
0

>  <SCORE.SYSTEM.DIHEDRAL>
0

>  <SCORE.SYSTEM.SOLV>
0

>  <SCORE.SYSTEM.norm>
0

>  <SCORE.heavy>
22

>  <SCORE.norm>
-0.87642

>  <RMSD>
1.525

$$$$
lig.pdb
 OpenBabel11021811523D
libRbt.so/2013.1/901 2013/11/27
 22 23  0  0  0  0  0  0  0  0999 V2000
   13.0749  -59.6971  -36.8494 O   0  0  0  0  0  0  0  0  0  0  0  0
   13.8643  -59.1163  -37.5779 C   0  0  0  0  0  0  0  0  0  0  0  0
   13.4793  -58.5486  -38.7208 N   0  0  0  0  0  0  0  0  0  0  0  0
   15.3030  -59.0481  -37.1950 C   0  0  0  0  0  0  0  0  0  0  0  0
   16.3418  -58.3829  -37.9971 C   0  0  0  0  0  0  0  0  0  0  0  0
   16.1193  -57.7070  -39.2686 N   0  0  0  0  0  0  0  0  0  0  0  0
   15.9812  -59.5126  -36.1223 N   0  0  0  0  0  0  0  0  0  0  0  0
   17.2978  -59.1645  -36.2635 C   0  0  0  0  0  0  0  0  0  0  0  0
   17.5212  -58.4760  -37.4041 N   0  0  0  0  0  0  0  0  0  0  0  0
   18.8108  -57.9346  -37.8927 C   0  0  1  0  0  0  0  0  0  0  0  0
   19.1507  -56.6386  -37.1752 C   0  0  1  0  0  0  0  0  0  0  0  0
   20.6564  -56.6692  -37.1154 C   0  0  2  0  0  0  0  0  0  0  0  0
   21.1904  -56.1577  -38.3382 O   0  0  0  0  0  0  0  0  0  0  0  0
   18.7102  -55.5044  -37.9231 O   0  0  0  0  0  0  0  0  0  0  0  0
   19.8867  -58.8425  -37.6279 O   0  0  0  0  0  0  0  0  0  0  0  0
   20.9762  -58.1481  -37.0158 C   0  0  2  0  0  0  0  0  0  0  0  0
   21.1097  -58.5557  -35.5566 C   0  0  0  0  0  0  0  0  0  0  0  0
   21.5599  -59.9085  -35.5064 O   0  0  0  0  0  0  0  0  0  0  0  0
   21.9325  -60.6205  -34.1099 P   0  0  0  0  0  0  0  0  0  0  0  0
   22.3625  -62.0194  -34.4864 O   0  0  0  0  0  0  0  0  0  0  0  0
   20.6368  -60.5568  -33.3364 O   0  0  0  0  0  0  0  0  0  0  0  0
   23.0425  -59.7552  -33.5609 O   0  0  0  0  0  0  0  0  0  0  0  0
  1  2  2  0  0  0  0
  2  4  1  0  0  0  0
  2  3  1  0  0  0  0
  4  7  1  0  0  0  0
  5  9  1  0  0  0  0
  5  4  2  0  0  0  0
  6  5  1  0  0  0  0
  8  7  2  0  0  0  0
  9  8  1  0  0  0  0
 10 15  1  0  0  0  0
 10  9  1  1  0  0  0
 10 11  1  0  0  0  0
 11 14  1  6  0  0  0
 11 12  1  0  0  0  0
 12 13  1  6  0  0  0
 15 16  1  0  0  0  0
 16 12  1  0  0  0  0
 16 17  1  1  0  0  0
 17 18  1  0  0  0  0
 18 19  1  0  0  0  0
 19 21  1  0  0  0  0
 19 20  1  0  0  0  0
 22 19  2  0  0  0  0
M  END
>  <CHROM.1>
179.66128562,100.76674134,-173.40999776,174.54431144,-179.74302435,18.88424518
-58.80944562,-36.49363815,2.72057941,-0.21487497,-0.69078385

>  <Name>
lig.pdb

>  <RI>
0

>  <Rbt.Current_Directory>
/home/itssahil/PROJECTS/Mol_Feturizer/New_Systems/rnas/5btp

>  <Rbt.Executable>
rbdock ($Id: //depot/dev/client3/rdock/2013.1/src/exe/rbdock.cxx#4 $)

>  <Rbt.Library>
libRbt.so (2013.1, Build901 2013/11/27)

>  <Rbt.Parameter_File>
/export/apps/rDock/src/rDock_2013.1_src/data/scripts/dock_solv.prm

>  <Rbt.Receptor>
prm/pocket_docking_3.prm

>  <SCORE>
-19.2841

>  <SCORE.INTER>
-18.0432

>  <SCORE.INTER.CONST>
1

>  <SCORE.INTER.POLAR>
0

>  <SCORE.INTER.ROT>
5

>  <SCORE.INTER.SOLV>
19.8132

>  <SCORE.INTER.VDW>
-25.5665

>  <SCORE.INTER.norm>
-0.820146

>  <SCORE.INTRA>
-1.2409

>  <SCORE.INTRA.DIHEDRAL>
-1.49109

>  <SCORE.INTRA.DIHEDRAL.0>
4.21161

>  <SCORE.INTRA.POLAR>
0

>  <SCORE.INTRA.POLAR.0>
0

>  <SCORE.INTRA.REPUL>
0

>  <SCORE.INTRA.REPUL.0>
0

>  <SCORE.INTRA.SOLV>
0.0844613

>  <SCORE.INTRA.SOLV.lig_0>
-41.4168

>  <SCORE.INTRA.VDW>
-0.537582

>  <SCORE.INTRA.VDW.0>
-1.62533

>  <SCORE.INTRA.norm>
-0.0564043

>  <SCORE.RESTR>
0

>  <SCORE.RESTR.CAVITY>
0

>  <SCORE.RESTR.norm>
0

>  <SCORE.SYSTEM>
0

>  <SCORE.SYSTEM.CONST>
0

>  <SCORE.SYSTEM.DIHEDRAL>
0

>  <SCORE.SYSTEM.SOLV>
0

>  <SCORE.SYSTEM.norm>
0

>  <SCORE.heavy>
22

>  <SCORE.norm>
-0.87655

>  <RMSD>
1.527

$$$$
lig.pdb
 OpenBabel11021811523D
libRbt.so/2013.1/901 2013/11/27
 22 23  0  0  0  0  0  0  0  0999 V2000
   13.0795  -59.6992  -36.7720 O   0  0  0  0  0  0  0  0  0  0  0  0
   13.8602  -59.1103  -37.5033 C   0  0  0  0  0  0  0  0  0  0  0  0
   13.4638  -58.5404  -38.6413 N   0  0  0  0  0  0  0  0  0  0  0  0
   15.3010  -59.0343  -37.1298 C   0  0  0  0  0  0  0  0  0  0  0  0
   16.3343  -58.3807  -37.9483 C   0  0  0  0  0  0  0  0  0  0  0  0
   16.1036  -57.7252  -39.2291 N   0  0  0  0  0  0  0  0  0  0  0  0
   15.9860  -59.4809  -36.0539 N   0  0  0  0  0  0  0  0  0  0  0  0
   17.3013  -59.1335  -36.2082 C   0  0  0  0  0  0  0  0  0  0  0  0
   17.5172  -58.4630  -37.3608 N   0  0  0  0  0  0  0  0  0  0  0  0
   18.8033  -57.9278  -37.8653 C   0  0  1  0  0  0  0  0  0  0  0  0
   19.1566  -56.6317  -37.1546 C   0  0  1  0  0  0  0  0  0  0  0  0
   20.6628  -56.6682  -37.1120 C   0  0  2  0  0  0  0  0  0  0  0  0
   21.1847  -56.1615  -38.3420 O   0  0  0  0  0  0  0  0  0  0  0  0
   18.7121  -55.4973  -37.8999 O   0  0  0  0  0  0  0  0  0  0  0  0
   19.8786  -58.8395  -37.6108 O   0  0  0  0  0  0  0  0  0  0  0  0
   20.9778  -58.1481  -37.0128 C   0  0  2  0  0  0  0  0  0  0  0  0
   21.1264  -58.5531  -35.5544 C   0  0  0  0  0  0  0  0  0  0  0  0
   21.5261  -59.9217  -35.5056 O   0  0  0  0  0  0  0  0  0  0  0  0
   21.9380  -60.6295  -34.1181 P   0  0  0  0  0  0  0  0  0  0  0  0
   23.1435  -59.8605  -33.6293 O   0  0  0  0  0  0  0  0  0  0  0  0
   22.2355  -62.0508  -34.5335 O   0  0  0  0  0  0  0  0  0  0  0  0
   20.7051  -60.4637  -33.2609 O   0  0  0  0  0  0  0  0  0  0  0  0
  1  2  2  0  0  0  0
  2  4  1  0  0  0  0
  2  3  1  0  0  0  0
  4  7  1  0  0  0  0
  5  9  1  0  0  0  0
  5  4  2  0  0  0  0
  6  5  1  0  0  0  0
  8  7  2  0  0  0  0
  9  8  1  0  0  0  0
 10 15  1  0  0  0  0
 10  9  1  1  0  0  0
 10 11  1  0  0  0  0
 11 14  1  6  0  0  0
 11 12  1  0  0  0  0
 12 13  1  6  0  0  0
 15 16  1  0  0  0  0
 16 12  1  0  0  0  0
 16 17  1  1  0  0  0
 17 18  1  0  0  0  0
 18 19  1  0  0  0  0
 19 21  1  0  0  0  0
 19 20  1  0  0  0  0
 22 19  2  0  0  0  0
M  END
>  <CHROM.1>
178.47641872,101.66723380,-175.42836931,172.91157314,-61.82024860,18.88414593
-58.80866135,-36.46971311,2.72486725,-0.20582147,-0.69062651

>  <Name>
lig.pdb

>  <RI>
0

>  <Rbt.Current_Directory>
/home/itssahil/PROJECTS/Mol_Feturizer/New_Systems/rnas/5btp

>  <Rbt.Executable>
rbdock ($Id: //depot/dev/client3/rdock/2013.1/src/exe/rbdock.cxx#4 $)

>  <Rbt.Library>
libRbt.so (2013.1, Build901 2013/11/27)

>  <Rbt.Parameter_File>
/export/apps/rDock/src/rDock_2013.1_src/data/scripts/dock_solv.prm

>  <Rbt.Receptor>
prm/pocket_docking_3.prm

>  <SCORE>
-19.0979

>  <SCORE.INTER>
-17.8335

>  <SCORE.INTER.CONST>
1

>  <SCORE.INTER.POLAR>
0

>  <SCORE.INTER.ROT>
5

>  <SCORE.INTER.SOLV>
20.2639

>  <SCORE.INTER.VDW>
-25.5769

>  <SCORE.INTER.norm>
-0.810613

>  <SCORE.INTRA>
-1.26441

>  <SCORE.INTRA.DIHEDRAL>
-1.4578

>  <SCORE.INTRA.DIHEDRAL.0>
4.21161

>  <SCORE.INTRA.POLAR>
0

>  <SCORE.INTRA.POLAR.0>
0

>  <SCORE.INTRA.REPUL>
0

>  <SCORE.INTRA.REPUL.0>
0

>  <SCORE.INTRA.SOLV>
0.0699366

>  <SCORE.INTRA.SOLV.lig_0>
-41.4168

>  <SCORE.INTRA.VDW>
-0.570481

>  <SCORE.INTRA.VDW.0>
-1.62533

>  <SCORE.INTRA.norm>
-0.0574732

>  <SCORE.RESTR>
0

>  <SCORE.RESTR.CAVITY>
0

>  <SCORE.RESTR.norm>
0

>  <SCORE.SYSTEM>
0

>  <SCORE.SYSTEM.CONST>
0

>  <SCORE.SYSTEM.DIHEDRAL>
0

>  <SCORE.SYSTEM.SOLV>
0

>  <SCORE.SYSTEM.norm>
0

>  <SCORE.heavy>
22

>  <SCORE.norm>
-0.868087

>  <RMSD>
1.531

$$$$
lig.pdb
 OpenBabel11021811523D
libRbt.so/2013.1/901 2013/11/27
 22 23  0  0  0  0  0  0  0  0999 V2000
   13.0480  -59.7080  -36.8268 O   0  0  0  0  0  0  0  0  0  0  0  0
   13.8315  -59.1267  -37.5611 C   0  0  0  0  0  0  0  0  0  0  0  0
   13.4387  -58.5649  -38.7043 N   0  0  0  0  0  0  0  0  0  0  0  0
   15.2717  -59.0510  -37.1853 C   0  0  0  0  0  0  0  0  0  0  0  0
   16.3027  -58.3786  -37.9914 C   0  0  0  0  0  0  0  0  0  0  0  0
   16.0701  -57.7018  -39.2606 N   0  0  0  0  0  0  0  0  0  0  0  0
   15.9579  -59.5135  -36.1168 N   0  0  0  0  0  0  0  0  0  0  0  0
   17.2718  -59.1577  -36.2640 C   0  0  0  0  0  0  0  0  0  0  0  0
   17.4856  -58.4661  -37.4045 N   0  0  0  0  0  0  0  0  0  0  0  0
   18.7697  -57.9166  -37.8986 C   0  0  1  0  0  0  0  0  0  0  0  0
   19.1071  -56.6213  -37.1787 C   0  0  1  0  0  0  0  0  0  0  0  0
   20.6133  -56.6444  -37.1275 C   0  0  2  0  0  0  0  0  0  0  0  0
   21.1377  -56.1262  -38.3516 O   0  0  0  0  0  0  0  0  0  0  0  0
   18.6567  -55.4868  -37.9202 O   0  0  0  0  0  0  0  0  0  0  0  0
   19.8516  -58.8199  -37.6429 O   0  0  0  0  0  0  0  0  0  0  0  0
   20.9411  -58.1220  -37.0346 C   0  0  2  0  0  0  0  0  0  0  0  0
   21.0849  -58.5338  -35.5777 C   0  0  0  0  0  0  0  0  0  0  0  0
   21.4369  -59.9156  -35.5329 O   0  0  0  0  0  0  0  0  0  0  0  0
   21.8491  -60.6351  -34.1515 P   0  0  0  0  0  0  0  0  0  0  0  0
   22.0158  -62.0948  -34.5051 O   0  0  0  0  0  0  0  0  0  0  0  0
   20.6724  -60.3456  -33.2499 O   0  0  0  0  0  0  0  0  0  0  0  0
   23.1324  -59.9387  -33.7634 O   0  0  0  0  0  0  0  0  0  0  0  0
  1  2  2  0  0  0  0
  2  4  1  0  0  0  0
  2  3  1  0  0  0  0
  4  7  1  0  0  0  0
  5  9  1  0  0  0  0
  5  4  2  0  0  0  0
  6  5  1  0  0  0  0
  8  7  2  0  0  0  0
  9  8  1  0  0  0  0
 10 15  1  0  0  0  0
 10  9  1  1  0  0  0
 10 11  1  0  0  0  0
 11 14  1  6  0  0  0
 11 12  1  0  0  0  0
 12 13  1  6  0  0  0
 15 16  1  0  0  0  0
 16 12  1  0  0  0  0
 16 17  1  1  0  0  0
 17 18  1  0  0  0  0
 18 19  1  0  0  0  0
 19 21  1  0  0  0  0
 19 20  1  0  0  0  0
 22 19  2  0  0  0  0
M  END
>  <CHROM.1>
179.98383883,100.87541290,-178.05962031,172.20368559,174.82398528,18.83303319
-58.80634310,-36.50557226,2.72375897,-0.21330102,-0.68413677

>  <Name>
lig.pdb

>  <RI>
0

>  <Rbt.Current_Directory>
/home/itssahil/PROJECTS/Mol_Feturizer/New_Systems/rnas/5btp

>  <Rbt.Executable>
rbdock ($Id: //depot/dev/client3/rdock/2013.1/src/exe/rbdock.cxx#4 $)

>  <Rbt.Library>
libRbt.so (2013.1, Build901 2013/11/27)

>  <Rbt.Parameter_File>
/export/apps/rDock/src/rDock_2013.1_src/data/scripts/dock_solv.prm

>  <Rbt.Receptor>
prm/pocket_docking_3.prm

>  <SCORE>
-19.2993

>  <SCORE.INTER>
-18.0979

>  <SCORE.INTER.CONST>
1

>  <SCORE.INTER.POLAR>
0

>  <SCORE.INTER.ROT>
5

>  <SCORE.INTER.SOLV>
20.0062

>  <SCORE.INTER.VDW>
-25.6673

>  <SCORE.INTER.norm>
-0.822632

>  <SCORE.INTRA>
-1.2014

>  <SCORE.INTRA.DIHEDRAL>
-1.43599

>  <SCORE.INTRA.DIHEDRAL.0>
4.21161

>  <SCORE.INTRA.POLAR>
0

>  <SCORE.INTRA.POLAR.0>
0

>  <SCORE.INTRA.REPUL>
0

>  <SCORE.INTRA.REPUL.0>
0

>  <SCORE.INTRA.SOLV>
0.0849356

>  <SCORE.INTRA.SOLV.lig_0>
-41.4168

>  <SCORE.INTRA.VDW>
-0.525872

>  <SCORE.INTRA.VDW.0>
-1.62533

>  <SCORE.INTRA.norm>
-0.0546091

>  <SCORE.RESTR>
0

>  <SCORE.RESTR.CAVITY>
0

>  <SCORE.RESTR.norm>
0

>  <SCORE.SYSTEM>
0

>  <SCORE.SYSTEM.CONST>
0

>  <SCORE.SYSTEM.DIHEDRAL>
0

>  <SCORE.SYSTEM.SOLV>
0

>  <SCORE.SYSTEM.norm>
0

>  <SCORE.heavy>
22

>  <SCORE.norm>
-0.877241

>  <RMSD>
1.553

$$$$
lig.pdb
 OpenBabel11021811523D
libRbt.so/2013.1/901 2013/11/27
 22 23  0  0  0  0  0  0  0  0999 V2000
   13.4572  -58.6602  -38.6411 O   0  0  0  0  0  0  0  0  0  0  0  0
   13.8213  -59.1209  -37.5704 C   0  0  0  0  0  0  0  0  0  0  0  0
   12.9653  -59.6932  -36.7240 N   0  0  0  0  0  0  0  0  0  0  0  0
   15.2578  -59.0322  -37.1835 C   0  0  0  0  0  0  0  0  0  0  0  0
   16.2936  -58.3727  -37.9940 C   0  0  0  0  0  0  0  0  0  0  0  0
   16.0699  -57.7228  -39.2789 N   0  0  0  0  0  0  0  0  0  0  0  0
   15.9360  -59.4702  -36.0997 N   0  0  0  0  0  0  0  0  0  0  0  0
   17.2499  -59.1126  -36.2425 C   0  0  0  0  0  0  0  0  0  0  0  0
   17.4715  -58.4437  -37.3950 N   0  0  0  0  0  0  0  0  0  0  0  0
   18.7580  -57.8997  -37.8888 C   0  0  1  0  0  0  0  0  0  0  0  0
   19.1785  -56.6944  -37.0640 C   0  0  1  0  0  0  0  0  0  0  0  0
   20.6832  -56.7814  -37.0795 C   0  0  2  0  0  0  0  0  0  0  0  0
   21.1817  -56.1681  -38.2700 O   0  0  0  0  0  0  0  0  0  0  0  0
   18.7491  -55.4767  -37.6744 O   0  0  0  0  0  0  0  0  0  0  0  0
   19.8091  -58.8653  -37.7666 O   0  0  0  0  0  0  0  0  0  0  0  0
   20.9503  -58.2728  -37.1417 C   0  0  2  0  0  0  0  0  0  0  0  0
   21.1325  -58.8290  -35.7380 C   0  0  0  0  0  0  0  0  0  0  0  0
   22.2889  -58.2251  -35.1609 O   0  0  0  0  0  0  0  0  0  0  0  0
   23.7608  -58.4769  -35.7659 P   0  0  0  0  0  0  0  0  0  0  0  0
   23.7831  -57.7154  -37.0709 O   0  0  0  0  0  0  0  0  0  0  0  0
   23.8147  -59.9781  -35.9227 O   0  0  0  0  0  0  0  0  0  0  0  0
   24.6768  -57.9166  -34.7032 O   0  0  0  0  0  0  0  0  0  0  0  0
  1  2  2  0  0  0  0
  2  4  1  0  0  0  0
  2  3  1  0  0  0  0
  4  7  1  0  0  0  0
  5  9  1  0  0  0  0
  5  4  2  0  0  0  0
  6  5  1  0  0  0  0
  8  7  2  0  0  0  0
  9  8  1  0  0  0  0
 10 15  1  0  0  0  0
 10  9  1  1  0  0  0
 10 11  1  0  0  0  0
 11 14  1  6  0  0  0
 11 12  1  0  0  0  0
 12 13  1  6  0  0  0
 15 16  1  0  0  0  0
 16 12  1  0  0  0  0
 16 17  1  1  0  0  0
 17 18  1  0  0  0  0
 18 19  1  0  0  0  0
 19 21  1  0  0  0  0
 19 20  1  0  0  0  0
 22 19  2  0  0  0  0
M  END
>  <CHROM.1>
2.25222251,108.57844052,-63.45309707,-64.76723761,71.64501221,19.37462086
-58.21606563,-36.93587466,-3.07427485,0.19163697,2.48959745

>  <Name>
lig.pdb

>  <RI>
0

>  <Rbt.Current_Directory>
/home/itssahil/PROJECTS/Mol_Feturizer/New_Systems/rnas/5btp

>  <Rbt.Executable>
rbdock ($Id: //depot/dev/client3/rdock/2013.1/src/exe/rbdock.cxx#4 $)

>  <Rbt.Library>
libRbt.so (2013.1, Build901 2013/11/27)

>  <Rbt.Parameter_File>
/export/apps/rDock/src/rDock_2013.1_src/data/scripts/dock_solv.prm

>  <Rbt.Receptor>
prm/pocket_docking_4.prm

>  <SCORE>
-19.1213

>  <SCORE.INTER>
-18.2512

>  <SCORE.INTER.CONST>
1

>  <SCORE.INTER.POLAR>
0

>  <SCORE.INTER.ROT>
5

>  <SCORE.INTER.SOLV>
20.1243

>  <SCORE.INTER.VDW>
-25.8089

>  <SCORE.INTER.norm>
-0.829601

>  <SCORE.INTRA>
-0.870088

>  <SCORE.INTRA.DIHEDRAL>
-1.39468

>  <SCORE.INTRA.DIHEDRAL.0>
4.21161

>  <SCORE.INTRA.POLAR>
0

>  <SCORE.INTRA.POLAR.0>
0

>  <SCORE.INTRA.REPUL>
0

>  <SCORE.INTRA.REPUL.0>
0

>  <SCORE.INTRA.SOLV>
0.687923

>  <SCORE.INTRA.SOLV.lig_0>
-41.4168

>  <SCORE.INTRA.VDW>
-0.516711

>  <SCORE.INTRA.VDW.0>
-1.62533

>  <SCORE.INTRA.norm>
-0.0395494

>  <SCORE.RESTR>
0

>  <SCORE.RESTR.CAVITY>
0

>  <SCORE.RESTR.norm>
0

>  <SCORE.SYSTEM>
0

>  <SCORE.SYSTEM.CONST>
0

>  <SCORE.SYSTEM.DIHEDRAL>
0

>  <SCORE.SYSTEM.SOLV>
0

>  <SCORE.SYSTEM.norm>
0

>  <SCORE.heavy>
22

>  <SCORE.norm>
-0.869151

>  <RMSD>
1.568

$$$$
lig.pdb
 OpenBabel11021811523D
libRbt.so/2013.1/901 2013/11/27
 22 23  0  0  0  0  0  0  0  0999 V2000
   13.7159  -58.4439  -38.7568 O   0  0  0  0  0  0  0  0  0  0  0  0
   13.9796  -59.0036  -37.7040 C   0  0  0  0  0  0  0  0  0  0  0  0
   13.0428  -59.6150  -36.9791 N   0  0  0  0  0  0  0  0  0  0  0  0
   15.3819  -58.9953  -37.1994 C   0  0  0  0  0  0  0  0  0  0  0  0
   16.5100  -58.3635  -37.9016 C   0  0  0  0  0  0  0  0  0  0  0  0
   16.4228  -57.6671  -39.1785 N   0  0  0  0  0  0  0  0  0  0  0  0
   15.9478  -59.4963  -36.0791 N   0  0  0  0  0  0  0  0  0  0  0  0
   17.2839  -59.1986  -36.1034 C   0  0  0  0  0  0  0  0  0  0  0  0
   17.6300  -58.5084  -37.2118 N   0  0  0  0  0  0  0  0  0  0  0  0
   18.9764  -58.0131  -37.5820 C   0  0  1  0  0  0  0  0  0  0  0  0
   19.0865  -56.5206  -37.3169 C   0  0  1  0  0  0  0  0  0  0  0  0
   20.5357  -56.3495  -36.9395 C   0  0  2  0  0  0  0  0  0  0  0  0
   21.3226  -56.2192  -38.1251 O   0  0  0  0  0  0  0  0  0  0  0  0
   18.7910  -55.7650  -38.4924 O   0  0  0  0  0  0  0  0  0  0  0  0
   19.9940  -58.6439  -36.7956 O   0  0  0  0  0  0  0  0  0  0  0  0
   20.8804  -57.6595  -36.2579 C   0  0  2  0  0  0  0  0  0  0  0  0
   20.6817  -57.5337  -34.7554 C   0  0  0  0  0  0  0  0  0  0  0  0
   21.5724  -56.5328  -34.2656 O   0  0  0  0  0  0  0  0  0  0  0  0
   21.5962  -56.1154  -32.7096 P   0  0  0  0  0  0  0  0  0  0  0  0
   22.7327  -55.1270  -32.5869 O   0  0  0  0  0  0  0  0  0  0  0  0
   21.8383  -57.4296  -32.0059 O   0  0  0  0  0  0  0  0  0  0  0  0
   20.2263  -55.5187  -32.4862 O   0  0  0  0  0  0  0  0  0  0  0  0
  1  2  2  0  0  0  0
  2  4  1  0  0  0  0
  2  3  1  0  0  0  0
  4  7  1  0  0  0  0
  5  9  1  0  0  0  0
  5  4  2  0  0  0  0
  6  5  1  0  0  0  0
  8  7  2  0  0  0  0
  9  8  1  0  0  0  0
 10 15  1  0  0  0  0
 10  9  1  1  0  0  0
 10 11  1  0  0  0  0
 11 14  1  6  0  0  0
 11 12  1  0  0  0  0
 12 13  1  6  0  0  0
 15 16  1  0  0  0  0
 16 12  1  0  0  0  0
 16 17  1  1  0  0  0
 17 18  1  0  0  0  0
 18 19  1  0  0  0  0
 19 21  1  0  0  0  0
 19 20  1  0  0  0  0
 22 19  2  0  0  0  0
M  END
>  <CHROM.1>
-0.96466824,77.13776015,-62.02469385,178.35342383,175.54541487,18.82704398
-57.43958805,-35.99261696,2.61797688,-0.42668876,-1.45924125

>  <Name>
lig.pdb

>  <RI>
0

>  <Rbt.Current_Directory>
/home/itssahil/PROJECTS/Mol_Feturizer/New_Systems/rnas/5btp

>  <Rbt.Executable>
rbdock ($Id: //depot/dev/client3/rdock/2013.1/src/exe/rbdock.cxx#4 $)

>  <Rbt.Library>
libRbt.so (2013.1, Build901 2013/11/27)

>  <Rbt.Parameter_File>
/export/apps/rDock/src/rDock_2013.1_src/data/scripts/dock_solv.prm

>  <Rbt.Receptor>
prm/pocket_docking_6.prm

>  <SCORE>
-18.728

>  <SCORE.INTER>
-17.7272

>  <SCORE.INTER.CONST>
1

>  <SCORE.INTER.POLAR>
0

>  <SCORE.INTER.ROT>
5

>  <SCORE.INTER.SOLV>
20.6921

>  <SCORE.INTER.VDW>
-25.6488

>  <SCORE.INTER.norm>
-0.805782

>  <SCORE.INTRA>
-1.00078

>  <SCORE.INTRA.DIHEDRAL>
-1.72228

>  <SCORE.INTRA.DIHEDRAL.0>
4.21161

>  <SCORE.INTRA.POLAR>
0

>  <SCORE.INTRA.POLAR.0>
0

>  <SCORE.INTRA.REPUL>
0

>  <SCORE.INTRA.REPUL.0>
0

>  <SCORE.INTRA.SOLV>
0.3616

>  <SCORE.INTRA.SOLV.lig_0>
-41.4168

>  <SCORE.INTRA.VDW>
-0.320438

>  <SCORE.INTRA.VDW.0>
-1.62533

>  <SCORE.INTRA.norm>
-0.0454899

>  <SCORE.RESTR>
0

>  <SCORE.RESTR.CAVITY>
0

>  <SCORE.RESTR.norm>
0

>  <SCORE.SYSTEM>
0

>  <SCORE.SYSTEM.CONST>
0

>  <SCORE.SYSTEM.DIHEDRAL>
0

>  <SCORE.SYSTEM.SOLV>
0

>  <SCORE.SYSTEM.norm>
0

>  <SCORE.heavy>
22

>  <SCORE.norm>
-0.851272

>  <RMSD>
1.665

$$$$
lig.pdb
 OpenBabel11021811523D
libRbt.so/2013.1/901 2013/11/27
 22 23  0  0  0  0  0  0  0  0999 V2000
   13.0130  -59.7455  -36.8535 O   0  0  0  0  0  0  0  0  0  0  0  0
   13.7994  -59.1645  -37.5850 C   0  0  0  0  0  0  0  0  0  0  0  0
   13.4183  -58.6349  -38.7474 N   0  0  0  0  0  0  0  0  0  0  0  0
   15.2302  -59.0523  -37.1833 C   0  0  0  0  0  0  0  0  0  0  0  0
   16.2671  -58.3920  -37.9918 C   0  0  0  0  0  0  0  0  0  0  0  0
   16.0501  -57.7639  -39.2886 N   0  0  0  0  0  0  0  0  0  0  0  0
   15.9013  -59.4659  -36.0856 N   0  0  0  0  0  0  0  0  0  0  0  0
   17.2122  -59.0943  -36.2189 C   0  0  0  0  0  0  0  0  0  0  0  0
   17.4388  -58.4397  -37.3786 N   0  0  0  0  0  0  0  0  0  0  0  0
   18.7241  -57.8871  -37.8659 C   0  0  1  0  0  0  0  0  0  0  0  0
   18.9915  -56.5282  -37.2398 C   0  0  1  0  0  0  0  0  0  0  0  0
   20.4943  -56.4956  -37.1298 C   0  0  2  0  0  0  0  0  0  0  0  0
   21.0516  -56.0578  -38.3707 O   0  0  0  0  0  0  0  0  0  0  0  0
   18.5364  -55.4719  -38.0865 O   0  0  0  0  0  0  0  0  0  0  0  0
   19.8224  -58.7298  -37.4978 O   0  0  0  0  0  0  0  0  0  0  0  0
   20.8640  -57.9492  -36.9065 C   0  0  2  0  0  0  0  0  0  0  0  0
   20.9613  -58.2397  -35.4167 C   0  0  0  0  0  0  0  0  0  0  0  0
   21.3332  -59.6065  -35.2479 O   0  0  0  0  0  0  0  0  0  0  0  0
   22.8083  -60.1308  -35.6287 P   0  0  0  0  0  0  0  0  0  0  0  0
   22.8269  -61.5834  -35.2123 O   0  0  0  0  0  0  0  0  0  0  0  0
   23.7111  -59.2391  -34.8096 O   0  0  0  0  0  0  0  0  0  0  0  0
   22.8837  -59.9108  -37.1214 O   0  0  0  0  0  0  0  0  0  0  0  0
  1  2  2  0  0  0  0
  2  4  1  0  0  0  0
  2  3  1  0  0  0  0
  4  7  1  0  0  0  0
  5  9  1  0  0  0  0
  5  4  2  0  0  0  0
  6  5  1  0  0  0  0
  8  7  2  0  0  0  0
  9  8  1  0  0  0  0
 10 15  1  0  0  0  0
 10  9  1  1  0  0  0
 10 11  1  0  0  0  0
 11 14  1  6  0  0  0
 11 12  1  0  0  0  0
 12 13  1  6  0  0  0
 15 16  1  0  0  0  0
 16 12  1  0  0  0  0
 16 17  1  1  0  0  0
 17 18  1  0  0  0  0
 18 19  1  0  0  0  0
 19 21  1  0  0  0  0
 19 20  1  0  0  0  0
 22 19  2  0  0  0  0
M  END
>  <CHROM.1>
179.16192991,97.94247055,-178.97493714,70.07719911,175.94885654,19.04763198
-58.62957618,-36.89512745,2.93464599,-0.15589319,-0.51668616

>  <Name>
lig.pdb

>  <RI>
0

>  <Rbt.Current_Directory>
/home/itssahil/PROJECTS/Mol_Feturizer/New_Systems/rnas/5btp

>  <Rbt.Executable>
rbdock ($Id: //depot/dev/client3/rdock/2013.1/src/exe/rbdock.cxx#4 $)

>  <Rbt.Library>
libRbt.so (2013.1, Build901 2013/11/27)

>  <Rbt.Parameter_File>
/export/apps/rDock/src/rDock_2013.1_src/data/scripts/dock_solv.prm

>  <Rbt.Receptor>
prm/pocket_docking_3.prm

>  <SCORE>
-18.2177

>  <SCORE.INTER>
-17.8583

>  <SCORE.INTER.CONST>
1

>  <SCORE.INTER.POLAR>
0

>  <SCORE.INTER.ROT>
5

>  <SCORE.INTER.SOLV>
20.0432

>  <SCORE.INTER.VDW>
-25.52

>  <SCORE.INTER.norm>
-0.811743

>  <SCORE.INTRA>
-0.35933

>  <SCORE.INTRA.DIHEDRAL>
-1.26494

>  <SCORE.INTRA.DIHEDRAL.0>
4.21161

>  <SCORE.INTRA.POLAR>
0

>  <SCORE.INTRA.POLAR.0>
0

>  <SCORE.INTRA.REPUL>
0

>  <SCORE.INTRA.REPUL.0>
0

>  <SCORE.INTRA.SOLV>
1.55064

>  <SCORE.INTRA.SOLV.lig_0>
-41.4168

>  <SCORE.INTRA.VDW>
-0.50218

>  <SCORE.INTRA.VDW.0>
-1.62533

>  <SCORE.INTRA.norm>
-0.0163332

>  <SCORE.RESTR>
0

>  <SCORE.RESTR.CAVITY>
0

>  <SCORE.RESTR.norm>
0

>  <SCORE.SYSTEM>
0

>  <SCORE.SYSTEM.CONST>
0

>  <SCORE.SYSTEM.DIHEDRAL>
0

>  <SCORE.SYSTEM.SOLV>
0

>  <SCORE.SYSTEM.norm>
0

>  <SCORE.heavy>
22

>  <SCORE.norm>
-0.828076

>  <RMSD>
1.678

$$$$
lig.pdb
 OpenBabel11021811523D
libRbt.so/2013.1/901 2013/11/27
 22 23  0  0  0  0  0  0  0  0999 V2000
   14.5472  -60.1569  -36.3176 O   0  0  0  0  0  0  0  0  0  0  0  0
   14.2949  -59.3085  -37.1587 C   0  0  0  0  0  0  0  0  0  0  0  0
   13.0415  -58.9915  -37.4834 N   0  0  0  0  0  0  0  0  0  0  0  0
   15.4122  -58.6131  -37.8583 C   0  0  0  0  0  0  0  0  0  0  0  0
   16.7883  -58.5338  -37.3437 C   0  0  0  0  0  0  0  0  0  0  0  0
   17.2524  -59.1117  -36.0891 N   0  0  0  0  0  0  0  0  0  0  0  0
   15.4749  -57.9464  -39.0320 N   0  0  0  0  0  0  0  0  0  0  0  0
   16.7596  -57.5068  -39.2077 C   0  0  0  0  0  0  0  0  0  0  0  0
   17.5626  -57.8630  -38.1814 N   0  0  0  0  0  0  0  0  0  0  0  0
   19.0062  -57.5701  -38.0223 C   0  0  1  0  0  0  0  0  0  0  0  0
   19.2101  -56.3858  -37.0918 C   0  0  1  0  0  0  0  0  0  0  0  0
   20.5145  -56.7111  -36.4103 C   0  0  2  0  0  0  0  0  0  0  0  0
   21.6004  -56.2796  -37.2330 O   0  0  0  0  0  0  0  0  0  0  0  0
   19.3288  -55.1670  -37.8268 O   0  0  0  0  0  0  0  0  0  0  0  0
   19.6969  -58.6774  -37.4318 O   0  0  0  0  0  0  0  0  0  0  0  0
   20.5125  -58.2262  -36.3478 C   0  0  2  0  0  0  0  0  0  0  0  0
   19.9335  -58.6927  -35.0211 C   0  0  0  0  0  0  0  0  0  0  0  0
   20.7218  -58.1420  -33.9673 O   0  0  0  0  0  0  0  0  0  0  0  0
   22.2415  -58.6152  -33.7171 P   0  0  0  0  0  0  0  0  0  0  0  0
   22.4718  -58.4246  -32.2359 O   0  0  0  0  0  0  0  0  0  0  0  0
   23.0402  -57.6807  -34.5945 O   0  0  0  0  0  0  0  0  0  0  0  0
   22.2372  -60.0580  -34.1652 O   0  0  0  0  0  0  0  0  0  0  0  0
  1  2  2  0  0  0  0
  2  4  1  0  0  0  0
  2  3  1  0  0  0  0
  4  7  1  0  0  0  0
  5  9  1  0  0  0  0
  5  4  2  0  0  0  0
  6  5  1  0  0  0  0
  8  7  2  0  0  0  0
  9  8  1  0  0  0  0
 10 15  1  0  0  0  0
 10  9  1  1  0  0  0
 10 11  1  0  0  0  0
 11 14  1  6  0  0  0
 11 12  1  0  0  0  0
 12 13  1  6  0  0  0
 15 16  1  0  0  0  0
 16 12  1  0  0  0  0
 16 17  1  1  0  0  0
 17 18  1  0  0  0  0
 18 19  1  0  0  0  0
 19 21  1  0  0  0  0
 19 20  1  0  0  0  0
 22 19  2  0  0  0  0
M  END
>  <CHROM.1>
-20.61954355,-80.35409516,-58.61068652,-68.35274477,-151.20358006,19.02799370
-58.14406464,-36.26505643,2.80095659,-0.35415070,-0.89251404

>  <Name>
lig.pdb

>  <RI>
0

>  <Rbt.Current_Directory>
/home/itssahil/PROJECTS/Mol_Feturizer/New_Systems/rnas/5btp

>  <Rbt.Executable>
rbdock ($Id: //depot/dev/client3/rdock/2013.1/src/exe/rbdock.cxx#4 $)

>  <Rbt.Library>
libRbt.so (2013.1, Build901 2013/11/27)

>  <Rbt.Parameter_File>
/export/apps/rDock/src/rDock_2013.1_src/data/scripts/dock_solv.prm

>  <Rbt.Receptor>
prm/pocket_docking_2.prm

>  <SCORE>
-14.0083

>  <SCORE.INTER>
-15.176

>  <SCORE.INTER.CONST>
1

>  <SCORE.INTER.POLAR>
0

>  <SCORE.INTER.ROT>
5

>  <SCORE.INTER.SOLV>
18.1098

>  <SCORE.INTER.VDW>
-23.0872

>  <SCORE.INTER.norm>
-0.689816

>  <SCORE.INTRA>
1.16729

>  <SCORE.INTRA.DIHEDRAL>
1.08233

>  <SCORE.INTRA.DIHEDRAL.0>
4.21161

>  <SCORE.INTRA.POLAR>
0

>  <SCORE.INTRA.POLAR.0>
0

>  <SCORE.INTRA.REPUL>
0

>  <SCORE.INTRA.REPUL.0>
0

>  <SCORE.INTRA.SOLV>
2.37574

>  <SCORE.INTRA.SOLV.lig_0>
-41.4168

>  <SCORE.INTRA.VDW>
-0.561752

>  <SCORE.INTRA.VDW.0>
-1.62533

>  <SCORE.INTRA.norm>
0.0530584

>  <SCORE.RESTR>
0.000357576

>  <SCORE.RESTR.CAVITY>
0.000357576

>  <SCORE.RESTR.norm>
1.62535e-05

>  <SCORE.SYSTEM>
0

>  <SCORE.SYSTEM.CONST>
0

>  <SCORE.SYSTEM.DIHEDRAL>
0

>  <SCORE.SYSTEM.SOLV>
0

>  <SCORE.SYSTEM.norm>
0

>  <SCORE.heavy>
22

>  <SCORE.norm>
-0.636742

>  <RMSD>
1.679

$$$$
lig.pdb
 OpenBabel11021811523D
libRbt.so/2013.1/901 2013/11/27
 22 23  0  0  0  0  0  0  0  0999 V2000
   13.1062  -59.5793  -37.0832 O   0  0  0  0  0  0  0  0  0  0  0  0
   13.9758  -58.9943  -37.7098 C   0  0  0  0  0  0  0  0  0  0  0  0
   13.7126  -58.3590  -38.8517 N   0  0  0  0  0  0  0  0  0  0  0  0
   15.3763  -58.9978  -37.2001 C   0  0  0  0  0  0  0  0  0  0  0  0
   16.5118  -58.3737  -37.8973 C   0  0  0  0  0  0  0  0  0  0  0  0
   16.4346  -57.6745  -39.1733 N   0  0  0  0  0  0  0  0  0  0  0  0
   15.9342  -59.5050  -36.0787 N   0  0  0  0  0  0  0  0  0  0  0  0
   17.2727  -59.2176  -36.0976 C   0  0  0  0  0  0  0  0  0  0  0  0
   17.6282  -58.5284  -37.2037 N   0  0  0  0  0  0  0  0  0  0  0  0
   18.9797  -58.0430  -37.5682 C   0  0  1  0  0  0  0  0  0  0  0  0
   19.0907  -56.5462  -37.3290 C   0  0  1  0  0  0  0  0  0  0  0  0
   20.5361  -56.3716  -36.9391 C   0  0  2  0  0  0  0  0  0  0  0  0
   21.3361  -56.2645  -38.1183 O   0  0  0  0  0  0  0  0  0  0  0  0
   18.8097  -55.8113  -38.5210 O   0  0  0  0  0  0  0  0  0  0  0  0
   19.9872  -58.6618  -36.7596 O   0  0  0  0  0  0  0  0  0  0  0  0
   20.8702  -57.6698  -36.2303 C   0  0  2  0  0  0  0  0  0  0  0  0
   20.6557  -57.5164  -34.7324 C   0  0  0  0  0  0  0  0  0  0  0  0
   21.5578  -56.5232  -34.2478 O   0  0  0  0  0  0  0  0  0  0  0  0
   21.5780  -56.0895  -32.6962 P   0  0  0  0  0  0  0  0  0  0  0  0
   20.1842  -55.5777  -32.4148 O   0  0  0  0  0  0  0  0  0  0  0  0
   22.6500  -55.0265  -32.6514 O   0  0  0  0  0  0  0  0  0  0  0  0
   21.9261  -57.3724  -31.9785 O   0  0  0  0  0  0  0  0  0  0  0  0
  1  2  2  0  0  0  0
  2  4  1  0  0  0  0
  2  3  1  0  0  0  0
  4  7  1  0  0  0  0
  5  9  1  0  0  0  0
  5  4  2  0  0  0  0
  6  5  1  0  0  0  0
  8  7  2  0  0  0  0
  9  8  1  0  0  0  0
 10 15  1  0  0  0  0
 10  9  1  1  0  0  0
 10 11  1  0  0  0  0
 11 14  1  6  0  0  0
 11 12  1  0  0  0  0
 12 13  1  6  0  0  0
 15 16  1  0  0  0  0
 16 12  1  0  0  0  0
 16 17  1  1  0  0  0
 17 18  1  0  0  0  0
 18 19  1  0  0  0  0
 19 21  1  0  0  0  0
 19 20  1  0  0  0  0
 22 19  2  0  0  0  0
M  END
>  <CHROM.1>
177.47549911,75.89546501,-62.89256475,178.83833436,-59.37971865,18.82087198
-57.44408268,-35.98360718,2.61240021,-0.42450775,-1.47262240

>  <Name>
lig.pdb

>  <RI>
0

>  <Rbt.Current_Directory>
/home/itssahil/PROJECTS/Mol_Feturizer/New_Systems/rnas/5btp

>  <Rbt.Executable>
rbdock ($Id: //depot/dev/client3/rdock/2013.1/src/exe/rbdock.cxx#4 $)

>  <Rbt.Library>
libRbt.so (2013.1, Build901 2013/11/27)

>  <Rbt.Parameter_File>
/export/apps/rDock/src/rDock_2013.1_src/data/scripts/dock_solv.prm

>  <Rbt.Receptor>
prm/pocket_docking_6.prm

>  <SCORE>
-19.0387

>  <SCORE.INTER>
-18.1129

>  <SCORE.INTER.CONST>
1

>  <SCORE.INTER.POLAR>
0

>  <SCORE.INTER.ROT>
5

>  <SCORE.INTER.SOLV>
20.0091

>  <SCORE.INTER.VDW>
-25.6783

>  <SCORE.INTER.norm>
-0.823312

>  <SCORE.INTRA>
-0.925818

>  <SCORE.INTRA.DIHEDRAL>
-1.72549

>  <SCORE.INTRA.DIHEDRAL.0>
4.21161

>  <SCORE.INTRA.POLAR>
0

>  <SCORE.INTRA.POLAR.0>
0

>  <SCORE.INTRA.REPUL>
0

>  <SCORE.INTRA.REPUL.0>
0

>  <SCORE.INTRA.SOLV>
0.62293

>  <SCORE.INTRA.SOLV.lig_0>
-41.4168

>  <SCORE.INTRA.VDW>
-0.374539

>  <SCORE.INTRA.VDW.0>
-1.62533

>  <SCORE.INTRA.norm>
-0.0420826

>  <SCORE.RESTR>
0

>  <SCORE.RESTR.CAVITY>
0

>  <SCORE.RESTR.norm>
0

>  <SCORE.SYSTEM>
0

>  <SCORE.SYSTEM.CONST>
0

>  <SCORE.SYSTEM.DIHEDRAL>
0

>  <SCORE.SYSTEM.SOLV>
0

>  <SCORE.SYSTEM.norm>
0

>  <SCORE.heavy>
22

>  <SCORE.norm>
-0.865395

>  <RMSD>
1.684

$$$$
lig.pdb
 OpenBabel11021811523D
libRbt.so/2013.1/901 2013/11/27
 22 23  0  0  0  0  0  0  0  0999 V2000
   13.7208  -58.4313  -38.7602 O   0  0  0  0  0  0  0  0  0  0  0  0
   13.9774  -58.9903  -37.7054 C   0  0  0  0  0  0  0  0  0  0  0  0
   13.0316  -59.5797  -36.9740 N   0  0  0  0  0  0  0  0  0  0  0  0
   15.3814  -59.0066  -37.2057 C   0  0  0  0  0  0  0  0  0  0  0  0
   16.5115  -58.3622  -37.8931 C   0  0  0  0  0  0  0  0  0  0  0  0
   16.4249  -57.6280  -39.1488 N   0  0  0  0  0  0  0  0  0  0  0  0
   15.9476  -59.5442  -36.1027 N   0  0  0  0  0  0  0  0  0  0  0  0
   17.2857  -59.2550  -36.1230 C   0  0  0  0  0  0  0  0  0  0  0  0
   17.6328  -58.5350  -37.2119 N   0  0  0  0  0  0  0  0  0  0  0  0
   18.9814  -58.0383  -37.5722 C   0  0  1  0  0  0  0  0  0  0  0  0
   19.0885  -56.5460  -37.3048 C   0  0  1  0  0  0  0  0  0  0  0  0
   20.5349  -56.3742  -36.9171 C   0  0  2  0  0  0  0  0  0  0  0  0
   21.3300  -56.2420  -38.0971 O   0  0  0  0  0  0  0  0  0  0  0  0
   18.8006  -55.7894  -38.4814 O   0  0  0  0  0  0  0  0  0  0  0  0
   19.9940  -58.6692  -36.7794 O   0  0  0  0  0  0  0  0  0  0  0  0
   20.8759  -57.6847  -36.2346 C   0  0  2  0  0  0  0  0  0  0  0  0
   20.6667  -57.5607  -34.7333 C   0  0  0  0  0  0  0  0  0  0  0  0
   21.5751  -56.5819  -34.2314 O   0  0  0  0  0  0  0  0  0  0  0  0
   21.5700  -56.1454  -32.6805 P   0  0  0  0  0  0  0  0  0  0  0  0
   21.7764  -57.4298  -31.9117 O   0  0  0  0  0  0  0  0  0  0  0  0
   20.2028  -55.5287  -32.5025 O   0  0  0  0  0  0  0  0  0  0  0  0
   22.7220  -55.1725  -32.5867 O   0  0  0  0  0  0  0  0  0  0  0  0
  1  2  2  0  0  0  0
  2  4  1  0  0  0  0
  2  3  1  0  0  0  0
  4  7  1  0  0  0  0
  5  9  1  0  0  0  0
  5  4  2  0  0  0  0
  6  5  1  0  0  0  0
  8  7  2  0  0  0  0
  9  8  1  0  0  0  0
 10 15  1  0  0  0  0
 10  9  1  1  0  0  0
 10 11  1  0  0  0  0
 11 14  1  6  0  0  0
 11 12  1  0  0  0  0
 12 13  1  6  0  0  0
 15 16  1  0  0  0  0
 16 12  1  0  0  0  0
 16 17  1  1  0  0  0
 17 18  1  0  0  0  0
 18 19  1  0  0  0  0
 19 21  1  0  0  0  0
 19 20  1  0  0  0  0
 22 19  2  0  0  0  0
M  END
>  <CHROM.1>
1.14728482,75.35322347,-63.36637694,176.83454184,56.66846873,18.82031834
-57.45758658,-35.97860272,2.61253265,-0.42368852,-1.46015571

>  <Name>
lig.pdb

>  <RI>
0

>  <Rbt.Current_Directory>
/home/itssahil/PROJECTS/Mol_Feturizer/New_Systems/rnas/5btp

>  <Rbt.Executable>
rbdock ($Id: //depot/dev/client3/rdock/2013.1/src/exe/rbdock.cxx#4 $)

>  <Rbt.Library>
libRbt.so (2013.1, Build901 2013/11/27)

>  <Rbt.Parameter_File>
/export/apps/rDock/src/rDock_2013.1_src/data/scripts/dock_solv.prm

>  <Rbt.Receptor>
prm/pocket_docking_6.prm

>  <SCORE>
-19.22

>  <SCORE.INTER>
-18.0977

>  <SCORE.INTER.CONST>
1

>  <SCORE.INTER.POLAR>
0

>  <SCORE.INTER.ROT>
5

>  <SCORE.INTER.SOLV>
19.9185

>  <SCORE.INTER.VDW>
-25.638

>  <SCORE.INTER.norm>
-0.822623

>  <SCORE.INTRA>
-1.12234

>  <SCORE.INTRA.DIHEDRAL>
-1.67205

>  <SCORE.INTRA.DIHEDRAL.0>
4.21161

>  <SCORE.INTRA.POLAR>
0

>  <SCORE.INTRA.POLAR.0>
0

>  <SCORE.INTRA.REPUL>
0

>  <SCORE.INTRA.REPUL.0>
0

>  <SCORE.INTRA.SOLV>
0.175582

>  <SCORE.INTRA.SOLV.lig_0>
-41.4168

>  <SCORE.INTRA.VDW>
-0.374104

>  <SCORE.INTRA.VDW.0>
-1.62533

>  <SCORE.INTRA.norm>
-0.0510154

>  <SCORE.RESTR>
0

>  <SCORE.RESTR.CAVITY>
0

>  <SCORE.RESTR.norm>
0

>  <SCORE.SYSTEM>
0

>  <SCORE.SYSTEM.CONST>
0

>  <SCORE.SYSTEM.DIHEDRAL>
0

>  <SCORE.SYSTEM.SOLV>
0

>  <SCORE.SYSTEM.norm>
0

>  <SCORE.heavy>
22

>  <SCORE.norm>
-0.873638

>  <RMSD>
1.687

$$$$
lig.pdb
 OpenBabel11021811523D
libRbt.so/2013.1/901 2013/11/27
 22 23  0  0  0  0  0  0  0  0999 V2000
   12.9922  -59.7065  -36.7974 O   0  0  0  0  0  0  0  0  0  0  0  0
   13.7809  -59.1367  -37.5352 C   0  0  0  0  0  0  0  0  0  0  0  0
   13.3955  -58.5904  -38.6885 N   0  0  0  0  0  0  0  0  0  0  0  0
   15.2189  -59.0576  -37.1520 C   0  0  0  0  0  0  0  0  0  0  0  0
   16.2574  -58.4069  -37.9663 C   0  0  0  0  0  0  0  0  0  0  0  0
   16.0351  -57.7575  -39.2517 N   0  0  0  0  0  0  0  0  0  0  0  0
   15.8968  -59.4986  -36.0693 N   0  0  0  0  0  0  0  0  0  0  0  0
   17.2128  -59.1508  -36.2160 C   0  0  0  0  0  0  0  0  0  0  0  0
   17.4362  -58.4854  -37.3702 N   0  0  0  0  0  0  0  0  0  0  0  0
   18.7254  -57.9515  -37.8682 C   0  0  1  0  0  0  0  0  0  0  0  0
   19.1760  -56.7720  -37.0222 C   0  0  1  0  0  0  0  0  0  0  0  0
   20.6787  -56.8832  -37.0588 C   0  0  2  0  0  0  0  0  0  0  0  0
   21.1725  -56.2514  -38.2417 O   0  0  0  0  0  0  0  0  0  0  0  0
   18.7592  -55.5340  -37.5998 O   0  0  0  0  0  0  0  0  0  0  0  0
   19.7617  -58.9365  -37.7809 O   0  0  0  0  0  0  0  0  0  0  0  0
   20.9203  -58.3769  -37.1576 C   0  0  2  0  0  0  0  0  0  0  0  0
   21.1106  -58.9674  -35.7691 C   0  0  0  0  0  0  0  0  0  0  0  0
   22.2659  -58.3719  -35.1810 O   0  0  0  0  0  0  0  0  0  0  0  0
   23.7374  -58.6034  -35.7952 P   0  0  0  0  0  0  0  0  0  0  0  0
   23.7570  -57.8029  -37.0767 O   0  0  0  0  0  0  0  0  0  0  0  0
   23.7931  -60.0991  -35.9971 O   0  0  0  0  0  0  0  0  0  0  0  0
   24.6540  -58.0740  -34.7172 O   0  0  0  0  0  0  0  0  0  0  0  0
  1  2  2  0  0  0  0
  2  4  1  0  0  0  0
  2  3  1  0  0  0  0
  4  7  1  0  0  0  0
  5  9  1  0  0  0  0
  5  4  2  0  0  0  0
  6  5  1  0  0  0  0
  8  7  2  0  0  0  0
  9  8  1  0  0  0  0
 10 15  1  0  0  0  0
 10  9  1  1  0  0  0
 10 11  1  0  0  0  0
 11 14  1  6  0  0  0
 11 12  1  0  0  0  0
 12 13  1  6  0  0  0
 15 16  1  0  0  0  0
 16 12  1  0  0  0  0
 16 17  1  1  0  0  0
 17 18  1  0  0  0  0
 18 19  1  0  0  0  0
 19 21  1  0  0  0  0
 19 20  1  0  0  0  0
 22 19  2  0  0  0  0
M  END
>  <CHROM.1>
179.50249777,110.16281692,-62.08764154,-64.92819536,72.08953691,19.34738249
-58.29475514,-36.92453853,3.07347975,-0.17990909,-0.63935205

>  <Name>
lig.pdb

>  <RI>
0

>  <Rbt.Current_Directory>
/home/itssahil/PROJECTS/Mol_Feturizer/New_Systems/rnas/5btp

>  <Rbt.Executable>
rbdock ($Id: //depot/dev/client3/rdock/2013.1/src/exe/rbdock.cxx#4 $)

>  <Rbt.Library>
libRbt.so (2013.1, Build901 2013/11/27)

>  <Rbt.Parameter_File>
/export/apps/rDock/src/rDock_2013.1_src/data/scripts/dock_solv.prm

>  <Rbt.Receptor>
prm/pocket_docking_3.prm

>  <SCORE>
-19.0348

>  <SCORE.INTER>
-18.3035

>  <SCORE.INTER.CONST>
1

>  <SCORE.INTER.POLAR>
0

>  <SCORE.INTER.ROT>
5

>  <SCORE.INTER.SOLV>
19.9547

>  <SCORE.INTER.VDW>
-25.7872

>  <SCORE.INTER.norm>
-0.831977

>  <SCORE.INTRA>
-0.731345

>  <SCORE.INTRA.DIHEDRAL>
-1.41679

>  <SCORE.INTRA.DIHEDRAL.0>
4.21161

>  <SCORE.INTRA.POLAR>
0

>  <SCORE.INTRA.POLAR.0>
0

>  <SCORE.INTRA.REPUL>
0

>  <SCORE.INTRA.REPUL.0>
0

>  <SCORE.INTRA.SOLV>
0.931368

>  <SCORE.INTRA.SOLV.lig_0>
-41.4168

>  <SCORE.INTRA.VDW>
-0.488632

>  <SCORE.INTRA.VDW.0>
-1.62533

>  <SCORE.INTRA.norm>
-0.0332429

>  <SCORE.RESTR>
0

>  <SCORE.RESTR.CAVITY>
0

>  <SCORE.RESTR.norm>
0

>  <SCORE.SYSTEM>
0

>  <SCORE.SYSTEM.CONST>
0

>  <SCORE.SYSTEM.DIHEDRAL>
0

>  <SCORE.SYSTEM.SOLV>
0

>  <SCORE.SYSTEM.norm>
0

>  <SCORE.heavy>
22

>  <SCORE.norm>
-0.86522

>  <RMSD>
1.709

$$$$
lig.pdb
 OpenBabel11021811523D
libRbt.so/2013.1/901 2013/11/27
 22 23  0  0  0  0  0  0  0  0999 V2000
   13.0662  -59.5602  -37.0459 O   0  0  0  0  0  0  0  0  0  0  0  0
   13.9426  -58.9915  -37.6781 C   0  0  0  0  0  0  0  0  0  0  0  0
   13.6849  -58.3554  -38.8207 N   0  0  0  0  0  0  0  0  0  0  0  0
   15.3450  -59.0166  -37.1744 C   0  0  0  0  0  0  0  0  0  0  0  0
   16.4859  -58.4043  -37.8732 C   0  0  0  0  0  0  0  0  0  0  0  0
   16.4129  -57.6977  -39.1454 N   0  0  0  0  0  0  0  0  0  0  0  0
   15.9007  -59.5370  -36.0578 N   0  0  0  0  0  0  0  0  0  0  0  0
   17.2429  -59.2676  -36.0811 C   0  0  0  0  0  0  0  0  0  0  0  0
   17.6030  -58.5776  -37.1852 N   0  0  0  0  0  0  0  0  0  0  0  0
   18.9594  -58.1087  -37.5530 C   0  0  1  0  0  0  0  0  0  0  0  0
   19.0798  -56.6084  -37.3424 C   0  0  1  0  0  0  0  0  0  0  0  0
   20.5247  -56.4362  -36.9495 C   0  0  2  0  0  0  0  0  0  0  0  0
   21.3305  -56.3576  -38.1271 O   0  0  0  0  0  0  0  0  0  0  0  0
   18.8091  -55.8949  -38.5497 O   0  0  0  0  0  0  0  0  0  0  0  0
   19.9591  -58.7186  -36.7281 O   0  0  0  0  0  0  0  0  0  0  0  0
   20.8467  -57.7226  -36.2142 C   0  0  2  0  0  0  0  0  0  0  0  0
   20.6268  -57.5387  -34.7206 C   0  0  0  0  0  0  0  0  0  0  0  0
   21.5399  -56.5489  -34.2496 O   0  0  0  0  0  0  0  0  0  0  0  0
   21.5254  -56.0515  -32.7172 P   0  0  0  0  0  0  0  0  0  0  0  0
   20.1410  -55.4851  -32.5026 O   0  0  0  0  0  0  0  0  0  0  0  0
   22.6295  -55.0215  -32.6808 O   0  0  0  0  0  0  0  0  0  0  0  0
   21.8090  -57.3135  -31.9366 O   0  0  0  0  0  0  0  0  0  0  0  0
  1  2  2  0  0  0  0
  2  4  1  0  0  0  0
  2  3  1  0  0  0  0
  4  7  1  0  0  0  0
  5  9  1  0  0  0  0
  5  4  2  0  0  0  0
  6  5  1  0  0  0  0
  8  7  2  0  0  0  0
  9  8  1  0  0  0  0
 10 15  1  0  0  0  0
 10  9  1  1  0  0  0
 10 11  1  0  0  0  0
 11 14  1  6  0  0  0
 11 12  1  0  0  0  0
 12 13  1  6  0  0  0
 15 16  1  0  0  0  0
 16 12  1  0  0  0  0
 16 17  1  1  0  0  0
 17 18  1  0  0  0  0
 18 19  1  0  0  0  0
 19 21  1  0  0  0  0
 19 20  1  0  0  0  0
 22 19  2  0  0  0  0
M  END
>  <CHROM.1>
177.96648762,74.36134947,-63.27804045,176.77417984,-59.75626618,18.78983059
-57.46313671,-35.97921793,2.60646050,-0.41449320,-1.50050362

>  <Name>
lig.pdb

>  <RI>
0

>  <Rbt.Current_Directory>
/home/itssahil/PROJECTS/Mol_Feturizer/New_Systems/rnas/5btp

>  <Rbt.Executable>
rbdock ($Id: //depot/dev/client3/rdock/2013.1/src/exe/rbdock.cxx#4 $)

>  <Rbt.Library>
libRbt.so (2013.1, Build901 2013/11/27)

>  <Rbt.Parameter_File>
/export/apps/rDock/src/rDock_2013.1_src/data/scripts/dock_solv.prm

>  <Rbt.Receptor>
prm/pocket_docking_8.prm

>  <SCORE>
-18.9669

>  <SCORE.INTER>
-18.0777

>  <SCORE.INTER.CONST>
1

>  <SCORE.INTER.POLAR>
0

>  <SCORE.INTER.ROT>
5

>  <SCORE.INTER.SOLV>
20.2614

>  <SCORE.INTER.VDW>
-25.7389

>  <SCORE.INTER.norm>
-0.821713

>  <SCORE.INTRA>
-0.889227

>  <SCORE.INTRA.DIHEDRAL>
-1.68079

>  <SCORE.INTRA.DIHEDRAL.0>
4.21161

>  <SCORE.INTRA.POLAR>
0

>  <SCORE.INTRA.POLAR.0>
0

>  <SCORE.INTRA.REPUL>
0

>  <SCORE.INTRA.REPUL.0>
0

>  <SCORE.INTRA.SOLV>
0.649088

>  <SCORE.INTRA.SOLV.lig_0>
-41.4168

>  <SCORE.INTRA.VDW>
-0.373375

>  <SCORE.INTRA.VDW.0>
-1.62533

>  <SCORE.INTRA.norm>
-0.0404194

>  <SCORE.RESTR>
0

>  <SCORE.RESTR.CAVITY>
0

>  <SCORE.RESTR.norm>
0

>  <SCORE.SYSTEM>
0

>  <SCORE.SYSTEM.CONST>
0

>  <SCORE.SYSTEM.DIHEDRAL>
0

>  <SCORE.SYSTEM.SOLV>
0

>  <SCORE.SYSTEM.norm>
0

>  <SCORE.heavy>
22

>  <SCORE.norm>
-0.862133

>  <RMSD>
1.712

$$$$
lig.pdb
 OpenBabel11021811523D
libRbt.so/2013.1/901 2013/11/27
 22 23  0  0  0  0  0  0  0  0999 V2000
   13.4456  -58.4919  -38.5898 O   0  0  0  0  0  0  0  0  0  0  0  0
   13.8179  -59.0399  -37.5641 C   0  0  0  0  0  0  0  0  0  0  0  0
   12.9693  -59.6858  -36.7644 N   0  0  0  0  0  0  0  0  0  0  0  0
   15.2563  -58.9777  -37.1790 C   0  0  0  0  0  0  0  0  0  0  0  0
   16.3029  -58.3369  -37.9907 C   0  0  0  0  0  0  0  0  0  0  0  0
   16.0894  -57.6826  -39.2750 N   0  0  0  0  0  0  0  0  0  0  0  0
   15.9278  -59.4284  -36.0963 N   0  0  0  0  0  0  0  0  0  0  0  0
   17.2478  -59.0949  -36.2406 C   0  0  0  0  0  0  0  0  0  0  0  0
   17.4800  -58.4297  -37.3932 N   0  0  0  0  0  0  0  0  0  0  0  0
   18.7757  -57.9092  -37.8885 C   0  0  1  0  0  0  0  0  0  0  0  0
   19.2817  -56.7948  -36.9874 C   0  0  1  0  0  0  0  0  0  0  0  0
   20.7789  -56.9511  -37.0634 C   0  0  2  0  0  0  0  0  0  0  0  0
   21.2692  -56.2687  -38.2193 O   0  0  0  0  0  0  0  0  0  0  0  0
   18.8942  -55.5133  -37.4849 O   0  0  0  0  0  0  0  0  0  0  0  0
   19.7808  -58.9298  -37.8799 O   0  0  0  0  0  0  0  0  0  0  0  0
   20.9694  -58.4436  -37.2517 C   0  0  2  0  0  0  0  0  0  0  0  0
   21.1683  -59.1182  -35.9032 C   0  0  0  0  0  0  0  0  0  0  0  0
   21.3248  -60.5196  -36.1195 O   0  0  0  0  0  0  0  0  0  0  0  0
   21.5038  -61.5463  -34.8908 P   0  0  0  0  0  0  0  0  0  0  0  0
   20.2150  -61.4482  -34.1079 O   0  0  0  0  0  0  0  0  0  0  0  0
   22.7130  -61.0051  -34.1654 O   0  0  0  0  0  0  0  0  0  0  0  0
   21.7165  -62.8766  -35.5742 O   0  0  0  0  0  0  0  0  0  0  0  0
  1  2  2  0  0  0  0
  2  4  1  0  0  0  0
  2  3  1  0  0  0  0
  4  7  1  0  0  0  0
  5  9  1  0  0  0  0
  5  4  2  0  0  0  0
  6  5  1  0  0  0  0
  8  7  2  0  0  0  0
  9  8  1  0  0  0  0
 10 15  1  0  0  0  0
 10  9  1  1  0  0  0
 10 11  1  0  0  0  0
 11 14  1  6  0  0  0
 11 12  1  0  0  0  0
 12 13  1  6  0  0  0
 15 16  1  0  0  0  0
 16 12  1  0  0  0  0
 16 17  1  1  0  0  0
 17 18  1  0  0  0  0
 18 19  1  0  0  0  0
 19 21  1  0  0  0  0
 19 20  1  0  0  0  0
 22 19  2  0  0  0  0
M  END
>  <CHROM.1>
-2.76283476,113.76477671,179.19644233,-177.78786831,63.21027024,18.76761429
-59.10660249,-36.71346341,2.69395879,-0.14393470,-0.51832022

>  <Name>
lig.pdb

>  <RI>
0

>  <Rbt.Current_Directory>
/home/itssahil/PROJECTS/Mol_Feturizer/New_Systems/rnas/5btp

>  <Rbt.Executable>
rbdock ($Id: //depot/dev/client3/rdock/2013.1/src/exe/rbdock.cxx#4 $)

>  <Rbt.Library>
libRbt.so (2013.1, Build901 2013/11/27)

>  <Rbt.Parameter_File>
/export/apps/rDock/src/rDock_2013.1_src/data/scripts/dock_solv.prm

>  <Rbt.Receptor>
prm/pocket_docking_4.prm

>  <SCORE>
-20.4138

>  <SCORE.INTER>
-18.734

>  <SCORE.INTER.CONST>
1

>  <SCORE.INTER.POLAR>
0

>  <SCORE.INTER.ROT>
5

>  <SCORE.INTER.SOLV>
21.172

>  <SCORE.INTER.VDW>
-26.48

>  <SCORE.INTER.norm>
-0.851545

>  <SCORE.INTRA>
-1.67978

>  <SCORE.INTRA.DIHEDRAL>
-1.71975

>  <SCORE.INTRA.DIHEDRAL.0>
4.21161

>  <SCORE.INTRA.POLAR>
0

>  <SCORE.INTRA.POLAR.0>
0

>  <SCORE.INTRA.REPUL>
0

>  <SCORE.INTRA.REPUL.0>
0

>  <SCORE.INTRA.SOLV>
-0.465678

>  <SCORE.INTRA.SOLV.lig_0>
-41.4168

>  <SCORE.INTRA.VDW>
-0.587062

>  <SCORE.INTRA.VDW.0>
-1.62533

>  <SCORE.INTRA.norm>
-0.0763535

>  <SCORE.RESTR>
0

>  <SCORE.RESTR.CAVITY>
0

>  <SCORE.RESTR.norm>
0

>  <SCORE.SYSTEM>
0

>  <SCORE.SYSTEM.CONST>
0

>  <SCORE.SYSTEM.DIHEDRAL>
0

>  <SCORE.SYSTEM.SOLV>
0

>  <SCORE.SYSTEM.norm>
0

>  <SCORE.heavy>
22

>  <SCORE.norm>
-0.927899

>  <RMSD>
1.714

$$$$
lig.pdb
 OpenBabel11021811523D
libRbt.so/2013.1/901 2013/11/27
 22 23  0  0  0  0  0  0  0  0999 V2000
   13.0137  -59.6319  -36.8307 O   0  0  0  0  0  0  0  0  0  0  0  0
   13.8029  -59.0442  -37.5537 C   0  0  0  0  0  0  0  0  0  0  0  0
   13.4163  -58.4599  -38.6878 N   0  0  0  0  0  0  0  0  0  0  0  0
   15.2429  -58.9858  -37.1743 C   0  0  0  0  0  0  0  0  0  0  0  0
   16.2876  -58.3453  -37.9888 C   0  0  0  0  0  0  0  0  0  0  0  0
   16.0703  -57.6875  -39.2707 N   0  0  0  0  0  0  0  0  0  0  0  0
   15.9179  -59.4404  -36.0954 N   0  0  0  0  0  0  0  0  0  0  0  0
   17.2380  -59.1094  -36.2444 C   0  0  0  0  0  0  0  0  0  0  0  0
   17.4670  -58.4420  -37.3964 N   0  0  0  0  0  0  0  0  0  0  0  0
   18.7617  -57.9230  -37.8957 C   0  0  1  0  0  0  0  0  0  0  0  0
   19.2305  -56.7536  -37.0456 C   0  0  1  0  0  0  0  0  0  0  0  0
   20.7314  -56.8846  -37.0873 C   0  0  2  0  0  0  0  0  0  0  0  0
   21.2302  -56.2539  -38.2687 O   0  0  0  0  0  0  0  0  0  0  0  0
   18.8286  -55.5075  -37.6163 O   0  0  0  0  0  0  0  0  0  0  0  0
   19.7851  -58.9221  -37.8161 O   0  0  0  0  0  0  0  0  0  0  0  0
   20.9528  -58.3809  -37.1937 C   0  0  2  0  0  0  0  0  0  0  0  0
   21.1393  -58.9804  -35.8085 C   0  0  0  0  0  0  0  0  0  0  0  0
   22.2914  -58.3867  -35.2124 O   0  0  0  0  0  0  0  0  0  0  0  0
   23.7689  -58.6364  -35.8045 P   0  0  0  0  0  0  0  0  0  0  0  0
   23.7877  -57.9090  -37.1289 O   0  0  0  0  0  0  0  0  0  0  0  0
   23.8415  -60.1404  -35.9217 O   0  0  0  0  0  0  0  0  0  0  0  0
   24.6733  -58.0374  -34.7531 O   0  0  0  0  0  0  0  0  0  0  0  0
  1  2  2  0  0  0  0
  2  4  1  0  0  0  0
  2  3  1  0  0  0  0
  4  7  1  0  0  0  0
  5  9  1  0  0  0  0
  5  4  2  0  0  0  0
  6  5  1  0  0  0  0
  8  7  2  0  0  0  0
  9  8  1  0  0  0  0
 10 15  1  0  0  0  0
 10  9  1  1  0  0  0
 10 11  1  0  0  0  0
 11 14  1  6  0  0  0
 11 12  1  0  0  0  0
 12 13  1  6  0  0  0
 15 16  1  0  0  0  0
 16 12  1  0  0  0  0
 16 17  1  1  0  0  0
 17 18  1  0  0  0  0
 18 19  1  0  0  0  0
 19 21  1  0  0  0  0
 19 20  1  0  0  0  0
 22 19  2  0  0  0  0
M  END
>  <CHROM.1>
177.91089588,110.18343578,-61.13395371,-66.22702228,69.29591020,19.38117593
-58.27471855,-36.94562020,3.06272498,-0.17298031,-0.64050475

>  <Name>
lig.pdb

>  <RI>
0

>  <Rbt.Current_Directory>
/home/itssahil/PROJECTS/Mol_Feturizer/New_Systems/rnas/5btp

>  <Rbt.Executable>
rbdock ($Id: //depot/dev/client3/rdock/2013.1/src/exe/rbdock.cxx#4 $)

>  <Rbt.Library>
libRbt.so (2013.1, Build901 2013/11/27)

>  <Rbt.Parameter_File>
/export/apps/rDock/src/rDock_2013.1_src/data/scripts/dock_solv.prm

>  <Rbt.Receptor>
prm/pocket_docking_3.prm

>  <SCORE>
-19.0495

>  <SCORE.INTER>
-18.3117

>  <SCORE.INTER.CONST>
1

>  <SCORE.INTER.POLAR>
0

>  <SCORE.INTER.ROT>
5

>  <SCORE.INTER.SOLV>
19.9161

>  <SCORE.INTER.VDW>
-25.7799

>  <SCORE.INTER.norm>
-0.832351

>  <SCORE.INTRA>
-0.737753

>  <SCORE.INTRA.DIHEDRAL>
-1.43784

>  <SCORE.INTRA.DIHEDRAL.0>
4.21161

>  <SCORE.INTRA.POLAR>
0

>  <SCORE.INTRA.POLAR.0>
0

>  <SCORE.INTRA.REPUL>
0

>  <SCORE.INTRA.REPUL.0>
0

>  <SCORE.INTRA.SOLV>
0.905812

>  <SCORE.INTRA.SOLV.lig_0>
-41.4168

>  <SCORE.INTRA.VDW>
-0.471741

>  <SCORE.INTRA.VDW.0>
-1.62533

>  <SCORE.INTRA.norm>
-0.0335342

>  <SCORE.RESTR>
0

>  <SCORE.RESTR.CAVITY>
0

>  <SCORE.RESTR.norm>
0

>  <SCORE.SYSTEM>
0

>  <SCORE.SYSTEM.CONST>
0

>  <SCORE.SYSTEM.DIHEDRAL>
0

>  <SCORE.SYSTEM.SOLV>
0

>  <SCORE.SYSTEM.norm>
0

>  <SCORE.heavy>
22

>  <SCORE.norm>
-0.865885

>  <RMSD>
1.715

$$$$
lig.pdb
 OpenBabel11021811523D
libRbt.so/2013.1/901 2013/11/27
 22 23  0  0  0  0  0  0  0  0999 V2000
   12.9594  -59.7034  -36.8166 O   0  0  0  0  0  0  0  0  0  0  0  0
   13.7507  -59.1275  -37.5469 C   0  0  0  0  0  0  0  0  0  0  0  0
   13.3701  -58.5739  -38.6982 N   0  0  0  0  0  0  0  0  0  0  0  0
   15.1869  -59.0493  -37.1565 C   0  0  0  0  0  0  0  0  0  0  0  0
   16.2314  -58.4071  -37.9699 C   0  0  0  0  0  0  0  0  0  0  0  0
   16.0177  -57.7667  -39.2612 N   0  0  0  0  0  0  0  0  0  0  0  0
   15.8577  -59.4840  -36.0669 N   0  0  0  0  0  0  0  0  0  0  0  0
   17.1755  -59.1406  -36.2090 C   0  0  0  0  0  0  0  0  0  0  0  0
   17.4068  -58.4842  -37.3668 N   0  0  0  0  0  0  0  0  0  0  0  0
   18.7000  -57.9572  -37.8617 C   0  0  1  0  0  0  0  0  0  0  0  0
   19.1764  -56.8083  -36.9882 C   0  0  1  0  0  0  0  0  0  0  0  0
   20.6768  -56.9419  -37.0413 C   0  0  2  0  0  0  0  0  0  0  0  0
   21.1705  -56.2861  -38.2110 O   0  0  0  0  0  0  0  0  0  0  0  0
   18.7745  -55.5488  -37.5286 O   0  0  0  0  0  0  0  0  0  0  0  0
   19.7213  -58.9603  -37.8102 O   0  0  0  0  0  0  0  0  0  0  0  0
   20.8938  -58.4359  -37.1824 C   0  0  2  0  0  0  0  0  0  0  0  0
   21.0866  -59.0668  -35.8120 C   0  0  0  0  0  0  0  0  0  0  0  0
   22.2458  -58.4923  -35.2110 O   0  0  0  0  0  0  0  0  0  0  0  0
   23.7167  -58.7272  -35.8252 P   0  0  0  0  0  0  0  0  0  0  0  0
   23.7364  -57.9304  -37.1091 O   0  0  0  0  0  0  0  0  0  0  0  0
   23.7706  -60.2236  -36.0228 O   0  0  0  0  0  0  0  0  0  0  0  0
   24.6344  -58.1957  -34.7493 O   0  0  0  0  0  0  0  0  0  0  0  0
  1  2  2  0  0  0  0
  2  4  1  0  0  0  0
  2  3  1  0  0  0  0
  4  7  1  0  0  0  0
  5  9  1  0  0  0  0
  5  4  2  0  0  0  0
  6  5  1  0  0  0  0
  8  7  2  0  0  0  0
  9  8  1  0  0  0  0
 10 15  1  0  0  0  0
 10  9  1  1  0  0  0
 10 11  1  0  0  0  0
 11 14  1  6  0  0  0
 11 12  1  0  0  0  0
 12 13  1  6  0  0  0
 15 16  1  0  0  0  0
 16 12  1  0  0  0  0
 16 17  1  1  0  0  0
 17 18  1  0  0  0  0
 18 19  1  0  0  0  0
 19 21  1  0  0  0  0
 19 20  1  0  0  0  0
 22 19  2  0  0  0  0
M  END
>  <CHROM.1>
178.66052642,112.42162885,-61.31158086,-65.74884654,70.83332009,19.32600752
-58.34222023,-36.93212789,3.06696685,-0.17119214,-0.62081219

>  <Name>
lig.pdb

>  <RI>
0

>  <Rbt.Current_Directory>
/home/itssahil/PROJECTS/Mol_Feturizer/New_Systems/rnas/5btp

>  <Rbt.Executable>
rbdock ($Id: //depot/dev/client3/rdock/2013.1/src/exe/rbdock.cxx#4 $)

>  <Rbt.Library>
libRbt.so (2013.1, Build901 2013/11/27)

>  <Rbt.Parameter_File>
/export/apps/rDock/src/rDock_2013.1_src/data/scripts/dock_solv.prm

>  <Rbt.Receptor>
prm/pocket_docking_3.prm

>  <SCORE>
-19.0815

>  <SCORE.INTER>
-18.3541

>  <SCORE.INTER.CONST>
1

>  <SCORE.INTER.POLAR>
0

>  <SCORE.INTER.ROT>
5

>  <SCORE.INTER.SOLV>
20.063

>  <SCORE.INTER.VDW>
-25.8571

>  <SCORE.INTER.norm>
-0.834278

>  <SCORE.INTRA>
-0.727388

>  <SCORE.INTRA.DIHEDRAL>
-1.42468

>  <SCORE.INTRA.DIHEDRAL.0>
4.21161

>  <SCORE.INTRA.POLAR>
0

>  <SCORE.INTRA.POLAR.0>
0

>  <SCORE.INTRA.REPUL>
0

>  <SCORE.INTRA.REPUL.0>
0

>  <SCORE.INTRA.SOLV>
0.895781

>  <SCORE.INTRA.SOLV.lig_0>
-41.4168

>  <SCORE.INTRA.VDW>
-0.46294

>  <SCORE.INTRA.VDW.0>
-1.62533

>  <SCORE.INTRA.norm>
-0.0330631

>  <SCORE.RESTR>
0

>  <SCORE.RESTR.CAVITY>
0

>  <SCORE.RESTR.norm>
0

>  <SCORE.SYSTEM>
0

>  <SCORE.SYSTEM.CONST>
0

>  <SCORE.SYSTEM.DIHEDRAL>
0

>  <SCORE.SYSTEM.SOLV>
0

>  <SCORE.SYSTEM.norm>
0

>  <SCORE.heavy>
22

>  <SCORE.norm>
-0.867341

>  <RMSD>
1.719

$$$$
lig.pdb
 OpenBabel11021811523D
libRbt.so/2013.1/901 2013/11/27
 22 23  0  0  0  0  0  0  0  0999 V2000
   13.0049  -59.6919  -36.7728 O   0  0  0  0  0  0  0  0  0  0  0  0
   13.7871  -59.1042  -37.5035 C   0  0  0  0  0  0  0  0  0  0  0  0
   13.3913  -58.5280  -38.6384 N   0  0  0  0  0  0  0  0  0  0  0  0
   15.2290  -59.0367  -37.1325 C   0  0  0  0  0  0  0  0  0  0  0  0
   16.2658  -58.3952  -37.9561 C   0  0  0  0  0  0  0  0  0  0  0  0
   16.0380  -57.7450  -39.2401 N   0  0  0  0  0  0  0  0  0  0  0  0
   15.9123  -59.4824  -36.0552 N   0  0  0  0  0  0  0  0  0  0  0  0
   17.2299  -59.1456  -36.2133 C   0  0  0  0  0  0  0  0  0  0  0  0
   17.4490  -58.4829  -37.3699 N   0  0  0  0  0  0  0  0  0  0  0  0
   18.7382  -57.9600  -37.8792 C   0  0  1  0  0  0  0  0  0  0  0  0
   19.2122  -56.7920  -37.0300 C   0  0  1  0  0  0  0  0  0  0  0  0
   20.7130  -56.9200  -37.0853 C   0  0  2  0  0  0  0  0  0  0  0  0
   21.2001  -56.2851  -38.2692 O   0  0  0  0  0  0  0  0  0  0  0  0
   18.8029  -55.5452  -37.5937 O   0  0  0  0  0  0  0  0  0  0  0  0
   19.7642  -58.9574  -37.8113 O   0  0  0  0  0  0  0  0  0  0  0  0
   20.9363  -58.4156  -37.1977 C   0  0  2  0  0  0  0  0  0  0  0  0
   21.1362  -59.0185  -35.8158 C   0  0  0  0  0  0  0  0  0  0  0  0
   22.2859  -58.4162  -35.2238 O   0  0  0  0  0  0  0  0  0  0  0  0
   23.7613  -58.6425  -35.8303 P   0  0  0  0  0  0  0  0  0  0  0  0
   23.7776  -57.8593  -37.1226 O   0  0  0  0  0  0  0  0  0  0  0  0
   23.8313  -60.1403  -36.0118 O   0  0  0  0  0  0  0  0  0  0  0  0
   24.6697  -58.0902  -34.7569 O   0  0  0  0  0  0  0  0  0  0  0  0
  1  2  2  0  0  0  0
  2  4  1  0  0  0  0
  2  3  1  0  0  0  0
  4  7  1  0  0  0  0
  5  9  1  0  0  0  0
  5  4  2  0  0  0  0
  6  5  1  0  0  0  0
  8  7  2  0  0  0  0
  9  8  1  0  0  0  0
 10 15  1  0  0  0  0
 10  9  1  1  0  0  0
 10 11  1  0  0  0  0
 11 14  1  6  0  0  0
 11 12  1  0  0  0  0
 12 13  1  6  0  0  0
 15 16  1  0  0  0  0
 16 12  1  0  0  0  0
 16 17  1  1  0  0  0
 17 18  1  0  0  0  0
 18 19  1  0  0  0  0
 19 21  1  0  0  0  0
 19 20  1  0  0  0  0
 22 19  2  0  0  0  0
M  END
>  <CHROM.1>
177.92733193,110.69763782,-60.66228601,-65.85378331,71.39782212,19.36611898
-58.30829259,-36.93587176,3.07156877,-0.16982238,-0.64056406

>  <Name>
lig.pdb

>  <RI>
0

>  <Rbt.Current_Directory>
/home/itssahil/PROJECTS/Mol_Feturizer/New_Systems/rnas/5btp

>  <Rbt.Executable>
rbdock ($Id: //depot/dev/client3/rdock/2013.1/src/exe/rbdock.cxx#4 $)

>  <Rbt.Library>
libRbt.so (2013.1, Build901 2013/11/27)

>  <Rbt.Parameter_File>
/export/apps/rDock/src/rDock_2013.1_src/data/scripts/dock_solv.prm

>  <Rbt.Receptor>
prm/pocket_docking_3.prm

>  <SCORE>
-19.0707

>  <SCORE.INTER>
-18.3615

>  <SCORE.INTER.CONST>
1

>  <SCORE.INTER.POLAR>
0

>  <SCORE.INTER.ROT>
5

>  <SCORE.INTER.SOLV>
20.0461

>  <SCORE.INTER.VDW>
-25.8564

>  <SCORE.INTER.norm>
-0.834616

>  <SCORE.INTRA>
-0.709151

>  <SCORE.INTRA.DIHEDRAL>
-1.39516

>  <SCORE.INTRA.DIHEDRAL.0>
4.21161

>  <SCORE.INTRA.POLAR>
0

>  <SCORE.INTRA.POLAR.0>
0

>  <SCORE.INTRA.REPUL>
0

>  <SCORE.INTRA.REPUL.0>
0

>  <SCORE.INTRA.SOLV>
0.919839

>  <SCORE.INTRA.SOLV.lig_0>
-41.4168

>  <SCORE.INTRA.VDW>
-0.471492

>  <SCORE.INTRA.VDW.0>
-1.62533

>  <SCORE.INTRA.norm>
-0.0322341

>  <SCORE.RESTR>
0

>  <SCORE.RESTR.CAVITY>
0

>  <SCORE.RESTR.norm>
0

>  <SCORE.SYSTEM>
0

>  <SCORE.SYSTEM.CONST>
0

>  <SCORE.SYSTEM.DIHEDRAL>
0

>  <SCORE.SYSTEM.SOLV>
0

>  <SCORE.SYSTEM.norm>
0

>  <SCORE.heavy>
22

>  <SCORE.norm>
-0.86685

>  <RMSD>
1.724

$$$$
lig.pdb
 OpenBabel11021811523D
libRbt.so/2013.1/901 2013/11/27
 22 23  0  0  0  0  0  0  0  0999 V2000
   13.0325  -59.7370  -36.7985 O   0  0  0  0  0  0  0  0  0  0  0  0
   13.8013  -59.1314  -37.5286 C   0  0  0  0  0  0  0  0  0  0  0  0
   13.3900  -58.5514  -38.6561 N   0  0  0  0  0  0  0  0  0  0  0  0
   15.2443  -59.0456  -37.1658 C   0  0  0  0  0  0  0  0  0  0  0  0
   16.2655  -58.3768  -37.9873 C   0  0  0  0  0  0  0  0  0  0  0  0
   16.0190  -57.7136  -39.2611 N   0  0  0  0  0  0  0  0  0  0  0  0
   15.9415  -59.4944  -36.0987 N   0  0  0  0  0  0  0  0  0  0  0  0
   17.2525  -59.1343  -36.2605 C   0  0  0  0  0  0  0  0  0  0  0  0
   17.4536  -58.4532  -37.4096 N   0  0  0  0  0  0  0  0  0  0  0  0
   18.7310  -57.9030  -37.9200 C   0  0  1  0  0  0  0  0  0  0  0  0
   19.1476  -56.6854  -37.1113 C   0  0  1  0  0  0  0  0  0  0  0  0
   20.6528  -56.7592  -37.1387 C   0  0  2  0  0  0  0  0  0  0  0  0
   21.1358  -56.1540  -38.3397 O   0  0  0  0  0  0  0  0  0  0  0  0
   18.7022  -55.4780  -37.7307 O   0  0  0  0  0  0  0  0  0  0  0  0
   19.7917  -58.8578  -37.7966 O   0  0  0  0  0  0  0  0  0  0  0  0
   20.9328  -58.2487  -37.1877 C   0  0  2  0  0  0  0  0  0  0  0  0
   21.1317  -58.7886  -35.7798 C   0  0  0  0  0  0  0  0  0  0  0  0
   22.2436  -58.1151  -35.1923 O   0  0  0  0  0  0  0  0  0  0  0  0
   23.7348  -58.2817  -35.7793 P   0  0  0  0  0  0  0  0  0  0  0  0
   23.7262  -57.5282  -37.0891 O   0  0  0  0  0  0  0  0  0  0  0  0
   23.8805  -59.7779  -35.9252 O   0  0  0  0  0  0  0  0  0  0  0  0
   24.6033  -57.6608  -34.7103 O   0  0  0  0  0  0  0  0  0  0  0  0
  1  2  2  0  0  0  0
  2  4  1  0  0  0  0
  2  3  1  0  0  0  0
  4  7  1  0  0  0  0
  5  9  1  0  0  0  0
  5  4  2  0  0  0  0
  6  5  1  0  0  0  0
  8  7  2  0  0  0  0
  9  8  1  0  0  0  0
 10 15  1  0  0  0  0
 10  9  1  1  0  0  0
 10 11  1  0  0  0  0
 11 14  1  6  0  0  0
 11 12  1  0  0  0  0
 12 13  1  6  0  0  0
 15 16  1  0  0  0  0
 16 12  1  0  0  0  0
 16 17  1  1  0  0  0
 17 18  1  0  0  0  0
 18 19  1  0  0  0  0
 19 21  1  0  0  0  0
 19 20  1  0  0  0  0
 22 19  2  0  0  0  0
M  END
>  <CHROM.1>
178.19221768,107.19048593,-60.32017594,-64.80646999,71.50014632,19.34992876
-58.16314629,-36.94736777,3.09187008,-0.19857070,-0.67305852

>  <Name>
lig.pdb

>  <RI>
0

>  <Rbt.Current_Directory>
/home/itssahil/PROJECTS/Mol_Feturizer/New_Systems/rnas/5btp

>  <Rbt.Executable>
rbdock ($Id: //depot/dev/client3/rdock/2013.1/src/exe/rbdock.cxx#4 $)

>  <Rbt.Library>
libRbt.so (2013.1, Build901 2013/11/27)

>  <Rbt.Parameter_File>
/export/apps/rDock/src/rDock_2013.1_src/data/scripts/dock_solv.prm

>  <Rbt.Receptor>
prm/pocket_docking_3.prm

>  <SCORE>
-18.9697

>  <SCORE.INTER>
-18.2893

>  <SCORE.INTER.CONST>
1

>  <SCORE.INTER.POLAR>
0

>  <SCORE.INTER.ROT>
5

>  <SCORE.INTER.SOLV>
19.9482

>  <SCORE.INTER.VDW>
-25.7756

>  <SCORE.INTER.norm>
-0.831332

>  <SCORE.INTRA>
-0.680399

>  <SCORE.INTRA.DIHEDRAL>
-1.4497

>  <SCORE.INTRA.DIHEDRAL.0>
4.21161

>  <SCORE.INTRA.POLAR>
0

>  <SCORE.INTRA.POLAR.0>
0

>  <SCORE.INTRA.REPUL>
0

>  <SCORE.INTRA.REPUL.0>
0

>  <SCORE.INTRA.SOLV>
0.995504

>  <SCORE.INTRA.SOLV.lig_0>
-41.4168

>  <SCORE.INTRA.VDW>
-0.453299

>  <SCORE.INTRA.VDW.0>
-1.62533

>  <SCORE.INTRA.norm>
-0.0309272

>  <SCORE.RESTR>
0

>  <SCORE.RESTR.CAVITY>
0

>  <SCORE.RESTR.norm>
0

>  <SCORE.SYSTEM>
0

>  <SCORE.SYSTEM.CONST>
0

>  <SCORE.SYSTEM.DIHEDRAL>
0

>  <SCORE.SYSTEM.SOLV>
0

>  <SCORE.SYSTEM.norm>
0

>  <SCORE.heavy>
22

>  <SCORE.norm>
-0.862259

>  <RMSD>
1.726

$$$$
lig.pdb
 OpenBabel11021811523D
libRbt.so/2013.1/901 2013/11/27
 22 23  0  0  0  0  0  0  0  0999 V2000
   13.4856  -58.6499  -38.6594 O   0  0  0  0  0  0  0  0  0  0  0  0
   13.8341  -59.1168  -37.5863 C   0  0  0  0  0  0  0  0  0  0  0  0
   12.9659  -59.6935  -36.7554 N   0  0  0  0  0  0  0  0  0  0  0  0
   15.2650  -59.0309  -37.1783 C   0  0  0  0  0  0  0  0  0  0  0  0
   16.3205  -58.4052  -37.9903 C   0  0  0  0  0  0  0  0  0  0  0  0
   16.1243  -57.7906  -39.2968 N   0  0  0  0  0  0  0  0  0  0  0  0
   15.9210  -59.4440  -36.0714 N   0  0  0  0  0  0  0  0  0  0  0  0
   17.2406  -59.1036  -36.2027 C   0  0  0  0  0  0  0  0  0  0  0  0
   17.4877  -58.4704  -37.3701 N   0  0  0  0  0  0  0  0  0  0  0  0
   18.7876  -57.9535  -37.8580 C   0  0  1  0  0  0  0  0  0  0  0  0
   19.3001  -56.8527  -36.9440 C   0  0  1  0  0  0  0  0  0  0  0  0
   20.7963  -57.0185  -37.0198 C   0  0  2  0  0  0  0  0  0  0  0  0
   21.2929  -56.3268  -38.1675 O   0  0  0  0  0  0  0  0  0  0  0  0
   18.9222  -55.5631  -37.4278 O   0  0  0  0  0  0  0  0  0  0  0  0
   19.7855  -58.9811  -37.8594 O   0  0  0  0  0  0  0  0  0  0  0  0
   20.9766  -58.5102  -37.2244 C   0  0  2  0  0  0  0  0  0  0  0  0
   21.1691  -59.2010  -35.8832 C   0  0  0  0  0  0  0  0  0  0  0  0
   21.3703  -60.5935  -36.1188 O   0  0  0  0  0  0  0  0  0  0  0  0
   21.5193  -61.6402  -34.9029 P   0  0  0  0  0  0  0  0  0  0  0  0
   20.1953  -61.5870  -34.1764 O   0  0  0  0  0  0  0  0  0  0  0  0
   22.6823  -61.0863  -34.1145 O   0  0  0  0  0  0  0  0  0  0  0  0
   21.7932  -62.9515  -35.6013 O   0  0  0  0  0  0  0  0  0  0  0  0
  1  2  2  0  0  0  0
  2  4  1  0  0  0  0
  2  3  1  0  0  0  0
  4  7  1  0  0  0  0
  5  9  1  0  0  0  0
  5  4  2  0  0  0  0
  6  5  1  0  0  0  0
  8  7  2  0  0  0  0
  9  8  1  0  0  0  0
 10 15  1  0  0  0  0
 10  9  1  1  0  0  0
 10 11  1  0  0  0  0
 11 14  1  6  0  0  0
 11 12  1  0  0  0  0
 12 13  1  6  0  0  0
 15 16  1  0  0  0  0
 16 12  1  0  0  0  0
 16 17  1  1  0  0  0
 17 18  1  0  0  0  0
 18 19  1  0  0  0  0
 19 21  1  0  0  0  0
 19 20  1  0  0  0  0
 22 19  2  0  0  0  0
M  END
>  <CHROM.1>
0.19777705,116.40705523,-178.48130801,-176.26582003,63.09681024,18.78206675
-59.17635375,-36.70505967,2.69453620,-0.14889609,-0.50664825

>  <Name>
lig.pdb

>  <RI>
0

>  <Rbt.Current_Directory>
/home/itssahil/PROJECTS/Mol_Feturizer/New_Systems/rnas/5btp

>  <Rbt.Executable>
rbdock ($Id: //depot/dev/client3/rdock/2013.1/src/exe/rbdock.cxx#4 $)

>  <Rbt.Library>
libRbt.so (2013.1, Build901 2013/11/27)

>  <Rbt.Parameter_File>
/export/apps/rDock/src/rDock_2013.1_src/data/scripts/dock_solv.prm

>  <Rbt.Receptor>
prm/pocket_docking_7.prm

>  <SCORE>
-20.4547

>  <SCORE.INTER>
-18.7912

>  <SCORE.INTER.CONST>
1

>  <SCORE.INTER.POLAR>
0

>  <SCORE.INTER.ROT>
5

>  <SCORE.INTER.SOLV>
21.1917

>  <SCORE.INTER.VDW>
-26.5247

>  <SCORE.INTER.norm>
-0.854148

>  <SCORE.INTRA>
-1.66345

>  <SCORE.INTRA.DIHEDRAL>
-1.69941

>  <SCORE.INTRA.DIHEDRAL.0>
4.21161

>  <SCORE.INTRA.POLAR>
0

>  <SCORE.INTRA.POLAR.0>
0

>  <SCORE.INTRA.REPUL>
0

>  <SCORE.INTRA.REPUL.0>
0

>  <SCORE.INTRA.SOLV>
-0.490053

>  <SCORE.INTRA.SOLV.lig_0>
-41.4168

>  <SCORE.INTRA.VDW>
-0.568718

>  <SCORE.INTRA.VDW.0>
-1.62533

>  <SCORE.INTRA.norm>
-0.0756114

>  <SCORE.RESTR>
0

>  <SCORE.RESTR.CAVITY>
0

>  <SCORE.RESTR.norm>
0

>  <SCORE.SYSTEM>
0

>  <SCORE.SYSTEM.CONST>
0

>  <SCORE.SYSTEM.DIHEDRAL>
0

>  <SCORE.SYSTEM.SOLV>
0

>  <SCORE.SYSTEM.norm>
0

>  <SCORE.heavy>
22

>  <SCORE.norm>
-0.929759

>  <RMSD>
1.746

$$$$
lig.pdb
 OpenBabel11021811523D
libRbt.so/2013.1/901 2013/11/27
 22 23  0  0  0  0  0  0  0  0999 V2000
   15.2064  -60.0238  -36.1034 O   0  0  0  0  0  0  0  0  0  0  0  0
   14.8195  -59.4447  -37.1063 C   0  0  0  0  0  0  0  0  0  0  0  0
   13.5754  -59.5859  -37.5636 N   0  0  0  0  0  0  0  0  0  0  0  0
   15.7610  -58.5653  -37.8556 C   0  0  0  0  0  0  0  0  0  0  0  0
   17.1409  -58.2801  -37.4322 C   0  0  0  0  0  0  0  0  0  0  0  0
   17.7785  -58.8051  -36.2317 N   0  0  0  0  0  0  0  0  0  0  0  0
   15.6342  -57.8708  -39.0079 N   0  0  0  0  0  0  0  0  0  0  0  0
   16.8182  -57.2291  -39.2546 C   0  0  0  0  0  0  0  0  0  0  0  0
   17.7385  -57.4763  -38.2971 N   0  0  0  0  0  0  0  0  0  0  0  0
   19.1259  -56.9616  -38.2256 C   0  0  1  0  0  0  0  0  0  0  0  0
   19.3234  -56.1352  -36.9654 C   0  0  1  0  0  0  0  0  0  0  0  0
   20.7668  -56.3910  -36.6151 C   0  0  2  0  0  0  0  0  0  0  0  0
   21.6006  -55.4987  -37.3572 O   0  0  0  0  0  0  0  0  0  0  0  0
   19.1176  -54.7455  -37.2227 O   0  0  0  0  0  0  0  0  0  0  0  0
   20.0732  -58.0344  -38.1632 O   0  0  0  0  0  0  0  0  0  0  0  0
   21.0026  -57.8080  -37.1008 C   0  0  2  0  0  0  0  0  0  0  0  0
   20.7614  -58.7944  -35.9685 C   0  0  0  0  0  0  0  0  0  0  0  0
   21.7838  -58.6153  -34.9899 O   0  0  0  0  0  0  0  0  0  0  0  0
   21.8644  -59.5454  -33.6767 P   0  0  0  0  0  0  0  0  0  0  0  0
   20.5896  -59.2610  -32.9168 O   0  0  0  0  0  0  0  0  0  0  0  0
   23.1182  -59.0594  -32.9890 O   0  0  0  0  0  0  0  0  0  0  0  0
   21.9523  -60.9434  -34.2427 O   0  0  0  0  0  0  0  0  0  0  0  0
  1  2  2  0  0  0  0
  2  4  1  0  0  0  0
  2  3  1  0  0  0  0
  4  7  1  0  0  0  0
  5  9  1  0  0  0  0
  5  4  2  0  0  0  0
  6  5  1  0  0  0  0
  8  7  2  0  0  0  0
  9  8  1  0  0  0  0
 10 15  1  0  0  0  0
 10  9  1  1  0  0  0
 10 11  1  0  0  0  0
 11 14  1  6  0  0  0
 11 12  1  0  0  0  0
 12 13  1  6  0  0  0
 15 16  1  0  0  0  0
 16 12  1  0  0  0  0
 16 17  1  1  0  0  0
 17 18  1  0  0  0  0
 18 19  1  0  0  0  0
 19 21  1  0  0  0  0
 19 20  1  0  0  0  0
 22 19  2  0  0  0  0
M  END
>  <CHROM.1>
-3.23009115,-60.85440105,-68.00687211,-177.50716900,-63.19844432,19.16253796
-58.22560677,-36.36904362,2.71520780,-0.35788836,-0.73851215

>  <Name>
lig.pdb

>  <RI>
0

>  <Rbt.Current_Directory>
/home/itssahil/PROJECTS/Mol_Feturizer/New_Systems/rnas/5btp

>  <Rbt.Executable>
rbdock ($Id: //depot/dev/client3/rdock/2013.1/src/exe/rbdock.cxx#4 $)

>  <Rbt.Library>
libRbt.so (2013.1, Build901 2013/11/27)

>  <Rbt.Parameter_File>
/export/apps/rDock/src/rDock_2013.1_src/data/scripts/dock_solv.prm

>  <Rbt.Receptor>
prm/pocket_docking_2.prm

>  <SCORE>
-15.5839

>  <SCORE.INTER>
-14.7156

>  <SCORE.INTER.CONST>
1

>  <SCORE.INTER.POLAR>
0

>  <SCORE.INTER.ROT>
5

>  <SCORE.INTER.SOLV>
17.8599

>  <SCORE.INTER.VDW>
-22.697

>  <SCORE.INTER.norm>
-0.668889

>  <SCORE.INTRA>
-0.869304

>  <SCORE.INTRA.DIHEDRAL>
-1.477

>  <SCORE.INTRA.DIHEDRAL.0>
4.21161

>  <SCORE.INTRA.POLAR>
0

>  <SCORE.INTRA.POLAR.0>
0

>  <SCORE.INTRA.REPUL>
0

>  <SCORE.INTRA.REPUL.0>
0

>  <SCORE.INTRA.SOLV>
1.20282

>  <SCORE.INTRA.SOLV.lig_0>
-41.4168

>  <SCORE.INTRA.VDW>
-0.732213

>  <SCORE.INTRA.VDW.0>
-1.62533

>  <SCORE.INTRA.norm>
-0.0395138

>  <SCORE.RESTR>
0.000916372

>  <SCORE.RESTR.CAVITY>
0.000916372

>  <SCORE.RESTR.norm>
4.16533e-05

>  <SCORE.SYSTEM>
0

>  <SCORE.SYSTEM.CONST>
0

>  <SCORE.SYSTEM.DIHEDRAL>
0

>  <SCORE.SYSTEM.SOLV>
0

>  <SCORE.SYSTEM.norm>
0

>  <SCORE.heavy>
22

>  <SCORE.norm>
-0.708361

>  <RMSD>
1.750

$$$$
lig.pdb
 OpenBabel11021811523D
libRbt.so/2013.1/901 2013/11/27
 22 23  0  0  0  0  0  0  0  0999 V2000
   13.1498  -58.9209  -38.0722 O   0  0  0  0  0  0  0  0  0  0  0  0
   14.2590  -59.0829  -37.5877 C   0  0  0  0  0  0  0  0  0  0  0  0
   14.4561  -59.8711  -36.5310 N   0  0  0  0  0  0  0  0  0  0  0  0
   15.4286  -58.3723  -38.1777 C   0  0  0  0  0  0  0  0  0  0  0  0
   16.7924  -58.4258  -37.6279 C   0  0  0  0  0  0  0  0  0  0  0  0
   17.1921  -59.1677  -36.4392 N   0  0  0  0  0  0  0  0  0  0  0  0
   15.5571  -57.5794  -39.2645 N   0  0  0  0  0  0  0  0  0  0  0  0
   16.8666  -57.1916  -39.3602 C   0  0  0  0  0  0  0  0  0  0  0  0
   17.6221  -57.7054  -38.3652 N   0  0  0  0  0  0  0  0  0  0  0  0
   19.0737  -57.5098  -38.1422 C   0  0  1  0  0  0  0  0  0  0  0  0
   19.3108  -56.5266  -37.0078 C   0  0  1  0  0  0  0  0  0  0  0  0
   20.5891  -57.0280  -36.3864 C   0  0  2  0  0  0  0  0  0  0  0  0
   21.7053  -56.5005  -37.1060 O   0  0  0  0  0  0  0  0  0  0  0  0
   19.4917  -55.1999  -37.5047 O   0  0  0  0  0  0  0  0  0  0  0  0
   19.7082  -58.7358  -37.7597 O   0  0  0  0  0  0  0  0  0  0  0  0
   20.5236  -58.5273  -36.6040 C   0  0  2  0  0  0  0  0  0  0  0  0
   19.9038  -59.2038  -35.3910 C   0  0  0  0  0  0  0  0  0  0  0  0
   20.7326  -58.9453  -34.2590 O   0  0  0  0  0  0  0  0  0  0  0  0
   22.1909  -59.6146  -34.1128 P   0  0  0  0  0  0  0  0  0  0  0  0
   22.6625  -59.2271  -32.7305 O   0  0  0  0  0  0  0  0  0  0  0  0
   22.9741  -58.9784  -35.2366 O   0  0  0  0  0  0  0  0  0  0  0  0
   21.9177  -61.0904  -34.2857 O   0  0  0  0  0  0  0  0  0  0  0  0
  1  2  2  0  0  0  0
  2  4  1  0  0  0  0
  2  3  1  0  0  0  0
  4  7  1  0  0  0  0
  5  9  1  0  0  0  0
  5  4  2  0  0  0  0
  6  5  1  0  0  0  0
  8  7  2  0  0  0  0
  9  8  1  0  0  0  0
 10 15  1  0  0  0  0
 10  9  1  1  0  0  0
 10 11  1  0  0  0  0
 11 14  1  6  0  0  0
 11 12  1  0  0  0  0
 12 13  1  6  0  0  0
 15 16  1  0  0  0  0
 16 12  1  0  0  0  0
 16 17  1  1  0  0  0
 17 18  1  0  0  0  0
 18 19  1  0  0  0  0
 19 21  1  0  0  0  0
 19 20  1  0  0  0  0
 22 19  2  0  0  0  0
M  END
>  <CHROM.1>
176.04107851,-76.29679312,-61.42543453,-70.00735230,-173.58374911,19.03601238
-58.41717457,-36.51837681,2.74053639,-0.30714527,-0.73224925

>  <Name>
lig.pdb

>  <RI>
0

>  <Rbt.Current_Directory>
/home/itssahil/PROJECTS/Mol_Feturizer/New_Systems/rnas/5btp

>  <Rbt.Executable>
rbdock ($Id: //depot/dev/client3/rdock/2013.1/src/exe/rbdock.cxx#4 $)

>  <Rbt.Library>
libRbt.so (2013.1, Build901 2013/11/27)

>  <Rbt.Parameter_File>
/export/apps/rDock/src/rDock_2013.1_src/data/scripts/dock_solv.prm

>  <Rbt.Receptor>
prm/pocket_docking_7.prm

>  <SCORE>
-15.0193

>  <SCORE.INTER>
-15.0604

>  <SCORE.INTER.CONST>
1

>  <SCORE.INTER.POLAR>
0

>  <SCORE.INTER.ROT>
5

>  <SCORE.INTER.SOLV>
17.4203

>  <SCORE.INTER.VDW>
-22.7803

>  <SCORE.INTER.norm>
-0.684562

>  <SCORE.INTRA>
0.0410782

>  <SCORE.INTRA.DIHEDRAL>
-1.18532

>  <SCORE.INTRA.DIHEDRAL.0>
4.21161

>  <SCORE.INTRA.POLAR>
0

>  <SCORE.INTRA.POLAR.0>
0

>  <SCORE.INTRA.REPUL>
0

>  <SCORE.INTRA.REPUL.0>
0

>  <SCORE.INTRA.SOLV>
2.4081

>  <SCORE.INTRA.SOLV.lig_0>
-41.4168

>  <SCORE.INTRA.VDW>
-0.570312

>  <SCORE.INTRA.VDW.0>
-1.62533

>  <SCORE.INTRA.norm>
0.00186719

>  <SCORE.RESTR>
0

>  <SCORE.RESTR.CAVITY>
0

>  <SCORE.RESTR.norm>
0

>  <SCORE.SYSTEM>
0

>  <SCORE.SYSTEM.CONST>
0

>  <SCORE.SYSTEM.DIHEDRAL>
0

>  <SCORE.SYSTEM.SOLV>
0

>  <SCORE.SYSTEM.norm>
0

>  <SCORE.heavy>
22

>  <SCORE.norm>
-0.682695

>  <RMSD>
1.751

$$$$
lig.pdb
 OpenBabel11021811523D
libRbt.so/2013.1/901 2013/11/27
 22 23  0  0  0  0  0  0  0  0999 V2000
   14.4616  -60.0791  -36.3502 O   0  0  0  0  0  0  0  0  0  0  0  0
   14.2397  -59.2194  -37.1884 C   0  0  0  0  0  0  0  0  0  0  0  0
   12.9985  -58.8541  -37.5092 N   0  0  0  0  0  0  0  0  0  0  0  0
   15.3809  -58.5651  -37.8888 C   0  0  0  0  0  0  0  0  0  0  0  0
   16.7553  -58.5179  -37.3655 C   0  0  0  0  0  0  0  0  0  0  0  0
   17.1942  -59.0922  -36.1003 N   0  0  0  0  0  0  0  0  0  0  0  0
   15.4705  -57.9158  -39.0706 N   0  0  0  0  0  0  0  0  0  0  0  0
   16.7683  -57.5151  -39.2427 C   0  0  0  0  0  0  0  0  0  0  0  0
   17.5539  -57.8803  -38.2062 N   0  0  0  0  0  0  0  0  0  0  0  0
   19.0040  -57.6262  -38.0406 C   0  0  1  0  0  0  0  0  0  0  0  0
   19.2408  -56.5598  -36.9839 C   0  0  1  0  0  0  0  0  0  0  0  0
   20.5513  -56.9782  -36.3679 C   0  0  2  0  0  0  0  0  0  0  0  0
   21.6297  -56.4686  -37.1550 O   0  0  0  0  0  0  0  0  0  0  0  0
   19.3654  -55.2660  -37.5758 O   0  0  0  0  0  0  0  0  0  0  0  0
   19.6879  -58.8029  -37.5939 O   0  0  0  0  0  0  0  0  0  0  0  0
   20.5278  -58.4902  -36.4801 C   0  0  2  0  0  0  0  0  0  0  0  0
   19.9639  -59.0990  -35.2056 C   0  0  0  0  0  0  0  0  0  0  0  0
   20.8248  -58.7528  -34.1220 O   0  0  0  0  0  0  0  0  0  0  0  0
   22.2486  -59.4773  -33.9133 P   0  0  0  0  0  0  0  0  0  0  0  0
   22.7455  -58.9854  -32.5737 O   0  0  0  0  0  0  0  0  0  0  0  0
   23.0573  -58.9897  -35.0921 O   0  0  0  0  0  0  0  0  0  0  0  0
   21.9017  -60.9473  -33.9463 O   0  0  0  0  0  0  0  0  0  0  0  0
  1  2  2  0  0  0  0
  2  4  1  0  0  0  0
  2  3  1  0  0  0  0
  4  7  1  0  0  0  0
  5  9  1  0  0  0  0
  5  4  2  0  0  0  0
  6  5  1  0  0  0  0
  8  7  2  0  0  0  0
  9  8  1  0  0  0  0
 10 15  1  0  0  0  0
 10  9  1  1  0  0  0
 10 11  1  0  0  0  0
 11 14  1  6  0  0  0
 11 12  1  0  0  0  0
 12 13  1  6  0  0  0
 15 16  1  0  0  0  0
 16 12  1  0  0  0  0
 16 17  1  1  0  0  0
 17 18  1  0  0  0  0
 18 19  1  0  0  0  0
 19 21  1  0  0  0  0
 19 20  1  0  0  0  0
 22 19  2  0  0  0  0
M  END
>  <CHROM.1>
-21.80823214,-72.82101816,-62.19504398,-75.39225995,-171.97371598,19.02571275
-58.43933947,-36.33080894,2.76282499,-0.29313774,-0.79151275

>  <Name>
lig.pdb

>  <RI>
0

>  <Rbt.Current_Directory>
/home/itssahil/PROJECTS/Mol_Feturizer/New_Systems/rnas/5btp

>  <Rbt.Executable>
rbdock ($Id: //depot/dev/client3/rdock/2013.1/src/exe/rbdock.cxx#4 $)

>  <Rbt.Library>
libRbt.so (2013.1, Build901 2013/11/27)

>  <Rbt.Parameter_File>
/export/apps/rDock/src/rDock_2013.1_src/data/scripts/dock_solv.prm

>  <Rbt.Receptor>
prm/pocket_docking_2.prm

>  <SCORE>
-14.339

>  <SCORE.INTER>
-15.0773

>  <SCORE.INTER.CONST>
1

>  <SCORE.INTER.POLAR>
0

>  <SCORE.INTER.ROT>
5

>  <SCORE.INTER.SOLV>
17.8064

>  <SCORE.INTER.VDW>
-22.9203

>  <SCORE.INTER.norm>
-0.685333

>  <SCORE.INTRA>
0.708034

>  <SCORE.INTRA.DIHEDRAL>
1.00316

>  <SCORE.INTRA.DIHEDRAL.0>
4.21161

>  <SCORE.INTRA.POLAR>
0

>  <SCORE.INTRA.POLAR.0>
0

>  <SCORE.INTRA.REPUL>
0

>  <SCORE.INTRA.REPUL.0>
0

>  <SCORE.INTRA.SOLV>
1.97234

>  <SCORE.INTRA.SOLV.lig_0>
-41.4168

>  <SCORE.INTRA.VDW>
-0.779717

>  <SCORE.INTRA.VDW.0>
-1.62533

>  <SCORE.INTRA.norm>
0.0321834

>  <SCORE.RESTR>
0.0302702

>  <SCORE.RESTR.CAVITY>
0.0302702

>  <SCORE.RESTR.norm>
0.00137592

>  <SCORE.SYSTEM>
0

>  <SCORE.SYSTEM.CONST>
0

>  <SCORE.SYSTEM.DIHEDRAL>
0

>  <SCORE.SYSTEM.SOLV>
0

>  <SCORE.SYSTEM.norm>
0

>  <SCORE.heavy>
22

>  <SCORE.norm>
-0.651774

>  <RMSD>
1.753

$$$$
lig.pdb
 OpenBabel11021811523D
libRbt.so/2013.1/901 2013/11/27
 22 23  0  0  0  0  0  0  0  0999 V2000
   13.0618  -59.7292  -36.9169 O   0  0  0  0  0  0  0  0  0  0  0  0
   13.8516  -59.1041  -37.6072 C   0  0  0  0  0  0  0  0  0  0  0  0
   13.4724  -58.4888  -38.7272 N   0  0  0  0  0  0  0  0  0  0  0  0
   15.2844  -59.0340  -37.2030 C   0  0  0  0  0  0  0  0  0  0  0  0
   16.3377  -58.3849  -37.9993 C   0  0  0  0  0  0  0  0  0  0  0  0
   16.1371  -57.7286  -39.2847 N   0  0  0  0  0  0  0  0  0  0  0  0
   15.9443  -59.4834  -36.1127 N   0  0  0  0  0  0  0  0  0  0  0  0
   17.2641  -59.1415  -36.2388 C   0  0  0  0  0  0  0  0  0  0  0  0
   17.5074  -58.4720  -37.3866 N   0  0  0  0  0  0  0  0  0  0  0  0
   18.8062  -57.9423  -37.8636 C   0  0  1  0  0  0  0  0  0  0  0  0
   19.0866  -56.5827  -37.2450 C   0  0  1  0  0  0  0  0  0  0  0  0
   20.5885  -56.5713  -37.1181 C   0  0  2  0  0  0  0  0  0  0  0  0
   21.1662  -56.1516  -38.3559 O   0  0  0  0  0  0  0  0  0  0  0  0
   18.6568  -55.5264  -38.1050 O   0  0  0  0  0  0  0  0  0  0  0  0
   19.8877  -58.7982  -37.4764 O   0  0  0  0  0  0  0  0  0  0  0  0
   20.9340  -58.0283  -36.8793 C   0  0  2  0  0  0  0  0  0  0  0  0
   21.0102  -58.3084  -35.3864 C   0  0  0  0  0  0  0  0  0  0  0  0
   21.4193  -59.6626  -35.2026 O   0  0  0  0  0  0  0  0  0  0  0  0
   22.8996  -60.1567  -35.6033 P   0  0  0  0  0  0  0  0  0  0  0  0
   22.9707  -60.0020  -37.1048 O   0  0  0  0  0  0  0  0  0  0  0  0
   22.9239  -61.5892  -35.1254 O   0  0  0  0  0  0  0  0  0  0  0  0
   23.8015  -59.2169  -34.8380 O   0  0  0  0  0  0  0  0  0  0  0  0
  1  2  2  0  0  0  0
  2  4  1  0  0  0  0
  2  3  1  0  0  0  0
  4  7  1  0  0  0  0
  5  9  1  0  0  0  0
  5  4  2  0  0  0  0
  6  5  1  0  0  0  0
  8  7  2  0  0  0  0
  9  8  1  0  0  0  0
 10 15  1  0  0  0  0
 10  9  1  1  0  0  0
 10 11  1  0  0  0  0
 11 14  1  6  0  0  0
 11 12  1  0  0  0  0
 12 13  1  6  0  0  0
 15 16  1  0  0  0  0
 16 12  1  0  0  0  0
 16 17  1  1  0  0  0
 17 18  1  0  0  0  0
 18 19  1  0  0  0  0
 19 21  1  0  0  0  0
 19 20  1  0  0  0  0
 22 19  2  0  0  0  0
M  END
>  <CHROM.1>
175.92874577,96.25363256,-176.36259155,67.73379946,-65.08270420,19.12533801
-58.65456216,-36.88948338,2.92312403,-0.15292392,-0.52797386

>  <Name>
lig.pdb

>  <RI>
0

>  <Rbt.Current_Directory>
/home/itssahil/PROJECTS/Mol_Feturizer/New_Systems/rnas/5btp

>  <Rbt.Executable>
rbdock ($Id: //depot/dev/client3/rdock/2013.1/src/exe/rbdock.cxx#4 $)

>  <Rbt.Library>
libRbt.so (2013.1, Build901 2013/11/27)

>  <Rbt.Parameter_File>
/export/apps/rDock/src/rDock_2013.1_src/data/scripts/dock_solv.prm

>  <Rbt.Receptor>
prm/pocket_docking_3.prm

>  <SCORE>
-18.8086

>  <SCORE.INTER>
-18.198

>  <SCORE.INTER.CONST>
1

>  <SCORE.INTER.POLAR>
0

>  <SCORE.INTER.ROT>
5

>  <SCORE.INTER.SOLV>
19.3459

>  <SCORE.INTER.VDW>
-25.514

>  <SCORE.INTER.norm>
-0.82718

>  <SCORE.INTRA>
-0.611101

>  <SCORE.INTRA.DIHEDRAL>
-1.35227

>  <SCORE.INTRA.DIHEDRAL.0>
4.21161

>  <SCORE.INTRA.POLAR>
0

>  <SCORE.INTRA.POLAR.0>
0

>  <SCORE.INTRA.REPUL>
0

>  <SCORE.INTRA.REPUL.0>
0

>  <SCORE.INTRA.SOLV>
1.18469

>  <SCORE.INTRA.SOLV.lig_0>
-41.4168

>  <SCORE.INTRA.VDW>
-0.52731

>  <SCORE.INTRA.VDW.0>
-1.62533

>  <SCORE.INTRA.norm>
-0.0277773

>  <SCORE.RESTR>
0.000483222

>  <SCORE.RESTR.CAVITY>
0.000483222

>  <SCORE.RESTR.norm>
2.19646e-05

>  <SCORE.SYSTEM>
0

>  <SCORE.SYSTEM.CONST>
0

>  <SCORE.SYSTEM.DIHEDRAL>
0

>  <SCORE.SYSTEM.SOLV>
0

>  <SCORE.SYSTEM.norm>
0

>  <SCORE.heavy>
22

>  <SCORE.norm>
-0.854935

>  <RMSD>
1.759

$$$$
lig.pdb
 OpenBabel11021811523D
libRbt.so/2013.1/901 2013/11/27
 22 23  0  0  0  0  0  0  0  0999 V2000
   15.1310  -59.9840  -36.1210 O   0  0  0  0  0  0  0  0  0  0  0  0
   14.7626  -59.3952  -37.1253 C   0  0  0  0  0  0  0  0  0  0  0  0
   13.5194  -59.5110  -37.5919 N   0  0  0  0  0  0  0  0  0  0  0  0
   15.7266  -58.5328  -37.8657 C   0  0  0  0  0  0  0  0  0  0  0  0
   17.1106  -58.2802  -37.4348 C   0  0  0  0  0  0  0  0  0  0  0  0
   17.7310  -58.8255  -36.2344 N   0  0  0  0  0  0  0  0  0  0  0  0
   15.6203  -57.8296  -39.0148 N   0  0  0  0  0  0  0  0  0  0  0  0
   16.8192  -57.2128  -39.2529 C   0  0  0  0  0  0  0  0  0  0  0  0
   17.7295  -57.4852  -38.2927 N   0  0  0  0  0  0  0  0  0  0  0  0
   19.1276  -57.0016  -38.2123 C   0  0  1  0  0  0  0  0  0  0  0  0
   19.3367  -56.1840  -36.9483 C   0  0  1  0  0  0  0  0  0  0  0  0
   20.7724  -56.4728  -36.5916 C   0  0  2  0  0  0  0  0  0  0  0  0
   21.6294  -55.5966  -37.3263 O   0  0  0  0  0  0  0  0  0  0  0  0
   19.1630  -54.7892  -37.2018 O   0  0  0  0  0  0  0  0  0  0  0  0
   20.0506  -58.0952  -38.1490 O   0  0  0  0  0  0  0  0  0  0  0  0
   20.9793  -57.8930  -37.0810 C   0  0  2  0  0  0  0  0  0  0  0  0
   20.7105  -58.8776  -35.9534 C   0  0  0  0  0  0  0  0  0  0  0  0
   21.7775  -58.7851  -35.0110 O   0  0  0  0  0  0  0  0  0  0  0  0
   21.8138  -59.7033  -33.6876 P   0  0  0  0  0  0  0  0  0  0  0  0
   20.5673  -59.3310  -32.9187 O   0  0  0  0  0  0  0  0  0  0  0  0
   23.1027  -59.2889  -33.0181 O   0  0  0  0  0  0  0  0  0  0  0  0
   21.8082  -61.1104  -34.2374 O   0  0  0  0  0  0  0  0  0  0  0  0
  1  2  2  0  0  0  0
  2  4  1  0  0  0  0
  2  3  1  0  0  0  0
  4  7  1  0  0  0  0
  5  9  1  0  0  0  0
  5  4  2  0  0  0  0
  6  5  1  0  0  0  0
  8  7  2  0  0  0  0
  9  8  1  0  0  0  0
 10 15  1  0  0  0  0
 10  9  1  1  0  0  0
 10 11  1  0  0  0  0
 11 14  1  6  0  0  0
 11 12  1  0  0  0  0
 12 13  1  6  0  0  0
 15 16  1  0  0  0  0
 16 12  1  0  0  0  0
 16 17  1  1  0  0  0
 17 18  1  0  0  0  0
 18 19  1  0  0  0  0
 19 21  1  0  0  0  0
 19 20  1  0  0  0  0
 22 19  2  0  0  0  0
M  END
>  <CHROM.1>
-2.95900426,-60.97041688,-71.68244471,-179.64682370,-60.93539633,19.13549184
-58.28543628,-36.36894346,2.69557718,-0.34368080,-0.73167409

>  <Name>
lig.pdb

>  <RI>
0

>  <Rbt.Current_Directory>
/home/itssahil/PROJECTS/Mol_Feturizer/New_Systems/rnas/5btp

>  <Rbt.Executable>
rbdock ($Id: //depot/dev/client3/rdock/2013.1/src/exe/rbdock.cxx#4 $)

>  <Rbt.Library>
libRbt.so (2013.1, Build901 2013/11/27)

>  <Rbt.Parameter_File>
/export/apps/rDock/src/rDock_2013.1_src/data/scripts/dock_solv.prm

>  <Rbt.Receptor>
prm/pocket_docking_3.prm

>  <SCORE>
-15.5805

>  <SCORE.INTER>
-14.7661

>  <SCORE.INTER.CONST>
1

>  <SCORE.INTER.POLAR>
0

>  <SCORE.INTER.ROT>
5

>  <SCORE.INTER.SOLV>
17.839

>  <SCORE.INTER.VDW>
-22.7237

>  <SCORE.INTER.norm>
-0.671185

>  <SCORE.INTRA>
-0.814427

>  <SCORE.INTRA.DIHEDRAL>
-1.2765

>  <SCORE.INTRA.DIHEDRAL.0>
4.21161

>  <SCORE.INTRA.POLAR>
0

>  <SCORE.INTRA.POLAR.0>
0

>  <SCORE.INTRA.REPUL>
0

>  <SCORE.INTRA.REPUL.0>
0

>  <SCORE.INTRA.SOLV>
1.17754

>  <SCORE.INTRA.SOLV.lig_0>
-41.4168

>  <SCORE.INTRA.VDW>
-0.764945

>  <SCORE.INTRA.VDW.0>
-1.62533

>  <SCORE.INTRA.norm>
-0.0370194

>  <SCORE.RESTR>
0

>  <SCORE.RESTR.CAVITY>
0

>  <SCORE.RESTR.norm>
0

>  <SCORE.SYSTEM>
0

>  <SCORE.SYSTEM.CONST>
0

>  <SCORE.SYSTEM.DIHEDRAL>
0

>  <SCORE.SYSTEM.SOLV>
0

>  <SCORE.SYSTEM.norm>
0

>  <SCORE.heavy>
22

>  <SCORE.norm>
-0.708205

>  <RMSD>
1.766

$$$$
lig.pdb
 OpenBabel11021811523D
libRbt.so/2013.1/901 2013/11/27
 22 23  0  0  0  0  0  0  0  0999 V2000
   14.2218  -59.1261  -35.9646 O   0  0  0  0  0  0  0  0  0  0  0  0
   14.2717  -59.2710  -37.1760 C   0  0  0  0  0  0  0  0  0  0  0  0
   13.3186  -59.9183  -37.8464 N   0  0  0  0  0  0  0  0  0  0  0  0
   15.4339  -58.7258  -37.9333 C   0  0  0  0  0  0  0  0  0  0  0  0
   16.7755  -58.5305  -37.3617 C   0  0  0  0  0  0  0  0  0  0  0  0
   17.1575  -58.8330  -35.9884 N   0  0  0  0  0  0  0  0  0  0  0  0
   15.5730  -58.3153  -39.2133 N   0  0  0  0  0  0  0  0  0  0  0  0
   16.8682  -57.9109  -39.3957 C   0  0  0  0  0  0  0  0  0  0  0  0
   17.6038  -58.0408  -38.2701 N   0  0  0  0  0  0  0  0  0  0  0  0
   19.0359  -57.7094  -38.0856 C   0  0  1  0  0  0  0  0  0  0  0  0
   19.1993  -56.6114  -37.0475 C   0  0  1  0  0  0  0  0  0  0  0  0
   20.5182  -56.9496  -36.4012 C   0  0  2  0  0  0  0  0  0  0  0  0
   21.5831  -56.4012  -37.1806 O   0  0  0  0  0  0  0  0  0  0  0  0
   19.2683  -55.3250  -37.6641 O   0  0  0  0  0  0  0  0  0  0  0  0
   19.7708  -58.8404  -37.6032 O   0  0  0  0  0  0  0  0  0  0  0  0
   20.5738  -58.4628  -36.4822 C   0  0  2  0  0  0  0  0  0  0  0  0
   20.0191  -59.0742  -35.2049 C   0  0  0  0  0  0  0  0  0  0  0  0
   20.8585  -58.6863  -34.1186 O   0  0  0  0  0  0  0  0  0  0  0  0
   22.2821  -59.3951  -33.8599 P   0  0  0  0  0  0  0  0  0  0  0  0
   21.9754  -60.8728  -33.7836 O   0  0  0  0  0  0  0  0  0  0  0  0
   22.7353  -58.7873  -32.5537 O   0  0  0  0  0  0  0  0  0  0  0  0
   23.0986  -58.9909  -35.0650 O   0  0  0  0  0  0  0  0  0  0  0  0
  1  2  2  0  0  0  0
  2  4  1  0  0  0  0
  2  3  1  0  0  0  0
  4  7  1  0  0  0  0
  5  9  1  0  0  0  0
  5  4  2  0  0  0  0
  6  5  1  0  0  0  0
  8  7  2  0  0  0  0
  9  8  1  0  0  0  0
 10 15  1  0  0  0  0
 10  9  1  1  0  0  0
 10 11  1  0  0  0  0
 11 14  1  6  0  0  0
 11 12  1  0  0  0  0
 12 13  1  6  0  0  0
 15 16  1  0  0  0  0
 16 12  1  0  0  0  0
 16 17  1  1  0  0  0
 17 18  1  0  0  0  0
 18 19  1  0  0  0  0
 19 21  1  0  0  0  0
 19 20  1  0  0  0  0
 22 19  2  0  0  0  0
M  END
>  <CHROM.1>
27.07962191,-62.47858006,-63.42969190,-77.47069001,-54.16473247,19.04971983
-58.45424087,-36.33378046,2.75754129,-0.30162631,-0.85647258

>  <Name>
lig.pdb

>  <RI>
0

>  <Rbt.Current_Directory>
/home/itssahil/PROJECTS/Mol_Feturizer/New_Systems/rnas/5btp

>  <Rbt.Executable>
rbdock ($Id: //depot/dev/client3/rdock/2013.1/src/exe/rbdock.cxx#4 $)

>  <Rbt.Library>
libRbt.so (2013.1, Build901 2013/11/27)

>  <Rbt.Parameter_File>
/export/apps/rDock/src/rDock_2013.1_src/data/scripts/dock_solv.prm

>  <Rbt.Receptor>
prm/pocket_docking_2.prm

>  <SCORE>
-13.6099

>  <SCORE.INTER>
-14.831

>  <SCORE.INTER.CONST>
1

>  <SCORE.INTER.POLAR>
0

>  <SCORE.INTER.ROT>
5

>  <SCORE.INTER.SOLV>
18.2453

>  <SCORE.INTER.VDW>
-22.9024

>  <SCORE.INTER.norm>
-0.674138

>  <SCORE.INTRA>
1.22112

>  <SCORE.INTRA.DIHEDRAL>
2.07677

>  <SCORE.INTRA.DIHEDRAL.0>
4.21161

>  <SCORE.INTRA.POLAR>
0

>  <SCORE.INTRA.POLAR.0>
0

>  <SCORE.INTRA.REPUL>
0

>  <SCORE.INTRA.REPUL.0>
0

>  <SCORE.INTRA.SOLV>
2.3462

>  <SCORE.INTRA.SOLV.lig_0>
-41.4168

>  <SCORE.INTRA.VDW>
-0.990371

>  <SCORE.INTRA.VDW.0>
-1.62533

>  <SCORE.INTRA.norm>
0.0555053

>  <SCORE.RESTR>
0

>  <SCORE.RESTR.CAVITY>
0

>  <SCORE.RESTR.norm>
0

>  <SCORE.SYSTEM>
0

>  <SCORE.SYSTEM.CONST>
0

>  <SCORE.SYSTEM.DIHEDRAL>
0

>  <SCORE.SYSTEM.SOLV>
0

>  <SCORE.SYSTEM.norm>
0

>  <SCORE.heavy>
22

>  <SCORE.norm>
-0.618633

>  <RMSD>
1.776

$$$$
lig.pdb
 OpenBabel11021811523D
libRbt.so/2013.1/901 2013/11/27
 22 23  0  0  0  0  0  0  0  0999 V2000
   14.3914  -60.1669  -36.3416 O   0  0  0  0  0  0  0  0  0  0  0  0
   14.1437  -59.2456  -37.1037 C   0  0  0  0  0  0  0  0  0  0  0  0
   12.9006  -58.8018  -37.2894 N   0  0  0  0  0  0  0  0  0  0  0  0
   15.2532  -58.6030  -37.8636 C   0  0  0  0  0  0  0  0  0  0  0  0
   16.6645  -58.6305  -37.4487 C   0  0  0  0  0  0  0  0  0  0  0  0
   17.1761  -59.2775  -36.2474 N   0  0  0  0  0  0  0  0  0  0  0  0
   15.2775  -57.9046  -39.0203 N   0  0  0  0  0  0  0  0  0  0  0  0
   16.5734  -57.5448  -39.2770 C   0  0  0  0  0  0  0  0  0  0  0  0
   17.4211  -57.9855  -38.3220 N   0  0  0  0  0  0  0  0  0  0  0  0
   18.8888  -57.7931  -38.2606 C   0  0  1  0  0  0  0  0  0  0  0  0
   19.2355  -56.6254  -37.3517 C   0  0  1  0  0  0  0  0  0  0  0  0
   20.5568  -57.0398  -36.7566 C   0  0  2  0  0  0  0  0  0  0  0  0
   21.6127  -56.6848  -37.6518 O   0  0  0  0  0  0  0  0  0  0  0  0
   19.3888  -55.4180  -38.0992 O   0  0  0  0  0  0  0  0  0  0  0  0
   19.5392  -58.9453  -37.7116 O   0  0  0  0  0  0  0  0  0  0  0  0
   20.4544  -58.5511  -36.6865 C   0  0  2  0  0  0  0  0  0  0  0  0
   19.9342  -58.9757  -35.3219 C   0  0  0  0  0  0  0  0  0  0  0  0
   20.8775  -58.5664  -34.3331 O   0  0  0  0  0  0  0  0  0  0  0  0
   22.3259  -59.2618  -34.2123 P   0  0  0  0  0  0  0  0  0  0  0  0
   22.9475  -58.6587  -32.9740 O   0  0  0  0  0  0  0  0  0  0  0  0
   23.0044  -58.8666  -35.5025 O   0  0  0  0  0  0  0  0  0  0  0  0
   21.9995  -60.7319  -34.0914 O   0  0  0  0  0  0  0  0  0  0  0  0
  1  2  2  0  0  0  0
  2  4  1  0  0  0  0
  2  3  1  0  0  0  0
  4  7  1  0  0  0  0
  5  9  1  0  0  0  0
  5  4  2  0  0  0  0
  6  5  1  0  0  0  0
  8  7  2  0  0  0  0
  9  8  1  0  0  0  0
 10 15  1  0  0  0  0
 10  9  1  1  0  0  0
 10 11  1  0  0  0  0
 11 14  1  6  0  0  0
 11 12  1  0  0  0  0
 12 13  1  6  0  0  0
 15 16  1  0  0  0  0
 16 12  1  0  0  0  0
 16 17  1  1  0  0  0
 17 18  1  0  0  0  0
 18 19  1  0  0  0  0
 19 21  1  0  0  0  0
 19 20  1  0  0  0  0
 22 19  2  0  0  0  0
M  END
>  <CHROM.1>
-23.17903745,-82.24259256,-62.84459317,-69.40306397,-174.11378997,18.99062956
-58.43285052,-36.52179506,2.80595881,-0.25479134,-0.85389254

>  <Name>
lig.pdb

>  <RI>
0

>  <Rbt.Current_Directory>
/home/itssahil/PROJECTS/Mol_Feturizer/New_Systems/rnas/5btp

>  <Rbt.Executable>
rbdock ($Id: //depot/dev/client3/rdock/2013.1/src/exe/rbdock.cxx#4 $)

>  <Rbt.Library>
libRbt.so (2013.1, Build901 2013/11/27)

>  <Rbt.Parameter_File>
/export/apps/rDock/src/rDock_2013.1_src/data/scripts/dock_solv.prm

>  <Rbt.Receptor>
prm/pocket_docking_5.prm

>  <SCORE>
-15.0946

>  <SCORE.INTER>
-15.7901

>  <SCORE.INTER.CONST>
1

>  <SCORE.INTER.POLAR>
0

>  <SCORE.INTER.ROT>
5

>  <SCORE.INTER.SOLV>
19.4988

>  <SCORE.INTER.VDW>
-23.9597

>  <SCORE.INTER.norm>
-0.71773

>  <SCORE.INTRA>
0.695501

>  <SCORE.INTRA.DIHEDRAL>
0.477641

>  <SCORE.INTRA.DIHEDRAL.0>
4.21161

>  <SCORE.INTRA.POLAR>
0

>  <SCORE.INTRA.POLAR.0>
0

>  <SCORE.INTRA.REPUL>
0

>  <SCORE.INTRA.REPUL.0>
0

>  <SCORE.INTRA.SOLV>
2.10632

>  <SCORE.INTRA.SOLV.lig_0>
-41.4168

>  <SCORE.INTRA.VDW>
-0.596478

>  <SCORE.INTRA.VDW.0>
-1.62533

>  <SCORE.INTRA.norm>
0.0316137

>  <SCORE.RESTR>
0

>  <SCORE.RESTR.CAVITY>
0

>  <SCORE.RESTR.norm>
0

>  <SCORE.SYSTEM>
0

>  <SCORE.SYSTEM.CONST>
0

>  <SCORE.SYSTEM.DIHEDRAL>
0

>  <SCORE.SYSTEM.SOLV>
0

>  <SCORE.SYSTEM.norm>
0

>  <SCORE.heavy>
22

>  <SCORE.norm>
-0.686116

>  <RMSD>
1.789

$$$$
lig.pdb
 OpenBabel11021811523D
libRbt.so/2013.1/901 2013/11/27
 22 23  0  0  0  0  0  0  0  0999 V2000
   12.8157  -58.6896  -37.4847 O   0  0  0  0  0  0  0  0  0  0  0  0
   13.9536  -59.0982  -37.3136 C   0  0  0  0  0  0  0  0  0  0  0  0
   14.2213  -60.1046  -36.4815 N   0  0  0  0  0  0  0  0  0  0  0  0
   15.0831  -58.4506  -38.0388 C   0  0  0  0  0  0  0  0  0  0  0  0
   16.4893  -58.5208  -37.6114 C   0  0  0  0  0  0  0  0  0  0  0  0
   16.9757  -59.2207  -36.4296 N   0  0  0  0  0  0  0  0  0  0  0  0
   15.1330  -57.7114  -39.1690 N   0  0  0  0  0  0  0  0  0  0  0  0
   16.4382  -57.3682  -39.3999 C   0  0  0  0  0  0  0  0  0  0  0  0
   17.2672  -57.8597  -38.4534 N   0  0  0  0  0  0  0  0  0  0  0  0
   18.7376  -57.6986  -38.3708 C   0  0  1  0  0  0  0  0  0  0  0  0
   19.0939  -56.4763  -37.5407 C   0  0  1  0  0  0  0  0  0  0  0  0
   20.3906  -56.8778  -36.8855 C   0  0  2  0  0  0  0  0  0  0  0  0
   21.4748  -56.6144  -37.7784 O   0  0  0  0  0  0  0  0  0  0  0  0
   19.2947  -55.3307  -38.3696 O   0  0  0  0  0  0  0  0  0  0  0  0
   19.3459  -58.8229  -37.7243 O   0  0  0  0  0  0  0  0  0  0  0  0
   20.2478  -58.3770  -36.7087 C   0  0  2  0  0  0  0  0  0  0  0  0
   19.6867  -58.6884  -35.3298 C   0  0  0  0  0  0  0  0  0  0  0  0
   20.5853  -58.1703  -34.3505 O   0  0  0  0  0  0  0  0  0  0  0  0
   22.0441  -58.8149  -34.1217 P   0  0  0  0  0  0  0  0  0  0  0  0
   22.6050  -58.0960  -32.9166 O   0  0  0  0  0  0  0  0  0  0  0  0
   22.7607  -58.5090  -35.4156 O   0  0  0  0  0  0  0  0  0  0  0  0
   21.7481  -60.2782  -33.8908 O   0  0  0  0  0  0  0  0  0  0  0  0
  1  2  2  0  0  0  0
  2  4  1  0  0  0  0
  2  3  1  0  0  0  0
  4  7  1  0  0  0  0
  5  9  1  0  0  0  0
  5  4  2  0  0  0  0
  6  5  1  0  0  0  0
  8  7  2  0  0  0  0
  9  8  1  0  0  0  0
 10 15  1  0  0  0  0
 10  9  1  1  0  0  0
 10 11  1  0  0  0  0
 11 14  1  6  0  0  0
 11 12  1  0  0  0  0
 12 13  1  6  0  0  0
 15 16  1  0  0  0  0
 16 12  1  0  0  0  0
 16 17  1  1  0  0  0
 17 18  1  0  0  0  0
 18 19  1  0  0  0  0
 19 21  1  0  0  0  0
 19 20  1  0  0  0  0
 22 19  2  0  0  0  0
M  END
>  <CHROM.1>
158.65342051,-88.53868302,-59.93461497,-69.12179698,-173.79575521,18.78577203
-58.20238162,-36.60088373,2.78696057,-0.28038600,-0.92349253

>  <Name>
lig.pdb

>  <RI>
0

>  <Rbt.Current_Directory>
/home/itssahil/PROJECTS/Mol_Feturizer/New_Systems/rnas/5btp

>  <Rbt.Executable>
rbdock ($Id: //depot/dev/client3/rdock/2013.1/src/exe/rbdock.cxx#4 $)

>  <Rbt.Library>
libRbt.so (2013.1, Build901 2013/11/27)

>  <Rbt.Parameter_File>
/export/apps/rDock/src/rDock_2013.1_src/data/scripts/dock_solv.prm

>  <Rbt.Receptor>
prm/pocket_docking_5.prm

>  <SCORE>
-15.169

>  <SCORE.INTER>
-15.8896

>  <SCORE.INTER.CONST>
1

>  <SCORE.INTER.POLAR>
0

>  <SCORE.INTER.ROT>
5

>  <SCORE.INTER.SOLV>
20.2657

>  <SCORE.INTER.VDW>
-24.2816

>  <SCORE.INTER.norm>
-0.722254

>  <SCORE.INTRA>
0.720566

>  <SCORE.INTRA.DIHEDRAL>
0.171828

>  <SCORE.INTRA.DIHEDRAL.0>
4.21161

>  <SCORE.INTRA.POLAR>
0

>  <SCORE.INTRA.POLAR.0>
0

>  <SCORE.INTRA.REPUL>
0

>  <SCORE.INTRA.REPUL.0>
0

>  <SCORE.INTRA.SOLV>
2.3531

>  <SCORE.INTRA.SOLV.lig_0>
-41.4168

>  <SCORE.INTRA.VDW>
-0.541895

>  <SCORE.INTRA.VDW.0>
-1.62533

>  <SCORE.INTRA.norm>
0.032753

>  <SCORE.RESTR>
0

>  <SCORE.RESTR.CAVITY>
0

>  <SCORE.RESTR.norm>
0

>  <SCORE.SYSTEM>
0

>  <SCORE.SYSTEM.CONST>
0

>  <SCORE.SYSTEM.DIHEDRAL>
0

>  <SCORE.SYSTEM.SOLV>
0

>  <SCORE.SYSTEM.norm>
0

>  <SCORE.heavy>
22

>  <SCORE.norm>
-0.689501

>  <RMSD>
1.793

$$$$
lig.pdb
 OpenBabel11021811523D
libRbt.so/2013.1/901 2013/11/27
 22 23  0  0  0  0  0  0  0  0999 V2000
   13.2104  -59.1574  -38.1937 O   0  0  0  0  0  0  0  0  0  0  0  0
   14.2959  -59.1892  -37.6353 C   0  0  0  0  0  0  0  0  0  0  0  0
   14.4886  -59.8811  -36.5124 N   0  0  0  0  0  0  0  0  0  0  0  0
   15.4392  -58.4243  -38.2088 C   0  0  0  0  0  0  0  0  0  0  0  0
   16.7868  -58.3851  -37.6195 C   0  0  0  0  0  0  0  0  0  0  0  0
   17.1936  -59.0754  -36.4025 N   0  0  0  0  0  0  0  0  0  0  0  0
   15.5534  -57.6498  -39.3103 N   0  0  0  0  0  0  0  0  0  0  0  0
   16.8404  -57.1877  -39.3783 C   0  0  0  0  0  0  0  0  0  0  0  0
   17.5947  -57.6337  -38.3502 N   0  0  0  0  0  0  0  0  0  0  0  0
   19.0252  -57.3481  -38.0910 C   0  0  1  0  0  0  0  0  0  0  0  0
   19.1695  -56.2792  -37.0203 C   0  0  1  0  0  0  0  0  0  0  0  0
   20.4465  -56.6700  -36.3213 C   0  0  2  0  0  0  0  0  0  0  0  0
   21.5619  -56.1349  -37.0366 O   0  0  0  0  0  0  0  0  0  0  0  0
   19.3034  -54.9816  -37.6018 O   0  0  0  0  0  0  0  0  0  0  0  0
   19.7047  -58.5105  -37.6021 O   0  0  0  0  0  0  0  0  0  0  0  0
   20.4638  -58.1819  -36.4361 C   0  0  2  0  0  0  0  0  0  0  0  0
   19.8323  -58.8060  -35.2012 C   0  0  0  0  0  0  0  0  0  0  0  0
   20.4997  -58.2963  -34.0479 O   0  0  0  0  0  0  0  0  0  0  0  0
   22.0240  -58.6957  -33.7120 P   0  0  0  0  0  0  0  0  0  0  0  0
   22.8652  -57.8206  -34.6120 O   0  0  0  0  0  0  0  0  0  0  0  0
   22.0758  -60.1664  -34.0520 O   0  0  0  0  0  0  0  0  0  0  0  0
   22.1526  -58.3797  -32.2403 O   0  0  0  0  0  0  0  0  0  0  0  0
  1  2  2  0  0  0  0
  2  4  1  0  0  0  0
  2  3  1  0  0  0  0
  4  7  1  0  0  0  0
  5  9  1  0  0  0  0
  5  4  2  0  0  0  0
  6  5  1  0  0  0  0
  8  7  2  0  0  0  0
  9  8  1  0  0  0  0
 10 15  1  0  0  0  0
 10  9  1  1  0  0  0
 10 11  1  0  0  0  0
 11 14  1  6  0  0  0
 11 12  1  0  0  0  0
 12 13  1  6  0  0  0
 15 16  1  0  0  0  0
 16 12  1  0  0  0  0
 16 17  1  1  0  0  0
 17 18  1  0  0  0  0
 18 19  1  0  0  0  0
 19 21  1  0  0  0  0
 19 20  1  0  0  0  0
 22 19  2  0  0  0  0
M  END
>  <CHROM.1>
179.73139545,-78.98126217,-54.28768816,-69.24418160,79.54155538,18.95553666
-58.06960621,-36.38825718,2.75939824,-0.39546947,-0.83786883

>  <Name>
lig.pdb

>  <RI>
0

>  <Rbt.Current_Directory>
/home/itssahil/PROJECTS/Mol_Feturizer/New_Systems/rnas/5btp

>  <Rbt.Executable>
rbdock ($Id: //depot/dev/client3/rdock/2013.1/src/exe/rbdock.cxx#4 $)

>  <Rbt.Library>
libRbt.so (2013.1, Build901 2013/11/27)

>  <Rbt.Parameter_File>
/export/apps/rDock/src/rDock_2013.1_src/data/scripts/dock_solv.prm

>  <Rbt.Receptor>
prm/pocket_docking_2.prm

>  <SCORE>
-14.7146

>  <SCORE.INTER>
-14.9178

>  <SCORE.INTER.CONST>
1

>  <SCORE.INTER.POLAR>
0

>  <SCORE.INTER.ROT>
5

>  <SCORE.INTER.SOLV>
17.9927

>  <SCORE.INTER.VDW>
-22.8761

>  <SCORE.INTER.norm>
-0.678082

>  <SCORE.INTRA>
0.20301

>  <SCORE.INTRA.DIHEDRAL>
-0.695729

>  <SCORE.INTRA.DIHEDRAL.0>
4.21161

>  <SCORE.INTRA.POLAR>
0

>  <SCORE.INTRA.POLAR.0>
0

>  <SCORE.INTRA.REPUL>
0

>  <SCORE.INTRA.REPUL.0>
0

>  <SCORE.INTRA.SOLV>
2.18494

>  <SCORE.INTRA.SOLV.lig_0>
-41.4168

>  <SCORE.INTRA.VDW>
-0.541598

>  <SCORE.INTRA.VDW.0>
-1.62533

>  <SCORE.INTRA.norm>
0.00922772

>  <SCORE.RESTR>
0.000183583

>  <SCORE.RESTR.CAVITY>
0.000183583

>  <SCORE.RESTR.norm>
8.34469e-06

>  <SCORE.SYSTEM>
0

>  <SCORE.SYSTEM.CONST>
0

>  <SCORE.SYSTEM.DIHEDRAL>
0

>  <SCORE.SYSTEM.SOLV>
0

>  <SCORE.SYSTEM.norm>
0

>  <SCORE.heavy>
22

>  <SCORE.norm>
-0.668846

>  <RMSD>
1.795

$$$$
lig.pdb
 OpenBabel11021811523D
libRbt.so/2013.1/901 2013/11/27
 22 23  0  0  0  0  0  0  0  0999 V2000
   13.4730  -58.6150  -38.6042 O   0  0  0  0  0  0  0  0  0  0  0  0
   13.8446  -59.1059  -37.5497 C   0  0  0  0  0  0  0  0  0  0  0  0
   12.9942  -59.7007  -36.7131 N   0  0  0  0  0  0  0  0  0  0  0  0
   15.2841  -59.0297  -37.1713 C   0  0  0  0  0  0  0  0  0  0  0  0
   16.3195  -58.3730  -37.9847 C   0  0  0  0  0  0  0  0  0  0  0  0
   16.0924  -57.7142  -39.2644 N   0  0  0  0  0  0  0  0  0  0  0  0
   15.9659  -59.4787  -36.0944 N   0  0  0  0  0  0  0  0  0  0  0  0
   17.2814  -59.1297  -36.2435 C   0  0  0  0  0  0  0  0  0  0  0  0
   17.5005  -58.4558  -37.3936 N   0  0  0  0  0  0  0  0  0  0  0  0
   18.7878  -57.9182  -37.8924 C   0  0  1  0  0  0  0  0  0  0  0  0
   19.2633  -56.7730  -37.0137 C   0  0  1  0  0  0  0  0  0  0  0  0
   20.7640  -56.8979  -37.0767 C   0  0  2  0  0  0  0  0  0  0  0  0
   21.2471  -56.2311  -38.2446 O   0  0  0  0  0  0  0  0  0  0  0  0
   18.8512  -55.5119  -37.5425 O   0  0  0  0  0  0  0  0  0  0  0  0
   19.8149  -58.9161  -37.8543 O   0  0  0  0  0  0  0  0  0  0  0  0
   20.9883  -58.3898  -37.2298 C   0  0  2  0  0  0  0  0  0  0  0  0
   21.1927  -59.0293  -35.8651 C   0  0  0  0  0  0  0  0  0  0  0  0
   21.4164  -60.4258  -36.0513 O   0  0  0  0  0  0  0  0  0  0  0  0
   21.6178  -61.4204  -34.7998 P   0  0  0  0  0  0  0  0  0  0  0  0
   22.7465  -60.8158  -33.9972 O   0  0  0  0  0  0  0  0  0  0  0  0
   21.9602  -62.7355  -35.4588 O   0  0  0  0  0  0  0  0  0  0  0  0
   20.2755  -61.3880  -34.1073 O   0  0  0  0  0  0  0  0  0  0  0  0
  1  2  2  0  0  0  0
  2  4  1  0  0  0  0
  2  3  1  0  0  0  0
  4  7  1  0  0  0  0
  5  9  1  0  0  0  0
  5  4  2  0  0  0  0
  6  5  1  0  0  0  0
  8  7  2  0  0  0  0
  9  8  1  0  0  0  0
 10 15  1  0  0  0  0
 10  9  1  1  0  0  0
 10 11  1  0  0  0  0
 11 14  1  6  0  0  0
 11 12  1  0  0  0  0
 12 13  1  6  0  0  0
 15 16  1  0  0  0  0
 16 12  1  0  0  0  0
 16 17  1  1  0  0  0
 17 18  1  0  0  0  0
 18 19  1  0  0  0  0
 19 21  1  0  0  0  0
 19 20  1  0  0  0  0
 22 19  2  0  0  0  0
M  END
>  <CHROM.1>
0.92820304,111.92283342,-179.29434351,-177.73247357,-54.42074313,18.80749593
-59.07842459,-36.68694542,2.70782458,-0.15421659,-0.53892416

>  <Name>
lig.pdb

>  <RI>
0

>  <Rbt.Current_Directory>
/home/itssahil/PROJECTS/Mol_Feturizer/New_Systems/rnas/5btp

>  <Rbt.Executable>
rbdock ($Id: //depot/dev/client3/rdock/2013.1/src/exe/rbdock.cxx#4 $)

>  <Rbt.Library>
libRbt.so (2013.1, Build901 2013/11/27)

>  <Rbt.Parameter_File>
/export/apps/rDock/src/rDock_2013.1_src/data/scripts/dock_solv.prm

>  <Rbt.Receptor>
prm/pocket_docking_4.prm

>  <SCORE>
-20.0532

>  <SCORE.INTER>
-18.4799

>  <SCORE.INTER.CONST>
1

>  <SCORE.INTER.POLAR>
0

>  <SCORE.INTER.ROT>
5

>  <SCORE.INTER.SOLV>
21.5013

>  <SCORE.INTER.VDW>
-26.4204

>  <SCORE.INTER.norm>
-0.839994

>  <SCORE.INTRA>
-1.57336

>  <SCORE.INTRA.DIHEDRAL>
-1.70809

>  <SCORE.INTRA.DIHEDRAL.0>
4.21161

>  <SCORE.INTRA.POLAR>
0

>  <SCORE.INTRA.POLAR.0>
0

>  <SCORE.INTRA.REPUL>
0

>  <SCORE.INTRA.REPUL.0>
0

>  <SCORE.INTRA.SOLV>
-0.205207

>  <SCORE.INTRA.SOLV.lig_0>
-41.4168

>  <SCORE.INTRA.VDW>
-0.616716

>  <SCORE.INTRA.VDW.0>
-1.62533

>  <SCORE.INTRA.norm>
-0.0715165

>  <SCORE.RESTR>
0

>  <SCORE.RESTR.CAVITY>
0

>  <SCORE.RESTR.norm>
0

>  <SCORE.SYSTEM>
0

>  <SCORE.SYSTEM.CONST>
0

>  <SCORE.SYSTEM.DIHEDRAL>
0

>  <SCORE.SYSTEM.SOLV>
0

>  <SCORE.SYSTEM.norm>
0

>  <SCORE.heavy>
22

>  <SCORE.norm>
-0.911511

>  <RMSD>
1.799

$$$$
lig.pdb
 OpenBabel11021811523D
libRbt.so/2013.1/901 2013/11/27
 22 23  0  0  0  0  0  0  0  0999 V2000
   13.2622  -59.7309  -36.9594 O   0  0  0  0  0  0  0  0  0  0  0  0
   14.0491  -59.0809  -37.6296 C   0  0  0  0  0  0  0  0  0  0  0  0
   13.6683  -58.4368  -38.7328 N   0  0  0  0  0  0  0  0  0  0  0  0
   15.4804  -59.0121  -37.2198 C   0  0  0  0  0  0  0  0  0  0  0  0
   16.5300  -58.3288  -37.9921 C   0  0  0  0  0  0  0  0  0  0  0  0
   16.3268  -57.6331  -39.2562 N   0  0  0  0  0  0  0  0  0  0  0  0
   16.1416  -59.4908  -36.1429 N   0  0  0  0  0  0  0  0  0  0  0  0
   17.4587  -59.1341  -36.2546 C   0  0  0  0  0  0  0  0  0  0  0  0
   17.6990  -58.4260  -37.3796 N   0  0  0  0  0  0  0  0  0  0  0  0
   18.9944  -57.8705  -37.8360 C   0  0  1  0  0  0  0  0  0  0  0  0
   19.2069  -56.4774  -37.2667 C   0  0  1  0  0  0  0  0  0  0  0  0
   20.7023  -56.4074  -37.0915 C   0  0  2  0  0  0  0  0  0  0  0  0
   21.3071  -56.0186  -38.3265 O   0  0  0  0  0  0  0  0  0  0  0  0
   18.7708  -55.4734  -38.1841 O   0  0  0  0  0  0  0  0  0  0  0  0
   20.0908  -58.6706  -37.3779 O   0  0  0  0  0  0  0  0  0  0  0  0
   21.0892  -57.8401  -36.7802 C   0  0  2  0  0  0  0  0  0  0  0  0
   21.1241  -58.0556  -35.2750 C   0  0  0  0  0  0  0  0  0  0  0  0
   21.9426  -59.1916  -35.0017 O   0  0  0  0  0  0  0  0  0  0  0  0
   21.4544  -60.6857  -35.3556 P   0  0  0  0  0  0  0  0  0  0  0  0
   20.0233  -60.7539  -34.8754 O   0  0  0  0  0  0  0  0  0  0  0  0
   22.4128  -61.5534  -34.5747 O   0  0  0  0  0  0  0  0  0  0  0  0
   21.6110  -60.7590  -36.8565 O   0  0  0  0  0  0  0  0  0  0  0  0
  1  2  2  0  0  0  0
  2  4  1  0  0  0  0
  2  3  1  0  0  0  0
  4  7  1  0  0  0  0
  5  9  1  0  0  0  0
  5  4  2  0  0  0  0
  6  5  1  0  0  0  0
  8  7  2  0  0  0  0
  9  8  1  0  0  0  0
 10 15  1  0  0  0  0
 10  9  1  1  0  0  0
 10 11  1  0  0  0  0
 11 14  1  6  0  0  0
 11 12  1  0  0  0  0
 12 13  1  6  0  0  0
 15 16  1  0  0  0  0
 16 12  1  0  0  0  0
 16 17  1  1  0  0  0
 17 18  1  0  0  0  0
 18 19  1  0  0  0  0
 19 21  1  0  0  0  0
 19 20  1  0  0  0  0
 22 19  2  0  0  0  0
M  END
>  <CHROM.1>
176.16460893,91.41190146,-158.59560608,-71.41626600,-45.04023676,18.86270939
-58.73222258,-36.81115699,2.85289952,-0.18927908,-0.53131642

>  <Name>
lig.pdb

>  <RI>
0

>  <Rbt.Current_Directory>
/home/itssahil/PROJECTS/Mol_Feturizer/New_Systems/rnas/5btp

>  <Rbt.Executable>
rbdock ($Id: //depot/dev/client3/rdock/2013.1/src/exe/rbdock.cxx#4 $)

>  <Rbt.Library>
libRbt.so (2013.1, Build901 2013/11/27)

>  <Rbt.Parameter_File>
/export/apps/rDock/src/rDock_2013.1_src/data/scripts/dock_solv.prm

>  <Rbt.Receptor>
prm/pocket_docking_3.prm

>  <SCORE>
-17.4079

>  <SCORE.INTER>
-17.7845

>  <SCORE.INTER.CONST>
1

>  <SCORE.INTER.POLAR>
0

>  <SCORE.INTER.ROT>
5

>  <SCORE.INTER.SOLV>
20.165

>  <SCORE.INTER.VDW>
-25.5113

>  <SCORE.INTER.norm>
-0.808387

>  <SCORE.INTRA>
0.376595

>  <SCORE.INTRA.DIHEDRAL>
0.708113

>  <SCORE.INTRA.DIHEDRAL.0>
4.21161

>  <SCORE.INTRA.POLAR>
0

>  <SCORE.INTRA.POLAR.0>
0

>  <SCORE.INTRA.REPUL>
0

>  <SCORE.INTRA.REPUL.0>
0

>  <SCORE.INTRA.SOLV>
2.34271

>  <SCORE.INTRA.SOLV.lig_0>
-41.4168

>  <SCORE.INTRA.VDW>
-1.14882

>  <SCORE.INTRA.VDW.0>
-1.62533

>  <SCORE.INTRA.norm>
0.017118

>  <SCORE.RESTR>
0

>  <SCORE.RESTR.CAVITY>
0

>  <SCORE.RESTR.norm>
0

>  <SCORE.SYSTEM>
0

>  <SCORE.SYSTEM.CONST>
0

>  <SCORE.SYSTEM.DIHEDRAL>
0

>  <SCORE.SYSTEM.SOLV>
0

>  <SCORE.SYSTEM.norm>
0

>  <SCORE.heavy>
22

>  <SCORE.norm>
-0.791269

>  <RMSD>
1.809

$$$$
lig.pdb
 OpenBabel11021811523D
libRbt.so/2013.1/901 2013/11/27
 22 23  0  0  0  0  0  0  0  0999 V2000
   13.1321  -58.9250  -38.0472 O   0  0  0  0  0  0  0  0  0  0  0  0
   14.2468  -59.0996  -37.5801 C   0  0  0  0  0  0  0  0  0  0  0  0
   14.4545  -59.9072  -36.5402 N   0  0  0  0  0  0  0  0  0  0  0  0
   15.4114  -58.3825  -38.1722 C   0  0  0  0  0  0  0  0  0  0  0  0
   16.7729  -58.4146  -37.6151 C   0  0  0  0  0  0  0  0  0  0  0  0
   17.1748  -59.1386  -36.4161 N   0  0  0  0  0  0  0  0  0  0  0  0
   15.5365  -57.6006  -39.2672 N   0  0  0  0  0  0  0  0  0  0  0  0
   16.8422  -57.1992  -39.3609 C   0  0  0  0  0  0  0  0  0  0  0  0
   17.5983  -57.6933  -38.3564 N   0  0  0  0  0  0  0  0  0  0  0  0
   19.0464  -57.4790  -38.1285 C   0  0  1  0  0  0  0  0  0  0  0  0
   19.2668  -56.4122  -37.0686 C   0  0  1  0  0  0  0  0  0  0  0  0
   20.5365  -56.8629  -36.3930 C   0  0  2  0  0  0  0  0  0  0  0  0
   21.6625  -56.3896  -37.1347 O   0  0  0  0  0  0  0  0  0  0  0  0
   19.4541  -55.1267  -37.6622 O   0  0  0  0  0  0  0  0  0  0  0  0
   19.6762  -58.6714  -37.6451 O   0  0  0  0  0  0  0  0  0  0  0  0
   20.4749  -58.3744  -36.4972 C   0  0  2  0  0  0  0  0  0  0  0  0
   19.8384  -58.9580  -35.2452 C   0  0  0  0  0  0  0  0  0  0  0  0
   20.8547  -59.1205  -34.2573 O   0  0  0  0  0  0  0  0  0  0  0  0
   21.5704  -57.8516  -33.5690 P   0  0  0  0  0  0  0  0  0  0  0  0
   20.4785  -56.8168  -33.4255 O   0  0  0  0  0  0  0  0  0  0  0  0
   22.6465  -57.4842  -34.5631 O   0  0  0  0  0  0  0  0  0  0  0  0
   22.0791  -58.4048  -32.2585 O   0  0  0  0  0  0  0  0  0  0  0  0
  1  2  2  0  0  0  0
  2  4  1  0  0  0  0
  2  3  1  0  0  0  0
  4  7  1  0  0  0  0
  5  9  1  0  0  0  0
  5  4  2  0  0  0  0
  6  5  1  0  0  0  0
  8  7  2  0  0  0  0
  9  8  1  0  0  0  0
 10 15  1  0  0  0  0
 10  9  1  1  0  0  0
 10 11  1  0  0  0  0
 11 14  1  6  0  0  0
 11 12  1  0  0  0  0
 12 13  1  6  0  0  0
 15 16  1  0  0  0  0
 16 12  1  0  0  0  0
 16 17  1  1  0  0  0
 17 18  1  0  0  0  0
 18 19  1  0  0  0  0
 19 21  1  0  0  0  0
 19 20  1  0  0  0  0
 22 19  2  0  0  0  0
M  END
>  <CHROM.1>
173.90839909,-80.08318022,-85.41935440,68.13280769,36.47329218,18.84850406
-57.90190012,-36.36228790,2.73198977,-0.39670588,-1.03383206

>  <Name>
lig.pdb

>  <RI>
0

>  <Rbt.Current_Directory>
/home/itssahil/PROJECTS/Mol_Feturizer/New_Systems/rnas/5btp

>  <Rbt.Executable>
rbdock ($Id: //depot/dev/client3/rdock/2013.1/src/exe/rbdock.cxx#4 $)

>  <Rbt.Library>
libRbt.so (2013.1, Build901 2013/11/27)

>  <Rbt.Parameter_File>
/export/apps/rDock/src/rDock_2013.1_src/data/scripts/dock_solv.prm

>  <Rbt.Receptor>
prm/pocket_docking_5.prm

>  <SCORE>
-14.2679

>  <SCORE.INTER>
-15.735

>  <SCORE.INTER.CONST>
1

>  <SCORE.INTER.POLAR>
0

>  <SCORE.INTER.ROT>
5

>  <SCORE.INTER.SOLV>
18.7528

>  <SCORE.INTER.VDW>
-23.6743

>  <SCORE.INTER.norm>
-0.715225

>  <SCORE.INTRA>
1.46705

>  <SCORE.INTRA.DIHEDRAL>
1.46177

>  <SCORE.INTRA.DIHEDRAL.0>
4.21161

>  <SCORE.INTRA.POLAR>
0

>  <SCORE.INTRA.POLAR.0>
0

>  <SCORE.INTRA.REPUL>
0

>  <SCORE.INTRA.REPUL.0>
0

>  <SCORE.INTRA.SOLV>
2.7784

>  <SCORE.INTRA.SOLV.lig_0>
-41.4168

>  <SCORE.INTRA.VDW>
-0.653033

>  <SCORE.INTRA.VDW.0>
-1.62533

>  <SCORE.INTRA.norm>
0.0666841

>  <SCORE.RESTR>
0

>  <SCORE.RESTR.CAVITY>
0

>  <SCORE.RESTR.norm>
0

>  <SCORE.SYSTEM>
0

>  <SCORE.SYSTEM.CONST>
0

>  <SCORE.SYSTEM.DIHEDRAL>
0

>  <SCORE.SYSTEM.SOLV>
0

>  <SCORE.SYSTEM.norm>
0

>  <SCORE.heavy>
22

>  <SCORE.norm>
-0.648541

>  <RMSD>
1.813

$$$$
lig.pdb
 OpenBabel11021811523D
libRbt.so/2013.1/901 2013/11/27
 22 23  0  0  0  0  0  0  0  0999 V2000
   13.1338  -58.8802  -38.0409 O   0  0  0  0  0  0  0  0  0  0  0  0
   14.2469  -59.0661  -37.5743 C   0  0  0  0  0  0  0  0  0  0  0  0
   14.4470  -59.8761  -36.5348 N   0  0  0  0  0  0  0  0  0  0  0  0
   15.4184  -58.3606  -38.1668 C   0  0  0  0  0  0  0  0  0  0  0  0
   16.7851  -58.4286  -37.6260 C   0  0  0  0  0  0  0  0  0  0  0  0
   17.1864  -59.1817  -36.4449 N   0  0  0  0  0  0  0  0  0  0  0  0
   15.5463  -57.5615  -39.2490 N   0  0  0  0  0  0  0  0  0  0  0  0
   16.8583  -57.1833  -39.3504 C   0  0  0  0  0  0  0  0  0  0  0  0
   17.6159  -57.7097  -38.3636 N   0  0  0  0  0  0  0  0  0  0  0  0
   19.0703  -57.5271  -38.1485 C   0  0  1  0  0  0  0  0  0  0  0  0
   19.3227  -56.4949  -37.0618 C   0  0  1  0  0  0  0  0  0  0  0  0
   20.5925  -56.9866  -36.4157 C   0  0  2  0  0  0  0  0  0  0  0  0
   21.7174  -56.5119  -37.1582 O   0  0  0  0  0  0  0  0  0  0  0  0
   19.5252  -55.1964  -37.6211 O   0  0  0  0  0  0  0  0  0  0  0  0
   19.6849  -58.7435  -37.7073 O   0  0  0  0  0  0  0  0  0  0  0  0
   20.5030  -58.4933  -36.5618 C   0  0  2  0  0  0  0  0  0  0  0  0
   19.8719  -59.1012  -35.3188 C   0  0  0  0  0  0  0  0  0  0  0  0
   20.7293  -58.8457  -34.2076 O   0  0  0  0  0  0  0  0  0  0  0  0
   22.1773  -59.5414  -34.0840 P   0  0  0  0  0  0  0  0  0  0  0  0
   22.9878  -58.9628  -35.2205 O   0  0  0  0  0  0  0  0  0  0  0  0
   21.8646  -61.0118  -34.2308 O   0  0  0  0  0  0  0  0  0  0  0  0
   22.6487  -59.1270  -32.7098 O   0  0  0  0  0  0  0  0  0  0  0  0
  1  2  2  0  0  0  0
  2  4  1  0  0  0  0
  2  3  1  0  0  0  0
  4  7  1  0  0  0  0
  5  9  1  0  0  0  0
  5  4  2  0  0  0  0
  6  5  1  0  0  0  0
  8  7  2  0  0  0  0
  9  8  1  0  0  0  0
 10 15  1  0  0  0  0
 10  9  1  1  0  0  0
 10 11  1  0  0  0  0
 11 14  1  6  0  0  0
 11 12  1  0  0  0  0
 12 13  1  6  0  0  0
 15 16  1  0  0  0  0
 16 12  1  0  0  0  0
 16 17  1  1  0  0  0
 17 18  1  0  0  0  0
 18 19  1  0  0  0  0
 19 21  1  0  0  0  0
 19 20  1  0  0  0  0
 22 19  2  0  0  0  0
M  END
>  <CHROM.1>
175.20353976,-79.47432161,-63.56626243,-68.04693633,66.36937499,19.02784606
-58.38590812,-36.50998852,2.73923047,-0.30538240,-0.75324398

>  <Name>
lig.pdb

>  <RI>
0

>  <Rbt.Current_Directory>
/home/itssahil/PROJECTS/Mol_Feturizer/New_Systems/rnas/5btp

>  <Rbt.Executable>
rbdock ($Id: //depot/dev/client3/rdock/2013.1/src/exe/rbdock.cxx#4 $)

>  <Rbt.Library>
libRbt.so (2013.1, Build901 2013/11/27)

>  <Rbt.Parameter_File>
/export/apps/rDock/src/rDock_2013.1_src/data/scripts/dock_solv.prm

>  <Rbt.Receptor>
prm/pocket_docking_3.prm

>  <SCORE>
-15.3392

>  <SCORE.INTER>
-15.1128

>  <SCORE.INTER.CONST>
1

>  <SCORE.INTER.POLAR>
0

>  <SCORE.INTER.ROT>
5

>  <SCORE.INTER.SOLV>
17.5021

>  <SCORE.INTER.VDW>
-22.8426

>  <SCORE.INTER.norm>
-0.686944

>  <SCORE.INTRA>
-0.22649

>  <SCORE.INTRA.DIHEDRAL>
-1.28988

>  <SCORE.INTRA.DIHEDRAL.0>
4.21161

>  <SCORE.INTRA.POLAR>
0

>  <SCORE.INTRA.POLAR.0>
0

>  <SCORE.INTRA.REPUL>
0

>  <SCORE.INTRA.REPUL.0>
0

>  <SCORE.INTRA.SOLV>
2.05577

>  <SCORE.INTRA.SOLV.lig_0>
-41.4168

>  <SCORE.INTRA.VDW>
-0.609432

>  <SCORE.INTRA.VDW.0>
-1.62533

>  <SCORE.INTRA.norm>
-0.010295

>  <SCORE.RESTR>
0

>  <SCORE.RESTR.CAVITY>
0

>  <SCORE.RESTR.norm>
0

>  <SCORE.SYSTEM>
0

>  <SCORE.SYSTEM.CONST>
0

>  <SCORE.SYSTEM.DIHEDRAL>
0

>  <SCORE.SYSTEM.SOLV>
0

>  <SCORE.SYSTEM.norm>
0

>  <SCORE.heavy>
22

>  <SCORE.norm>
-0.697239

>  <RMSD>
1.830

$$$$
lig.pdb
 OpenBabel11021811523D
libRbt.so/2013.1/901 2013/11/27
 22 23  0  0  0  0  0  0  0  0999 V2000
   13.1447  -58.9188  -38.0323 O   0  0  0  0  0  0  0  0  0  0  0  0
   14.2616  -59.0919  -37.5700 C   0  0  0  0  0  0  0  0  0  0  0  0
   14.4744  -59.8970  -36.5291 N   0  0  0  0  0  0  0  0  0  0  0  0
   15.4233  -58.3761  -38.1693 C   0  0  0  0  0  0  0  0  0  0  0  0
   16.7914  -58.4226  -37.6299 C   0  0  0  0  0  0  0  0  0  0  0  0
   17.2037  -59.1617  -36.4437 N   0  0  0  0  0  0  0  0  0  0  0  0
   15.5396  -57.5836  -39.2577 N   0  0  0  0  0  0  0  0  0  0  0  0
   16.8465  -57.1895  -39.3637 C   0  0  0  0  0  0  0  0  0  0  0  0
   17.6121  -57.6988  -38.3741 N   0  0  0  0  0  0  0  0  0  0  0  0
   19.0643  -57.4961  -38.1623 C   0  0  1  0  0  0  0  0  0  0  0  0
   19.3051  -56.5011  -37.0389 C   0  0  1  0  0  0  0  0  0  0  0  0
   20.5892  -56.9921  -36.4209 C   0  0  2  0  0  0  0  0  0  0  0  0
   21.6989  -56.4676  -37.1527 O   0  0  0  0  0  0  0  0  0  0  0  0
   19.4783  -55.1787  -37.5497 O   0  0  0  0  0  0  0  0  0  0  0  0
   19.7056  -58.7161  -37.7720 O   0  0  0  0  0  0  0  0  0  0  0  0
   20.5275  -58.4936  -36.6236 C   0  0  2  0  0  0  0  0  0  0  0  0
   19.9179  -59.1605  -35.4002 C   0  0  0  0  0  0  0  0  0  0  0  0
   20.7637  -58.9054  -34.2801 O   0  0  0  0  0  0  0  0  0  0  0  0
   22.2348  -59.5534  -34.1711 P   0  0  0  0  0  0  0  0  0  0  0  0
   23.0219  -58.9293  -35.3001 O   0  0  0  0  0  0  0  0  0  0  0  0
   21.9720  -61.0309  -34.3408 O   0  0  0  0  0  0  0  0  0  0  0  0
   22.6960  -59.1451  -32.7916 O   0  0  0  0  0  0  0  0  0  0  0  0
  1  2  2  0  0  0  0
  2  4  1  0  0  0  0
  2  3  1  0  0  0  0
  4  7  1  0  0  0  0
  5  9  1  0  0  0  0
  5  4  2  0  0  0  0
  6  5  1  0  0  0  0
  8  7  2  0  0  0  0
  9  8  1  0  0  0  0
 10 15  1  0  0  0  0
 10  9  1  1  0  0  0
 10 11  1  0  0  0  0
 11 14  1  6  0  0  0
 11 12  1  0  0  0  0
 12 13  1  6  0  0  0
 15 16  1  0  0  0  0
 16 12  1  0  0  0  0
 16 17  1  1  0  0  0
 17 18  1  0  0  0  0
 18 19  1  0  0  0  0
 19 21  1  0  0  0  0
 19 20  1  0  0  0  0
 22 19  2  0  0  0  0
M  END
>  <CHROM.1>
174.85413970,-76.81436265,-62.29944688,-68.22123521,65.66542770,19.04621900
-58.39144904,-36.54069218,2.75386393,-0.30481779,-0.73145397

>  <Name>
lig.pdb

>  <RI>
0

>  <Rbt.Current_Directory>
/home/itssahil/PROJECTS/Mol_Feturizer/New_Systems/rnas/5btp

>  <Rbt.Executable>
rbdock ($Id: //depot/dev/client3/rdock/2013.1/src/exe/rbdock.cxx#4 $)

>  <Rbt.Library>
libRbt.so (2013.1, Build901 2013/11/27)

>  <Rbt.Parameter_File>
/export/apps/rDock/src/rDock_2013.1_src/data/scripts/dock_solv.prm

>  <Rbt.Receptor>
prm/pocket_docking_4.prm

>  <SCORE>
-15.3693

>  <SCORE.INTER>
-15.1493

>  <SCORE.INTER.CONST>
1

>  <SCORE.INTER.POLAR>
0

>  <SCORE.INTER.ROT>
5

>  <SCORE.INTER.SOLV>
17.4213

>  <SCORE.INTER.VDW>
-22.84

>  <SCORE.INTER.norm>
-0.688604

>  <SCORE.INTRA>
-0.220034

>  <SCORE.INTRA.DIHEDRAL>
-1.30529

>  <SCORE.INTRA.DIHEDRAL.0>
4.21161

>  <SCORE.INTRA.POLAR>
0

>  <SCORE.INTRA.POLAR.0>
0

>  <SCORE.INTRA.REPUL>
0

>  <SCORE.INTRA.REPUL.0>
0

>  <SCORE.INTRA.SOLV>
2.08409

>  <SCORE.INTRA.SOLV.lig_0>
-41.4168

>  <SCORE.INTRA.VDW>
-0.609435

>  <SCORE.INTRA.VDW.0>
-1.62533

>  <SCORE.INTRA.norm>
-0.0100015

>  <SCORE.RESTR>
0

>  <SCORE.RESTR.CAVITY>
0

>  <SCORE.RESTR.norm>
0

>  <SCORE.SYSTEM>
0

>  <SCORE.SYSTEM.CONST>
0

>  <SCORE.SYSTEM.DIHEDRAL>
0

>  <SCORE.SYSTEM.SOLV>
0

>  <SCORE.SYSTEM.norm>
0

>  <SCORE.heavy>
22

>  <SCORE.norm>
-0.698605

>  <RMSD>
1.837

$$$$
lig.pdb
 OpenBabel11021811523D
libRbt.so/2013.1/901 2013/11/27
 22 23  0  0  0  0  0  0  0  0999 V2000
   13.0879  -59.5700  -37.0445 O   0  0  0  0  0  0  0  0  0  0  0  0
   13.9597  -59.0064  -37.6875 C   0  0  0  0  0  0  0  0  0  0  0  0
   13.6958  -58.3889  -38.8389 N   0  0  0  0  0  0  0  0  0  0  0  0
   15.3635  -59.0166  -37.1871 C   0  0  0  0  0  0  0  0  0  0  0  0
   16.4960  -58.3913  -37.8881 C   0  0  0  0  0  0  0  0  0  0  0  0
   16.4123  -57.6844  -39.1595 N   0  0  0  0  0  0  0  0  0  0  0  0
   15.9276  -59.5319  -36.0724 N   0  0  0  0  0  0  0  0  0  0  0  0
   17.2667  -59.2479  -36.0986 C   0  0  0  0  0  0  0  0  0  0  0  0
   17.6166  -58.5531  -37.2030 N   0  0  0  0  0  0  0  0  0  0  0  0
   18.9669  -58.0691  -37.5736 C   0  0  1  0  0  0  0  0  0  0  0  0
   19.0817  -56.5730  -37.3317 C   0  0  1  0  0  0  0  0  0  0  0  0
   20.5295  -56.4017  -36.9491 C   0  0  2  0  0  0  0  0  0  0  0  0
   21.3233  -56.2933  -38.1323 O   0  0  0  0  0  0  0  0  0  0  0  0
   18.7956  -55.8350  -38.5205 O   0  0  0  0  0  0  0  0  0  0  0  0
   19.9777  -58.6913  -36.7717 O   0  0  0  0  0  0  0  0  0  0  0  0
   20.8652  -57.7020  -36.2449 C   0  0  2  0  0  0  0  0  0  0  0  0
   20.6589  -57.5516  -34.7456 C   0  0  0  0  0  0  0  0  0  0  0  0
   21.5426  -56.5381  -34.2690 O   0  0  0  0  0  0  0  0  0  0  0  0
   21.5422  -56.0791  -32.7246 P   0  0  0  0  0  0  0  0  0  0  0  0
   21.8394  -57.3373  -31.9423 O   0  0  0  0  0  0  0  0  0  0  0  0
   20.1447  -55.5414  -32.5273 O   0  0  0  0  0  0  0  0  0  0  0  0
   22.6362  -55.0388  -32.6682 O   0  0  0  0  0  0  0  0  0  0  0  0
  1  2  2  0  0  0  0
  2  4  1  0  0  0  0
  2  3  1  0  0  0  0
  4  7  1  0  0  0  0
  5  9  1  0  0  0  0
  5  4  2  0  0  0  0
  6  5  1  0  0  0  0
  8  7  2  0  0  0  0
  9  8  1  0  0  0  0
 10 15  1  0  0  0  0
 10  9  1  1  0  0  0
 10 11  1  0  0  0  0
 11 14  1  6  0  0  0
 11 12  1  0  0  0  0
 12 13  1  6  0  0  0
 15 16  1  0  0  0  0
 16 12  1  0  0  0  0
 16 17  1  1  0  0  0
 17 18  1  0  0  0  0
 18 19  1  0  0  0  0
 19 21  1  0  0  0  0
 19 20  1  0  0  0  0
 22 19  2  0  0  0  0
M  END
>  <CHROM.1>
178.93612744,75.66373482,-61.51460006,177.45108081,58.35762242,18.80186558
-57.45735906,-35.99003123,2.61322846,-0.42187618,-1.48268277

>  <Name>
lig.pdb

>  <RI>
0

>  <Rbt.Current_Directory>
/home/itssahil/PROJECTS/Mol_Feturizer/New_Systems/rnas/5btp

>  <Rbt.Executable>
rbdock ($Id: //depot/dev/client3/rdock/2013.1/src/exe/rbdock.cxx#4 $)

>  <Rbt.Library>
libRbt.so (2013.1, Build901 2013/11/27)

>  <Rbt.Parameter_File>
/export/apps/rDock/src/rDock_2013.1_src/data/scripts/dock_solv.prm

>  <Rbt.Receptor>
prm/pocket_docking_6.prm

>  <SCORE>
-19.2527

>  <SCORE.INTER>
-18.2395

>  <SCORE.INTER.CONST>
1

>  <SCORE.INTER.POLAR>
0

>  <SCORE.INTER.ROT>
5

>  <SCORE.INTER.SOLV>
19.8964

>  <SCORE.INTER.VDW>
-25.7251

>  <SCORE.INTER.norm>
-0.829067

>  <SCORE.INTRA>
-1.01322

>  <SCORE.INTRA.DIHEDRAL>
-1.73776

>  <SCORE.INTRA.DIHEDRAL.0>
4.21161

>  <SCORE.INTRA.POLAR>
0

>  <SCORE.INTRA.POLAR.0>
0

>  <SCORE.INTRA.REPUL>
0

>  <SCORE.INTRA.REPUL.0>
0

>  <SCORE.INTRA.SOLV>
0.419621

>  <SCORE.INTRA.SOLV.lig_0>
-41.4168

>  <SCORE.INTRA.VDW>
-0.354147

>  <SCORE.INTRA.VDW.0>
-1.62533

>  <SCORE.INTRA.norm>
-0.0460553

>  <SCORE.RESTR>
0

>  <SCORE.RESTR.CAVITY>
0

>  <SCORE.RESTR.norm>
0

>  <SCORE.SYSTEM>
0

>  <SCORE.SYSTEM.CONST>
0

>  <SCORE.SYSTEM.DIHEDRAL>
0

>  <SCORE.SYSTEM.SOLV>
0

>  <SCORE.SYSTEM.norm>
0

>  <SCORE.heavy>
22

>  <SCORE.norm>
-0.875122

>  <RMSD>
1.837

$$$$
lig.pdb
 OpenBabel11021811523D
libRbt.so/2013.1/901 2013/11/27
 22 23  0  0  0  0  0  0  0  0999 V2000
   14.2862  -59.1644  -35.9553 O   0  0  0  0  0  0  0  0  0  0  0  0
   14.2918  -59.2643  -37.1723 C   0  0  0  0  0  0  0  0  0  0  0  0
   13.3295  -59.9123  -37.8287 N   0  0  0  0  0  0  0  0  0  0  0  0
   15.4089  -58.6615  -37.9532 C   0  0  0  0  0  0  0  0  0  0  0  0
   16.7644  -58.4431  -37.4242 C   0  0  0  0  0  0  0  0  0  0  0  0
   17.2052  -58.7754  -36.0757 N   0  0  0  0  0  0  0  0  0  0  0  0
   15.4888  -58.2083  -39.2238 N   0  0  0  0  0  0  0  0  0  0  0  0
   16.7642  -57.7595  -39.4398 C   0  0  0  0  0  0  0  0  0  0  0  0
   17.5441  -57.9012  -38.3460 N   0  0  0  0  0  0  0  0  0  0  0  0
   18.9718  -57.5323  -38.2026 C   0  0  1  0  0  0  0  0  0  0  0  0
   19.1209  -56.3220  -37.2955 C   0  0  1  0  0  0  0  0  0  0  0  0
   20.4443  -56.5677  -36.6174 C   0  0  2  0  0  0  0  0  0  0  0  0
   21.5017  -56.0970  -37.4557 O   0  0  0  0  0  0  0  0  0  0  0  0
   19.1727  -55.1127  -38.0537 O   0  0  0  0  0  0  0  0  0  0  0  0
   19.7216  -58.5918  -37.5967 O   0  0  0  0  0  0  0  0  0  0  0  0
   20.5198  -58.0795  -36.5270 C   0  0  2  0  0  0  0  0  0  0  0  0
   19.9736  -58.5498  -35.1878 C   0  0  0  0  0  0  0  0  0  0  0  0
   20.7885  -58.0034  -34.1522 O   0  0  0  0  0  0  0  0  0  0  0  0
   22.3065  -58.4947  -33.9278 P   0  0  0  0  0  0  0  0  0  0  0  0
   23.0273  -58.1346  -35.2061 O   0  0  0  0  0  0  0  0  0  0  0  0
   22.1556  -59.9798  -33.6978 O   0  0  0  0  0  0  0  0  0  0  0  0
   22.7541  -57.7076  -32.7185 O   0  0  0  0  0  0  0  0  0  0  0  0
  1  2  2  0  0  0  0
  2  4  1  0  0  0  0
  2  3  1  0  0  0  0
  4  7  1  0  0  0  0
  5  9  1  0  0  0  0
  5  4  2  0  0  0  0
  6  5  1  0  0  0  0
  8  7  2  0  0  0  0
  9  8  1  0  0  0  0
 10 15  1  0  0  0  0
 10  9  1  1  0  0  0
 10 11  1  0  0  0  0
 11 14  1  6  0  0  0
 11 12  1  0  0  0  0
 12 13  1  6  0  0  0
 15 16  1  0  0  0  0
 16 12  1  0  0  0  0
 16 17  1  1  0  0  0
 17 18  1  0  0  0  0
 18 19  1  0  0  0  0
 19 21  1  0  0  0  0
 19 20  1  0  0  0  0
 22 19  2  0  0  0  0
M  END
>  <CHROM.1>
26.66530770,-71.03590544,-62.01090346,-69.26880518,62.07571303,19.02607613
-58.06860653,-36.41907336,2.80942396,-0.34623567,-0.94222485

>  <Name>
lig.pdb

>  <RI>
0

>  <Rbt.Current_Directory>
/home/itssahil/PROJECTS/Mol_Feturizer/New_Systems/rnas/5btp

>  <Rbt.Executable>
rbdock ($Id: //depot/dev/client3/rdock/2013.1/src/exe/rbdock.cxx#4 $)

>  <Rbt.Library>
libRbt.so (2013.1, Build901 2013/11/27)

>  <Rbt.Parameter_File>
/export/apps/rDock/src/rDock_2013.1_src/data/scripts/dock_solv.prm

>  <Rbt.Receptor>
prm/pocket_docking_3.prm

>  <SCORE>
-14.3896

>  <SCORE.INTER>
-15.0402

>  <SCORE.INTER.CONST>
1

>  <SCORE.INTER.POLAR>
0

>  <SCORE.INTER.ROT>
5

>  <SCORE.INTER.SOLV>
18.6904

>  <SCORE.INTER.VDW>
-23.1903

>  <SCORE.INTER.norm>
-0.683645

>  <SCORE.INTRA>
0.650553

>  <SCORE.INTRA.DIHEDRAL>
0.940497

>  <SCORE.INTRA.DIHEDRAL.0>
4.21161

>  <SCORE.INTRA.POLAR>
0

>  <SCORE.INTRA.POLAR.0>
0

>  <SCORE.INTRA.REPUL>
0

>  <SCORE.INTRA.REPUL.0>
0

>  <SCORE.INTRA.SOLV>
1.80089

>  <SCORE.INTRA.SOLV.lig_0>
-41.4168

>  <SCORE.INTRA.VDW>
-0.720141

>  <SCORE.INTRA.VDW.0>
-1.62533

>  <SCORE.INTRA.norm>
0.0295706

>  <SCORE.RESTR>
0

>  <SCORE.RESTR.CAVITY>
0

>  <SCORE.RESTR.norm>
0

>  <SCORE.SYSTEM>
0

>  <SCORE.SYSTEM.CONST>
0

>  <SCORE.SYSTEM.DIHEDRAL>
0

>  <SCORE.SYSTEM.SOLV>
0

>  <SCORE.SYSTEM.norm>
0

>  <SCORE.heavy>
22

>  <SCORE.norm>
-0.654074

>  <RMSD>
1.842

$$$$
lig.pdb
 OpenBabel11021811523D
libRbt.so/2013.1/901 2013/11/27
 22 23  0  0  0  0  0  0  0  0999 V2000
   12.9842  -59.6971  -36.7874 O   0  0  0  0  0  0  0  0  0  0  0  0
   13.7726  -59.1221  -37.5215 C   0  0  0  0  0  0  0  0  0  0  0  0
   13.3870  -58.5675  -38.6706 N   0  0  0  0  0  0  0  0  0  0  0  0
   15.2109  -59.0462  -37.1383 C   0  0  0  0  0  0  0  0  0  0  0  0
   16.2523  -58.4059  -37.9571 C   0  0  0  0  0  0  0  0  0  0  0  0
   16.0332  -57.7653  -39.2473 N   0  0  0  0  0  0  0  0  0  0  0  0
   15.8865  -59.4820  -36.0521 N   0  0  0  0  0  0  0  0  0  0  0  0
   17.2041  -59.1407  -36.2009 C   0  0  0  0  0  0  0  0  0  0  0  0
   17.4306  -58.4849  -37.3600 N   0  0  0  0  0  0  0  0  0  0  0  0
   18.7222  -57.9601  -37.8614 C   0  0  1  0  0  0  0  0  0  0  0  0
   19.2251  -56.8390  -36.9669 C   0  0  1  0  0  0  0  0  0  0  0  0
   20.7229  -56.9880  -37.0465 C   0  0  2  0  0  0  0  0  0  0  0  0
   21.2063  -56.3084  -38.2069 O   0  0  0  0  0  0  0  0  0  0  0  0
   18.8297  -55.5618  -37.4691 O   0  0  0  0  0  0  0  0  0  0  0  0
   19.7325  -58.9755  -37.8510 O   0  0  0  0  0  0  0  0  0  0  0  0
   20.9204  -58.4804  -37.2285 C   0  0  2  0  0  0  0  0  0  0  0  0
   21.1266  -59.1478  -35.8775 C   0  0  0  0  0  0  0  0  0  0  0  0
   21.3329  -60.5431  -36.0914 O   0  0  0  0  0  0  0  0  0  0  0  0
   21.5047  -61.5672  -34.8596 P   0  0  0  0  0  0  0  0  0  0  0  0
   20.1729  -61.5477  -34.1458 O   0  0  0  0  0  0  0  0  0  0  0  0
   22.6414  -60.9644  -34.0686 O   0  0  0  0  0  0  0  0  0  0  0  0
   21.8282  -62.8784  -35.5368 O   0  0  0  0  0  0  0  0  0  0  0  0
  1  2  2  0  0  0  0
  2  4  1  0  0  0  0
  2  3  1  0  0  0  0
  4  7  1  0  0  0  0
  5  9  1  0  0  0  0
  5  4  2  0  0  0  0
  6  5  1  0  0  0  0
  8  7  2  0  0  0  0
  9  8  1  0  0  0  0
 10 15  1  0  0  0  0
 10  9  1  1  0  0  0
 10 11  1  0  0  0  0
 11 14  1  6  0  0  0
 11 12  1  0  0  0  0
 12 13  1  6  0  0  0
 15 16  1  0  0  0  0
 16 12  1  0  0  0  0
 16 17  1  1  0  0  0
 17 18  1  0  0  0  0
 18 19  1  0  0  0  0
 19 21  1  0  0  0  0
 19 20  1  0  0  0  0
 22 19  2  0  0  0  0
M  END
>  <CHROM.1>
178.63049694,114.08379014,-178.94490246,-176.61055787,65.13926669,18.73150213
-59.15593189,-36.68043742,2.70421278,-0.14398349,-0.52144919

>  <Name>
lig.pdb

>  <RI>
0

>  <Rbt.Current_Directory>
/home/itssahil/PROJECTS/Mol_Feturizer/New_Systems/rnas/5btp

>  <Rbt.Executable>
rbdock ($Id: //depot/dev/client3/rdock/2013.1/src/exe/rbdock.cxx#4 $)

>  <Rbt.Library>
libRbt.so (2013.1, Build901 2013/11/27)

>  <Rbt.Parameter_File>
/export/apps/rDock/src/rDock_2013.1_src/data/scripts/dock_solv.prm

>  <Rbt.Receptor>
prm/pocket_docking_6.prm

>  <SCORE>
-20.387

>  <SCORE.INTER>
-18.873

>  <SCORE.INTER.CONST>
1

>  <SCORE.INTER.POLAR>
0

>  <SCORE.INTER.ROT>
5

>  <SCORE.INTER.SOLV>
20.9948

>  <SCORE.INTER.VDW>
-26.5136

>  <SCORE.INTER.norm>
-0.857865

>  <SCORE.INTRA>
-1.51395

>  <SCORE.INTRA.DIHEDRAL>
-1.68046

>  <SCORE.INTRA.DIHEDRAL.0>
4.21161

>  <SCORE.INTRA.POLAR>
0

>  <SCORE.INTRA.POLAR.0>
0

>  <SCORE.INTRA.REPUL>
0

>  <SCORE.INTRA.REPUL.0>
0

>  <SCORE.INTRA.SOLV>
-0.228781

>  <SCORE.INTRA.SOLV.lig_0>
-41.4168

>  <SCORE.INTRA.VDW>
-0.559332

>  <SCORE.INTRA.VDW.0>
-1.62533

>  <SCORE.INTRA.norm>
-0.068816

>  <SCORE.RESTR>
0

>  <SCORE.RESTR.CAVITY>
0

>  <SCORE.RESTR.norm>
0

>  <SCORE.SYSTEM>
0

>  <SCORE.SYSTEM.CONST>
0

>  <SCORE.SYSTEM.DIHEDRAL>
0

>  <SCORE.SYSTEM.SOLV>
0

>  <SCORE.SYSTEM.norm>
0

>  <SCORE.heavy>
22

>  <SCORE.norm>
-0.926682

>  <RMSD>
1.843

$$$$
lig.pdb
 OpenBabel11021811523D
libRbt.so/2013.1/901 2013/11/27
 22 23  0  0  0  0  0  0  0  0999 V2000
   12.9862  -59.7052  -36.8084 O   0  0  0  0  0  0  0  0  0  0  0  0
   13.7745  -59.1176  -37.5325 C   0  0  0  0  0  0  0  0  0  0  0  0
   13.3887  -58.5438  -38.6721 N   0  0  0  0  0  0  0  0  0  0  0  0
   15.2127  -59.0476  -37.1479 C   0  0  0  0  0  0  0  0  0  0  0  0
   16.2563  -58.4055  -37.9623 C   0  0  0  0  0  0  0  0  0  0  0  0
   16.0398  -57.7570  -39.2491 N   0  0  0  0  0  0  0  0  0  0  0  0
   15.8863  -59.4912  -36.0637 N   0  0  0  0  0  0  0  0  0  0  0  0
   17.2049  -59.1526  -36.2096 C   0  0  0  0  0  0  0  0  0  0  0  0
   17.4340  -58.4908  -37.3648 N   0  0  0  0  0  0  0  0  0  0  0  0
   18.7273  -57.9666  -37.8624 C   0  0  1  0  0  0  0  0  0  0  0  0
   19.2298  -56.8481  -36.9644 C   0  0  1  0  0  0  0  0  0  0  0  0
   20.7275  -56.9989  -37.0412 C   0  0  2  0  0  0  0  0  0  0  0  0
   21.2143  -56.3174  -38.1991 O   0  0  0  0  0  0  0  0  0  0  0  0
   18.8370  -55.5693  -37.4646 O   0  0  0  0  0  0  0  0  0  0  0  0
   19.7362  -58.9834  -37.8521 O   0  0  0  0  0  0  0  0  0  0  0  0
   20.9235  -58.4911  -37.2260 C   0  0  2  0  0  0  0  0  0  0  0  0
   21.1260  -59.1617  -35.8761 C   0  0  0  0  0  0  0  0  0  0  0  0
   21.3393  -60.5555  -36.0932 O   0  0  0  0  0  0  0  0  0  0  0  0
   21.5208  -61.5809  -34.8638 P   0  0  0  0  0  0  0  0  0  0  0  0
   20.2056  -61.5379  -34.1209 O   0  0  0  0  0  0  0  0  0  0  0  0
   22.6847  -60.9964  -34.0990 O   0  0  0  0  0  0  0  0  0  0  0  0
   21.8070  -62.8982  -35.5458 O   0  0  0  0  0  0  0  0  0  0  0  0
  1  2  2  0  0  0  0
  2  4  1  0  0  0  0
  2  3  1  0  0  0  0
  4  7  1  0  0  0  0
  5  9  1  0  0  0  0
  5  4  2  0  0  0  0
  6  5  1  0  0  0  0
  8  7  2  0  0  0  0
  9  8  1  0  0  0  0
 10 15  1  0  0  0  0
 10  9  1  1  0  0  0
 10 11  1  0  0  0  0
 11 14  1  6  0  0  0
 11 12  1  0  0  0  0
 12 13  1  6  0  0  0
 15 16  1  0  0  0  0
 16 12  1  0  0  0  0
 16 17  1  1  0  0  0
 17 18  1  0  0  0  0
 18 19  1  0  0  0  0
 19 21  1  0  0  0  0
 19 20  1  0  0  0  0
 22 19  2  0  0  0  0
M  END
>  <CHROM.1>
177.96112576,113.86019957,-178.58909593,-177.09169756,63.45526598,18.73845452
-59.16312771,-36.68379008,2.70244656,-0.14441183,-0.51903913

>  <Name>
lig.pdb

>  <RI>
0

>  <Rbt.Current_Directory>
/home/itssahil/PROJECTS/Mol_Feturizer/New_Systems/rnas/5btp

>  <Rbt.Executable>
rbdock ($Id: //depot/dev/client3/rdock/2013.1/src/exe/rbdock.cxx#4 $)

>  <Rbt.Library>
libRbt.so (2013.1, Build901 2013/11/27)

>  <Rbt.Parameter_File>
/export/apps/rDock/src/rDock_2013.1_src/data/scripts/dock_solv.prm

>  <Rbt.Receptor>
prm/pocket_docking_4.prm

>  <SCORE>
-20.4204

>  <SCORE.INTER>
-18.8842

>  <SCORE.INTER.CONST>
1

>  <SCORE.INTER.POLAR>
0

>  <SCORE.INTER.ROT>
5

>  <SCORE.INTER.SOLV>
20.968

>  <SCORE.INTER.VDW>
-26.5122

>  <SCORE.INTER.norm>
-0.858374

>  <SCORE.INTRA>
-1.53622

>  <SCORE.INTRA.DIHEDRAL>
-1.70857

>  <SCORE.INTRA.DIHEDRAL.0>
4.21161

>  <SCORE.INTRA.POLAR>
0

>  <SCORE.INTRA.POLAR.0>
0

>  <SCORE.INTRA.REPUL>
0

>  <SCORE.INTRA.REPUL.0>
0

>  <SCORE.INTRA.SOLV>
-0.228932

>  <SCORE.INTRA.SOLV.lig_0>
-41.4168

>  <SCORE.INTRA.VDW>
-0.567465

>  <SCORE.INTRA.VDW.0>
-1.62533

>  <SCORE.INTRA.norm>
-0.069828

>  <SCORE.RESTR>
0

>  <SCORE.RESTR.CAVITY>
0

>  <SCORE.RESTR.norm>
0

>  <SCORE.SYSTEM>
0

>  <SCORE.SYSTEM.CONST>
0

>  <SCORE.SYSTEM.DIHEDRAL>
0

>  <SCORE.SYSTEM.SOLV>
0

>  <SCORE.SYSTEM.norm>
0

>  <SCORE.heavy>
22

>  <SCORE.norm>
-0.928202

>  <RMSD>
1.846

$$$$
lig.pdb
 OpenBabel11021811523D
libRbt.so/2013.1/901 2013/11/27
 22 23  0  0  0  0  0  0  0  0999 V2000
   13.0178  -59.7582  -36.8018 O   0  0  0  0  0  0  0  0  0  0  0  0
   13.7930  -59.1449  -37.5188 C   0  0  0  0  0  0  0  0  0  0  0  0
   13.3916  -58.5533  -38.6438 N   0  0  0  0  0  0  0  0  0  0  0  0
   15.2326  -59.0627  -37.1422 C   0  0  0  0  0  0  0  0  0  0  0  0
   16.2658  -58.4092  -37.9610 C   0  0  0  0  0  0  0  0  0  0  0  0
   16.0360  -57.7597  -39.2450 N   0  0  0  0  0  0  0  0  0  0  0  0
   15.9165  -59.5026  -36.0628 N   0  0  0  0  0  0  0  0  0  0  0  0
   17.2310  -59.1516  -36.2154 C   0  0  0  0  0  0  0  0  0  0  0  0
   17.4475  -58.4852  -37.3703 N   0  0  0  0  0  0  0  0  0  0  0  0
   18.7331  -57.9480  -37.8740 C   0  0  1  0  0  0  0  0  0  0  0  0
   19.2319  -56.8289  -36.9747 C   0  0  1  0  0  0  0  0  0  0  0  0
   20.7303  -56.9667  -37.0616 C   0  0  2  0  0  0  0  0  0  0  0  0
   21.2039  -56.2765  -38.2198 O   0  0  0  0  0  0  0  0  0  0  0  0
   18.8251  -55.5515  -37.4673 O   0  0  0  0  0  0  0  0  0  0  0  0
   19.7507  -58.9562  -37.8742 O   0  0  0  0  0  0  0  0  0  0  0  0
   20.9377  -58.4564  -37.2537 C   0  0  2  0  0  0  0  0  0  0  0  0
   21.1545  -59.1306  -35.9077 C   0  0  0  0  0  0  0  0  0  0  0  0
   21.3516  -60.5260  -36.1297 O   0  0  0  0  0  0  0  0  0  0  0  0
   21.5186  -61.5581  -34.9038 P   0  0  0  0  0  0  0  0  0  0  0  0
   20.2065  -61.4943  -34.1570 O   0  0  0  0  0  0  0  0  0  0  0  0
   22.6947  -60.9964  -34.1407 O   0  0  0  0  0  0  0  0  0  0  0  0
   21.7797  -62.8782  -35.5905 O   0  0  0  0  0  0  0  0  0  0  0  0
  1  2  2  0  0  0  0
  2  4  1  0  0  0  0
  2  3  1  0  0  0  0
  4  7  1  0  0  0  0
  5  9  1  0  0  0  0
  5  4  2  0  0  0  0
  6  5  1  0  0  0  0
  8  7  2  0  0  0  0
  9  8  1  0  0  0  0
 10 15  1  0  0  0  0
 10  9  1  1  0  0  0
 10 11  1  0  0  0  0
 11 14  1  6  0  0  0
 11 12  1  0  0  0  0
 12 13  1  6  0  0  0
 15 16  1  0  0  0  0
 16 12  1  0  0  0  0
 16 17  1  1  0  0  0
 17 18  1  0  0  0  0
 18 19  1  0  0  0  0
 19 21  1  0  0  0  0
 19 20  1  0  0  0  0
 22 19  2  0  0  0  0
M  END
>  <CHROM.1>
176.88062330,113.96864979,-179.73041295,-176.09312622,63.02935178,18.74598066
-59.15182205,-36.69953536,2.71085060,-0.14406298,-0.51432654

>  <Name>
lig.pdb

>  <RI>
0

>  <Rbt.Current_Directory>
/home/itssahil/PROJECTS/Mol_Feturizer/New_Systems/rnas/5btp

>  <Rbt.Executable>
rbdock ($Id: //depot/dev/client3/rdock/2013.1/src/exe/rbdock.cxx#4 $)

>  <Rbt.Library>
libRbt.so (2013.1, Build901 2013/11/27)

>  <Rbt.Parameter_File>
/export/apps/rDock/src/rDock_2013.1_src/data/scripts/dock_solv.prm

>  <Rbt.Receptor>
prm/pocket_docking_6.prm

>  <SCORE>
-20.3559

>  <SCORE.INTER>
-18.8351

>  <SCORE.INTER.CONST>
1

>  <SCORE.INTER.POLAR>
0

>  <SCORE.INTER.ROT>
5

>  <SCORE.INTER.SOLV>
20.9994

>  <SCORE.INTER.VDW>
-26.4899

>  <SCORE.INTER.norm>
-0.85614

>  <SCORE.INTRA>
-1.52084

>  <SCORE.INTRA.DIHEDRAL>
-1.66659

>  <SCORE.INTRA.DIHEDRAL.0>
4.21161

>  <SCORE.INTRA.POLAR>
0

>  <SCORE.INTRA.POLAR.0>
0

>  <SCORE.INTRA.REPUL>
0

>  <SCORE.INTRA.REPUL.0>
0

>  <SCORE.INTRA.SOLV>
-0.224732

>  <SCORE.INTRA.SOLV.lig_0>
-41.4168

>  <SCORE.INTRA.VDW>
-0.57518

>  <SCORE.INTRA.VDW.0>
-1.62533

>  <SCORE.INTRA.norm>
-0.0691291

>  <SCORE.RESTR>
0

>  <SCORE.RESTR.CAVITY>
0

>  <SCORE.RESTR.norm>
0

>  <SCORE.SYSTEM>
0

>  <SCORE.SYSTEM.CONST>
0

>  <SCORE.SYSTEM.DIHEDRAL>
0

>  <SCORE.SYSTEM.SOLV>
0

>  <SCORE.SYSTEM.norm>
0

>  <SCORE.heavy>
22

>  <SCORE.norm>
-0.925269

>  <RMSD>
1.846

$$$$
lig.pdb
 OpenBabel11021811523D
libRbt.so/2013.1/901 2013/11/27
 22 23  0  0  0  0  0  0  0  0999 V2000
   13.0698  -59.7797  -36.8032 O   0  0  0  0  0  0  0  0  0  0  0  0
   13.8177  -59.1164  -37.5043 C   0  0  0  0  0  0  0  0  0  0  0  0
   13.3862  -58.4975  -38.6032 N   0  0  0  0  0  0  0  0  0  0  0  0
   15.2579  -59.0020  -37.1383 C   0  0  0  0  0  0  0  0  0  0  0  0
   16.2735  -58.3410  -37.9729 C   0  0  0  0  0  0  0  0  0  0  0  0
   16.0236  -57.7143  -39.2644 N   0  0  0  0  0  0  0  0  0  0  0  0
   15.9565  -59.4137  -36.0573 N   0  0  0  0  0  0  0  0  0  0  0  0
   17.2633  -59.0405  -36.2234 C   0  0  0  0  0  0  0  0  0  0  0  0
   17.4601  -58.3866  -37.3889 N   0  0  0  0  0  0  0  0  0  0  0  0
   18.7322  -57.8328  -37.9084 C   0  0  1  0  0  0  0  0  0  0  0  0
   19.2420  -56.7261  -36.9999 C   0  0  1  0  0  0  0  0  0  0  0  0
   20.7392  -56.8529  -37.1186 C   0  0  2  0  0  0  0  0  0  0  0  0
   21.1857  -56.1400  -38.2738 O   0  0  0  0  0  0  0  0  0  0  0  0
   18.8180  -55.4431  -37.4622 O   0  0  0  0  0  0  0  0  0  0  0  0
   19.7556  -58.8344  -37.9461 O   0  0  0  0  0  0  0  0  0  0  0  0
   20.9517  -58.3378  -37.3405 C   0  0  2  0  0  0  0  0  0  0  0  0
   21.1991  -59.0337  -36.0109 C   0  0  0  0  0  0  0  0  0  0  0  0
   22.4038  -58.5159  -35.4491 O   0  0  0  0  0  0  0  0  0  0  0  0
   23.8162  -58.6549  -36.2118 P   0  0  0  0  0  0  0  0  0  0  0  0
   23.7855  -57.5950  -37.2885 O   0  0  0  0  0  0  0  0  0  0  0  0
   23.7853  -60.0715  -36.7348 O   0  0  0  0  0  0  0  0  0  0  0  0
   24.8299  -58.4034  -35.1203 O   0  0  0  0  0  0  0  0  0  0  0  0
  1  2  2  0  0  0  0
  2  4  1  0  0  0  0
  2  3  1  0  0  0  0
  4  7  1  0  0  0  0
  5  9  1  0  0  0  0
  5  4  2  0  0  0  0
  6  5  1  0  0  0  0
  8  7  2  0  0  0  0
  9  8  1  0  0  0  0
 10 15  1  0  0  0  0
 10  9  1  1  0  0  0
 10 11  1  0  0  0  0
 11 14  1  6  0  0  0
 11 12  1  0  0  0  0
 12 13  1  6  0  0  0
 15 16  1  0  0  0  0
 16 12  1  0  0  0  0
 16 17  1  1  0  0  0
 17 18  1  0  0  0  0
 18 19  1  0  0  0  0
 19 21  1  0  0  0  0
 19 20  1  0  0  0  0
 22 19  2  0  0  0  0
M  END
>  <CHROM.1>
173.88010744,116.05155939,-63.12352182,-60.63708957,77.48092382,19.39618728
-58.27042506,-37.06201136,3.10561259,-0.14169545,-0.55625365

>  <Name>
lig.pdb

>  <RI>
0

>  <Rbt.Current_Directory>
/home/itssahil/PROJECTS/Mol_Feturizer/New_Systems/rnas/5btp

>  <Rbt.Executable>
rbdock ($Id: //depot/dev/client3/rdock/2013.1/src/exe/rbdock.cxx#4 $)

>  <Rbt.Library>
libRbt.so (2013.1, Build901 2013/11/27)

>  <Rbt.Parameter_File>
/export/apps/rDock/src/rDock_2013.1_src/data/scripts/dock_solv.prm

>  <Rbt.Receptor>
prm/pocket_docking_4.prm

>  <SCORE>
-19.1614

>  <SCORE.INTER>
-18.7007

>  <SCORE.INTER.CONST>
1

>  <SCORE.INTER.POLAR>
0

>  <SCORE.INTER.ROT>
5

>  <SCORE.INTER.SOLV>
20.4574

>  <SCORE.INTER.VDW>
-26.2196

>  <SCORE.INTER.norm>
-0.85003

>  <SCORE.INTRA>
-0.460777

>  <SCORE.INTRA.DIHEDRAL>
-1.15156

>  <SCORE.INTRA.DIHEDRAL.0>
4.21161

>  <SCORE.INTRA.POLAR>
0

>  <SCORE.INTRA.POLAR.0>
0

>  <SCORE.INTRA.REPUL>
0

>  <SCORE.INTRA.REPUL.0>
0

>  <SCORE.INTRA.SOLV>
0.988463

>  <SCORE.INTRA.SOLV.lig_0>
-41.4168

>  <SCORE.INTRA.VDW>
-0.379227

>  <SCORE.INTRA.VDW.0>
-1.62533

>  <SCORE.INTRA.norm>
-0.0209444

>  <SCORE.RESTR>
0

>  <SCORE.RESTR.CAVITY>
0

>  <SCORE.RESTR.norm>
0

>  <SCORE.SYSTEM>
0

>  <SCORE.SYSTEM.CONST>
0

>  <SCORE.SYSTEM.DIHEDRAL>
0

>  <SCORE.SYSTEM.SOLV>
0

>  <SCORE.SYSTEM.norm>
0

>  <SCORE.heavy>
22

>  <SCORE.norm>
-0.870974

>  <RMSD>
1.848

$$$$
lig.pdb
 OpenBabel11021811523D
libRbt.so/2013.1/901 2013/11/27
 22 23  0  0  0  0  0  0  0  0999 V2000
   13.0509  -59.6509  -36.7695 O   0  0  0  0  0  0  0  0  0  0  0  0
   13.8428  -59.0835  -37.5058 C   0  0  0  0  0  0  0  0  0  0  0  0
   13.4596  -58.5270  -38.6548 N   0  0  0  0  0  0  0  0  0  0  0  0
   15.2824  -59.0193  -37.1255 C   0  0  0  0  0  0  0  0  0  0  0  0
   16.3257  -58.3784  -37.9414 C   0  0  0  0  0  0  0  0  0  0  0  0
   16.1072  -57.7257  -39.2258 N   0  0  0  0  0  0  0  0  0  0  0  0
   15.9580  -59.4680  -36.0446 N   0  0  0  0  0  0  0  0  0  0  0  0
   17.2772  -59.1333  -36.1937 C   0  0  0  0  0  0  0  0  0  0  0  0
   17.5049  -58.4692  -37.3478 N   0  0  0  0  0  0  0  0  0  0  0  0
   18.7983  -57.9479  -37.8480 C   0  0  1  0  0  0  0  0  0  0  0  0
   19.3114  -56.8392  -36.9439 C   0  0  1  0  0  0  0  0  0  0  0  0
   20.8079  -56.9972  -37.0296 C   0  0  2  0  0  0  0  0  0  0  0  0
   21.2922  -56.3092  -38.1847 O   0  0  0  0  0  0  0  0  0  0  0  0
   18.9228  -55.5545  -37.4320 O   0  0  0  0  0  0  0  0  0  0  0  0
   19.8019  -58.9700  -37.8509 O   0  0  0  0  0  0  0  0  0  0  0  0
   20.9950  -58.4890  -37.2272 C   0  0  2  0  0  0  0  0  0  0  0  0
   21.2009  -59.1712  -35.8836 C   0  0  0  0  0  0  0  0  0  0  0  0
   21.3600  -60.5709  -36.1091 O   0  0  0  0  0  0  0  0  0  0  0  0
   21.5407  -61.6053  -34.8870 P   0  0  0  0  0  0  0  0  0  0  0  0
   20.2315  -61.5539  -34.1341 O   0  0  0  0  0  0  0  0  0  0  0  0
   22.7159  -61.0366  -34.1276 O   0  0  0  0  0  0  0  0  0  0  0  0
   21.8090  -62.9212  -35.5789 O   0  0  0  0  0  0  0  0  0  0  0  0
  1  2  2  0  0  0  0
  2  4  1  0  0  0  0
  2  3  1  0  0  0  0
  4  7  1  0  0  0  0
  5  9  1  0  0  0  0
  5  4  2  0  0  0  0
  6  5  1  0  0  0  0
  8  7  2  0  0  0  0
  9  8  1  0  0  0  0
 10 15  1  0  0  0  0
 10  9  1  1  0  0  0
 10 11  1  0  0  0  0
 11 14  1  6  0  0  0
 11 12  1  0  0  0  0
 12 13  1  6  0  0  0
 15 16  1  0  0  0  0
 16 12  1  0  0  0  0
 16 17  1  1  0  0  0
 17 18  1  0  0  0  0
 18 19  1  0  0  0  0
 19 21  1  0  0  0  0
 19 20  1  0  0  0  0
 22 19  2  0  0  0  0
M  END
>  <CHROM.1>
179.19452136,114.19787459,179.45431113,-177.54427511,65.30849582,18.79595079
-59.15680222,-36.67825347,2.69903766,-0.13865881,-0.51313882

>  <Name>
lig.pdb

>  <RI>
0

>  <Rbt.Current_Directory>
/home/itssahil/PROJECTS/Mol_Feturizer/New_Systems/rnas/5btp

>  <Rbt.Executable>
rbdock ($Id: //depot/dev/client3/rdock/2013.1/src/exe/rbdock.cxx#4 $)

>  <Rbt.Library>
libRbt.so (2013.1, Build901 2013/11/27)

>  <Rbt.Parameter_File>
/export/apps/rDock/src/rDock_2013.1_src/data/scripts/dock_solv.prm

>  <Rbt.Receptor>
prm/pocket_docking_8.prm

>  <SCORE>
-20.4234

>  <SCORE.INTER>
-18.8979

>  <SCORE.INTER.CONST>
1

>  <SCORE.INTER.POLAR>
0

>  <SCORE.INTER.ROT>
5

>  <SCORE.INTER.SOLV>
20.7301

>  <SCORE.INTER.VDW>
-26.442

>  <SCORE.INTER.norm>
-0.858994

>  <SCORE.INTRA>
-1.52555

>  <SCORE.INTRA.DIHEDRAL>
-1.71009

>  <SCORE.INTRA.DIHEDRAL.0>
4.21161

>  <SCORE.INTRA.POLAR>
0

>  <SCORE.INTRA.POLAR.0>
0

>  <SCORE.INTRA.REPUL>
0

>  <SCORE.INTRA.REPUL.0>
0

>  <SCORE.INTRA.SOLV>
-0.227565

>  <SCORE.INTRA.SOLV.lig_0>
-41.4168

>  <SCORE.INTRA.VDW>
-0.556723

>  <SCORE.INTRA.VDW.0>
-1.62533

>  <SCORE.INTRA.norm>
-0.0693433

>  <SCORE.RESTR>
0

>  <SCORE.RESTR.CAVITY>
0

>  <SCORE.RESTR.norm>
0

>  <SCORE.SYSTEM>
0

>  <SCORE.SYSTEM.CONST>
0

>  <SCORE.SYSTEM.DIHEDRAL>
0

>  <SCORE.SYSTEM.SOLV>
0

>  <SCORE.SYSTEM.norm>
0

>  <SCORE.heavy>
22

>  <SCORE.norm>
-0.928338

>  <RMSD>
1.848

$$$$
lig.pdb
 OpenBabel11021811523D
libRbt.so/2013.1/901 2013/11/27
 22 23  0  0  0  0  0  0  0  0999 V2000
   12.9898  -59.6898  -36.7984 O   0  0  0  0  0  0  0  0  0  0  0  0
   13.7773  -59.1051  -37.5256 C   0  0  0  0  0  0  0  0  0  0  0  0
   13.3911  -58.5390  -38.6689 N   0  0  0  0  0  0  0  0  0  0  0  0
   15.2152  -59.0299  -37.1407 C   0  0  0  0  0  0  0  0  0  0  0  0
   16.2587  -58.3940  -37.9601 C   0  0  0  0  0  0  0  0  0  0  0  0
   16.0423  -57.7576  -39.2530 N   0  0  0  0  0  0  0  0  0  0  0  0
   15.8885  -59.4627  -36.0519 N   0  0  0  0  0  0  0  0  0  0  0  0
   17.2068  -59.1239  -36.2000 C   0  0  0  0  0  0  0  0  0  0  0  0
   17.4360  -58.4725  -37.3610 N   0  0  0  0  0  0  0  0  0  0  0  0
   18.7290  -57.9513  -37.8624 C   0  0  1  0  0  0  0  0  0  0  0  0
   19.2429  -56.8424  -36.9590 C   0  0  1  0  0  0  0  0  0  0  0  0
   20.7393  -57.0004  -37.0460 C   0  0  2  0  0  0  0  0  0  0  0  0
   21.2227  -56.3127  -38.2016 O   0  0  0  0  0  0  0  0  0  0  0  0
   18.8539  -55.5577  -37.4472 O   0  0  0  0  0  0  0  0  0  0  0  0
   19.7326  -58.9734  -37.8659 O   0  0  0  0  0  0  0  0  0  0  0  0
   20.9262  -58.4922  -37.2433 C   0  0  2  0  0  0  0  0  0  0  0  0
   21.1332  -59.1742  -35.8998 C   0  0  0  0  0  0  0  0  0  0  0  0
   21.3679  -60.5622  -36.1308 O   0  0  0  0  0  0  0  0  0  0  0  0
   21.5442  -61.6006  -34.9115 P   0  0  0  0  0  0  0  0  0  0  0  0
   20.2305  -61.5555  -34.1661 O   0  0  0  0  0  0  0  0  0  0  0  0
   22.7133  -61.0315  -34.1430 O   0  0  0  0  0  0  0  0  0  0  0  0
   21.8202  -62.9132  -35.6065 O   0  0  0  0  0  0  0  0  0  0  0  0
  1  2  2  0  0  0  0
  2  4  1  0  0  0  0
  2  3  1  0  0  0  0
  4  7  1  0  0  0  0
  5  9  1  0  0  0  0
  5  4  2  0  0  0  0
  6  5  1  0  0  0  0
  8  7  2  0  0  0  0
  9  8  1  0  0  0  0
 10 15  1  0  0  0  0
 10  9  1  1  0  0  0
 10 11  1  0  0  0  0
 11 14  1  6  0  0  0
 11 12  1  0  0  0  0
 12 13  1  6  0  0  0
 15 16  1  0  0  0  0
 16 12  1  0  0  0  0
 16 17  1  1  0  0  0
 17 18  1  0  0  0  0
 18 19  1  0  0  0  0
 19 21  1  0  0  0  0
 19 20  1  0  0  0  0
 22 19  2  0  0  0  0
M  END
>  <CHROM.1>
177.77819125,114.95984311,-177.29134111,-176.43416666,61.95543512,18.74870236
-59.16153598,-36.69686834,2.70413895,-0.13958048,-0.51048267

>  <Name>
lig.pdb

>  <RI>
0

>  <Rbt.Current_Directory>
/home/itssahil/PROJECTS/Mol_Feturizer/New_Systems/rnas/5btp

>  <Rbt.Executable>
rbdock ($Id: //depot/dev/client3/rdock/2013.1/src/exe/rbdock.cxx#4 $)

>  <Rbt.Library>
libRbt.so (2013.1, Build901 2013/11/27)

>  <Rbt.Parameter_File>
/export/apps/rDock/src/rDock_2013.1_src/data/scripts/dock_solv.prm

>  <Rbt.Receptor>
prm/pocket_docking_6.prm

>  <SCORE>
-20.4003

>  <SCORE.INTER>
-18.8915

>  <SCORE.INTER.CONST>
1

>  <SCORE.INTER.POLAR>
0

>  <SCORE.INTER.ROT>
5

>  <SCORE.INTER.SOLV>
20.9635

>  <SCORE.INTER.VDW>
-26.5155

>  <SCORE.INTER.norm>
-0.858705

>  <SCORE.INTRA>
-1.50877

>  <SCORE.INTRA.DIHEDRAL>
-1.68101

>  <SCORE.INTRA.DIHEDRAL.0>
4.21161

>  <SCORE.INTRA.POLAR>
0

>  <SCORE.INTRA.POLAR.0>
0

>  <SCORE.INTRA.REPUL>
0

>  <SCORE.INTRA.REPUL.0>
0

>  <SCORE.INTRA.SOLV>
-0.240004

>  <SCORE.INTRA.SOLV.lig_0>
-41.4168

>  <SCORE.INTRA.VDW>
-0.548267

>  <SCORE.INTRA.VDW.0>
-1.62533

>  <SCORE.INTRA.norm>
-0.0685806

>  <SCORE.RESTR>
0

>  <SCORE.RESTR.CAVITY>
0

>  <SCORE.RESTR.norm>
0

>  <SCORE.SYSTEM>
0

>  <SCORE.SYSTEM.CONST>
0

>  <SCORE.SYSTEM.DIHEDRAL>
0

>  <SCORE.SYSTEM.SOLV>
0

>  <SCORE.SYSTEM.norm>
0

>  <SCORE.heavy>
22

>  <SCORE.norm>
-0.927286

>  <RMSD>
1.858

$$$$
lig.pdb
 OpenBabel11021811523D
libRbt.so/2013.1/901 2013/11/27
 22 23  0  0  0  0  0  0  0  0999 V2000
   14.3587  -60.1781  -36.3659 O   0  0  0  0  0  0  0  0  0  0  0  0
   14.1205  -59.2437  -37.1151 C   0  0  0  0  0  0  0  0  0  0  0  0
   12.8826  -58.7814  -37.2907 N   0  0  0  0  0  0  0  0  0  0  0  0
   15.2357  -58.6055  -37.8702 C   0  0  0  0  0  0  0  0  0  0  0  0
   16.6461  -58.6447  -37.4529 C   0  0  0  0  0  0  0  0  0  0  0  0
   17.1511  -59.3005  -36.2537 N   0  0  0  0  0  0  0  0  0  0  0  0
   15.2670  -57.9021  -39.0237 N   0  0  0  0  0  0  0  0  0  0  0  0
   16.5658  -57.5503  -39.2765 C   0  0  0  0  0  0  0  0  0  0  0  0
   17.4087  -58.0012  -38.3221 N   0  0  0  0  0  0  0  0  0  0  0  0
   18.8776  -57.8193  -38.2572 C   0  0  1  0  0  0  0  0  0  0  0  0
   19.2290  -56.6294  -37.3794 C   0  0  1  0  0  0  0  0  0  0  0  0
   20.5433  -57.0380  -36.7650 C   0  0  2  0  0  0  0  0  0  0  0  0
   21.6072  -56.7170  -37.6634 O   0  0  0  0  0  0  0  0  0  0  0  0
   19.3968  -55.4449  -38.1594 O   0  0  0  0  0  0  0  0  0  0  0  0
   19.5151  -58.9610  -37.6723 O   0  0  0  0  0  0  0  0  0  0  0  0
   20.4276  -58.5458  -36.6531 C   0  0  2  0  0  0  0  0  0  0  0  0
   19.8960  -58.9276  -35.2802 C   0  0  0  0  0  0  0  0  0  0  0  0
   20.8446  -58.5129  -34.2987 O   0  0  0  0  0  0  0  0  0  0  0  0
   22.2834  -59.2254  -34.1647 P   0  0  0  0  0  0  0  0  0  0  0  0
   23.0047  -58.8955  -35.4510 O   0  0  0  0  0  0  0  0  0  0  0  0
   21.9297  -60.6854  -34.0087 O   0  0  0  0  0  0  0  0  0  0  0  0
   22.8796  -58.5819  -32.9348 O   0  0  0  0  0  0  0  0  0  0  0  0
  1  2  2  0  0  0  0
  2  4  1  0  0  0  0
  2  3  1  0  0  0  0
  4  7  1  0  0  0  0
  5  9  1  0  0  0  0
  5  4  2  0  0  0  0
  6  5  1  0  0  0  0
  8  7  2  0  0  0  0
  9  8  1  0  0  0  0
 10 15  1  0  0  0  0
 10  9  1  1  0  0  0
 10 11  1  0  0  0  0
 11 14  1  6  0  0  0
 11 12  1  0  0  0  0
 12 13  1  6  0  0  0
 15 16  1  0  0  0  0
 16 12  1  0  0  0  0
 16 17  1  1  0  0  0
 17 18  1  0  0  0  0
 18 19  1  0  0  0  0
 19 21  1  0  0  0  0
 19 20  1  0  0  0  0
 22 19  2  0  0  0  0
M  END
>  <CHROM.1>
-23.84712475,-84.12149884,-63.53526803,-68.91933712,65.60996356,18.96659836
-58.42672112,-36.50946908,2.79997083,-0.25762654,-0.87078254

>  <Name>
lig.pdb

>  <RI>
0

>  <Rbt.Current_Directory>
/home/itssahil/PROJECTS/Mol_Feturizer/New_Systems/rnas/5btp

>  <Rbt.Executable>
rbdock ($Id: //depot/dev/client3/rdock/2013.1/src/exe/rbdock.cxx#4 $)

>  <Rbt.Library>
libRbt.so (2013.1, Build901 2013/11/27)

>  <Rbt.Parameter_File>
/export/apps/rDock/src/rDock_2013.1_src/data/scripts/dock_solv.prm

>  <Rbt.Receptor>
prm/pocket_docking_4.prm

>  <SCORE>
-15.4015

>  <SCORE.INTER>
-15.8641

>  <SCORE.INTER.CONST>
1

>  <SCORE.INTER.POLAR>
0

>  <SCORE.INTER.ROT>
5

>  <SCORE.INTER.SOLV>
19.6493

>  <SCORE.INTER.VDW>
-24.0592

>  <SCORE.INTER.norm>
-0.721096

>  <SCORE.INTRA>
0.462636

>  <SCORE.INTRA.DIHEDRAL>
0.543548

>  <SCORE.INTRA.DIHEDRAL.0>
4.21161

>  <SCORE.INTRA.POLAR>
0

>  <SCORE.INTRA.POLAR.0>
0

>  <SCORE.INTRA.REPUL>
0

>  <SCORE.INTRA.REPUL.0>
0

>  <SCORE.INTRA.SOLV>
1.73362

>  <SCORE.INTRA.SOLV.lig_0>
-41.4168

>  <SCORE.INTRA.VDW>
-0.67595

>  <SCORE.INTRA.VDW.0>
-1.62533

>  <SCORE.INTRA.norm>
0.0210289

>  <SCORE.RESTR>
0

>  <SCORE.RESTR.CAVITY>
0

>  <SCORE.RESTR.norm>
0

>  <SCORE.SYSTEM>
0

>  <SCORE.SYSTEM.CONST>
0

>  <SCORE.SYSTEM.DIHEDRAL>
0

>  <SCORE.SYSTEM.SOLV>
0

>  <SCORE.SYSTEM.norm>
0

>  <SCORE.heavy>
22

>  <SCORE.norm>
-0.700067

>  <RMSD>
1.859

$$$$
lig.pdb
 OpenBabel11021811523D
libRbt.so/2013.1/901 2013/11/27
 22 23  0  0  0  0  0  0  0  0999 V2000
   14.3230  -60.2639  -36.3720 O   0  0  0  0  0  0  0  0  0  0  0  0
   14.0647  -59.2987  -37.0739 C   0  0  0  0  0  0  0  0  0  0  0  0
   12.8241  -58.8250  -37.1887 N   0  0  0  0  0  0  0  0  0  0  0  0
   15.1573  -58.6344  -37.8396 C   0  0  0  0  0  0  0  0  0  0  0  0
   16.5756  -58.6614  -37.4492 C   0  0  0  0  0  0  0  0  0  0  0  0
   17.1114  -59.3287  -36.2698 N   0  0  0  0  0  0  0  0  0  0  0  0
   15.1579  -57.9132  -38.9824 N   0  0  0  0  0  0  0  0  0  0  0  0
   16.4470  -57.5405  -39.2539 C   0  0  0  0  0  0  0  0  0  0  0  0
   17.3134  -57.9947  -38.3223 N   0  0  0  0  0  0  0  0  0  0  0  0
   18.7808  -57.7944  -38.2819 C   0  0  1  0  0  0  0  0  0  0  0  0
   19.1268  -56.5491  -37.4822 C   0  0  1  0  0  0  0  0  0  0  0  0
   20.4504  -56.9057  -36.8555 C   0  0  2  0  0  0  0  0  0  0  0  0
   21.5034  -56.6302  -37.7815 O   0  0  0  0  0  0  0  0  0  0  0  0
   19.2757  -55.4134  -38.3353 O   0  0  0  0  0  0  0  0  0  0  0  0
   19.4351  -58.8913  -37.6333 O   0  0  0  0  0  0  0  0  0  0  0  0
   20.3516  -58.4048  -36.6498 C   0  0  2  0  0  0  0  0  0  0  0  0
   19.8354  -58.7065  -35.2514 C   0  0  0  0  0  0  0  0  0  0  0  0
   20.7726  -58.1948  -34.3054 O   0  0  0  0  0  0  0  0  0  0  0  0
   22.2440  -58.8324  -34.1487 P   0  0  0  0  0  0  0  0  0  0  0  0
   22.9635  -58.4755  -35.4287 O   0  0  0  0  0  0  0  0  0  0  0  0
   21.9627  -60.3074  -33.9856 O   0  0  0  0  0  0  0  0  0  0  0  0
   22.7916  -58.1508  -32.9167 O   0  0  0  0  0  0  0  0  0  0  0  0
  1  2  2  0  0  0  0
  2  4  1  0  0  0  0
  2  3  1  0  0  0  0
  4  7  1  0  0  0  0
  5  9  1  0  0  0  0
  5  4  2  0  0  0  0
  6  5  1  0  0  0  0
  8  7  2  0  0  0  0
  9  8  1  0  0  0  0
 10 15  1  0  0  0  0
 10  9  1  1  0  0  0
 10 11  1  0  0  0  0
 11 14  1  6  0  0  0
 11 12  1  0  0  0  0
 12 13  1  6  0  0  0
 15 16  1  0  0  0  0
 16 12  1  0  0  0  0
 16 17  1  1  0  0  0
 17 18  1  0  0  0  0
 18 19  1  0  0  0  0
 19 21  1  0  0  0  0
 19 20  1  0  0  0  0
 22 19  2  0  0  0  0
M  END
>  <CHROM.1>
-25.82023238,-88.58082749,-62.20357209,-67.70322443,68.67278904,18.89619292
-58.29212288,-36.51608511,2.82884613,-0.28104213,-0.91245785

>  <Name>
lig.pdb

>  <RI>
0

>  <Rbt.Current_Directory>
/home/itssahil/PROJECTS/Mol_Feturizer/New_Systems/rnas/5btp

>  <Rbt.Executable>
rbdock ($Id: //depot/dev/client3/rdock/2013.1/src/exe/rbdock.cxx#4 $)

>  <Rbt.Library>
libRbt.so (2013.1, Build901 2013/11/27)

>  <Rbt.Parameter_File>
/export/apps/rDock/src/rDock_2013.1_src/data/scripts/dock_solv.prm

>  <Rbt.Receptor>
prm/pocket_docking_8.prm

>  <SCORE>
-15.4468

>  <SCORE.INTER>
-16.0525

>  <SCORE.INTER.CONST>
1

>  <SCORE.INTER.POLAR>
0

>  <SCORE.INTER.ROT>
5

>  <SCORE.INTER.SOLV>
20.1705

>  <SCORE.INTER.VDW>
-24.3585

>  <SCORE.INTER.norm>
-0.729657

>  <SCORE.INTRA>
0.605634

>  <SCORE.INTRA.DIHEDRAL>
0.787589

>  <SCORE.INTRA.DIHEDRAL.0>
4.21161

>  <SCORE.INTRA.POLAR>
0

>  <SCORE.INTRA.POLAR.0>
0

>  <SCORE.INTRA.REPUL>
0

>  <SCORE.INTRA.REPUL.0>
0

>  <SCORE.INTRA.SOLV>
1.75756

>  <SCORE.INTRA.SOLV.lig_0>
-41.4168

>  <SCORE.INTRA.VDW>
-0.666942

>  <SCORE.INTRA.VDW.0>
-1.62533

>  <SCORE.INTRA.norm>
0.0275288

>  <SCORE.RESTR>
0

>  <SCORE.RESTR.CAVITY>
0

>  <SCORE.RESTR.norm>
0

>  <SCORE.SYSTEM>
0

>  <SCORE.SYSTEM.CONST>
0

>  <SCORE.SYSTEM.DIHEDRAL>
0

>  <SCORE.SYSTEM.SOLV>
0

>  <SCORE.SYSTEM.norm>
0

>  <SCORE.heavy>
22

>  <SCORE.norm>
-0.702128

>  <RMSD>
1.861

$$$$
lig.pdb
 OpenBabel11021811523D
libRbt.so/2013.1/901 2013/11/27
 22 23  0  0  0  0  0  0  0  0999 V2000
   13.0199  -59.7144  -36.7944 O   0  0  0  0  0  0  0  0  0  0  0  0
   13.7927  -59.1202  -37.5298 C   0  0  0  0  0  0  0  0  0  0  0  0
   13.3892  -58.5651  -38.6725 N   0  0  0  0  0  0  0  0  0  0  0  0
   15.2319  -59.0204  -37.1557 C   0  0  0  0  0  0  0  0  0  0  0  0
   16.2545  -58.3495  -37.9735 C   0  0  0  0  0  0  0  0  0  0  0  0
   16.0135  -57.6974  -39.2541 N   0  0  0  0  0  0  0  0  0  0  0  0
   15.9237  -59.4560  -36.0796 N   0  0  0  0  0  0  0  0  0  0  0  0
   17.2331  -59.0868  -36.2332 C   0  0  0  0  0  0  0  0  0  0  0  0
   17.4384  -58.4123  -37.3855 N   0  0  0  0  0  0  0  0  0  0  0  0
   18.7157  -57.8558  -37.8893 C   0  0  1  0  0  0  0  0  0  0  0  0
   19.2306  -56.7734  -36.9548 C   0  0  1  0  0  0  0  0  0  0  0  0
   20.7272  -56.9079  -37.0727 C   0  0  2  0  0  0  0  0  0  0  0  0
   21.1816  -56.1722  -38.2104 O   0  0  0  0  0  0  0  0  0  0  0  0
   18.8167  -55.4774  -37.3891 O   0  0  0  0  0  0  0  0  0  0  0  0
   19.7322  -58.8634  -37.9470 O   0  0  0  0  0  0  0  0  0  0  0  0
   20.9301  -58.3889  -37.3274 C   0  0  2  0  0  0  0  0  0  0  0  0
   21.1692  -59.1162  -36.0133 C   0  0  0  0  0  0  0  0  0  0  0  0
   22.3903  -58.6394  -35.4505 O   0  0  0  0  0  0  0  0  0  0  0  0
   23.7937  -58.8003  -36.2252 P   0  0  0  0  0  0  0  0  0  0  0  0
   23.7040  -60.1372  -36.9240 O   0  0  0  0  0  0  0  0  0  0  0  0
   24.8093  -58.7510  -35.1084 O   0  0  0  0  0  0  0  0  0  0  0  0
   23.8174  -57.6117  -37.1575 O   0  0  0  0  0  0  0  0  0  0  0  0
  1  2  2  0  0  0  0
  2  4  1  0  0  0  0
  2  3  1  0  0  0  0
  4  7  1  0  0  0  0
  5  9  1  0  0  0  0
  5  4  2  0  0  0  0
  6  5  1  0  0  0  0
  8  7  2  0  0  0  0
  9  8  1  0  0  0  0
 10 15  1  0  0  0  0
 10  9  1  1  0  0  0
 10 11  1  0  0  0  0
 11 14  1  6  0  0  0
 11 12  1  0  0  0  0
 12 13  1  6  0  0  0
 15 16  1  0  0  0  0
 16 12  1  0  0  0  0
 16 17  1  1  0  0  0
 17 18  1  0  0  0  0
 18 19  1  0  0  0  0
 19 21  1  0  0  0  0
 19 20  1  0  0  0  0
 22 19  2  0  0  0  0
M  END
>  <CHROM.1>
178.96980033,116.30893037,-64.30635246,-60.71874253,-36.23486681,19.37617347
-58.33079899,-37.05910327,3.09612405,-0.13631680,-0.53111965

>  <Name>
lig.pdb

>  <RI>
0

>  <Rbt.Current_Directory>
/home/itssahil/PROJECTS/Mol_Feturizer/New_Systems/rnas/5btp

>  <Rbt.Executable>
rbdock ($Id: //depot/dev/client3/rdock/2013.1/src/exe/rbdock.cxx#4 $)

>  <Rbt.Library>
libRbt.so (2013.1, Build901 2013/11/27)

>  <Rbt.Parameter_File>
/export/apps/rDock/src/rDock_2013.1_src/data/scripts/dock_solv.prm

>  <Rbt.Receptor>
prm/pocket_docking_7.prm

>  <SCORE>
-18.4936

>  <SCORE.INTER>
-18.535

>  <SCORE.INTER.CONST>
1

>  <SCORE.INTER.POLAR>
0

>  <SCORE.INTER.ROT>
5

>  <SCORE.INTER.SOLV>
21.0258

>  <SCORE.INTER.VDW>
-26.2986

>  <SCORE.INTER.norm>
-0.8425

>  <SCORE.INTRA>
0.0414288

>  <SCORE.INTRA.DIHEDRAL>
-0.896328

>  <SCORE.INTRA.DIHEDRAL.0>
4.21161

>  <SCORE.INTRA.POLAR>
0

>  <SCORE.INTRA.POLAR.0>
0

>  <SCORE.INTRA.REPUL>
0

>  <SCORE.INTRA.REPUL.0>
0

>  <SCORE.INTRA.SOLV>
1.89529

>  <SCORE.INTRA.SOLV.lig_0>
-41.4168

>  <SCORE.INTRA.VDW>
-0.458054

>  <SCORE.INTRA.VDW.0>
-1.62533

>  <SCORE.INTRA.norm>
0.00188313

>  <SCORE.RESTR>
0

>  <SCORE.RESTR.CAVITY>
0

>  <SCORE.RESTR.norm>
0

>  <SCORE.SYSTEM>
0

>  <SCORE.SYSTEM.CONST>
0

>  <SCORE.SYSTEM.DIHEDRAL>
0

>  <SCORE.SYSTEM.SOLV>
0

>  <SCORE.SYSTEM.norm>
0

>  <SCORE.heavy>
22

>  <SCORE.norm>
-0.840617

>  <RMSD>
1.863

$$$$
lig.pdb
 OpenBabel11021811523D
libRbt.so/2013.1/901 2013/11/27
 22 23  0  0  0  0  0  0  0  0999 V2000
   13.0131  -59.7210  -36.8271 O   0  0  0  0  0  0  0  0  0  0  0  0
   13.8038  -59.1299  -37.5458 C   0  0  0  0  0  0  0  0  0  0  0  0
   13.4232  -58.5574  -38.6878 N   0  0  0  0  0  0  0  0  0  0  0  0
   15.2390  -59.0539  -37.1516 C   0  0  0  0  0  0  0  0  0  0  0  0
   16.2880  -58.4202  -37.9658 C   0  0  0  0  0  0  0  0  0  0  0  0
   16.0802  -57.7870  -39.2616 N   0  0  0  0  0  0  0  0  0  0  0  0
   15.9052  -59.4841  -36.0573 N   0  0  0  0  0  0  0  0  0  0  0  0
   17.2244  -59.1458  -36.1976 C   0  0  0  0  0  0  0  0  0  0  0  0
   17.4613  -58.4973  -37.3587 N   0  0  0  0  0  0  0  0  0  0  0  0
   18.7577  -57.9776  -37.8529 C   0  0  1  0  0  0  0  0  0  0  0  0
   19.2701  -56.8725  -36.9440 C   0  0  1  0  0  0  0  0  0  0  0  0
   20.7665  -57.0337  -37.0249 C   0  0  2  0  0  0  0  0  0  0  0  0
   21.2565  -56.3437  -38.1764 O   0  0  0  0  0  0  0  0  0  0  0  0
   18.8861  -55.5856  -37.4300 O   0  0  0  0  0  0  0  0  0  0  0  0
   19.7590  -59.0020  -37.8551 O   0  0  0  0  0  0  0  0  0  0  0  0
   20.9509  -58.5253  -37.2259 C   0  0  2  0  0  0  0  0  0  0  0  0
   21.1506  -59.2117  -35.8835 C   0  0  0  0  0  0  0  0  0  0  0  0
   21.3545  -60.6044  -36.1158 O   0  0  0  0  0  0  0  0  0  0  0  0
   21.5413  -61.6426  -34.8979 P   0  0  0  0  0  0  0  0  0  0  0  0
   20.2423  -61.5808  -34.1283 O   0  0  0  0  0  0  0  0  0  0  0  0
   22.7311  -61.0859  -34.1525 O   0  0  0  0  0  0  0  0  0  0  0  0
   21.7889  -62.9596  -35.5954 O   0  0  0  0  0  0  0  0  0  0  0  0
  1  2  2  0  0  0  0
  2  4  1  0  0  0  0
  2  3  1  0  0  0  0
  4  7  1  0  0  0  0
  5  9  1  0  0  0  0
  5  4  2  0  0  0  0
  6  5  1  0  0  0  0
  8  7  2  0  0  0  0
  9  8  1  0  0  0  0
 10 15  1  0  0  0  0
 10  9  1  1  0  0  0
 10 11  1  0  0  0  0
 11 14  1  6  0  0  0
 11 12  1  0  0  0  0
 12 13  1  6  0  0  0
 15 16  1  0  0  0  0
 16 12  1  0  0  0  0
 16 17  1  1  0  0  0
 17 18  1  0  0  0  0
 18 19  1  0  0  0  0
 19 21  1  0  0  0  0
 19 20  1  0  0  0  0
 22 19  2  0  0  0  0
M  END
>  <CHROM.1>
177.25100053,115.32076971,-178.52655093,-177.53971817,62.44521443,18.76664805
-59.19340309,-36.69114518,2.70011039,-0.14362381,-0.50838522

>  <Name>
lig.pdb

>  <RI>
0

>  <Rbt.Current_Directory>
/home/itssahil/PROJECTS/Mol_Feturizer/New_Systems/rnas/5btp

>  <Rbt.Executable>
rbdock ($Id: //depot/dev/client3/rdock/2013.1/src/exe/rbdock.cxx#4 $)

>  <Rbt.Library>
libRbt.so (2013.1, Build901 2013/11/27)

>  <Rbt.Parameter_File>
/export/apps/rDock/src/rDock_2013.1_src/data/scripts/dock_solv.prm

>  <Rbt.Receptor>
prm/pocket_docking_5.prm

>  <SCORE>
-20.4052

>  <SCORE.INTER>
-18.8648

>  <SCORE.INTER.CONST>
1

>  <SCORE.INTER.POLAR>
0

>  <SCORE.INTER.ROT>
5

>  <SCORE.INTER.SOLV>
20.9053

>  <SCORE.INTER.VDW>
-26.4783

>  <SCORE.INTER.norm>
-0.857492

>  <SCORE.INTRA>
-1.54041

>  <SCORE.INTRA.DIHEDRAL>
-1.7187

>  <SCORE.INTRA.DIHEDRAL.0>
4.21161

>  <SCORE.INTRA.POLAR>
0

>  <SCORE.INTRA.POLAR.0>
0

>  <SCORE.INTRA.REPUL>
0

>  <SCORE.INTRA.REPUL.0>
0

>  <SCORE.INTRA.SOLV>
-0.242472

>  <SCORE.INTRA.SOLV.lig_0>
-41.4168

>  <SCORE.INTRA.VDW>
-0.559824

>  <SCORE.INTRA.VDW.0>
-1.62533

>  <SCORE.INTRA.norm>
-0.0700187

>  <SCORE.RESTR>
0

>  <SCORE.RESTR.CAVITY>
0

>  <SCORE.RESTR.norm>
0

>  <SCORE.SYSTEM>
0

>  <SCORE.SYSTEM.CONST>
0

>  <SCORE.SYSTEM.DIHEDRAL>
0

>  <SCORE.SYSTEM.SOLV>
0

>  <SCORE.SYSTEM.norm>
0

>  <SCORE.heavy>
22

>  <SCORE.norm>
-0.927511

>  <RMSD>
1.868

$$$$
lig.pdb
 OpenBabel11021811523D
libRbt.so/2013.1/901 2013/11/27
 22 23  0  0  0  0  0  0  0  0999 V2000
   12.8818  -58.6884  -37.6193 O   0  0  0  0  0  0  0  0  0  0  0  0
   14.0188  -59.0543  -37.3654 C   0  0  0  0  0  0  0  0  0  0  0  0
   14.2661  -60.0106  -36.4704 N   0  0  0  0  0  0  0  0  0  0  0  0
   15.1696  -58.4094  -38.0589 C   0  0  0  0  0  0  0  0  0  0  0  0
   16.5604  -58.4673  -37.5824 C   0  0  0  0  0  0  0  0  0  0  0  0
   17.0090  -59.1507  -36.3762 N   0  0  0  0  0  0  0  0  0  0  0  0
   15.2550  -57.6834  -39.1955 N   0  0  0  0  0  0  0  0  0  0  0  0
   16.5658  -57.3361  -39.3852 C   0  0  0  0  0  0  0  0  0  0  0  0
   17.3639  -57.8122  -38.4048 N   0  0  0  0  0  0  0  0  0  0  0  0
   18.8298  -57.6424  -38.2734 C   0  0  1  0  0  0  0  0  0  0  0  0
   19.1520  -56.5696  -37.2462 C   0  0  1  0  0  0  0  0  0  0  0  0
   20.4476  -57.0528  -36.6465 C   0  0  2  0  0  0  0  0  0  0  0  0
   21.5380  -56.6264  -37.4660 O   0  0  0  0  0  0  0  0  0  0  0  0
   19.3414  -55.2988  -37.8700 O   0  0  0  0  0  0  0  0  0  0  0  0
   19.4511  -58.8483  -37.8133 O   0  0  0  0  0  0  0  0  0  0  0  0
   20.3313  -58.5627  -36.7236 C   0  0  2  0  0  0  0  0  0  0  0  0
   19.7587  -59.1086  -35.4246 C   0  0  0  0  0  0  0  0  0  0  0  0
   20.7106  -58.8884  -34.3852 O   0  0  0  0  0  0  0  0  0  0  0  0
   22.0966  -59.7078  -34.3255 P   0  0  0  0  0  0  0  0  0  0  0  0
   21.7034  -61.1555  -34.5069 O   0  0  0  0  0  0  0  0  0  0  0  0
   22.6312  -59.3775  -32.9521 O   0  0  0  0  0  0  0  0  0  0  0  0
   22.8938  -59.1315  -35.4722 O   0  0  0  0  0  0  0  0  0  0  0  0
  1  2  2  0  0  0  0
  2  4  1  0  0  0  0
  2  3  1  0  0  0  0
  4  7  1  0  0  0  0
  5  9  1  0  0  0  0
  5  4  2  0  0  0  0
  6  5  1  0  0  0  0
  8  7  2  0  0  0  0
  9  8  1  0  0  0  0
 10 15  1  0  0  0  0
 10  9  1  1  0  0  0
 10 11  1  0  0  0  0
 11 14  1  6  0  0  0
 11 12  1  0  0  0  0
 12 13  1  6  0  0  0
 15 16  1  0  0  0  0
 16 12  1  0  0  0  0
 16 17  1  1  0  0  0
 17 18  1  0  0  0  0
 18 19  1  0  0  0  0
 19 21  1  0  0  0  0
 19 20  1  0  0  0  0
 22 19  2  0  0  0  0
M  END
>  <CHROM.1>
161.46637659,-78.19181821,-66.87131120,-70.15577397,-48.63146098,18.85619841
-58.47300767,-36.60454336,2.75548905,-0.24580899,-0.76522422

>  <Name>
lig.pdb

>  <RI>
0

>  <Rbt.Current_Directory>
/home/itssahil/PROJECTS/Mol_Feturizer/New_Systems/rnas/5btp

>  <Rbt.Executable>
rbdock ($Id: //depot/dev/client3/rdock/2013.1/src/exe/rbdock.cxx#4 $)

>  <Rbt.Library>
libRbt.so (2013.1, Build901 2013/11/27)

>  <Rbt.Parameter_File>
/export/apps/rDock/src/rDock_2013.1_src/data/scripts/dock_solv.prm

>  <Rbt.Receptor>
prm/pocket_docking_3.prm

>  <SCORE>
-14.7785

>  <SCORE.INTER>
-15.5354

>  <SCORE.INTER.CONST>
1

>  <SCORE.INTER.POLAR>
0

>  <SCORE.INTER.ROT>
5

>  <SCORE.INTER.SOLV>
18.9395

>  <SCORE.INTER.VDW>
-23.6034

>  <SCORE.INTER.norm>
-0.706154

>  <SCORE.INTRA>
0.756903

>  <SCORE.INTRA.DIHEDRAL>
0.227934

>  <SCORE.INTRA.DIHEDRAL.0>
4.21161

>  <SCORE.INTRA.POLAR>
0

>  <SCORE.INTRA.POLAR.0>
0

>  <SCORE.INTRA.REPUL>
0

>  <SCORE.INTRA.REPUL.0>
0

>  <SCORE.INTRA.SOLV>
2.79515

>  <SCORE.INTRA.SOLV.lig_0>
-41.4168

>  <SCORE.INTRA.VDW>
-0.754641

>  <SCORE.INTRA.VDW.0>
-1.62533

>  <SCORE.INTRA.norm>
0.0344047

>  <SCORE.RESTR>
0

>  <SCORE.RESTR.CAVITY>
0

>  <SCORE.RESTR.norm>
0

>  <SCORE.SYSTEM>
0

>  <SCORE.SYSTEM.CONST>
0

>  <SCORE.SYSTEM.DIHEDRAL>
0

>  <SCORE.SYSTEM.SOLV>
0

>  <SCORE.SYSTEM.norm>
0

>  <SCORE.heavy>
22

>  <SCORE.norm>
-0.67175

>  <RMSD>
1.877

$$$$
lig.pdb
 OpenBabel11021811523D
libRbt.so/2013.1/901 2013/11/27
 22 23  0  0  0  0  0  0  0  0999 V2000
   12.9468  -59.6337  -36.8080 O   0  0  0  0  0  0  0  0  0  0  0  0
   13.7458  -59.0671  -37.5371 C   0  0  0  0  0  0  0  0  0  0  0  0
   13.3727  -58.5062  -38.6873 N   0  0  0  0  0  0  0  0  0  0  0  0
   15.1828  -59.0087  -37.1463 C   0  0  0  0  0  0  0  0  0  0  0  0
   16.2354  -58.3764  -37.9570 C   0  0  0  0  0  0  0  0  0  0  0  0
   16.0300  -57.7279  -39.2455 N   0  0  0  0  0  0  0  0  0  0  0  0
   15.8480  -59.4565  -36.0585 N   0  0  0  0  0  0  0  0  0  0  0  0
   17.1700  -59.1291  -36.1991 C   0  0  0  0  0  0  0  0  0  0  0  0
   17.4097  -58.4709  -37.3542 N   0  0  0  0  0  0  0  0  0  0  0  0
   18.7095  -57.9582  -37.8468 C   0  0  1  0  0  0  0  0  0  0  0  0
   19.2281  -56.8578  -36.9357 C   0  0  1  0  0  0  0  0  0  0  0  0
   20.7235  -57.0280  -37.0160 C   0  0  2  0  0  0  0  0  0  0  0  0
   21.2184  -56.3390  -38.1661 O   0  0  0  0  0  0  0  0  0  0  0  0
   18.8522  -55.5677  -37.4198 O   0  0  0  0  0  0  0  0  0  0  0  0
   19.7045  -58.9887  -37.8501 O   0  0  0  0  0  0  0  0  0  0  0  0
   20.8990  -58.5204  -37.2194 C   0  0  2  0  0  0  0  0  0  0  0  0
   21.0936  -59.2101  -35.8779 C   0  0  0  0  0  0  0  0  0  0  0  0
   21.3286  -60.5972  -36.1148 O   0  0  0  0  0  0  0  0  0  0  0  0
   21.5140  -61.6391  -34.8999 P   0  0  0  0  0  0  0  0  0  0  0  0
   20.1981  -61.6125  -34.1574 O   0  0  0  0  0  0  0  0  0  0  0  0
   22.6748  -61.0603  -34.1261 O   0  0  0  0  0  0  0  0  0  0  0  0
   21.8065  -62.9453  -35.6004 O   0  0  0  0  0  0  0  0  0  0  0  0
  1  2  2  0  0  0  0
  2  4  1  0  0  0  0
  2  3  1  0  0  0  0
  4  7  1  0  0  0  0
  5  9  1  0  0  0  0
  5  4  2  0  0  0  0
  6  5  1  0  0  0  0
  8  7  2  0  0  0  0
  9  8  1  0  0  0  0
 10 15  1  0  0  0  0
 10  9  1  1  0  0  0
 10 11  1  0  0  0  0
 11 14  1  6  0  0  0
 11 12  1  0  0  0  0
 12 13  1  6  0  0  0
 15 16  1  0  0  0  0
 16 12  1  0  0  0  0
 16 17  1  1  0  0  0
 17 18  1  0  0  0  0
 18 19  1  0  0  0  0
 19 21  1  0  0  0  0
 19 20  1  0  0  0  0
 22 19  2  0  0  0  0
M  END
>  <CHROM.1>
178.79929453,114.74762402,-176.83213203,-177.31723965,62.72442793,18.72263546
-59.17137531,-36.68645926,2.69544747,-0.13884185,-0.50716620

>  <Name>
lig.pdb

>  <RI>
0

>  <Rbt.Current_Directory>
/home/itssahil/PROJECTS/Mol_Feturizer/New_Systems/rnas/5btp

>  <Rbt.Executable>
rbdock ($Id: //depot/dev/client3/rdock/2013.1/src/exe/rbdock.cxx#4 $)

>  <Rbt.Library>
libRbt.so (2013.1, Build901 2013/11/27)

>  <Rbt.Parameter_File>
/export/apps/rDock/src/rDock_2013.1_src/data/scripts/dock_solv.prm

>  <Rbt.Receptor>
prm/pocket_docking_5.prm

>  <SCORE>
-20.3531

>  <SCORE.INTER>
-18.8374

>  <SCORE.INTER.CONST>
1

>  <SCORE.INTER.POLAR>
0

>  <SCORE.INTER.ROT>
5

>  <SCORE.INTER.SOLV>
20.983

>  <SCORE.INTER.VDW>
-26.4859

>  <SCORE.INTER.norm>
-0.856244

>  <SCORE.INTRA>
-1.51575

>  <SCORE.INTRA.DIHEDRAL>
-1.70464

>  <SCORE.INTRA.DIHEDRAL.0>
4.21161

>  <SCORE.INTRA.POLAR>
0

>  <SCORE.INTRA.POLAR.0>
0

>  <SCORE.INTRA.REPUL>
0

>  <SCORE.INTRA.REPUL.0>
0

>  <SCORE.INTRA.SOLV>
-0.241607

>  <SCORE.INTRA.SOLV.lig_0>
-41.4168

>  <SCORE.INTRA.VDW>
-0.542631

>  <SCORE.INTRA.VDW.0>
-1.62533

>  <SCORE.INTRA.norm>
-0.0688979

>  <SCORE.RESTR>
0

>  <SCORE.RESTR.CAVITY>
0

>  <SCORE.RESTR.norm>
0

>  <SCORE.SYSTEM>
0

>  <SCORE.SYSTEM.CONST>
0

>  <SCORE.SYSTEM.DIHEDRAL>
0

>  <SCORE.SYSTEM.SOLV>
0

>  <SCORE.SYSTEM.norm>
0

>  <SCORE.heavy>
22

>  <SCORE.norm>
-0.925142

>  <RMSD>
1.877

$$$$
lig.pdb
 OpenBabel11021811523D
libRbt.so/2013.1/901 2013/11/27
 22 23  0  0  0  0  0  0  0  0999 V2000
   14.3550  -60.1806  -36.3705 O   0  0  0  0  0  0  0  0  0  0  0  0
   14.1173  -59.2376  -37.1090 C   0  0  0  0  0  0  0  0  0  0  0  0
   12.8811  -58.7660  -37.2712 N   0  0  0  0  0  0  0  0  0  0  0  0
   15.2310  -58.5993  -37.8662 C   0  0  0  0  0  0  0  0  0  0  0  0
   16.6422  -58.6385  -37.4516 C   0  0  0  0  0  0  0  0  0  0  0  0
   17.1495  -59.2943  -36.2534 N   0  0  0  0  0  0  0  0  0  0  0  0
   15.2600  -57.8958  -39.0197 N   0  0  0  0  0  0  0  0  0  0  0  0
   16.5583  -57.5438  -39.2750 C   0  0  0  0  0  0  0  0  0  0  0  0
   17.4031  -57.9947  -38.3222 N   0  0  0  0  0  0  0  0  0  0  0  0
   18.8721  -57.8127  -38.2602 C   0  0  1  0  0  0  0  0  0  0  0  0
   19.2271  -56.6519  -37.3456 C   0  0  1  0  0  0  0  0  0  0  0  0
   20.5456  -57.0784  -36.7529 C   0  0  2  0  0  0  0  0  0  0  0  0
   21.6037  -56.7263  -37.6465 O   0  0  0  0  0  0  0  0  0  0  0  0
   19.3885  -55.4420  -38.0871 O   0  0  0  0  0  0  0  0  0  0  0  0
   19.5147  -58.9721  -37.7171 O   0  0  0  0  0  0  0  0  0  0  0  0
   20.4327  -58.5893  -36.6902 C   0  0  2  0  0  0  0  0  0  0  0  0
   19.9099  -59.0171  -35.3276 C   0  0  0  0  0  0  0  0  0  0  0  0
   20.8772  -58.6599  -34.3417 O   0  0  0  0  0  0  0  0  0  0  0  0
   22.3140  -59.3855  -34.2704 P   0  0  0  0  0  0  0  0  0  0  0  0
   23.0160  -58.9900  -35.5488 O   0  0  0  0  0  0  0  0  0  0  0  0
   21.9546  -60.8501  -34.1875 O   0  0  0  0  0  0  0  0  0  0  0  0
   22.9339  -58.8123  -33.0175 O   0  0  0  0  0  0  0  0  0  0  0  0
  1  2  2  0  0  0  0
  2  4  1  0  0  0  0
  2  3  1  0  0  0  0
  4  7  1  0  0  0  0
  5  9  1  0  0  0  0
  5  4  2  0  0  0  0
  6  5  1  0  0  0  0
  8  7  2  0  0  0  0
  9  8  1  0  0  0  0
 10 15  1  0  0  0  0
 10  9  1  1  0  0  0
 10 11  1  0  0  0  0
 11 14  1  6  0  0  0
 11 12  1  0  0  0  0
 12 13  1  6  0  0  0
 15 16  1  0  0  0  0
 16 12  1  0  0  0  0
 16 17  1  1  0  0  0
 17 18  1  0  0  0  0
 18 19  1  0  0  0  0
 19 21  1  0  0  0  0
 19 20  1  0  0  0  0
 22 19  2  0  0  0  0
M  END
>  <CHROM.1>
-24.56486044,-82.21816819,-64.79376399,-67.84387397,65.66207618,18.97386468
-58.47891775,-36.53726192,2.80389155,-0.24438354,-0.83750586

>  <Name>
lig.pdb

>  <RI>
0

>  <Rbt.Current_Directory>
/home/itssahil/PROJECTS/Mol_Feturizer/New_Systems/rnas/5btp

>  <Rbt.Executable>
rbdock ($Id: //depot/dev/client3/rdock/2013.1/src/exe/rbdock.cxx#4 $)

>  <Rbt.Library>
libRbt.so (2013.1, Build901 2013/11/27)

>  <Rbt.Parameter_File>
/export/apps/rDock/src/rDock_2013.1_src/data/scripts/dock_solv.prm

>  <Rbt.Receptor>
prm/pocket_docking_6.prm

>  <SCORE>
-15.4067

>  <SCORE.INTER>
-15.9262

>  <SCORE.INTER.CONST>
1

>  <SCORE.INTER.POLAR>
0

>  <SCORE.INTER.ROT>
5

>  <SCORE.INTER.SOLV>
19.5769

>  <SCORE.INTER.VDW>
-24.0765

>  <SCORE.INTER.norm>
-0.72392

>  <SCORE.INTRA>
0.519487

>  <SCORE.INTRA.DIHEDRAL>
0.603751

>  <SCORE.INTRA.DIHEDRAL.0>
4.21161

>  <SCORE.INTRA.POLAR>
0

>  <SCORE.INTRA.POLAR.0>
0

>  <SCORE.INTRA.REPUL>
0

>  <SCORE.INTRA.REPUL.0>
0

>  <SCORE.INTRA.SOLV>
1.75769

>  <SCORE.INTRA.SOLV.lig_0>
-41.4168

>  <SCORE.INTRA.VDW>
-0.661234

>  <SCORE.INTRA.VDW.0>
-1.62533

>  <SCORE.INTRA.norm>
0.0236131

>  <SCORE.RESTR>
0

>  <SCORE.RESTR.CAVITY>
0

>  <SCORE.RESTR.norm>
0

>  <SCORE.SYSTEM>
0

>  <SCORE.SYSTEM.CONST>
0

>  <SCORE.SYSTEM.DIHEDRAL>
0

>  <SCORE.SYSTEM.SOLV>
0

>  <SCORE.SYSTEM.norm>
0

>  <SCORE.heavy>
22

>  <SCORE.norm>
-0.700307

>  <RMSD>
1.877

$$$$
lig.pdb
 OpenBabel11021811523D
libRbt.so/2013.1/901 2013/11/27
 22 23  0  0  0  0  0  0  0  0999 V2000
   14.4044  -60.1711  -36.3647 O   0  0  0  0  0  0  0  0  0  0  0  0
   14.1569  -59.2555  -37.1337 C   0  0  0  0  0  0  0  0  0  0  0  0
   12.9113  -58.8277  -37.3395 N   0  0  0  0  0  0  0  0  0  0  0  0
   15.2695  -58.6017  -37.8792 C   0  0  0  0  0  0  0  0  0  0  0  0
   16.6731  -58.6015  -37.4378 C   0  0  0  0  0  0  0  0  0  0  0  0
   17.1727  -59.2282  -36.2208 N   0  0  0  0  0  0  0  0  0  0  0  0
   15.3040  -57.9141  -39.0421 N   0  0  0  0  0  0  0  0  0  0  0  0
   16.5983  -57.5352  -39.2782 C   0  0  0  0  0  0  0  0  0  0  0  0
   17.4352  -57.9524  -38.3033 N   0  0  0  0  0  0  0  0  0  0  0  0
   18.8981  -57.7348  -38.2165 C   0  0  1  0  0  0  0  0  0  0  0  0
   19.2150  -56.6387  -37.2124 C   0  0  1  0  0  0  0  0  0  0  0  0
   20.5420  -57.0727  -36.6446 C   0  0  2  0  0  0  0  0  0  0  0  0
   21.5944  -56.6231  -37.5005 O   0  0  0  0  0  0  0  0  0  0  0  0
   19.3459  -55.3710  -37.8572 O   0  0  0  0  0  0  0  0  0  0  0  0
   19.5704  -58.9142  -37.7596 O   0  0  0  0  0  0  0  0  0  0  0  0
   20.4718  -58.5864  -36.6994 C   0  0  2  0  0  0  0  0  0  0  0  0
   19.9542  -59.1327  -35.3778 C   0  0  0  0  0  0  0  0  0  0  0  0
   20.8977  -58.8113  -34.3572 O   0  0  0  0  0  0  0  0  0  0  0  0
   22.3473  -59.5122  -34.2999 P   0  0  0  0  0  0  0  0  0  0  0  0
   23.0765  -59.0037  -35.5219 O   0  0  0  0  0  0  0  0  0  0  0  0
   22.0176  -60.9855  -34.3425 O   0  0  0  0  0  0  0  0  0  0  0  0
   22.9190  -59.0275  -32.9881 O   0  0  0  0  0  0  0  0  0  0  0  0
  1  2  2  0  0  0  0
  2  4  1  0  0  0  0
  2  3  1  0  0  0  0
  4  7  1  0  0  0  0
  5  9  1  0  0  0  0
  5  4  2  0  0  0  0
  6  5  1  0  0  0  0
  8  7  2  0  0  0  0
  9  8  1  0  0  0  0
 10 15  1  0  0  0  0
 10  9  1  1  0  0  0
 10 11  1  0  0  0  0
 11 14  1  6  0  0  0
 11 12  1  0  0  0  0
 12 13  1  6  0  0  0
 15 16  1  0  0  0  0
 16 12  1  0  0  0  0
 16 17  1  1  0  0  0
 17 18  1  0  0  0  0
 18 19  1  0  0  0  0
 19 21  1  0  0  0  0
 19 20  1  0  0  0  0
 22 19  2  0  0  0  0
M  END
>  <CHROM.1>
-23.67018126,-76.90959341,-64.07738022,-69.45431027,67.21921107,19.00069269
-58.50291309,-36.52302630,2.80409898,-0.25053210,-0.78926908

>  <Name>
lig.pdb

>  <RI>
0

>  <Rbt.Current_Directory>
/home/itssahil/PROJECTS/Mol_Feturizer/New_Systems/rnas/5btp

>  <Rbt.Executable>
rbdock ($Id: //depot/dev/client3/rdock/2013.1/src/exe/rbdock.cxx#4 $)

>  <Rbt.Library>
libRbt.so (2013.1, Build901 2013/11/27)

>  <Rbt.Parameter_File>
/export/apps/rDock/src/rDock_2013.1_src/data/scripts/dock_solv.prm

>  <Rbt.Receptor>
prm/pocket_docking_4.prm

>  <SCORE>
-15.3222

>  <SCORE.INTER>
-15.7757

>  <SCORE.INTER.CONST>
1

>  <SCORE.INTER.POLAR>
0

>  <SCORE.INTER.ROT>
5

>  <SCORE.INTER.SOLV>
18.9218

>  <SCORE.INTER.VDW>
-23.7577

>  <SCORE.INTER.norm>
-0.717076

>  <SCORE.INTRA>
0.453446

>  <SCORE.INTRA.DIHEDRAL>
0.614536

>  <SCORE.INTRA.DIHEDRAL.0>
4.21161

>  <SCORE.INTRA.POLAR>
0

>  <SCORE.INTRA.POLAR.0>
0

>  <SCORE.INTRA.REPUL>
0

>  <SCORE.INTRA.REPUL.0>
0

>  <SCORE.INTRA.SOLV>
1.74504

>  <SCORE.INTRA.SOLV.lig_0>
-41.4168

>  <SCORE.INTRA.VDW>
-0.726341

>  <SCORE.INTRA.VDW.0>
-1.62533

>  <SCORE.INTRA.norm>
0.0206112

>  <SCORE.RESTR>
0

>  <SCORE.RESTR.CAVITY>
0

>  <SCORE.RESTR.norm>
0

>  <SCORE.SYSTEM>
0

>  <SCORE.SYSTEM.CONST>
0

>  <SCORE.SYSTEM.DIHEDRAL>
0

>  <SCORE.SYSTEM.SOLV>
0

>  <SCORE.SYSTEM.norm>
0

>  <SCORE.heavy>
22

>  <SCORE.norm>
-0.696465

>  <RMSD>
1.879

$$$$
lig.pdb
 OpenBabel11021811523D
libRbt.so/2013.1/901 2013/11/27
 22 23  0  0  0  0  0  0  0  0999 V2000
   13.0944  -59.5685  -37.0666 O   0  0  0  0  0  0  0  0  0  0  0  0
   13.9710  -58.9949  -37.6941 C   0  0  0  0  0  0  0  0  0  0  0  0
   13.7155  -58.3588  -38.8373 N   0  0  0  0  0  0  0  0  0  0  0  0
   15.3712  -59.0139  -37.1840 C   0  0  0  0  0  0  0  0  0  0  0  0
   16.5113  -58.3900  -37.8738 C   0  0  0  0  0  0  0  0  0  0  0  0
   16.4395  -57.6761  -39.1421 N   0  0  0  0  0  0  0  0  0  0  0  0
   15.9252  -59.5374  -36.0681 N   0  0  0  0  0  0  0  0  0  0  0  0
   17.2656  -59.2592  -36.0835 C   0  0  0  0  0  0  0  0  0  0  0  0
   17.6263  -58.5602  -37.1817 N   0  0  0  0  0  0  0  0  0  0  0  0
   18.9813  -58.0803  -37.5403 C   0  0  1  0  0  0  0  0  0  0  0  0
   19.0886  -56.5793  -37.3272 C   0  0  1  0  0  0  0  0  0  0  0  0
   20.5296  -56.3963  -36.9250 C   0  0  2  0  0  0  0  0  0  0  0  0
   21.3422  -56.3099  -38.0973 O   0  0  0  0  0  0  0  0  0  0  0  0
   18.8200  -55.8664  -38.5353 O   0  0  0  0  0  0  0  0  0  0  0  0
   19.9805  -58.6833  -36.7098 O   0  0  0  0  0  0  0  0  0  0  0  0
   20.8570  -57.6811  -36.1891 C   0  0  2  0  0  0  0  0  0  0  0  0
   20.6262  -57.5007  -34.6967 C   0  0  0  0  0  0  0  0  0  0  0  0
   21.5126  -56.4881  -34.2232 O   0  0  0  0  0  0  0  0  0  0  0  0
   21.4900  -56.0003  -32.6878 P   0  0  0  0  0  0  0  0  0  0  0  0
   21.7355  -57.2511  -31.8761 O   0  0  0  0  0  0  0  0  0  0  0  0
   20.1034  -55.4221  -32.5322 O   0  0  0  0  0  0  0  0  0  0  0  0
   22.6101  -54.9886  -32.6253 O   0  0  0  0  0  0  0  0  0  0  0  0
  1  2  2  0  0  0  0
  2  4  1  0  0  0  0
  2  3  1  0  0  0  0
  4  7  1  0  0  0  0
  5  9  1  0  0  0  0
  5  4  2  0  0  0  0
  6  5  1  0  0  0  0
  8  7  2  0  0  0  0
  9  8  1  0  0  0  0
 10 15  1  0  0  0  0
 10  9  1  1  0  0  0
 10 11  1  0  0  0  0
 11 14  1  6  0  0  0
 11 12  1  0  0  0  0
 12 13  1  6  0  0  0
 15 16  1  0  0  0  0
 16 12  1  0  0  0  0
 16 17  1  1  0  0  0
 17 18  1  0  0  0  0
 18 19  1  0  0  0  0
 19 21  1  0  0  0  0
 19 20  1  0  0  0  0
 22 19  2  0  0  0  0
M  END
>  <CHROM.1>
178.26879560,74.05680553,-62.29633746,177.43759664,57.41101117,18.79240268
-57.43330224,-35.96680223,2.59942660,-0.42240048,-1.50404175

>  <Name>
lig.pdb

>  <RI>
0

>  <Rbt.Current_Directory>
/home/itssahil/PROJECTS/Mol_Feturizer/New_Systems/rnas/5btp

>  <Rbt.Executable>
rbdock ($Id: //depot/dev/client3/rdock/2013.1/src/exe/rbdock.cxx#4 $)

>  <Rbt.Library>
libRbt.so (2013.1, Build901 2013/11/27)

>  <Rbt.Parameter_File>
/export/apps/rDock/src/rDock_2013.1_src/data/scripts/dock_solv.prm

>  <Rbt.Receptor>
prm/pocket_docking_8.prm

>  <SCORE>
-19.2444

>  <SCORE.INTER>
-18.2504

>  <SCORE.INTER.CONST>
1

>  <SCORE.INTER.POLAR>
0

>  <SCORE.INTER.ROT>
5

>  <SCORE.INTER.SOLV>
19.8656

>  <SCORE.INTER.VDW>
-25.7221

>  <SCORE.INTER.norm>
-0.829564

>  <SCORE.INTRA>
-0.994006

>  <SCORE.INTRA.DIHEDRAL>
-1.71379

>  <SCORE.INTRA.DIHEDRAL.0>
4.21161

>  <SCORE.INTRA.POLAR>
0

>  <SCORE.INTRA.POLAR.0>
0

>  <SCORE.INTRA.REPUL>
0

>  <SCORE.INTRA.REPUL.0>
0

>  <SCORE.INTRA.SOLV>
0.435187

>  <SCORE.INTRA.SOLV.lig_0>
-41.4168

>  <SCORE.INTRA.VDW>
-0.354706

>  <SCORE.INTRA.VDW.0>
-1.62533

>  <SCORE.INTRA.norm>
-0.0451821

>  <SCORE.RESTR>
0

>  <SCORE.RESTR.CAVITY>
0

>  <SCORE.RESTR.norm>
0

>  <SCORE.SYSTEM>
0

>  <SCORE.SYSTEM.CONST>
0

>  <SCORE.SYSTEM.DIHEDRAL>
0

>  <SCORE.SYSTEM.SOLV>
0

>  <SCORE.SYSTEM.norm>
0

>  <SCORE.heavy>
22

>  <SCORE.norm>
-0.874746

>  <RMSD>
1.879

$$$$
lig.pdb
 OpenBabel11021811523D
libRbt.so/2013.1/901 2013/11/27
 22 23  0  0  0  0  0  0  0  0999 V2000
   13.4757  -58.5999  -38.5710 O   0  0  0  0  0  0  0  0  0  0  0  0
   13.8413  -59.0902  -37.5141 C   0  0  0  0  0  0  0  0  0  0  0  0
   12.9861  -59.6838  -36.6816 N   0  0  0  0  0  0  0  0  0  0  0  0
   15.2788  -59.0144  -37.1281 C   0  0  0  0  0  0  0  0  0  0  0  0
   16.3237  -58.3835  -37.9496 C   0  0  0  0  0  0  0  0  0  0  0  0
   16.1092  -57.7532  -39.2457 N   0  0  0  0  0  0  0  0  0  0  0  0
   15.9507  -59.4427  -36.0365 N   0  0  0  0  0  0  0  0  0  0  0  0
   17.2694  -59.1058  -36.1849 C   0  0  0  0  0  0  0  0  0  0  0  0
   17.5004  -58.4602  -37.3489 N   0  0  0  0  0  0  0  0  0  0  0  0
   18.7944  -57.9427  -37.8515 C   0  0  1  0  0  0  0  0  0  0  0  0
   19.3077  -56.8290  -36.9537 C   0  0  1  0  0  0  0  0  0  0  0  0
   20.8041  -56.9885  -37.0378 C   0  0  2  0  0  0  0  0  0  0  0  0
   21.2895  -56.3076  -38.1967 O   0  0  0  0  0  0  0  0  0  0  0  0
   18.9202  -55.5469  -37.4496 O   0  0  0  0  0  0  0  0  0  0  0  0
   19.7973  -58.9655  -37.8479 O   0  0  0  0  0  0  0  0  0  0  0  0
   20.9904  -58.4815  -37.2265 C   0  0  2  0  0  0  0  0  0  0  0  0
   21.1952  -59.1559  -35.8788 C   0  0  0  0  0  0  0  0  0  0  0  0
   21.3463  -60.5579  -36.0952 O   0  0  0  0  0  0  0  0  0  0  0  0
   21.5286  -61.5845  -34.8669 P   0  0  0  0  0  0  0  0  0  0  0  0
   22.7455  -61.0892  -34.1203 O   0  0  0  0  0  0  0  0  0  0  0  0
   21.7229  -62.9138  -35.5572 O   0  0  0  0  0  0  0  0  0  0  0  0
   20.2325  -61.4498  -34.1026 O   0  0  0  0  0  0  0  0  0  0  0  0
  1  2  2  0  0  0  0
  2  4  1  0  0  0  0
  2  3  1  0  0  0  0
  4  7  1  0  0  0  0
  5  9  1  0  0  0  0
  5  4  2  0  0  0  0
  6  5  1  0  0  0  0
  8  7  2  0  0  0  0
  9  8  1  0  0  0  0
 10 15  1  0  0  0  0
 10  9  1  1  0  0  0
 10 11  1  0  0  0  0
 11 14  1  6  0  0  0
 11 12  1  0  0  0  0
 12 13  1  6  0  0  0
 15 16  1  0  0  0  0
 16 12  1  0  0  0  0
 16 17  1  1  0  0  0
 17 18  1  0  0  0  0
 18 19  1  0  0  0  0
 19 21  1  0  0  0  0
 19 20  1  0  0  0  0
 22 19  2  0  0  0  0
M  END
>  <CHROM.1>
-0.40178820,114.90530055,179.14233167,-177.75204579,-57.11682373,18.78962517
-59.14583112,-36.67915152,2.69677939,-0.14143581,-0.51884474

>  <Name>
lig.pdb

>  <RI>
0

>  <Rbt.Current_Directory>
/home/itssahil/PROJECTS/Mol_Feturizer/New_Systems/rnas/5btp

>  <Rbt.Executable>
rbdock ($Id: //depot/dev/client3/rdock/2013.1/src/exe/rbdock.cxx#4 $)

>  <Rbt.Library>
libRbt.so (2013.1, Build901 2013/11/27)

>  <Rbt.Parameter_File>
/export/apps/rDock/src/rDock_2013.1_src/data/scripts/dock_solv.prm

>  <Rbt.Receptor>
prm/pocket_docking_4.prm

>  <SCORE>
-20.1554

>  <SCORE.INTER>
-18.5709

>  <SCORE.INTER.CONST>
1

>  <SCORE.INTER.POLAR>
0

>  <SCORE.INTER.ROT>
5

>  <SCORE.INTER.SOLV>
21.6069

>  <SCORE.INTER.VDW>
-26.5162

>  <SCORE.INTER.norm>
-0.844133

>  <SCORE.INTRA>
-1.58449

>  <SCORE.INTRA.DIHEDRAL>
-1.74786

>  <SCORE.INTRA.DIHEDRAL.0>
4.21161

>  <SCORE.INTRA.POLAR>
0

>  <SCORE.INTRA.POLAR.0>
0

>  <SCORE.INTRA.REPUL>
0

>  <SCORE.INTRA.REPUL.0>
0

>  <SCORE.INTRA.SOLV>
-0.216845

>  <SCORE.INTRA.SOLV.lig_0>
-41.4168

>  <SCORE.INTRA.VDW>
-0.602135

>  <SCORE.INTRA.VDW.0>
-1.62533

>  <SCORE.INTRA.norm>
-0.072022

>  <SCORE.RESTR>
0

>  <SCORE.RESTR.CAVITY>
0

>  <SCORE.RESTR.norm>
0

>  <SCORE.SYSTEM>
0

>  <SCORE.SYSTEM.CONST>
0

>  <SCORE.SYSTEM.DIHEDRAL>
0

>  <SCORE.SYSTEM.SOLV>
0

>  <SCORE.SYSTEM.norm>
0

>  <SCORE.heavy>
22

>  <SCORE.norm>
-0.916155

>  <RMSD>
1.880

$$$$
lig.pdb
 OpenBabel11021811523D
libRbt.so/2013.1/901 2013/11/27
 22 23  0  0  0  0  0  0  0  0999 V2000
   13.4873  -58.5614  -38.5604 O   0  0  0  0  0  0  0  0  0  0  0  0
   13.8527  -59.0782  -37.5162 C   0  0  0  0  0  0  0  0  0  0  0  0
   12.9983  -59.6974  -36.7017 N   0  0  0  0  0  0  0  0  0  0  0  0
   15.2890  -59.0067  -37.1250 C   0  0  0  0  0  0  0  0  0  0  0  0
   16.3377  -58.3732  -37.9398 C   0  0  0  0  0  0  0  0  0  0  0  0
   16.1284  -57.7358  -39.2333 N   0  0  0  0  0  0  0  0  0  0  0  0
   15.9567  -59.4416  -36.0335 N   0  0  0  0  0  0  0  0  0  0  0  0
   17.2764  -59.1061  -36.1759 C   0  0  0  0  0  0  0  0  0  0  0  0
   17.5122  -58.4549  -37.3357 N   0  0  0  0  0  0  0  0  0  0  0  0
   18.8087  -57.9368  -37.8314 C   0  0  1  0  0  0  0  0  0  0  0  0
   19.3255  -56.8352  -36.9207 C   0  0  1  0  0  0  0  0  0  0  0  0
   20.8214  -56.9996  -37.0053 C   0  0  2  0  0  0  0  0  0  0  0  0
   21.3105  -56.3077  -38.1560 O   0  0  0  0  0  0  0  0  0  0  0  0
   18.9435  -55.5461  -37.4025 O   0  0  0  0  0  0  0  0  0  0  0  0
   19.8076  -58.9634  -37.8384 O   0  0  0  0  0  0  0  0  0  0  0  0
   21.0020  -58.4911  -37.2105 C   0  0  2  0  0  0  0  0  0  0  0  0
   21.2030  -59.1814  -35.8703 C   0  0  0  0  0  0  0  0  0  0  0  0
   21.3655  -60.5794  -36.1038 O   0  0  0  0  0  0  0  0  0  0  0  0
   21.5323  -61.6223  -34.8871 P   0  0  0  0  0  0  0  0  0  0  0  0
   21.7375  -62.9655  -35.5484 O   0  0  0  0  0  0  0  0  0  0  0  0
   20.2254  -61.4910  -34.1416 O   0  0  0  0  0  0  0  0  0  0  0  0
   22.7414  -61.1036  -34.1445 O   0  0  0  0  0  0  0  0  0  0  0  0
  1  2  2  0  0  0  0
  2  4  1  0  0  0  0
  2  3  1  0  0  0  0
  4  7  1  0  0  0  0
  5  9  1  0  0  0  0
  5  4  2  0  0  0  0
  6  5  1  0  0  0  0
  8  7  2  0  0  0  0
  9  8  1  0  0  0  0
 10 15  1  0  0  0  0
 10  9  1  1  0  0  0
 10 11  1  0  0  0  0
 11 14  1  6  0  0  0
 11 12  1  0  0  0  0
 12 13  1  6  0  0  0
 15 16  1  0  0  0  0
 16 12  1  0  0  0  0
 16 17  1  1  0  0  0
 17 18  1  0  0  0  0
 18 19  1  0  0  0  0
 19 21  1  0  0  0  0
 19 20  1  0  0  0  0
 22 19  2  0  0  0  0
M  END
>  <CHROM.1>
-1.68132091,115.30168200,179.85800660,-177.11996172,-177.53273763,18.80067299
-59.15399918,-36.67339415,2.69429091,-0.14178800,-0.50707402

>  <Name>
lig.pdb

>  <RI>
0

>  <Rbt.Current_Directory>
/home/itssahil/PROJECTS/Mol_Feturizer/New_Systems/rnas/5btp

>  <Rbt.Executable>
rbdock ($Id: //depot/dev/client3/rdock/2013.1/src/exe/rbdock.cxx#4 $)

>  <Rbt.Library>
libRbt.so (2013.1, Build901 2013/11/27)

>  <Rbt.Parameter_File>
/export/apps/rDock/src/rDock_2013.1_src/data/scripts/dock_solv.prm

>  <Rbt.Receptor>
prm/pocket_docking_8.prm

>  <SCORE>
-20.5234

>  <SCORE.INTER>
-18.971

>  <SCORE.INTER.CONST>
1

>  <SCORE.INTER.POLAR>
0

>  <SCORE.INTER.ROT>
5

>  <SCORE.INTER.SOLV>
20.7065

>  <SCORE.INTER.VDW>
-26.4828

>  <SCORE.INTER.norm>
-0.862317

>  <SCORE.INTRA>
-1.55247

>  <SCORE.INTRA.DIHEDRAL>
-1.72999

>  <SCORE.INTRA.DIHEDRAL.0>
4.21161

>  <SCORE.INTRA.POLAR>
0

>  <SCORE.INTRA.POLAR.0>
0

>  <SCORE.INTRA.REPUL>
0

>  <SCORE.INTRA.REPUL.0>
0

>  <SCORE.INTRA.SOLV>
-0.258502

>  <SCORE.INTRA.SOLV.lig_0>
-41.4168

>  <SCORE.INTRA.VDW>
-0.558219

>  <SCORE.INTRA.VDW.0>
-1.62533

>  <SCORE.INTRA.norm>
-0.0705666

>  <SCORE.RESTR>
0

>  <SCORE.RESTR.CAVITY>
0

>  <SCORE.RESTR.norm>
0

>  <SCORE.SYSTEM>
0

>  <SCORE.SYSTEM.CONST>
0

>  <SCORE.SYSTEM.DIHEDRAL>
0

>  <SCORE.SYSTEM.SOLV>
0

>  <SCORE.SYSTEM.norm>
0

>  <SCORE.heavy>
22

>  <SCORE.norm>
-0.932883

>  <RMSD>
1.880

$$$$
lig.pdb
 OpenBabel11021811523D
libRbt.so/2013.1/901 2013/11/27
 22 23  0  0  0  0  0  0  0  0999 V2000
   14.8574  -60.0701  -36.1588 O   0  0  0  0  0  0  0  0  0  0  0  0
   14.5616  -59.3165  -37.0730 C   0  0  0  0  0  0  0  0  0  0  0  0
   13.2974  -59.1388  -37.4564 N   0  0  0  0  0  0  0  0  0  0  0  0
   15.6379  -58.5821  -37.7965 C   0  0  0  0  0  0  0  0  0  0  0  0
   17.0259  -58.4695  -37.3213 C   0  0  0  0  0  0  0  0  0  0  0  0
   17.5426  -59.0478  -36.0877 N   0  0  0  0  0  0  0  0  0  0  0  0
   15.6474  -57.9010  -38.9637 N   0  0  0  0  0  0  0  0  0  0  0  0
   16.9136  -57.4233  -39.1714 C   0  0  0  0  0  0  0  0  0  0  0  0
   17.7560  -57.7679  -38.1732 N   0  0  0  0  0  0  0  0  0  0  0  0
   19.1949  -57.4359  -38.0528 C   0  0  1  0  0  0  0  0  0  0  0  0
   19.4454  -56.5938  -36.8126 C   0  0  1  0  0  0  0  0  0  0  0  0
   20.8262  -57.0216  -36.3857 C   0  0  2  0  0  0  0  0  0  0  0  0
   21.8014  -56.2751  -37.1163 O   0  0  0  0  0  0  0  0  0  0  0  0
   19.4360  -55.2002  -37.1251 O   0  0  0  0  0  0  0  0  0  0  0  0
   19.9889  -58.6197  -37.9100 O   0  0  0  0  0  0  0  0  0  0  0  0
   20.8936  -58.4751  -36.8126 C   0  0  2  0  0  0  0  0  0  0  0  0
   20.4761  -59.3768  -35.6612 C   0  0  0  0  0  0  0  0  0  0  0  0
   21.5551  -59.4477  -34.7307 O   0  0  0  0  0  0  0  0  0  0  0  0
   21.4719  -60.3724  -33.4139 P   0  0  0  0  0  0  0  0  0  0  0  0
   20.5371  -59.6396  -32.4797 O   0  0  0  0  0  0  0  0  0  0  0  0
   22.9054  -60.4256  -32.9413 O   0  0  0  0  0  0  0  0  0  0  0  0
   20.9276  -61.6804  -33.9384 O   0  0  0  0  0  0  0  0  0  0  0  0
  1  2  2  0  0  0  0
  2  4  1  0  0  0  0
  2  3  1  0  0  0  0
  4  7  1  0  0  0  0
  5  9  1  0  0  0  0
  5  4  2  0  0  0  0
  6  5  1  0  0  0  0
  8  7  2  0  0  0  0
  9  8  1  0  0  0  0
 10 15  1  0  0  0  0
 10  9  1  1  0  0  0
 10 11  1  0  0  0  0
 11 14  1  6  0  0  0
 11 12  1  0  0  0  0
 12 13  1  6  0  0  0
 15 16  1  0  0  0  0
 16 12  1  0  0  0  0
 16 17  1  1  0  0  0
 17 18  1  0  0  0  0
 18 19  1  0  0  0  0
 19 21  1  0  0  0  0
 19 20  1  0  0  0  0
 22 19  2  0  0  0  0
M  END
>  <CHROM.1>
-13.45874497,-61.93391433,-76.33952140,-177.47102837,-74.20961539,19.01494524
-58.68225931,-36.19281819,2.58747930,-0.29087931,-0.76896859

>  <Name>
lig.pdb

>  <RI>
0

>  <Rbt.Current_Directory>
/home/itssahil/PROJECTS/Mol_Feturizer/New_Systems/rnas/5btp

>  <Rbt.Executable>
rbdock ($Id: //depot/dev/client3/rdock/2013.1/src/exe/rbdock.cxx#4 $)

>  <Rbt.Library>
libRbt.so (2013.1, Build901 2013/11/27)

>  <Rbt.Parameter_File>
/export/apps/rDock/src/rDock_2013.1_src/data/scripts/dock_solv.prm

>  <Rbt.Receptor>
prm/pocket_docking_8.prm

>  <SCORE>
-15.6236

>  <SCORE.INTER>
-15.6053

>  <SCORE.INTER.CONST>
1

>  <SCORE.INTER.POLAR>
0

>  <SCORE.INTER.ROT>
5

>  <SCORE.INTER.SOLV>
18.2659

>  <SCORE.INTER.VDW>
-23.4255

>  <SCORE.INTER.norm>
-0.709332

>  <SCORE.INTRA>
-0.0182585

>  <SCORE.INTRA.DIHEDRAL>
0.0821056

>  <SCORE.INTRA.DIHEDRAL.0>
4.21161

>  <SCORE.INTRA.POLAR>
0

>  <SCORE.INTRA.POLAR.0>
0

>  <SCORE.INTRA.REPUL>
0

>  <SCORE.INTRA.REPUL.0>
0

>  <SCORE.INTRA.SOLV>
1.17141

>  <SCORE.INTRA.SOLV.lig_0>
-41.4168

>  <SCORE.INTRA.VDW>
-0.645016

>  <SCORE.INTRA.VDW.0>
-1.62533

>  <SCORE.INTRA.norm>
-0.000829933

>  <SCORE.RESTR>
0

>  <SCORE.RESTR.CAVITY>
0

>  <SCORE.RESTR.norm>
0

>  <SCORE.SYSTEM>
0

>  <SCORE.SYSTEM.CONST>
0

>  <SCORE.SYSTEM.DIHEDRAL>
0

>  <SCORE.SYSTEM.SOLV>
0

>  <SCORE.SYSTEM.norm>
0

>  <SCORE.heavy>
22

>  <SCORE.norm>
-0.710162

>  <RMSD>
1.882

$$$$
lig.pdb
 OpenBabel11021811523D
libRbt.so/2013.1/901 2013/11/27
 22 23  0  0  0  0  0  0  0  0999 V2000
   13.0127  -59.7532  -36.8349 O   0  0  0  0  0  0  0  0  0  0  0  0
   13.7896  -59.1766  -37.5798 C   0  0  0  0  0  0  0  0  0  0  0  0
   13.3956  -58.6617  -38.7445 N   0  0  0  0  0  0  0  0  0  0  0  0
   15.2234  -59.0530  -37.1921 C   0  0  0  0  0  0  0  0  0  0  0  0
   16.2478  -58.3881  -38.0127 C   0  0  0  0  0  0  0  0  0  0  0  0
   16.0141  -57.7659  -39.3093 N   0  0  0  0  0  0  0  0  0  0  0  0
   15.9078  -59.4582  -36.0996 N   0  0  0  0  0  0  0  0  0  0  0  0
   17.2148  -59.0779  -36.2466 C   0  0  0  0  0  0  0  0  0  0  0  0
   17.4256  -58.4255  -37.4105 N   0  0  0  0  0  0  0  0  0  0  0  0
   18.7023  -57.8656  -37.9119 C   0  0  1  0  0  0  0  0  0  0  0  0
   18.9906  -56.5254  -37.2555 C   0  0  1  0  0  0  0  0  0  0  0  0
   20.4957  -56.5024  -37.1789 C   0  0  2  0  0  0  0  0  0  0  0  0
   21.0269  -56.0335  -38.4199 O   0  0  0  0  0  0  0  0  0  0  0  0
   18.5217  -55.4445  -38.0628 O   0  0  0  0  0  0  0  0  0  0  0  0
   19.8045  -58.7228  -37.5917 O   0  0  0  0  0  0  0  0  0  0  0  0
   20.8631  -57.9630  -37.0034 C   0  0  2  0  0  0  0  0  0  0  0  0
   20.9926  -58.2943  -35.5247 C   0  0  0  0  0  0  0  0  0  0  0  0
   21.2429  -59.6929  -35.3968 O   0  0  0  0  0  0  0  0  0  0  0  0
   22.5141  -60.3886  -36.1011 P   0  0  0  0  0  0  0  0  0  0  0  0
   23.6045  -59.3432  -36.0607 O   0  0  0  0  0  0  0  0  0  0  0  0
   22.0074  -60.7031  -37.4888 O   0  0  0  0  0  0  0  0  0  0  0  0
   22.7779  -61.5964  -35.2329 O   0  0  0  0  0  0  0  0  0  0  0  0
  1  2  2  0  0  0  0
  2  4  1  0  0  0  0
  2  3  1  0  0  0  0
  4  7  1  0  0  0  0
  5  9  1  0  0  0  0
  5  4  2  0  0  0  0
  6  5  1  0  0  0  0
  8  7  2  0  0  0  0
  9  8  1  0  0  0  0
 10 15  1  0  0  0  0
 10  9  1  1  0  0  0
 10 11  1  0  0  0  0
 11 14  1  6  0  0  0
 11 12  1  0  0  0  0
 12 13  1  6  0  0  0
 15 16  1  0  0  0  0
 16 12  1  0  0  0  0
 16 17  1  1  0  0  0
 17 18  1  0  0  0  0
 18 19  1  0  0  0  0
 19 21  1  0  0  0  0
 19 20  1  0  0  0  0
 22 19  2  0  0  0  0
M  END
>  <CHROM.1>
179.62508890,99.95410533,175.88134176,58.00218423,33.77835795,18.95932866
-58.70168824,-37.04846127,2.94856827,-0.12031209,-0.43649922

>  <Name>
lig.pdb

>  <RI>
0

>  <Rbt.Current_Directory>
/home/itssahil/PROJECTS/Mol_Feturizer/New_Systems/rnas/5btp

>  <Rbt.Executable>
rbdock ($Id: //depot/dev/client3/rdock/2013.1/src/exe/rbdock.cxx#4 $)

>  <Rbt.Library>
libRbt.so (2013.1, Build901 2013/11/27)

>  <Rbt.Parameter_File>
/export/apps/rDock/src/rDock_2013.1_src/data/scripts/dock_solv.prm

>  <Rbt.Receptor>
prm/pocket_docking_3.prm

>  <SCORE>
-19.0991

>  <SCORE.INTER>
-18.7344

>  <SCORE.INTER.CONST>
1

>  <SCORE.INTER.POLAR>
0

>  <SCORE.INTER.ROT>
5

>  <SCORE.INTER.SOLV>
20.409

>  <SCORE.INTER.VDW>
-26.2259

>  <SCORE.INTER.norm>
-0.851562

>  <SCORE.INTRA>
-0.364769

>  <SCORE.INTRA.DIHEDRAL>
-0.741467

>  <SCORE.INTRA.DIHEDRAL.0>
4.21161

>  <SCORE.INTRA.POLAR>
0

>  <SCORE.INTRA.POLAR.0>
0

>  <SCORE.INTRA.REPUL>
0

>  <SCORE.INTRA.REPUL.0>
0

>  <SCORE.INTRA.SOLV>
0.976779

>  <SCORE.INTRA.SOLV.lig_0>
-41.4168

>  <SCORE.INTRA.VDW>
-0.482425

>  <SCORE.INTRA.VDW.0>
-1.62533

>  <SCORE.INTRA.norm>
-0.0165804

>  <SCORE.RESTR>
0

>  <SCORE.RESTR.CAVITY>
0

>  <SCORE.RESTR.norm>
0

>  <SCORE.SYSTEM>
0

>  <SCORE.SYSTEM.CONST>
0

>  <SCORE.SYSTEM.DIHEDRAL>
0

>  <SCORE.SYSTEM.SOLV>
0

>  <SCORE.SYSTEM.norm>
0

>  <SCORE.heavy>
22

>  <SCORE.norm>
-0.868143

>  <RMSD>
1.886

$$$$
lig.pdb
 OpenBabel11021811523D
libRbt.so/2013.1/901 2013/11/27
 22 23  0  0  0  0  0  0  0  0999 V2000
   12.8057  -58.6647  -37.5315 O   0  0  0  0  0  0  0  0  0  0  0  0
   13.9401  -59.0712  -37.3340 C   0  0  0  0  0  0  0  0  0  0  0  0
   14.1920  -60.0663  -36.4837 N   0  0  0  0  0  0  0  0  0  0  0  0
   15.0830  -58.4336  -38.0470 C   0  0  0  0  0  0  0  0  0  0  0  0
   16.4835  -58.5141  -37.6032 C   0  0  0  0  0  0  0  0  0  0  0  0
   16.9506  -59.2157  -36.4146 N   0  0  0  0  0  0  0  0  0  0  0  0
   15.1518  -57.6968  -39.1778 N   0  0  0  0  0  0  0  0  0  0  0  0
   16.4622  -57.3641  -39.3940 C   0  0  0  0  0  0  0  0  0  0  0  0
   17.2763  -57.8605  -38.4370 N   0  0  0  0  0  0  0  0  0  0  0  0
   18.7469  -57.7106  -38.3375 C   0  0  1  0  0  0  0  0  0  0  0  0
   19.1040  -56.5739  -37.3940 C   0  0  1  0  0  0  0  0  0  0  0  0
   20.3991  -57.0385  -36.7785 C   0  0  2  0  0  0  0  0  0  0  0  0
   21.4850  -56.6931  -37.6408 O   0  0  0  0  0  0  0  0  0  0  0  0
   19.3080  -55.3547  -38.1095 O   0  0  0  0  0  0  0  0  0  0  0  0
   19.3523  -58.8927  -37.8007 O   0  0  0  0  0  0  0  0  0  0  0  0
   20.2535  -58.5475  -36.7459 C   0  0  2  0  0  0  0  0  0  0  0  0
   19.6898  -58.9882  -35.4038 C   0  0  0  0  0  0  0  0  0  0  0  0
   20.6234  -58.6337  -34.3851 O   0  0  0  0  0  0  0  0  0  0  0  0
   22.0565  -59.3605  -34.2665 P   0  0  0  0  0  0  0  0  0  0  0  0
   22.7984  -58.9703  -35.5238 O   0  0  0  0  0  0  0  0  0  0  0  0
   21.6930  -60.8245  -34.1897 O   0  0  0  0  0  0  0  0  0  0  0  0
   22.6378  -58.7836  -32.9970 O   0  0  0  0  0  0  0  0  0  0  0  0
  1  2  2  0  0  0  0
  2  4  1  0  0  0  0
  2  3  1  0  0  0  0
  4  7  1  0  0  0  0
  5  9  1  0  0  0  0
  5  4  2  0  0  0  0
  6  5  1  0  0  0  0
  8  7  2  0  0  0  0
  9  8  1  0  0  0  0
 10 15  1  0  0  0  0
 10  9  1  1  0  0  0
 10 11  1  0  0  0  0
 11 14  1  6  0  0  0
 11 12  1  0  0  0  0
 12 13  1  6  0  0  0
 15 16  1  0  0  0  0
 16 12  1  0  0  0  0
 16 17  1  1  0  0  0
 17 18  1  0  0  0  0
 18 19  1  0  0  0  0
 19 21  1  0  0  0  0
 19 20  1  0  0  0  0
 22 19  2  0  0  0  0
M  END
>  <CHROM.1>
159.54347092,-82.91965948,-63.12318862,-68.31703991,65.30807092,18.79105578
-58.39100895,-36.61940570,2.77178316,-0.24954687,-0.83806779

>  <Name>
lig.pdb

>  <RI>
0

>  <Rbt.Current_Directory>
/home/itssahil/PROJECTS/Mol_Feturizer/New_Systems/rnas/5btp

>  <Rbt.Executable>
rbdock ($Id: //depot/dev/client3/rdock/2013.1/src/exe/rbdock.cxx#4 $)

>  <Rbt.Library>
libRbt.so (2013.1, Build901 2013/11/27)

>  <Rbt.Parameter_File>
/export/apps/rDock/src/rDock_2013.1_src/data/scripts/dock_solv.prm

>  <Rbt.Receptor>
prm/pocket_docking_3.prm

>  <SCORE>
-15.4156

>  <SCORE.INTER>
-15.7851

>  <SCORE.INTER.CONST>
1

>  <SCORE.INTER.POLAR>
0

>  <SCORE.INTER.ROT>
5

>  <SCORE.INTER.SOLV>
19.7176

>  <SCORE.INTER.VDW>
-24.0293

>  <SCORE.INTER.norm>
-0.717504

>  <SCORE.INTRA>
0.369506

>  <SCORE.INTRA.DIHEDRAL>
0.00853729

>  <SCORE.INTRA.DIHEDRAL.0>
4.21161

>  <SCORE.INTRA.POLAR>
0

>  <SCORE.INTRA.POLAR.0>
0

>  <SCORE.INTRA.REPUL>
0

>  <SCORE.INTRA.REPUL.0>
0

>  <SCORE.INTRA.SOLV>
2.00251

>  <SCORE.INTRA.SOLV.lig_0>
-41.4168

>  <SCORE.INTRA.VDW>
-0.636017

>  <SCORE.INTRA.VDW.0>
-1.62533

>  <SCORE.INTRA.norm>
0.0167957

>  <SCORE.RESTR>
0

>  <SCORE.RESTR.CAVITY>
0

>  <SCORE.RESTR.norm>
0

>  <SCORE.SYSTEM>
0

>  <SCORE.SYSTEM.CONST>
0

>  <SCORE.SYSTEM.DIHEDRAL>
0

>  <SCORE.SYSTEM.SOLV>
0

>  <SCORE.SYSTEM.norm>
0

>  <SCORE.heavy>
22

>  <SCORE.norm>
-0.700709

>  <RMSD>
1.890

$$$$
lig.pdb
 OpenBabel11021811523D
libRbt.so/2013.1/901 2013/11/27
 22 23  0  0  0  0  0  0  0  0999 V2000
   13.4610  -58.6092  -38.6181 O   0  0  0  0  0  0  0  0  0  0  0  0
   13.8249  -59.1297  -37.5751 C   0  0  0  0  0  0  0  0  0  0  0  0
   12.9724  -59.7670  -36.7727 N   0  0  0  0  0  0  0  0  0  0  0  0
   15.2570  -59.0423  -37.1717 C   0  0  0  0  0  0  0  0  0  0  0  0
   16.3083  -58.4106  -37.9845 C   0  0  0  0  0  0  0  0  0  0  0  0
   16.1061  -57.7907  -39.2877 N   0  0  0  0  0  0  0  0  0  0  0  0
   15.9178  -59.4586  -36.0689 N   0  0  0  0  0  0  0  0  0  0  0  0
   17.2362  -59.1146  -36.2032 C   0  0  0  0  0  0  0  0  0  0  0  0
   17.4777  -58.4757  -37.3687 N   0  0  0  0  0  0  0  0  0  0  0  0
   18.7747  -57.9537  -37.8588 C   0  0  1  0  0  0  0  0  0  0  0  0
   19.2809  -56.8458  -36.9498 C   0  0  1  0  0  0  0  0  0  0  0  0
   20.7780  -57.0034  -37.0247 C   0  0  2  0  0  0  0  0  0  0  0  0
   21.2707  -56.3142  -38.1754 O   0  0  0  0  0  0  0  0  0  0  0  0
   18.8957  -55.5606  -37.4396 O   0  0  0  0  0  0  0  0  0  0  0  0
   19.7785  -58.9756  -37.8553 O   0  0  0  0  0  0  0  0  0  0  0  0
   20.9668  -58.4949  -37.2223 C   0  0  2  0  0  0  0  0  0  0  0  0
   21.1630  -59.1785  -35.8779 C   0  0  0  0  0  0  0  0  0  0  0  0
   21.3467  -60.5748  -36.1053 O   0  0  0  0  0  0  0  0  0  0  0  0
   21.5377  -61.6086  -34.8844 P   0  0  0  0  0  0  0  0  0  0  0  0
   22.7473  -61.1055  -34.1312 O   0  0  0  0  0  0  0  0  0  0  0  0
   21.7481  -62.9304  -35.5842 O   0  0  0  0  0  0  0  0  0  0  0  0
   20.2384  -61.4940  -34.1221 O   0  0  0  0  0  0  0  0  0  0  0  0
  1  2  2  0  0  0  0
  2  4  1  0  0  0  0
  2  3  1  0  0  0  0
  4  7  1  0  0  0  0
  5  9  1  0  0  0  0
  5  4  2  0  0  0  0
  6  5  1  0  0  0  0
  8  7  2  0  0  0  0
  9  8  1  0  0  0  0
 10 15  1  0  0  0  0
 10  9  1  1  0  0  0
 10 11  1  0  0  0  0
 11 14  1  6  0  0  0
 11 12  1  0  0  0  0
 12 13  1  6  0  0  0
 15 16  1  0  0  0  0
 16 12  1  0  0  0  0
 16 17  1  1  0  0  0
 17 18  1  0  0  0  0
 18 19  1  0  0  0  0
 19 21  1  0  0  0  0
 19 20  1  0  0  0  0
 22 19  2  0  0  0  0
M  END
>  <CHROM.1>
-2.89823619,115.81876854,-179.57410026,-178.08598936,-57.91214144,18.77688658
-59.16796797,-36.69824602,2.69782731,-0.15039495,-0.51010436

>  <Name>
lig.pdb

>  <RI>
0

>  <Rbt.Current_Directory>
/home/itssahil/PROJECTS/Mol_Feturizer/New_Systems/rnas/5btp

>  <Rbt.Executable>
rbdock ($Id: //depot/dev/client3/rdock/2013.1/src/exe/rbdock.cxx#4 $)

>  <Rbt.Library>
libRbt.so (2013.1, Build901 2013/11/27)

>  <Rbt.Parameter_File>
/export/apps/rDock/src/rDock_2013.1_src/data/scripts/dock_solv.prm

>  <Rbt.Receptor>
prm/pocket_docking_4.prm

>  <SCORE>
-20.1131

>  <SCORE.INTER>
-18.5336

>  <SCORE.INTER.CONST>
1

>  <SCORE.INTER.POLAR>
0

>  <SCORE.INTER.ROT>
5

>  <SCORE.INTER.SOLV>
21.6498

>  <SCORE.INTER.VDW>
-26.5057

>  <SCORE.INTER.norm>
-0.842434

>  <SCORE.INTRA>
-1.57957

>  <SCORE.INTRA.DIHEDRAL>
-1.73673

>  <SCORE.INTRA.DIHEDRAL.0>
4.21161

>  <SCORE.INTRA.POLAR>
0

>  <SCORE.INTRA.POLAR.0>
0

>  <SCORE.INTRA.REPUL>
0

>  <SCORE.INTRA.REPUL.0>
0

>  <SCORE.INTRA.SOLV>
-0.236846

>  <SCORE.INTRA.SOLV.lig_0>
-41.4168

>  <SCORE.INTRA.VDW>
-0.592777

>  <SCORE.INTRA.VDW.0>
-1.62533

>  <SCORE.INTRA.norm>
-0.0717984

>  <SCORE.RESTR>
0

>  <SCORE.RESTR.CAVITY>
0

>  <SCORE.RESTR.norm>
0

>  <SCORE.SYSTEM>
0

>  <SCORE.SYSTEM.CONST>
0

>  <SCORE.SYSTEM.DIHEDRAL>
0

>  <SCORE.SYSTEM.SOLV>
0

>  <SCORE.SYSTEM.norm>
0

>  <SCORE.heavy>
22

>  <SCORE.norm>
-0.914233

>  <RMSD>
1.893

$$$$
lig.pdb
 OpenBabel11021811523D
libRbt.so/2013.1/901 2013/11/27
 22 23  0  0  0  0  0  0  0  0999 V2000
   14.8337  -60.0579  -36.1950 O   0  0  0  0  0  0  0  0  0  0  0  0
   14.5534  -59.3359  -37.1390 C   0  0  0  0  0  0  0  0  0  0  0  0
   13.3013  -59.2063  -37.5774 N   0  0  0  0  0  0  0  0  0  0  0  0
   15.6362  -58.5865  -37.8368 C   0  0  0  0  0  0  0  0  0  0  0  0
   17.0239  -58.4984  -37.3556 C   0  0  0  0  0  0  0  0  0  0  0  0
   17.5340  -59.1189  -36.1399 N   0  0  0  0  0  0  0  0  0  0  0  0
   15.6529  -57.8689  -38.9819 N   0  0  0  0  0  0  0  0  0  0  0  0
   16.9227  -57.3936  -39.1719 C   0  0  0  0  0  0  0  0  0  0  0  0
   17.7607  -57.7752  -38.1835 N   0  0  0  0  0  0  0  0  0  0  0  0
   19.2014  -57.4571  -38.0498 C   0  0  1  0  0  0  0  0  0  0  0  0
   19.4465  -56.6040  -36.8161 C   0  0  1  0  0  0  0  0  0  0  0  0
   20.8176  -57.0416  -36.3684 C   0  0  2  0  0  0  0  0  0  0  0  0
   21.8091  -56.3134  -37.0956 O   0  0  0  0  0  0  0  0  0  0  0  0
   19.4555  -55.2139  -37.1440 O   0  0  0  0  0  0  0  0  0  0  0  0
   19.9811  -58.6475  -37.8848 O   0  0  0  0  0  0  0  0  0  0  0  0
   20.8745  -58.5003  -36.7785 C   0  0  2  0  0  0  0  0  0  0  0  0
   20.4340  -59.3847  -35.6222 C   0  0  0  0  0  0  0  0  0  0  0  0
   21.5148  -59.4873  -34.6967 O   0  0  0  0  0  0  0  0  0  0  0  0
   21.4160  -60.4206  -33.3871 P   0  0  0  0  0  0  0  0  0  0  0  0
   20.4926  -59.6801  -32.4476 O   0  0  0  0  0  0  0  0  0  0  0  0
   22.8482  -60.5005  -32.9143 O   0  0  0  0  0  0  0  0  0  0  0  0
   20.8510  -61.7157  -33.9218 O   0  0  0  0  0  0  0  0  0  0  0  0
  1  2  2  0  0  0  0
  2  4  1  0  0  0  0
  2  3  1  0  0  0  0
  4  7  1  0  0  0  0
  5  9  1  0  0  0  0
  5  4  2  0  0  0  0
  6  5  1  0  0  0  0
  8  7  2  0  0  0  0
  9  8  1  0  0  0  0
 10 15  1  0  0  0  0
 10  9  1  1  0  0  0
 10 11  1  0  0  0  0
 11 14  1  6  0  0  0
 11 12  1  0  0  0  0
 12 13  1  6  0  0  0
 15 16  1  0  0  0  0
 16 12  1  0  0  0  0
 16 17  1  1  0  0  0
 17 18  1  0  0  0  0
 18 19  1  0  0  0  0
 19 21  1  0  0  0  0
 19 20  1  0  0  0  0
 22 19  2  0  0  0  0
M  END
>  <CHROM.1>
-9.01516993,-64.44705564,-77.95290879,-176.62286374,-73.76969094,18.99647807
-58.70819892,-36.19546089,2.57502867,-0.29945708,-0.76645942

>  <Name>
lig.pdb

>  <RI>
0

>  <Rbt.Current_Directory>
/home/itssahil/PROJECTS/Mol_Feturizer/New_Systems/rnas/5btp

>  <Rbt.Executable>
rbdock ($Id: //depot/dev/client3/rdock/2013.1/src/exe/rbdock.cxx#4 $)

>  <Rbt.Library>
libRbt.so (2013.1, Build901 2013/11/27)

>  <Rbt.Parameter_File>
/export/apps/rDock/src/rDock_2013.1_src/data/scripts/dock_solv.prm

>  <Rbt.Receptor>
prm/pocket_docking_5.prm

>  <SCORE>
-15.5918

>  <SCORE.INTER>
-15.5151

>  <SCORE.INTER.CONST>
1

>  <SCORE.INTER.POLAR>
0

>  <SCORE.INTER.ROT>
5

>  <SCORE.INTER.SOLV>
18.2354

>  <SCORE.INTER.VDW>
-23.3552

>  <SCORE.INTER.norm>
-0.705232

>  <SCORE.INTRA>
-0.0766758

>  <SCORE.INTRA.DIHEDRAL>
-0.0752784

>  <SCORE.INTRA.DIHEDRAL.0>
4.21161

>  <SCORE.INTRA.POLAR>
0

>  <SCORE.INTRA.POLAR.0>
0

>  <SCORE.INTRA.REPUL>
0

>  <SCORE.INTRA.REPUL.0>
0

>  <SCORE.INTRA.SOLV>
1.16816

>  <SCORE.INTRA.SOLV.lig_0>
-41.4168

>  <SCORE.INTRA.VDW>
-0.623118

>  <SCORE.INTRA.VDW.0>
-1.62533

>  <SCORE.INTRA.norm>
-0.00348526

>  <SCORE.RESTR>
0

>  <SCORE.RESTR.CAVITY>
0

>  <SCORE.RESTR.norm>
0

>  <SCORE.SYSTEM>
0

>  <SCORE.SYSTEM.CONST>
0

>  <SCORE.SYSTEM.DIHEDRAL>
0

>  <SCORE.SYSTEM.SOLV>
0

>  <SCORE.SYSTEM.norm>
0

>  <SCORE.heavy>
22

>  <SCORE.norm>
-0.708717

>  <RMSD>
1.903

$$$$
lig.pdb
 OpenBabel11021811523D
libRbt.so/2013.1/901 2013/11/27
 22 23  0  0  0  0  0  0  0  0999 V2000
   14.3197  -59.1189  -35.8084 O   0  0  0  0  0  0  0  0  0  0  0  0
   14.3025  -59.3034  -37.0154 C   0  0  0  0  0  0  0  0  0  0  0  0
   13.3205  -59.9819  -37.6088 N   0  0  0  0  0  0  0  0  0  0  0  0
   15.4133  -58.7724  -37.8551 C   0  0  0  0  0  0  0  0  0  0  0  0
   16.7849  -58.5530  -37.3699 C   0  0  0  0  0  0  0  0  0  0  0  0
   17.2500  -58.8147  -36.0140 N   0  0  0  0  0  0  0  0  0  0  0  0
   15.4731  -58.3969  -39.1519 N   0  0  0  0  0  0  0  0  0  0  0  0
   16.7521  -57.9897  -39.4221 C   0  0  0  0  0  0  0  0  0  0  0  0
   17.5541  -58.0837  -38.3391 N   0  0  0  0  0  0  0  0  0  0  0  0
   18.9920  -57.7384  -38.2493 C   0  0  1  0  0  0  0  0  0  0  0  0
   19.1826  -56.4499  -37.4662 C   0  0  1  0  0  0  0  0  0  0  0  0
   20.5094  -56.6616  -36.7831 C   0  0  2  0  0  0  0  0  0  0  0  0
   21.5656  -56.3010  -37.6757 O   0  0  0  0  0  0  0  0  0  0  0  0
   19.2523  -55.3215  -38.3390 O   0  0  0  0  0  0  0  0  0  0  0  0
   19.7251  -58.7525  -37.5521 O   0  0  0  0  0  0  0  0  0  0  0  0
   20.5504  -58.1589  -36.5469 C   0  0  2  0  0  0  0  0  0  0  0  0
   20.0123  -58.4833  -35.1619 C   0  0  0  0  0  0  0  0  0  0  0  0
   20.5950  -59.7113  -34.7287 O   0  0  0  0  0  0  0  0  0  0  0  0
   22.1297  -59.7903  -34.2447 P   0  0  0  0  0  0  0  0  0  0  0  0
   22.9321  -59.9599  -35.5139 O   0  0  0  0  0  0  0  0  0  0  0  0
   22.1412  -60.9978  -33.3375 O   0  0  0  0  0  0  0  0  0  0  0  0
   22.3447  -58.4687  -33.5450 O   0  0  0  0  0  0  0  0  0  0  0  0
  1  2  2  0  0  0  0
  2  4  1  0  0  0  0
  2  3  1  0  0  0  0
  4  7  1  0  0  0  0
  5  9  1  0  0  0  0
  5  4  2  0  0  0  0
  6  5  1  0  0  0  0
  8  7  2  0  0  0  0
  9  8  1  0  0  0  0
 10 15  1  0  0  0  0
 10  9  1  1  0  0  0
 10 11  1  0  0  0  0
 11 14  1  6  0  0  0
 11 12  1  0  0  0  0
 12 13  1  6  0  0  0
 15 16  1  0  0  0  0
 16 12  1  0  0  0  0
 16 17  1  1  0  0  0
 17 18  1  0  0  0  0
 18 19  1  0  0  0  0
 19 21  1  0  0  0  0
 19 20  1  0  0  0  0
 22 19  2  0  0  0  0
M  END
>  <CHROM.1>
27.47454098,-73.28757665,-153.84124628,74.37416154,-84.64565154,18.99444554
-58.52926725,-36.51701751,2.76877715,-0.25451447,-0.80292311

>  <Name>
lig.pdb

>  <RI>
0

>  <Rbt.Current_Directory>
/home/itssahil/PROJECTS/Mol_Feturizer/New_Systems/rnas/5btp

>  <Rbt.Executable>
rbdock ($Id: //depot/dev/client3/rdock/2013.1/src/exe/rbdock.cxx#4 $)

>  <Rbt.Library>
libRbt.so (2013.1, Build901 2013/11/27)

>  <Rbt.Parameter_File>
/export/apps/rDock/src/rDock_2013.1_src/data/scripts/dock_solv.prm

>  <Rbt.Receptor>
prm/pocket_docking_2.prm

>  <SCORE>
-12.4409

>  <SCORE.INTER>
-15.0377

>  <SCORE.INTER.CONST>
1

>  <SCORE.INTER.POLAR>
0

>  <SCORE.INTER.ROT>
5

>  <SCORE.INTER.SOLV>
19.5771

>  <SCORE.INTER.VDW>
-23.4842

>  <SCORE.INTER.norm>
-0.683531

>  <SCORE.INTRA>
2.57192

>  <SCORE.INTRA.DIHEDRAL>
4.54894

>  <SCORE.INTRA.DIHEDRAL.0>
4.21161

>  <SCORE.INTRA.POLAR>
0

>  <SCORE.INTRA.POLAR.0>
0

>  <SCORE.INTRA.REPUL>
0

>  <SCORE.INTRA.REPUL.0>
0

>  <SCORE.INTRA.SOLV>
2.07064

>  <SCORE.INTRA.SOLV.lig_0>
-41.4168

>  <SCORE.INTRA.VDW>
-0.737867

>  <SCORE.INTRA.VDW.0>
-1.62533

>  <SCORE.INTRA.norm>
0.116906

>  <SCORE.RESTR>
0.0248546

>  <SCORE.RESTR.CAVITY>
0.0248546

>  <SCORE.RESTR.norm>
0.00112975

>  <SCORE.SYSTEM>
0

>  <SCORE.SYSTEM.CONST>
0

>  <SCORE.SYSTEM.DIHEDRAL>
0

>  <SCORE.SYSTEM.SOLV>
0

>  <SCORE.SYSTEM.norm>
0

>  <SCORE.heavy>
22

>  <SCORE.norm>
-0.565496

>  <RMSD>
1.965

$$$$
lig.pdb
 OpenBabel11021811523D
libRbt.so/2013.1/901 2013/11/27
 22 23  0  0  0  0  0  0  0  0999 V2000
   12.9894  -59.6681  -36.7805 O   0  0  0  0  0  0  0  0  0  0  0  0
   13.7791  -59.0967  -37.5160 C   0  0  0  0  0  0  0  0  0  0  0  0
   13.3951  -58.5466  -38.6679 N   0  0  0  0  0  0  0  0  0  0  0  0
   15.2170  -59.0203  -37.1316 C   0  0  0  0  0  0  0  0  0  0  0  0
   16.2610  -58.3904  -37.9551 C   0  0  0  0  0  0  0  0  0  0  0  0
   16.0451  -57.7620  -39.2519 N   0  0  0  0  0  0  0  0  0  0  0  0
   15.8901  -59.4469  -36.0402 N   0  0  0  0  0  0  0  0  0  0  0  0
   17.2086  -59.1101  -36.1905 C   0  0  0  0  0  0  0  0  0  0  0  0
   17.4383  -58.4662  -37.3556 N   0  0  0  0  0  0  0  0  0  0  0  0
   18.7317  -57.9492  -37.8603 C   0  0  1  0  0  0  0  0  0  0  0  0
   19.2511  -56.8414  -36.9587 C   0  0  1  0  0  0  0  0  0  0  0  0
   20.7468  -57.0041  -37.0492 C   0  0  2  0  0  0  0  0  0  0  0  0
   21.2296  -56.3185  -38.2063 O   0  0  0  0  0  0  0  0  0  0  0  0
   18.8649  -55.5558  -37.4467 O   0  0  0  0  0  0  0  0  0  0  0  0
   19.7322  -58.9744  -37.8656 O   0  0  0  0  0  0  0  0  0  0  0  0
   20.9287  -58.4965  -37.2461 C   0  0  2  0  0  0  0  0  0  0  0  0
   21.1368  -59.1784  -35.9027 C   0  0  0  0  0  0  0  0  0  0  0  0
   21.3212  -60.5746  -36.1301 O   0  0  0  0  0  0  0  0  0  0  0  0
   21.5489  -61.6033  -34.9111 P   0  0  0  0  0  0  0  0  0  0  0  0
   21.8896  -62.9203  -35.5690 O   0  0  0  0  0  0  0  0  0  0  0  0
   20.2167  -61.5916  -34.1995 O   0  0  0  0  0  0  0  0  0  0  0  0
   22.6875  -60.9820  -34.1367 O   0  0  0  0  0  0  0  0  0  0  0  0
  1  2  2  0  0  0  0
  2  4  1  0  0  0  0
  2  3  1  0  0  0  0
  4  7  1  0  0  0  0
  5  9  1  0  0  0  0
  5  4  2  0  0  0  0
  6  5  1  0  0  0  0
  8  7  2  0  0  0  0
  9  8  1  0  0  0  0
 10 15  1  0  0  0  0
 10  9  1  1  0  0  0
 10 11  1  0  0  0  0
 11 14  1  6  0  0  0
 11 12  1  0  0  0  0
 12 13  1  6  0  0  0
 15 16  1  0  0  0  0
 16 12  1  0  0  0  0
 16 17  1  1  0  0  0
 17 18  1  0  0  0  0
 18 19  1  0  0  0  0
 19 21  1  0  0  0  0
 19 20  1  0  0  0  0
 22 19  2  0  0  0  0
M  END
>  <CHROM.1>
178.29551086,115.33505472,-179.25038051,-179.14712275,-172.36827353,18.75088739
-59.15987462,-36.69382980,2.70324074,-0.13755794,-0.51134204

>  <Name>
lig.pdb

>  <RI>
0

>  <Rbt.Current_Directory>
/home/itssahil/PROJECTS/Mol_Feturizer/New_Systems/rnas/5btp

>  <Rbt.Executable>
rbdock ($Id: //depot/dev/client3/rdock/2013.1/src/exe/rbdock.cxx#4 $)

>  <Rbt.Library>
libRbt.so (2013.1, Build901 2013/11/27)

>  <Rbt.Parameter_File>
/export/apps/rDock/src/rDock_2013.1_src/data/scripts/dock_solv.prm

>  <Rbt.Receptor>
prm/pocket_docking_4.prm

>  <SCORE>
-20.3177

>  <SCORE.INTER>
-18.9614

>  <SCORE.INTER.CONST>
1

>  <SCORE.INTER.POLAR>
0

>  <SCORE.INTER.ROT>
5

>  <SCORE.INTER.SOLV>
20.7136

>  <SCORE.INTER.VDW>
-26.4788

>  <SCORE.INTER.norm>
-0.861881

>  <SCORE.INTRA>
-1.35631

>  <SCORE.INTRA.DIHEDRAL>
-1.68027

>  <SCORE.INTRA.DIHEDRAL.0>
4.21161

>  <SCORE.INTRA.POLAR>
0

>  <SCORE.INTRA.POLAR.0>
0

>  <SCORE.INTRA.REPUL>
0

>  <SCORE.INTRA.REPUL.0>
0

>  <SCORE.INTRA.SOLV>
-0.00532961

>  <SCORE.INTRA.SOLV.lig_0>
-41.4168

>  <SCORE.INTRA.VDW>
-0.513512

>  <SCORE.INTRA.VDW.0>
-1.62533

>  <SCORE.INTRA.norm>
-0.0616505

>  <SCORE.RESTR>
0

>  <SCORE.RESTR.CAVITY>
0

>  <SCORE.RESTR.norm>
0

>  <SCORE.SYSTEM>
0

>  <SCORE.SYSTEM.CONST>
0

>  <SCORE.SYSTEM.DIHEDRAL>
0

>  <SCORE.SYSTEM.SOLV>
0

>  <SCORE.SYSTEM.norm>
0

>  <SCORE.heavy>
22

>  <SCORE.norm>
-0.923532

>  <RMSD>
2.000

$$$$
lig.pdb
 OpenBabel11021811523D
libRbt.so/2013.1/901 2013/11/27
 22 23  0  0  0  0  0  0  0  0999 V2000
   12.9964  -59.7197  -36.8138 O   0  0  0  0  0  0  0  0  0  0  0  0
   13.7897  -59.1555  -37.5510 C   0  0  0  0  0  0  0  0  0  0  0  0
   13.4166  -58.6400  -38.7223 N   0  0  0  0  0  0  0  0  0  0  0  0
   15.2200  -59.0485  -37.1460 C   0  0  0  0  0  0  0  0  0  0  0  0
   16.2692  -58.4296  -37.9711 C   0  0  0  0  0  0  0  0  0  0  0  0
   16.0667  -57.8430  -39.2895 N   0  0  0  0  0  0  0  0  0  0  0  0
   15.8804  -59.4335  -36.0316 N   0  0  0  0  0  0  0  0  0  0  0  0
   17.1968  -59.0837  -36.1707 C   0  0  0  0  0  0  0  0  0  0  0  0
   17.4374  -58.4718  -37.3507 N   0  0  0  0  0  0  0  0  0  0  0  0
   18.7322  -57.9530  -37.8499 C   0  0  1  0  0  0  0  0  0  0  0  0
   19.2481  -56.8473  -36.9437 C   0  0  1  0  0  0  0  0  0  0  0  0
   20.7442  -57.0091  -37.0297 C   0  0  2  0  0  0  0  0  0  0  0  0
   21.2305  -56.3202  -38.1834 O   0  0  0  0  0  0  0  0  0  0  0  0
   18.8630  -55.5606  -37.4294 O   0  0  0  0  0  0  0  0  0  0  0  0
   19.7331  -58.9777  -37.8547 O   0  0  0  0  0  0  0  0  0  0  0  0
   20.9274  -58.5010  -37.2300 C   0  0  2  0  0  0  0  0  0  0  0  0
   21.1315  -59.1863  -35.8877 C   0  0  0  0  0  0  0  0  0  0  0  0
   21.3343  -60.5792  -36.1195 O   0  0  0  0  0  0  0  0  0  0  0  0
   21.5299  -61.6157  -34.9016 P   0  0  0  0  0  0  0  0  0  0  0  0
   21.7064  -62.9644  -35.5599 O   0  0  0  0  0  0  0  0  0  0  0  0
   20.2464  -61.4707  -34.1187 O   0  0  0  0  0  0  0  0  0  0  0  0
   22.7638  -61.1007  -34.1983 O   0  0  0  0  0  0  0  0  0  0  0  0
  1  2  2  0  0  0  0
  2  4  1  0  0  0  0
  2  3  1  0  0  0  0
  4  7  1  0  0  0  0
  5  9  1  0  0  0  0
  5  4  2  0  0  0  0
  6  5  1  0  0  0  0
  8  7  2  0  0  0  0
  9  8  1  0  0  0  0
 10 15  1  0  0  0  0
 10  9  1  1  0  0  0
 10 11  1  0  0  0  0
 11 14  1  6  0  0  0
 11 12  1  0  0  0  0
 12 13  1  6  0  0  0
 15 16  1  0  0  0  0
 16 12  1  0  0  0  0
 16 17  1  1  0  0  0
 17 18  1  0  0  0  0
 18 19  1  0  0  0  0
 19 21  1  0  0  0  0
 19 20  1  0  0  0  0
 22 19  2  0  0  0  0
M  END
>  <CHROM.1>
178.01122701,117.47096028,-178.51509697,-177.74488282,179.77119686,18.74753575
-59.17799551,-36.69207698,2.70616447,-0.14697388,-0.50785276

>  <Name>
lig.pdb

>  <RI>
0

>  <Rbt.Current_Directory>
/home/itssahil/PROJECTS/Mol_Feturizer/New_Systems/rnas/5btp

>  <Rbt.Executable>
rbdock ($Id: //depot/dev/client3/rdock/2013.1/src/exe/rbdock.cxx#4 $)

>  <Rbt.Library>
libRbt.so (2013.1, Build901 2013/11/27)

>  <Rbt.Parameter_File>
/export/apps/rDock/src/rDock_2013.1_src/data/scripts/dock_solv.prm

>  <Rbt.Receptor>
prm/pocket_docking_4.prm

>  <SCORE>
-20.3216

>  <SCORE.INTER>
-18.904

>  <SCORE.INTER.CONST>
1

>  <SCORE.INTER.POLAR>
0

>  <SCORE.INTER.ROT>
5

>  <SCORE.INTER.SOLV>
20.7339

>  <SCORE.INTER.VDW>
-26.4473

>  <SCORE.INTER.norm>
-0.859272

>  <SCORE.INTRA>
-1.41766

>  <SCORE.INTRA.DIHEDRAL>
-1.74686

>  <SCORE.INTRA.DIHEDRAL.0>
4.21161

>  <SCORE.INTRA.POLAR>
0

>  <SCORE.INTRA.POLAR.0>
0

>  <SCORE.INTRA.REPUL>
0

>  <SCORE.INTRA.REPUL.0>
0

>  <SCORE.INTRA.SOLV>
-0.0470392

>  <SCORE.INTRA.SOLV.lig_0>
-41.4168

>  <SCORE.INTRA.VDW>
-0.520704

>  <SCORE.INTRA.VDW.0>
-1.62533

>  <SCORE.INTRA.norm>
-0.0644389

>  <SCORE.RESTR>
0

>  <SCORE.RESTR.CAVITY>
0

>  <SCORE.RESTR.norm>
0

>  <SCORE.SYSTEM>
0

>  <SCORE.SYSTEM.CONST>
0

>  <SCORE.SYSTEM.DIHEDRAL>
0

>  <SCORE.SYSTEM.SOLV>
0

>  <SCORE.SYSTEM.norm>
0

>  <SCORE.heavy>
22

>  <SCORE.norm>
-0.923711

>  <RMSD>
2.003

$$$$
lig.pdb
 OpenBabel11021811523D
libRbt.so/2013.1/901 2013/11/27
 22 23  0  0  0  0  0  0  0  0999 V2000
   12.9769  -59.7068  -36.8198 O   0  0  0  0  0  0  0  0  0  0  0  0
   13.7702  -59.1174  -37.5370 C   0  0  0  0  0  0  0  0  0  0  0  0
   13.3899  -58.5295  -38.6713 N   0  0  0  0  0  0  0  0  0  0  0  0
   15.2083  -59.0611  -37.1499 C   0  0  0  0  0  0  0  0  0  0  0  0
   16.2585  -58.4237  -37.9596 C   0  0  0  0  0  0  0  0  0  0  0  0
   16.0493  -57.7674  -39.2436 N   0  0  0  0  0  0  0  0  0  0  0  0
   15.8766  -59.5154  -36.0667 N   0  0  0  0  0  0  0  0  0  0  0  0
   17.1981  -59.1870  -36.2090 C   0  0  0  0  0  0  0  0  0  0  0  0
   17.4345  -58.5217  -37.3607 N   0  0  0  0  0  0  0  0  0  0  0  0
   18.7328  -58.0058  -37.8538 C   0  0  1  0  0  0  0  0  0  0  0  0
   19.2398  -56.8911  -36.9536 C   0  0  1  0  0  0  0  0  0  0  0  0
   20.7367  -57.0518  -37.0256 C   0  0  2  0  0  0  0  0  0  0  0  0
   21.2318  -56.3730  -38.1816 O   0  0  0  0  0  0  0  0  0  0  0  0
   18.8571  -55.6095  -37.4545 O   0  0  0  0  0  0  0  0  0  0  0  0
   19.7349  -59.0293  -37.8407 O   0  0  0  0  0  0  0  0  0  0  0  0
   20.9234  -58.5452  -37.2106 C   0  0  2  0  0  0  0  0  0  0  0  0
   21.1171  -59.2178  -35.8603 C   0  0  0  0  0  0  0  0  0  0  0  0
   21.3231  -60.6126  -36.0775 O   0  0  0  0  0  0  0  0  0  0  0  0
   21.5097  -61.6375  -34.8483 P   0  0  0  0  0  0  0  0  0  0  0  0
   21.7402  -62.9844  -35.4935 O   0  0  0  0  0  0  0  0  0  0  0  0
   20.2005  -61.5220  -34.1041 O   0  0  0  0  0  0  0  0  0  0  0  0
   22.7087  -61.0870  -34.1124 O   0  0  0  0  0  0  0  0  0  0  0  0
  1  2  2  0  0  0  0
  2  4  1  0  0  0  0
  2  3  1  0  0  0  0
  4  7  1  0  0  0  0
  5  9  1  0  0  0  0
  5  4  2  0  0  0  0
  6  5  1  0  0  0  0
  8  7  2  0  0  0  0
  9  8  1  0  0  0  0
 10 15  1  0  0  0  0
 10  9  1  1  0  0  0
 10 11  1  0  0  0  0
 11 14  1  6  0  0  0
 11 12  1  0  0  0  0
 12 13  1  6  0  0  0
 15 16  1  0  0  0  0
 16 12  1  0  0  0  0
 16 17  1  1  0  0  0
 17 18  1  0  0  0  0
 18 19  1  0  0  0  0
 19 21  1  0  0  0  0
 19 20  1  0  0  0  0
 22 19  2  0  0  0  0
M  END
>  <CHROM.1>
177.64928603,113.58026265,-178.53431001,-177.74655257,-178.34350534,18.73576368
-59.20043757,-36.67468223,2.69495089,-0.14339734,-0.51898526

>  <Name>
lig.pdb

>  <RI>
0

>  <Rbt.Current_Directory>
/home/itssahil/PROJECTS/Mol_Feturizer/New_Systems/rnas/5btp

>  <Rbt.Executable>
rbdock ($Id: //depot/dev/client3/rdock/2013.1/src/exe/rbdock.cxx#4 $)

>  <Rbt.Library>
libRbt.so (2013.1, Build901 2013/11/27)

>  <Rbt.Parameter_File>
/export/apps/rDock/src/rDock_2013.1_src/data/scripts/dock_solv.prm

>  <Rbt.Receptor>
prm/pocket_docking_4.prm

>  <SCORE>
-20.3649

>  <SCORE.INTER>
-18.9422

>  <SCORE.INTER.CONST>
1

>  <SCORE.INTER.POLAR>
0

>  <SCORE.INTER.ROT>
5

>  <SCORE.INTER.SOLV>
20.7405

>  <SCORE.INTER.VDW>
-26.475

>  <SCORE.INTER.norm>
-0.861008

>  <SCORE.INTRA>
-1.42275

>  <SCORE.INTRA.DIHEDRAL>
-1.73533

>  <SCORE.INTRA.DIHEDRAL.0>
4.21161

>  <SCORE.INTRA.POLAR>
0

>  <SCORE.INTRA.POLAR.0>
0

>  <SCORE.INTRA.REPUL>
0

>  <SCORE.INTRA.REPUL.0>
0

>  <SCORE.INTRA.SOLV>
-0.00951223

>  <SCORE.INTRA.SOLV.lig_0>
-41.4168

>  <SCORE.INTRA.VDW>
-0.550328

>  <SCORE.INTRA.VDW.0>
-1.62533

>  <SCORE.INTRA.norm>
-0.0646704

>  <SCORE.RESTR>
0

>  <SCORE.RESTR.CAVITY>
0

>  <SCORE.RESTR.norm>
0

>  <SCORE.SYSTEM>
0

>  <SCORE.SYSTEM.CONST>
0

>  <SCORE.SYSTEM.DIHEDRAL>
0

>  <SCORE.SYSTEM.SOLV>
0

>  <SCORE.SYSTEM.norm>
0

>  <SCORE.heavy>
22

>  <SCORE.norm>
-0.925679

>  <RMSD>
2.006

$$$$
lig.pdb
 OpenBabel11021811523D
libRbt.so/2013.1/901 2013/11/27
 22 23  0  0  0  0  0  0  0  0999 V2000
   12.9943  -59.7309  -36.8198 O   0  0  0  0  0  0  0  0  0  0  0  0
   13.7802  -59.1327  -37.5377 C   0  0  0  0  0  0  0  0  0  0  0  0
   13.3930  -58.5520  -38.6734 N   0  0  0  0  0  0  0  0  0  0  0  0
   15.2173  -59.0570  -37.1501 C   0  0  0  0  0  0  0  0  0  0  0  0
   16.2623  -58.4215  -37.9680 C   0  0  0  0  0  0  0  0  0  0  0  0
   16.0484  -57.7861  -39.2617 N   0  0  0  0  0  0  0  0  0  0  0  0
   15.8886  -59.4889  -36.0596 N   0  0  0  0  0  0  0  0  0  0  0  0
   17.2071  -59.1500  -36.2054 C   0  0  0  0  0  0  0  0  0  0  0  0
   17.4385  -58.4994  -37.3665 N   0  0  0  0  0  0  0  0  0  0  0  0
   18.7324  -57.9784  -37.8658 C   0  0  1  0  0  0  0  0  0  0  0  0
   19.2433  -56.8674  -36.9634 C   0  0  1  0  0  0  0  0  0  0  0  0
   20.7400  -57.0247  -37.0464 C   0  0  2  0  0  0  0  0  0  0  0  0
   21.2259  -56.3390  -38.2023 O   0  0  0  0  0  0  0  0  0  0  0  0
   18.8547  -55.5840  -37.4551 O   0  0  0  0  0  0  0  0  0  0  0  0
   19.7366  -58.9999  -37.8648 O   0  0  0  0  0  0  0  0  0  0  0  0
   20.9284  -58.5167  -37.2403 C   0  0  2  0  0  0  0  0  0  0  0  0
   21.1326  -59.1958  -35.8948 C   0  0  0  0  0  0  0  0  0  0  0  0
   21.3140  -60.5930  -36.1186 O   0  0  0  0  0  0  0  0  0  0  0  0
   21.5292  -61.6204  -34.8963 P   0  0  0  0  0  0  0  0  0  0  0  0
   21.7549  -62.9641  -35.5496 O   0  0  0  0  0  0  0  0  0  0  0  0
   20.2337  -61.5143  -34.1272 O   0  0  0  0  0  0  0  0  0  0  0  0
   22.7389  -61.0655  -34.1813 O   0  0  0  0  0  0  0  0  0  0  0  0
  1  2  2  0  0  0  0
  2  4  1  0  0  0  0
  2  3  1  0  0  0  0
  4  7  1  0  0  0  0
  5  9  1  0  0  0  0
  5  4  2  0  0  0  0
  6  5  1  0  0  0  0
  8  7  2  0  0  0  0
  9  8  1  0  0  0  0
 10 15  1  0  0  0  0
 10  9  1  1  0  0  0
 10 11  1  0  0  0  0
 11 14  1  6  0  0  0
 11 12  1  0  0  0  0
 12 13  1  6  0  0  0
 15 16  1  0  0  0  0
 16 12  1  0  0  0  0
 16 17  1  1  0  0  0
 17 18  1  0  0  0  0
 18 19  1  0  0  0  0
 19 21  1  0  0  0  0
 19 20  1  0  0  0  0
 22 19  2  0  0  0  0
M  END
>  <CHROM.1>
176.89405456,114.87601124,-179.64561071,-178.81562033,-177.00375308,18.74453902
-59.18575165,-36.69586467,2.70224204,-0.14253346,-0.51289283

>  <Name>
lig.pdb

>  <RI>
0

>  <Rbt.Current_Directory>
/home/itssahil/PROJECTS/Mol_Feturizer/New_Systems/rnas/5btp

>  <Rbt.Executable>
rbdock ($Id: //depot/dev/client3/rdock/2013.1/src/exe/rbdock.cxx#4 $)

>  <Rbt.Library>
libRbt.so (2013.1, Build901 2013/11/27)

>  <Rbt.Parameter_File>
/export/apps/rDock/src/rDock_2013.1_src/data/scripts/dock_solv.prm

>  <Rbt.Receptor>
prm/pocket_docking_4.prm

>  <SCORE>
-20.3947

>  <SCORE.INTER>
-18.9819

>  <SCORE.INTER.CONST>
1

>  <SCORE.INTER.POLAR>
0

>  <SCORE.INTER.ROT>
5

>  <SCORE.INTER.SOLV>
20.7626

>  <SCORE.INTER.VDW>
-26.5088

>  <SCORE.INTER.norm>
-0.862813

>  <SCORE.INTRA>
-1.41276

>  <SCORE.INTRA.DIHEDRAL>
-1.73559

>  <SCORE.INTRA.DIHEDRAL.0>
4.21161

>  <SCORE.INTRA.POLAR>
0

>  <SCORE.INTRA.POLAR.0>
0

>  <SCORE.INTRA.REPUL>
0

>  <SCORE.INTRA.REPUL.0>
0

>  <SCORE.INTRA.SOLV>
-0.0143771

>  <SCORE.INTRA.SOLV.lig_0>
-41.4168

>  <SCORE.INTRA.VDW>
-0.53778

>  <SCORE.INTRA.VDW.0>
-1.62533

>  <SCORE.INTRA.norm>
-0.0642166

>  <SCORE.RESTR>
0

>  <SCORE.RESTR.CAVITY>
0

>  <SCORE.RESTR.norm>
0

>  <SCORE.SYSTEM>
0

>  <SCORE.SYSTEM.CONST>
0

>  <SCORE.SYSTEM.DIHEDRAL>
0

>  <SCORE.SYSTEM.SOLV>
0

>  <SCORE.SYSTEM.norm>
0

>  <SCORE.heavy>
22

>  <SCORE.norm>
-0.92703

>  <RMSD>
2.006

$$$$
lig.pdb
 OpenBabel11021811523D
libRbt.so/2013.1/901 2013/11/27
 22 23  0  0  0  0  0  0  0  0999 V2000
   12.9979  -59.6243  -36.8074 O   0  0  0  0  0  0  0  0  0  0  0  0
   13.7909  -59.0566  -37.5422 C   0  0  0  0  0  0  0  0  0  0  0  0
   13.4098  -58.5017  -38.6928 N   0  0  0  0  0  0  0  0  0  0  0  0
   15.2294  -58.9900  -37.1584 C   0  0  0  0  0  0  0  0  0  0  0  0
   16.2754  -58.3564  -37.9766 C   0  0  0  0  0  0  0  0  0  0  0  0
   16.0609  -57.7142  -39.2669 N   0  0  0  0  0  0  0  0  0  0  0  0
   15.9017  -59.4303  -36.0719 N   0  0  0  0  0  0  0  0  0  0  0  0
   17.2215  -59.0975  -36.2201 C   0  0  0  0  0  0  0  0  0  0  0  0
   17.4528  -58.4430  -37.3789 N   0  0  0  0  0  0  0  0  0  0  0  0
   18.7480  -57.9265  -37.8797 C   0  0  1  0  0  0  0  0  0  0  0  0
   19.2709  -56.8271  -36.9698 C   0  0  1  0  0  0  0  0  0  0  0  0
   20.7660  -56.9940  -37.0614 C   0  0  2  0  0  0  0  0  0  0  0  0
   21.2512  -56.3014  -38.2133 O   0  0  0  0  0  0  0  0  0  0  0  0
   18.8889  -55.5367  -37.4482 O   0  0  0  0  0  0  0  0  0  0  0  0
   19.7451  -58.9549  -37.8926 O   0  0  0  0  0  0  0  0  0  0  0  0
   20.9431  -58.4856  -37.2695 C   0  0  2  0  0  0  0  0  0  0  0  0
   21.1489  -59.1781  -35.9311 C   0  0  0  0  0  0  0  0  0  0  0  0
   21.3870  -60.5637  -36.1731 O   0  0  0  0  0  0  0  0  0  0  0  0
   21.5402  -61.6156  -34.9623 P   0  0  0  0  0  0  0  0  0  0  0  0
   21.8121  -62.9437  -35.6298 O   0  0  0  0  0  0  0  0  0  0  0  0
   20.2025  -61.5336  -34.2658 O   0  0  0  0  0  0  0  0  0  0  0  0
   22.7035  -61.0688  -34.1685 O   0  0  0  0  0  0  0  0  0  0  0  0
  1  2  2  0  0  0  0
  2  4  1  0  0  0  0
  2  3  1  0  0  0  0
  4  7  1  0  0  0  0
  5  9  1  0  0  0  0
  5  4  2  0  0  0  0
  6  5  1  0  0  0  0
  8  7  2  0  0  0  0
  9  8  1  0  0  0  0
 10 15  1  0  0  0  0
 10  9  1  1  0  0  0
 10 11  1  0  0  0  0
 11 14  1  6  0  0  0
 11 12  1  0  0  0  0
 12 13  1  6  0  0  0
 15 16  1  0  0  0  0
 16 12  1  0  0  0  0
 16 17  1  1  0  0  0
 17 18  1  0  0  0  0
 18 19  1  0  0  0  0
 19 21  1  0  0  0  0
 19 20  1  0  0  0  0
 22 19  2  0  0  0  0
M  END
>  <CHROM.1>
178.76830531,115.17342468,-176.74476869,-175.46810663,-178.64157728,18.76039379
-59.14600105,-36.72314972,2.69987451,-0.13536147,-0.50368284

>  <Name>
lig.pdb

>  <RI>
0

>  <Rbt.Current_Directory>
/home/itssahil/PROJECTS/Mol_Feturizer/New_Systems/rnas/5btp

>  <Rbt.Executable>
rbdock ($Id: //depot/dev/client3/rdock/2013.1/src/exe/rbdock.cxx#4 $)

>  <Rbt.Library>
libRbt.so (2013.1, Build901 2013/11/27)

>  <Rbt.Parameter_File>
/export/apps/rDock/src/rDock_2013.1_src/data/scripts/dock_solv.prm

>  <Rbt.Receptor>
prm/pocket_docking_6.prm

>  <SCORE>
-20.248

>  <SCORE.INTER>
-18.8849

>  <SCORE.INTER.CONST>
1

>  <SCORE.INTER.POLAR>
0

>  <SCORE.INTER.ROT>
5

>  <SCORE.INTER.SOLV>
20.7167

>  <SCORE.INTER.VDW>
-26.4288

>  <SCORE.INTER.norm>
-0.858405

>  <SCORE.INTRA>
-1.36311

>  <SCORE.INTRA.DIHEDRAL>
-1.64664

>  <SCORE.INTRA.DIHEDRAL.0>
4.21161

>  <SCORE.INTRA.POLAR>
0

>  <SCORE.INTRA.POLAR.0>
0

>  <SCORE.INTRA.REPUL>
0

>  <SCORE.INTRA.REPUL.0>
0

>  <SCORE.INTRA.SOLV>
-0.0261918

>  <SCORE.INTRA.SOLV.lig_0>
-41.4168

>  <SCORE.INTRA.VDW>
-0.526696

>  <SCORE.INTRA.VDW.0>
-1.62533

>  <SCORE.INTRA.norm>
-0.0619597

>  <SCORE.RESTR>
0

>  <SCORE.RESTR.CAVITY>
0

>  <SCORE.RESTR.norm>
0

>  <SCORE.SYSTEM>
0

>  <SCORE.SYSTEM.CONST>
0

>  <SCORE.SYSTEM.DIHEDRAL>
0

>  <SCORE.SYSTEM.SOLV>
0

>  <SCORE.SYSTEM.norm>
0

>  <SCORE.heavy>
22

>  <SCORE.norm>
-0.920365

>  <RMSD>
2.013

$$$$
lig.pdb
 OpenBabel11021811523D
libRbt.so/2013.1/901 2013/11/27
 22 23  0  0  0  0  0  0  0  0999 V2000
   13.0234  -59.6379  -36.7959 O   0  0  0  0  0  0  0  0  0  0  0  0
   13.8196  -59.0640  -37.5223 C   0  0  0  0  0  0  0  0  0  0  0  0
   13.4415  -58.4883  -38.6636 N   0  0  0  0  0  0  0  0  0  0  0  0
   15.2589  -59.0135  -37.1388 C   0  0  0  0  0  0  0  0  0  0  0  0
   16.3090  -58.3765  -37.9490 C   0  0  0  0  0  0  0  0  0  0  0  0
   16.0985  -57.7151  -39.2302 N   0  0  0  0  0  0  0  0  0  0  0  0
   15.9286  -59.4737  -36.0590 N   0  0  0  0  0  0  0  0  0  0  0  0
   17.2508  -59.1489  -36.2036 C   0  0  0  0  0  0  0  0  0  0  0  0
   17.4862  -58.4802  -37.3535 N   0  0  0  0  0  0  0  0  0  0  0  0
   18.7848  -57.9666  -37.8482 C   0  0  1  0  0  0  0  0  0  0  0  0
   19.3064  -56.8691  -36.9353 C   0  0  1  0  0  0  0  0  0  0  0  0
   20.8015  -57.0396  -37.0202 C   0  0  2  0  0  0  0  0  0  0  0  0
   21.2935  -56.3474  -38.1696 O   0  0  0  0  0  0  0  0  0  0  0  0
   18.9297  -55.5775  -37.4145 O   0  0  0  0  0  0  0  0  0  0  0  0
   19.7795  -58.9975  -37.8573 O   0  0  0  0  0  0  0  0  0  0  0  0
   20.9758  -58.5315  -37.2285 C   0  0  2  0  0  0  0  0  0  0  0  0
   21.1739  -59.2253  -35.8897 C   0  0  0  0  0  0  0  0  0  0  0  0
   21.3717  -60.6177  -36.1291 O   0  0  0  0  0  0  0  0  0  0  0  0
   21.5526  -61.6631  -34.9165 P   0  0  0  0  0  0  0  0  0  0  0  0
   21.8165  -62.9934  -35.5828 O   0  0  0  0  0  0  0  0  0  0  0  0
   20.2285  -61.5828  -34.1944 O   0  0  0  0  0  0  0  0  0  0  0  0
   22.7290  -61.1081  -34.1483 O   0  0  0  0  0  0  0  0  0  0  0  0
  1  2  2  0  0  0  0
  2  4  1  0  0  0  0
  2  3  1  0  0  0  0
  4  7  1  0  0  0  0
  5  9  1  0  0  0  0
  5  4  2  0  0  0  0
  6  5  1  0  0  0  0
  8  7  2  0  0  0  0
  9  8  1  0  0  0  0
 10 15  1  0  0  0  0
 10  9  1  1  0  0  0
 10 11  1  0  0  0  0
 11 14  1  6  0  0  0
 11 12  1  0  0  0  0
 12 13  1  6  0  0  0
 15 16  1  0  0  0  0
 16 12  1  0  0  0  0
 16 17  1  1  0  0  0
 17 18  1  0  0  0  0
 18 19  1  0  0  0  0
 19 21  1  0  0  0  0
 19 20  1  0  0  0  0
 22 19  2  0  0  0  0
M  END
>  <CHROM.1>
178.64017462,114.31499759,-178.38084213,-177.42354461,-176.68734470,18.78706118
-59.18232451,-36.68886795,2.69337897,-0.13572540,-0.50470034

>  <Name>
lig.pdb

>  <RI>
0

>  <Rbt.Current_Directory>
/home/itssahil/PROJECTS/Mol_Feturizer/New_Systems/rnas/5btp

>  <Rbt.Executable>
rbdock ($Id: //depot/dev/client3/rdock/2013.1/src/exe/rbdock.cxx#4 $)

>  <Rbt.Library>
libRbt.so (2013.1, Build901 2013/11/27)

>  <Rbt.Parameter_File>
/export/apps/rDock/src/rDock_2013.1_src/data/scripts/dock_solv.prm

>  <Rbt.Receptor>
prm/pocket_docking_5.prm

>  <SCORE>
-20.3356

>  <SCORE.INTER>
-18.9245

>  <SCORE.INTER.CONST>
1

>  <SCORE.INTER.POLAR>
0

>  <SCORE.INTER.ROT>
5

>  <SCORE.INTER.SOLV>
20.5303

>  <SCORE.INTER.VDW>
-26.3931

>  <SCORE.INTER.norm>
-0.860203

>  <SCORE.INTRA>
-1.41114

>  <SCORE.INTRA.DIHEDRAL>
-1.72511

>  <SCORE.INTRA.DIHEDRAL.0>
4.21161

>  <SCORE.INTRA.POLAR>
0

>  <SCORE.INTRA.POLAR.0>
0

>  <SCORE.INTRA.REPUL>
0

>  <SCORE.INTRA.REPUL.0>
0

>  <SCORE.INTRA.SOLV>
-0.0108351

>  <SCORE.INTRA.SOLV.lig_0>
-41.4168

>  <SCORE.INTRA.VDW>
-0.543167

>  <SCORE.INTRA.VDW.0>
-1.62533

>  <SCORE.INTRA.norm>
-0.0641427

>  <SCORE.RESTR>
0

>  <SCORE.RESTR.CAVITY>
0

>  <SCORE.RESTR.norm>
0

>  <SCORE.SYSTEM>
0

>  <SCORE.SYSTEM.CONST>
0

>  <SCORE.SYSTEM.DIHEDRAL>
0

>  <SCORE.SYSTEM.SOLV>
0

>  <SCORE.SYSTEM.norm>
0

>  <SCORE.heavy>
22

>  <SCORE.norm>
-0.924346

>  <RMSD>
2.014

$$$$
lig.pdb
 OpenBabel11021811523D
libRbt.so/2013.1/901 2013/11/27
 22 23  0  0  0  0  0  0  0  0999 V2000
   14.7485  -60.0040  -36.2387 O   0  0  0  0  0  0  0  0  0  0  0  0
   14.4950  -59.2366  -37.1542 C   0  0  0  0  0  0  0  0  0  0  0  0
   13.2455  -59.0221  -37.5660 N   0  0  0  0  0  0  0  0  0  0  0  0
   15.6077  -58.5271  -37.8467 C   0  0  0  0  0  0  0  0  0  0  0  0
   16.9901  -58.4693  -37.3465 C   0  0  0  0  0  0  0  0  0  0  0  0
   17.4658  -59.0851  -36.1145 N   0  0  0  0  0  0  0  0  0  0  0  0
   15.6601  -57.8273  -39.0016 N   0  0  0  0  0  0  0  0  0  0  0  0
   16.9450  -57.3892  -39.1799 C   0  0  0  0  0  0  0  0  0  0  0  0
   17.7580  -57.7786  -38.1738 N   0  0  0  0  0  0  0  0  0  0  0  0
   19.2049  -57.4975  -38.0236 C   0  0  1  0  0  0  0  0  0  0  0  0
   19.4595  -56.6659  -36.7771 C   0  0  1  0  0  0  0  0  0  0  0  0
   20.8154  -57.1424  -36.3230 C   0  0  2  0  0  0  0  0  0  0  0  0
   21.8308  -56.4297  -37.0323 O   0  0  0  0  0  0  0  0  0  0  0  0
   19.5053  -55.2725  -37.0873 O   0  0  0  0  0  0  0  0  0  0  0  0
   19.9538  -58.7085  -37.8668 O   0  0  0  0  0  0  0  0  0  0  0  0
   20.8405  -58.5969  -36.7510 C   0  0  2  0  0  0  0  0  0  0  0  0
   20.3683  -59.4845  -35.6099 C   0  0  0  0  0  0  0  0  0  0  0  0
   21.4405  -59.6316  -34.6804 O   0  0  0  0  0  0  0  0  0  0  0  0
   21.2978  -60.5586  -33.3704 P   0  0  0  0  0  0  0  0  0  0  0  0
   20.5008  -61.7591  -33.8253 O   0  0  0  0  0  0  0  0  0  0  0  0
   20.5699  -59.6640  -32.3952 O   0  0  0  0  0  0  0  0  0  0  0  0
   22.7302  -60.8664  -33.0016 O   0  0  0  0  0  0  0  0  0  0  0  0
  1  2  2  0  0  0  0
  2  4  1  0  0  0  0
  2  3  1  0  0  0  0
  4  7  1  0  0  0  0
  5  9  1  0  0  0  0
  5  4  2  0  0  0  0
  6  5  1  0  0  0  0
  8  7  2  0  0  0  0
  9  8  1  0  0  0  0
 10 15  1  0  0  0  0
 10  9  1  1  0  0  0
 10 11  1  0  0  0  0
 11 14  1  6  0  0  0
 11 12  1  0  0  0  0
 12 13  1  6  0  0  0
 15 16  1  0  0  0  0
 16 12  1  0  0  0  0
 16 17  1  1  0  0  0
 17 18  1  0  0  0  0
 18 19  1  0  0  0  0
 19 21  1  0  0  0  0
 19 20  1  0  0  0  0
 22 19  2  0  0  0  0
M  END
>  <CHROM.1>
-12.67291199,-62.84905272,-78.29884734,-177.78332543,38.33703547,18.94871229
-58.75420680,-36.17933417,2.54801294,-0.28321876,-0.76726137

>  <Name>
lig.pdb

>  <RI>
0

>  <Rbt.Current_Directory>
/home/itssahil/PROJECTS/Mol_Feturizer/New_Systems/rnas/5btp

>  <Rbt.Executable>
rbdock ($Id: //depot/dev/client3/rdock/2013.1/src/exe/rbdock.cxx#4 $)

>  <Rbt.Library>
libRbt.so (2013.1, Build901 2013/11/27)

>  <Rbt.Parameter_File>
/export/apps/rDock/src/rDock_2013.1_src/data/scripts/dock_solv.prm

>  <Rbt.Receptor>
prm/pocket_docking_7.prm

>  <SCORE>
-15.9418

>  <SCORE.INTER>
-16.0712

>  <SCORE.INTER.CONST>
1

>  <SCORE.INTER.POLAR>
0

>  <SCORE.INTER.ROT>
5

>  <SCORE.INTER.SOLV>
17.9754

>  <SCORE.INTER.VDW>
-23.6393

>  <SCORE.INTER.norm>
-0.730508

>  <SCORE.INTRA>
0.129411

>  <SCORE.INTRA.DIHEDRAL>
0.593224

>  <SCORE.INTRA.DIHEDRAL.0>
4.21161

>  <SCORE.INTRA.POLAR>
0

>  <SCORE.INTRA.POLAR.0>
0

>  <SCORE.INTRA.REPUL>
0

>  <SCORE.INTRA.REPUL.0>
0

>  <SCORE.INTRA.SOLV>
0.900825

>  <SCORE.INTRA.SOLV.lig_0>
-41.4168

>  <SCORE.INTRA.VDW>
-0.617613

>  <SCORE.INTRA.VDW.0>
-1.62533

>  <SCORE.INTRA.norm>
0.00588233

>  <SCORE.RESTR>
0

>  <SCORE.RESTR.CAVITY>
0

>  <SCORE.RESTR.norm>
0

>  <SCORE.SYSTEM>
0

>  <SCORE.SYSTEM.CONST>
0

>  <SCORE.SYSTEM.DIHEDRAL>
0

>  <SCORE.SYSTEM.SOLV>
0

>  <SCORE.SYSTEM.norm>
0

>  <SCORE.heavy>
22

>  <SCORE.norm>
-0.724626

>  <RMSD>
2.033

$$$$
lig.pdb
 OpenBabel11021811523D
libRbt.so/2013.1/901 2013/11/27
 22 23  0  0  0  0  0  0  0  0999 V2000
   14.8219  -60.0627  -36.1909 O   0  0  0  0  0  0  0  0  0  0  0  0
   14.5393  -59.3121  -37.1117 C   0  0  0  0  0  0  0  0  0  0  0  0
   13.2808  -59.1358  -37.5140 N   0  0  0  0  0  0  0  0  0  0  0  0
   15.6260  -58.5799  -37.8219 C   0  0  0  0  0  0  0  0  0  0  0  0
   17.0200  -58.5134  -37.3560 C   0  0  0  0  0  0  0  0  0  0  0  0
   17.5338  -59.1413  -36.1457 N   0  0  0  0  0  0  0  0  0  0  0  0
   15.6411  -57.8632  -38.9674 N   0  0  0  0  0  0  0  0  0  0  0  0
   16.9161  -57.4078  -39.1718 C   0  0  0  0  0  0  0  0  0  0  0  0
   17.7588  -57.8021  -38.1924 N   0  0  0  0  0  0  0  0  0  0  0  0
   19.2058  -57.5065  -38.0748 C   0  0  1  0  0  0  0  0  0  0  0  0
   19.4766  -56.6491  -36.8495 C   0  0  1  0  0  0  0  0  0  0  0  0
   20.8447  -57.1058  -36.4119 C   0  0  2  0  0  0  0  0  0  0  0  0
   21.8407  -56.3988  -37.1537 O   0  0  0  0  0  0  0  0  0  0  0  0
   19.5049  -55.2616  -37.1871 O   0  0  0  0  0  0  0  0  0  0  0  0
   19.9677  -58.7082  -37.9090 O   0  0  0  0  0  0  0  0  0  0  0  0
   20.8741  -58.5680  -36.8124 C   0  0  2  0  0  0  0  0  0  0  0  0
   20.4306  -59.4372  -35.6458 C   0  0  0  0  0  0  0  0  0  0  0  0
   21.5241  -59.5653  -34.7386 O   0  0  0  0  0  0  0  0  0  0  0  0
   21.4114  -60.4634  -33.4057 P   0  0  0  0  0  0  0  0  0  0  0  0
   22.8381  -60.6748  -32.9545 O   0  0  0  0  0  0  0  0  0  0  0  0
   20.7231  -61.7161  -33.8937 O   0  0  0  0  0  0  0  0  0  0  0  0
   20.5853  -59.6068  -32.4751 O   0  0  0  0  0  0  0  0  0  0  0  0
  1  2  2  0  0  0  0
  2  4  1  0  0  0  0
  2  3  1  0  0  0  0
  4  7  1  0  0  0  0
  5  9  1  0  0  0  0
  5  4  2  0  0  0  0
  6  5  1  0  0  0  0
  8  7  2  0  0  0  0
  9  8  1  0  0  0  0
 10 15  1  0  0  0  0
 10  9  1  1  0  0  0
 10 11  1  0  0  0  0
 11 14  1  6  0  0  0
 11 12  1  0  0  0  0
 12 13  1  6  0  0  0
 15 16  1  0  0  0  0
 16 12  1  0  0  0  0
 16 17  1  1  0  0  0
 17 18  1  0  0  0  0
 18 19  1  0  0  0  0
 19 21  1  0  0  0  0
 19 20  1  0  0  0  0
 22 19  2  0  0  0  0
M  END
>  <CHROM.1>
-10.75131155,-64.82347966,-78.69457800,-178.12950117,163.78506212,18.99653416
-58.74055870,-36.20919140,2.56972413,-0.28361038,-0.77456695

>  <Name>
lig.pdb

>  <RI>
0

>  <Rbt.Current_Directory>
/home/itssahil/PROJECTS/Mol_Feturizer/New_Systems/rnas/5btp

>  <Rbt.Executable>
rbdock ($Id: //depot/dev/client3/rdock/2013.1/src/exe/rbdock.cxx#4 $)

>  <Rbt.Library>
libRbt.so (2013.1, Build901 2013/11/27)

>  <Rbt.Parameter_File>
/export/apps/rDock/src/rDock_2013.1_src/data/scripts/dock_solv.prm

>  <Rbt.Receptor>
prm/pocket_docking_5.prm

>  <SCORE>
-15.2526

>  <SCORE.INTER>
-15.3087

>  <SCORE.INTER.CONST>
1

>  <SCORE.INTER.POLAR>
0

>  <SCORE.INTER.ROT>
5

>  <SCORE.INTER.SOLV>
19.0345

>  <SCORE.INTER.VDW>
-23.4839

>  <SCORE.INTER.norm>
-0.695848

>  <SCORE.INTRA>
0.0560148

>  <SCORE.INTRA.DIHEDRAL>
0.194012

>  <SCORE.INTRA.DIHEDRAL.0>
4.21161

>  <SCORE.INTRA.POLAR>
0

>  <SCORE.INTRA.POLAR.0>
0

>  <SCORE.INTRA.REPUL>
0

>  <SCORE.INTRA.REPUL.0>
0

>  <SCORE.INTRA.SOLV>
1.05897

>  <SCORE.INTRA.SOLV.lig_0>
-41.4168

>  <SCORE.INTRA.VDW>
-0.570476

>  <SCORE.INTRA.VDW.0>
-1.62533

>  <SCORE.INTRA.norm>
0.00254613

>  <SCORE.RESTR>
0

>  <SCORE.RESTR.CAVITY>
0

>  <SCORE.RESTR.norm>
0

>  <SCORE.SYSTEM>
0

>  <SCORE.SYSTEM.CONST>
0

>  <SCORE.SYSTEM.DIHEDRAL>
0

>  <SCORE.SYSTEM.SOLV>
0

>  <SCORE.SYSTEM.norm>
0

>  <SCORE.heavy>
22

>  <SCORE.norm>
-0.693302

>  <RMSD>
2.038

$$$$
lig.pdb
 OpenBabel11021811523D
libRbt.so/2013.1/901 2013/11/27
 22 23  0  0  0  0  0  0  0  0999 V2000
   13.4166  -58.5137  -38.6328 O   0  0  0  0  0  0  0  0  0  0  0  0
   13.7376  -58.9699  -37.5465 C   0  0  0  0  0  0  0  0  0  0  0  0
   12.8374  -59.4715  -36.7010 N   0  0  0  0  0  0  0  0  0  0  0  0
   15.1712  -58.9562  -37.1391 C   0  0  0  0  0  0  0  0  0  0  0  0
   16.2583  -58.3963  -37.9574 C   0  0  0  0  0  0  0  0  0  0  0  0
   16.0948  -57.7861  -39.2704 N   0  0  0  0  0  0  0  0  0  0  0  0
   15.8045  -59.3918  -36.0277 N   0  0  0  0  0  0  0  0  0  0  0  0
   17.1404  -59.1237  -36.1622 C   0  0  0  0  0  0  0  0  0  0  0  0
   17.4205  -58.5171  -37.3362 N   0  0  0  0  0  0  0  0  0  0  0  0
   18.7460  -58.0755  -37.8293 C   0  0  1  0  0  0  0  0  0  0  0  0
   19.3157  -56.9922  -36.9283 C   0  0  1  0  0  0  0  0  0  0  0  0
   20.8011  -57.2377  -37.0008 C   0  0  2  0  0  0  0  0  0  0  0  0
   21.3337  -56.5872  -38.1563 O   0  0  0  0  0  0  0  0  0  0  0  0
   19.0065  -55.6905  -37.4280 O   0  0  0  0  0  0  0  0  0  0  0  0
   19.6883  -59.1543  -37.8172 O   0  0  0  0  0  0  0  0  0  0  0  0
   20.9025  -58.7391  -37.1869 C   0  0  2  0  0  0  0  0  0  0  0  0
   21.0579  -59.4227  -35.8373 C   0  0  0  0  0  0  0  0  0  0  0  0
   22.4014  -59.8879  -35.7202 O   0  0  0  0  0  0  0  0  0  0  0  0
   22.9373  -61.1389  -36.5826 P   0  0  0  0  0  0  0  0  0  0  0  0
   23.2467  -60.5693  -37.9476 O   0  0  0  0  0  0  0  0  0  0  0  0
   21.7694  -62.0962  -36.5600 O   0  0  0  0  0  0  0  0  0  0  0  0
   24.1517  -61.6010  -35.8118 O   0  0  0  0  0  0  0  0  0  0  0  0
  1  2  2  0  0  0  0
  2  4  1  0  0  0  0
  2  3  1  0  0  0  0
  4  7  1  0  0  0  0
  5  9  1  0  0  0  0
  5  4  2  0  0  0  0
  6  5  1  0  0  0  0
  8  7  2  0  0  0  0
  9  8  1  0  0  0  0
 10 15  1  0  0  0  0
 10  9  1  1  0  0  0
 10 11  1  0  0  0  0
 11 14  1  6  0  0  0
 11 12  1  0  0  0  0
 12 13  1  6  0  0  0
 15 16  1  0  0  0  0
 16 12  1  0  0  0  0
 16 17  1  1  0  0  0
 17 18  1  0  0  0  0
 18 19  1  0  0  0  0
 19 21  1  0  0  0  0
 19 20  1  0  0  0  0
 22 19  2  0  0  0  0
M  END
>  <CHROM.1>
1.23222907,116.30577222,-107.46853449,-71.48097772,80.24170352,19.14489787
-59.06984492,-37.13260840,2.88299166,-0.04554374,-0.30421124

>  <Name>
lig.pdb

>  <RI>
0

>  <Rbt.Current_Directory>
/home/itssahil/PROJECTS/Mol_Feturizer/New_Systems/rnas/5btp

>  <Rbt.Executable>
rbdock ($Id: //depot/dev/client3/rdock/2013.1/src/exe/rbdock.cxx#4 $)

>  <Rbt.Library>
libRbt.so (2013.1, Build901 2013/11/27)

>  <Rbt.Parameter_File>
/export/apps/rDock/src/rDock_2013.1_src/data/scripts/dock_solv.prm

>  <Rbt.Receptor>
prm/pocket_docking_4.prm

>  <SCORE>
-17.9481

>  <SCORE.INTER>
-19.6632

>  <SCORE.INTER.CONST>
1

>  <SCORE.INTER.POLAR>
0

>  <SCORE.INTER.ROT>
5

>  <SCORE.INTER.SOLV>
21.204

>  <SCORE.INTER.VDW>
-27.1102

>  <SCORE.INTER.norm>
-0.893784

>  <SCORE.INTRA>
1.71513

>  <SCORE.INTRA.DIHEDRAL>
4.17182

>  <SCORE.INTRA.DIHEDRAL.0>
4.21161

>  <SCORE.INTRA.POLAR>
0

>  <SCORE.INTRA.POLAR.0>
0

>  <SCORE.INTRA.REPUL>
0

>  <SCORE.INTRA.REPUL.0>
0

>  <SCORE.INTRA.SOLV>
0.25555

>  <SCORE.INTRA.SOLV.lig_0>
-41.4168

>  <SCORE.INTRA.VDW>
-0.498554

>  <SCORE.INTRA.VDW.0>
-1.62533

>  <SCORE.INTRA.norm>
0.0779604

>  <SCORE.RESTR>
0

>  <SCORE.RESTR.CAVITY>
0

>  <SCORE.RESTR.norm>
0

>  <SCORE.SYSTEM>
0

>  <SCORE.SYSTEM.CONST>
0

>  <SCORE.SYSTEM.DIHEDRAL>
0

>  <SCORE.SYSTEM.SOLV>
0

>  <SCORE.SYSTEM.norm>
0

>  <SCORE.heavy>
22

>  <SCORE.norm>
-0.815823

>  <RMSD>
2.087

$$$$
lig.pdb
 OpenBabel11021811523D
libRbt.so/2013.1/901 2013/11/27
 22 23  0  0  0  0  0  0  0  0999 V2000
   13.4162  -58.4670  -38.5684 O   0  0  0  0  0  0  0  0  0  0  0  0
   13.7879  -59.0288  -37.5499 C   0  0  0  0  0  0  0  0  0  0  0  0
   12.9376  -59.6785  -36.7551 N   0  0  0  0  0  0  0  0  0  0  0  0
   15.2277  -58.9795  -37.1680 C   0  0  0  0  0  0  0  0  0  0  0  0
   16.2774  -58.3437  -37.9797 C   0  0  0  0  0  0  0  0  0  0  0  0
   16.0660  -57.6824  -39.2608 N   0  0  0  0  0  0  0  0  0  0  0  0
   15.8982  -59.4399  -36.0888 N   0  0  0  0  0  0  0  0  0  0  0  0
   17.2205  -59.1163  -36.2351 C   0  0  0  0  0  0  0  0  0  0  0  0
   17.4552  -58.4482  -37.3856 N   0  0  0  0  0  0  0  0  0  0  0  0
   18.7537  -57.9359  -37.8819 C   0  0  1  0  0  0  0  0  0  0  0  0
   19.1636  -56.6900  -37.1141 C   0  0  1  0  0  0  0  0  0  0  0  0
   20.6678  -56.7832  -37.0951 C   0  0  2  0  0  0  0  0  0  0  0  0
   21.1925  -56.2358  -38.3064 O   0  0  0  0  0  0  0  0  0  0  0  0
   18.7519  -55.5049  -37.7967 O   0  0  0  0  0  0  0  0  0  0  0  0
   19.7977  -58.8974  -37.6878 O   0  0  0  0  0  0  0  0  0  0  0  0
   20.9292  -58.2767  -37.0727 C   0  0  2  0  0  0  0  0  0  0  0  0
   21.0812  -58.7581  -35.6381 C   0  0  0  0  0  0  0  0  0  0  0  0
   20.9409  -60.1777  -35.6223 O   0  0  0  0  0  0  0  0  0  0  0  0
   22.0209  -61.1383  -36.3340 P   0  0  0  0  0  0  0  0  0  0  0  0
   21.8075  -60.9364  -37.8163 O   0  0  0  0  0  0  0  0  0  0  0  0
   21.6402  -62.5117  -35.8339 O   0  0  0  0  0  0  0  0  0  0  0  0
   23.3434  -60.6198  -35.8198 O   0  0  0  0  0  0  0  0  0  0  0  0
  1  2  2  0  0  0  0
  2  4  1  0  0  0  0
  2  3  1  0  0  0  0
  4  7  1  0  0  0  0
  5  9  1  0  0  0  0
  5  4  2  0  0  0  0
  6  5  1  0  0  0  0
  8  7  2  0  0  0  0
  9  8  1  0  0  0  0
 10 15  1  0  0  0  0
 10  9  1  1  0  0  0
 10 11  1  0  0  0  0
 11 14  1  6  0  0  0
 11 12  1  0  0  0  0
 12 13  1  6  0  0  0
 15 16  1  0  0  0  0
 16 12  1  0  0  0  0
 16 17  1  1  0  0  0
 17 18  1  0  0  0  0
 18 19  1  0  0  0  0
 19 21  1  0  0  0  0
 19 20  1  0  0  0  0
 22 19  2  0  0  0  0
M  END
>  <CHROM.1>
-3.18790116,104.79629762,163.59870577,66.24409301,-71.20712426,18.86638284
-58.95595339,-37.09072542,2.86700066,-0.08151134,-0.34350839

>  <Name>
lig.pdb

>  <RI>
0

>  <Rbt.Current_Directory>
/home/itssahil/PROJECTS/Mol_Feturizer/New_Systems/rnas/5btp

>  <Rbt.Executable>
rbdock ($Id: //depot/dev/client3/rdock/2013.1/src/exe/rbdock.cxx#4 $)

>  <Rbt.Library>
libRbt.so (2013.1, Build901 2013/11/27)

>  <Rbt.Parameter_File>
/export/apps/rDock/src/rDock_2013.1_src/data/scripts/dock_solv.prm

>  <Rbt.Receptor>
prm/pocket_docking_4.prm

>  <SCORE>
-20.8354

>  <SCORE.INTER>
-20.4513

>  <SCORE.INTER.CONST>
1

>  <SCORE.INTER.POLAR>
0

>  <SCORE.INTER.ROT>
5

>  <SCORE.INTER.SOLV>
20.919

>  <SCORE.INTER.VDW>
-27.5405

>  <SCORE.INTER.norm>
-0.929605

>  <SCORE.INTRA>
-0.384127

>  <SCORE.INTRA.DIHEDRAL>
-0.441787

>  <SCORE.INTRA.DIHEDRAL.0>
4.21161

>  <SCORE.INTRA.POLAR>
0

>  <SCORE.INTRA.POLAR.0>
0

>  <SCORE.INTRA.REPUL>
0

>  <SCORE.INTRA.REPUL.0>
0

>  <SCORE.INTRA.SOLV>
1.01206

>  <SCORE.INTRA.SOLV.lig_0>
-41.4168

>  <SCORE.INTRA.VDW>
-0.669265

>  <SCORE.INTRA.VDW.0>
-1.62533

>  <SCORE.INTRA.norm>
-0.0174603

>  <SCORE.RESTR>
0

>  <SCORE.RESTR.CAVITY>
0

>  <SCORE.RESTR.norm>
0

>  <SCORE.SYSTEM>
0

>  <SCORE.SYSTEM.CONST>
0

>  <SCORE.SYSTEM.DIHEDRAL>
0

>  <SCORE.SYSTEM.SOLV>
0

>  <SCORE.SYSTEM.norm>
0

>  <SCORE.heavy>
22

>  <SCORE.norm>
-0.947065

>  <RMSD>
2.094

$$$$
lig.pdb
 OpenBabel11021811523D
libRbt.so/2013.1/901 2013/11/27
 22 23  0  0  0  0  0  0  0  0999 V2000
   13.4772  -58.6705  -38.6543 O   0  0  0  0  0  0  0  0  0  0  0  0
   13.8457  -59.1475  -37.5923 C   0  0  0  0  0  0  0  0  0  0  0  0
   12.9994  -59.7641  -36.7674 N   0  0  0  0  0  0  0  0  0  0  0  0
   15.2761  -59.0288  -37.1912 C   0  0  0  0  0  0  0  0  0  0  0  0
   16.3137  -58.3815  -38.0094 C   0  0  0  0  0  0  0  0  0  0  0  0
   16.0978  -57.7744  -39.3163 N   0  0  0  0  0  0  0  0  0  0  0  0
   15.9463  -59.4245  -36.0864 N   0  0  0  0  0  0  0  0  0  0  0  0
   17.2573  -59.0550  -36.2245 C   0  0  0  0  0  0  0  0  0  0  0  0
   17.4849  -58.4192  -37.3945 N   0  0  0  0  0  0  0  0  0  0  0  0
   18.7706  -57.8745  -37.8896 C   0  0  1  0  0  0  0  0  0  0  0  0
   19.1785  -56.6537  -37.0814 C   0  0  1  0  0  0  0  0  0  0  0  0
   20.6838  -56.7310  -37.0871 C   0  0  2  0  0  0  0  0  0  0  0  0
   21.1851  -56.1330  -38.2843 O   0  0  0  0  0  0  0  0  0  0  0  0
   18.7446  -55.4486  -37.7133 O   0  0  0  0  0  0  0  0  0  0  0  0
   19.8273  -58.8310  -37.7463 O   0  0  0  0  0  0  0  0  0  0  0  0
   20.9610  -58.2213  -37.1244 C   0  0  2  0  0  0  0  0  0  0  0  0
   21.1388  -58.7542  -35.7111 C   0  0  0  0  0  0  0  0  0  0  0  0
   21.3293  -60.1662  -35.7829 O   0  0  0  0  0  0  0  0  0  0  0  0
   22.5677  -60.8086  -36.5889 P   0  0  0  0  0  0  0  0  0  0  0  0
   22.0838  -60.9334  -38.0151 O   0  0  0  0  0  0  0  0  0  0  0  0
   22.7837  -62.1296  -35.8893 O   0  0  0  0  0  0  0  0  0  0  0  0
   23.6742  -59.7988  -36.3938 O   0  0  0  0  0  0  0  0  0  0  0  0
  1  2  2  0  0  0  0
  2  4  1  0  0  0  0
  2  3  1  0  0  0  0
  4  7  1  0  0  0  0
  5  9  1  0  0  0  0
  5  4  2  0  0  0  0
  6  5  1  0  0  0  0
  8  7  2  0  0  0  0
  9  8  1  0  0  0  0
 10 15  1  0  0  0  0
 10  9  1  1  0  0  0
 10 11  1  0  0  0  0
 11 14  1  6  0  0  0
 11 12  1  0  0  0  0
 12 13  1  6  0  0  0
 15 16  1  0  0  0  0
 16 12  1  0  0  0  0
 16 17  1  1  0  0  0
 17 18  1  0  0  0  0
 18 19  1  0  0  0  0
 19 21  1  0  0  0  0
 19 20  1  0  0  0  0
 22 19  2  0  0  0  0
M  END
>  <CHROM.1>
-1.06298035,109.58208141,177.08756583,60.34929036,-86.60210442,19.04450136
-58.86741509,-37.17447925,2.92928015,-0.07658020,-0.30210732

>  <Name>
lig.pdb

>  <RI>
0

>  <Rbt.Current_Directory>
/home/itssahil/PROJECTS/Mol_Feturizer/New_Systems/rnas/5btp

>  <Rbt.Executable>
rbdock ($Id: //depot/dev/client3/rdock/2013.1/src/exe/rbdock.cxx#4 $)

>  <Rbt.Library>
libRbt.so (2013.1, Build901 2013/11/27)

>  <Rbt.Parameter_File>
/export/apps/rDock/src/rDock_2013.1_src/data/scripts/dock_solv.prm

>  <Rbt.Receptor>
prm/pocket_docking_4.prm

>  <SCORE>
-20.5798

>  <SCORE.INTER>
-20.3338

>  <SCORE.INTER.CONST>
1

>  <SCORE.INTER.POLAR>
0

>  <SCORE.INTER.ROT>
5

>  <SCORE.INTER.SOLV>
21.2579

>  <SCORE.INTER.VDW>
-27.5752

>  <SCORE.INTER.norm>
-0.924265

>  <SCORE.INTRA>
-0.246872

>  <SCORE.INTRA.DIHEDRAL>
-0.767871

>  <SCORE.INTRA.DIHEDRAL.0>
4.21161

>  <SCORE.INTRA.POLAR>
0

>  <SCORE.INTRA.POLAR.0>
0

>  <SCORE.INTRA.REPUL>
0

>  <SCORE.INTRA.REPUL.0>
0

>  <SCORE.INTRA.SOLV>
1.15542

>  <SCORE.INTRA.SOLV.lig_0>
-41.4168

>  <SCORE.INTRA.VDW>
-0.440646

>  <SCORE.INTRA.VDW.0>
-1.62533

>  <SCORE.INTRA.norm>
-0.0112214

>  <SCORE.RESTR>
0.000912015

>  <SCORE.RESTR.CAVITY>
0.000912015

>  <SCORE.RESTR.norm>
4.14552e-05

>  <SCORE.SYSTEM>
0

>  <SCORE.SYSTEM.CONST>
0

>  <SCORE.SYSTEM.DIHEDRAL>
0

>  <SCORE.SYSTEM.SOLV>
0

>  <SCORE.SYSTEM.norm>
0

>  <SCORE.heavy>
22

>  <SCORE.norm>
-0.935445

>  <RMSD>
2.105

$$$$
lig.pdb
 OpenBabel11021811523D
libRbt.so/2013.1/901 2013/11/27
 22 23  0  0  0  0  0  0  0  0999 V2000
   12.8023  -59.2788  -36.7630 O   0  0  0  0  0  0  0  0  0  0  0  0
   13.6686  -58.9121  -37.5414 C   0  0  0  0  0  0  0  0  0  0  0  0
   13.3760  -58.4947  -38.7731 N   0  0  0  0  0  0  0  0  0  0  0  0
   15.0971  -58.9426  -37.1175 C   0  0  0  0  0  0  0  0  0  0  0  0
   16.2131  -58.4395  -37.9338 C   0  0  0  0  0  0  0  0  0  0  0  0
   16.0867  -57.8502  -39.2604 N   0  0  0  0  0  0  0  0  0  0  0  0
   15.7017  -59.3787  -35.9903 N   0  0  0  0  0  0  0  0  0  0  0  0
   17.0479  -59.1623  -36.1143 C   0  0  0  0  0  0  0  0  0  0  0  0
   17.3632  -58.5902  -37.2967 N   0  0  0  0  0  0  0  0  0  0  0  0
   18.7093  -58.2073  -37.7827 C   0  0  1  0  0  0  0  0  0  0  0  0
   19.3691  -57.2379  -36.8159 C   0  0  1  0  0  0  0  0  0  0  0  0
   20.8317  -57.5814  -36.9367 C   0  0  2  0  0  0  0  0  0  0  0  0
   21.3922  -56.8850  -38.0516 O   0  0  0  0  0  0  0  0  0  0  0  0
   19.1467  -55.8837  -37.2115 O   0  0  0  0  0  0  0  0  0  0  0  0
   19.5717  -59.3478  -37.8698 O   0  0  0  0  0  0  0  0  0  0  0  0
   20.8220  -59.0680  -37.2355 C   0  0  2  0  0  0  0  0  0  0  0  0
   20.9482  -59.8605  -35.9436 C   0  0  0  0  0  0  0  0  0  0  0  0
   22.3269  -59.9138  -35.5808 O   0  0  0  0  0  0  0  0  0  0  0  0
   23.3559  -60.9044  -36.3263 P   0  0  0  0  0  0  0  0  0  0  0  0
   24.7116  -60.5654  -35.7512 O   0  0  0  0  0  0  0  0  0  0  0  0
   23.1903  -60.5382  -37.7822 O   0  0  0  0  0  0  0  0  0  0  0  0
   22.8493  -62.2787  -35.9560 O   0  0  0  0  0  0  0  0  0  0  0  0
  1  2  2  0  0  0  0
  2  4  1  0  0  0  0
  2  3  1  0  0  0  0
  4  7  1  0  0  0  0
  5  9  1  0  0  0  0
  5  4  2  0  0  0  0
  6  5  1  0  0  0  0
  8  7  2  0  0  0  0
  9  8  1  0  0  0  0
 10 15  1  0  0  0  0
 10  9  1  1  0  0  0
 10 11  1  0  0  0  0
 11 14  1  6  0  0  0
 11 12  1  0  0  0  0
 12 13  1  6  0  0  0
 15 16  1  0  0  0  0
 16 12  1  0  0  0  0
 16 17  1  1  0  0  0
 17 18  1  0  0  0  0
 18 19  1  0  0  0  0
 19 21  1  0  0  0  0
 19 20  1  0  0  0  0
 22 19  2  0  0  0  0
M  END
>  <CHROM.1>
-175.59720353,122.32241806,-81.74950609,-76.81384551,174.74283319,19.23074115
-59.10083441,-37.03609248,2.89905534,-0.04917512,-0.37919043

>  <Name>
lig.pdb

>  <RI>
0

>  <Rbt.Current_Directory>
/home/itssahil/PROJECTS/Mol_Feturizer/New_Systems/rnas/5btp

>  <Rbt.Executable>
rbdock ($Id: //depot/dev/client3/rdock/2013.1/src/exe/rbdock.cxx#4 $)

>  <Rbt.Library>
libRbt.so (2013.1, Build901 2013/11/27)

>  <Rbt.Parameter_File>
/export/apps/rDock/src/rDock_2013.1_src/data/scripts/dock_solv.prm

>  <Rbt.Receptor>
prm/pocket_docking_7.prm

>  <SCORE>
-18.42

>  <SCORE.INTER>
-18.98

>  <SCORE.INTER.CONST>
1

>  <SCORE.INTER.POLAR>
0

>  <SCORE.INTER.ROT>
5

>  <SCORE.INTER.SOLV>
20.4403

>  <SCORE.INTER.VDW>
-26.4001

>  <SCORE.INTER.norm>
-0.862728

>  <SCORE.INTRA>
0.55999

>  <SCORE.INTRA.DIHEDRAL>
1.16497

>  <SCORE.INTRA.DIHEDRAL.0>
4.21161

>  <SCORE.INTRA.POLAR>
0

>  <SCORE.INTRA.POLAR.0>
0

>  <SCORE.INTRA.REPUL>
0

>  <SCORE.INTRA.REPUL.0>
0

>  <SCORE.INTRA.SOLV>
0.619919

>  <SCORE.INTRA.SOLV.lig_0>
-41.4168

>  <SCORE.INTRA.VDW>
-0.332453

>  <SCORE.INTRA.VDW.0>
-1.62533

>  <SCORE.INTRA.norm>
0.0254541

>  <SCORE.RESTR>
0

>  <SCORE.RESTR.CAVITY>
0

>  <SCORE.RESTR.norm>
0

>  <SCORE.SYSTEM>
0

>  <SCORE.SYSTEM.CONST>
0

>  <SCORE.SYSTEM.DIHEDRAL>
0

>  <SCORE.SYSTEM.SOLV>
0

>  <SCORE.SYSTEM.norm>
0

>  <SCORE.heavy>
22

>  <SCORE.norm>
-0.837274

>  <RMSD>
2.108

$$$$
lig.pdb
 OpenBabel11021811523D
libRbt.so/2013.1/901 2013/11/27
 22 23  0  0  0  0  0  0  0  0999 V2000
   13.5841  -59.5284  -38.2713 O   0  0  0  0  0  0  0  0  0  0  0  0
   14.5869  -59.3336  -37.6024 C   0  0  0  0  0  0  0  0  0  0  0  0
   14.7448  -59.8801  -36.3969 N   0  0  0  0  0  0  0  0  0  0  0  0
   15.6632  -58.4498  -38.1331 C   0  0  0  0  0  0  0  0  0  0  0  0
   16.9796  -58.2772  -37.4989 C   0  0  0  0  0  0  0  0  0  0  0  0
   17.4156  -58.9328  -36.2729 N   0  0  0  0  0  0  0  0  0  0  0  0
   15.7327  -57.6577  -39.2259 N   0  0  0  0  0  0  0  0  0  0  0  0
   16.9666  -57.0648  -39.2482 C   0  0  0  0  0  0  0  0  0  0  0  0
   17.7290  -57.4400  -38.1980 N   0  0  0  0  0  0  0  0  0  0  0  0
   19.1130  -57.0108  -37.8896 C   0  0  1  0  0  0  0  0  0  0  0  0
   19.2616  -56.7170  -36.4059 C   0  0  1  0  0  0  0  0  0  0  0  0
   20.6900  -57.1074  -36.1245 C   0  0  2  0  0  0  0  0  0  0  0  0
   21.5531  -56.0158  -36.4493 O   0  0  0  0  0  0  0  0  0  0  0  0
   19.0675  -55.3285  -36.1332 O   0  0  0  0  0  0  0  0  0  0  0  0
   20.0561  -58.0440  -38.1980 O   0  0  0  0  0  0  0  0  0  0  0  0
   20.9433  -58.2446  -37.0950 C   0  0  2  0  0  0  0  0  0  0  0  0
   20.6568  -59.5781  -36.4222 C   0  0  0  0  0  0  0  0  0  0  0  0
   21.6142  -59.7729  -35.3828 O   0  0  0  0  0  0  0  0  0  0  0  0
   21.6862  -61.1514  -34.5518 P   0  0  0  0  0  0  0  0  0  0  0  0
   20.2801  -61.3774  -34.0463 O   0  0  0  0  0  0  0  0  0  0  0  0
   22.6934  -60.8464  -33.4685 O   0  0  0  0  0  0  0  0  0  0  0  0
   22.1461  -62.1571  -35.5811 O   0  0  0  0  0  0  0  0  0  0  0  0
  1  2  2  0  0  0  0
  2  4  1  0  0  0  0
  2  3  1  0  0  0  0
  4  7  1  0  0  0  0
  5  9  1  0  0  0  0
  5  4  2  0  0  0  0
  6  5  1  0  0  0  0
  8  7  2  0  0  0  0
  9  8  1  0  0  0  0
 10 15  1  0  0  0  0
 10  9  1  1  0  0  0
 10 11  1  0  0  0  0
 11 14  1  6  0  0  0
 11 12  1  0  0  0  0
 12 13  1  6  0  0  0
 15 16  1  0  0  0  0
 16 12  1  0  0  0  0
 16 17  1  1  0  0  0
 17 18  1  0  0  0  0
 18 19  1  0  0  0  0
 19 21  1  0  0  0  0
 19 20  1  0  0  0  0
 22 19  2  0  0  0  0
M  END
>  <CHROM.1>
-171.97429642,-42.71593040,-66.17210942,-174.28591700,-52.99990255,19.04041523
-58.80626345,-36.57496762,2.66150951,-0.32083917,-0.42611160

>  <Name>
lig.pdb

>  <RI>
0

>  <Rbt.Current_Directory>
/home/itssahil/PROJECTS/Mol_Feturizer/New_Systems/rnas/5btp

>  <Rbt.Executable>
rbdock ($Id: //depot/dev/client3/rdock/2013.1/src/exe/rbdock.cxx#4 $)

>  <Rbt.Library>
libRbt.so (2013.1, Build901 2013/11/27)

>  <Rbt.Parameter_File>
/export/apps/rDock/src/rDock_2013.1_src/data/scripts/dock_solv.prm

>  <Rbt.Receptor>
prm/pocket_docking_6.prm

>  <SCORE>
-14.2241

>  <SCORE.INTER>
-13.8427

>  <SCORE.INTER.CONST>
1

>  <SCORE.INTER.POLAR>
0

>  <SCORE.INTER.ROT>
5

>  <SCORE.INTER.SOLV>
18.012

>  <SCORE.INTER.VDW>
-22.1658

>  <SCORE.INTER.norm>
-0.629213

>  <SCORE.INTRA>
-0.381429

>  <SCORE.INTRA.DIHEDRAL>
-1.18112

>  <SCORE.INTRA.DIHEDRAL.0>
4.21161

>  <SCORE.INTRA.POLAR>
0

>  <SCORE.INTRA.POLAR.0>
0

>  <SCORE.INTRA.REPUL>
0

>  <SCORE.INTRA.REPUL.0>
0

>  <SCORE.INTRA.SOLV>
1.38648

>  <SCORE.INTRA.SOLV.lig_0>
-41.4168

>  <SCORE.INTRA.VDW>
-0.484109

>  <SCORE.INTRA.VDW.0>
-1.62533

>  <SCORE.INTRA.norm>
-0.0173377

>  <SCORE.RESTR>
0

>  <SCORE.RESTR.CAVITY>
0

>  <SCORE.RESTR.norm>
0

>  <SCORE.SYSTEM>
0

>  <SCORE.SYSTEM.CONST>
0

>  <SCORE.SYSTEM.DIHEDRAL>
0

>  <SCORE.SYSTEM.SOLV>
0

>  <SCORE.SYSTEM.norm>
0

>  <SCORE.heavy>
22

>  <SCORE.norm>
-0.64655

>  <RMSD>
2.131

$$$$
lig.pdb
 OpenBabel11021811523D
libRbt.so/2013.1/901 2013/11/27
 22 23  0  0  0  0  0  0  0  0999 V2000
   13.2717  -59.4965  -38.0792 O   0  0  0  0  0  0  0  0  0  0  0  0
   14.3517  -59.3293  -37.5346 C   0  0  0  0  0  0  0  0  0  0  0  0
   14.6283  -59.8611  -36.3440 N   0  0  0  0  0  0  0  0  0  0  0  0
   15.3906  -58.4968  -38.2044 C   0  0  0  0  0  0  0  0  0  0  0  0
   16.7645  -58.3289  -37.7052 C   0  0  0  0  0  0  0  0  0  0  0  0
   17.3014  -58.9403  -36.4964 N   0  0  0  0  0  0  0  0  0  0  0  0
   15.3723  -57.7558  -39.3344 N   0  0  0  0  0  0  0  0  0  0  0  0
   16.6104  -57.1952  -39.4999 C   0  0  0  0  0  0  0  0  0  0  0  0
   17.4612  -57.5423  -38.5097 N   0  0  0  0  0  0  0  0  0  0  0  0
   18.8767  -57.1342  -38.3527 C   0  0  1  0  0  0  0  0  0  0  0  0
   19.0042  -56.0476  -37.2977 C   0  0  1  0  0  0  0  0  0  0  0  0
   20.3555  -56.3227  -36.6895 C   0  0  2  0  0  0  0  0  0  0  0  0
   21.3685  -55.7013  -37.4831 O   0  0  0  0  0  0  0  0  0  0  0  0
   18.9860  -54.7485  -37.8908 O   0  0  0  0  0  0  0  0  0  0  0  0
   19.6853  -58.2306  -37.9098 O   0  0  0  0  0  0  0  0  0  0  0  0
   20.4934  -57.8286  -36.8011 C   0  0  2  0  0  0  0  0  0  0  0  0
   20.0054  -58.4932  -35.5230 C   0  0  0  0  0  0  0  0  0  0  0  0
   20.4028  -59.8631  -35.5478 O   0  0  0  0  0  0  0  0  0  0  0  0
   21.9473  -60.2886  -35.7192 P   0  0  0  0  0  0  0  0  0  0  0  0
   22.0173  -61.7151  -35.2254 O   0  0  0  0  0  0  0  0  0  0  0  0
   22.6758  -59.2937  -34.8470 O   0  0  0  0  0  0  0  0  0  0  0  0
   22.1915  -60.1311  -37.2017 O   0  0  0  0  0  0  0  0  0  0  0  0
  1  2  2  0  0  0  0
  2  4  1  0  0  0  0
  2  3  1  0  0  0  0
  4  7  1  0  0  0  0
  5  9  1  0  0  0  0
  5  4  2  0  0  0  0
  6  5  1  0  0  0  0
  8  7  2  0  0  0  0
  9  8  1  0  0  0  0
 10 15  1  0  0  0  0
 10  9  1  1  0  0  0
 10 11  1  0  0  0  0
 11 14  1  6  0  0  0
 11 12  1  0  0  0  0
 12 13  1  6  0  0  0
 15 16  1  0  0  0  0
 16 12  1  0  0  0  0
 16 17  1  1  0  0  0
 17 18  1  0  0  0  0
 18 19  1  0  0  0  0
 19 21  1  0  0  0  0
 19 20  1  0  0  0  0
 22 19  2  0  0  0  0
M  END
>  <CHROM.1>
-174.09453264,-77.32773369,-168.05151019,56.50392257,160.93638825,18.89088321
-58.43838848,-37.07550621,2.86274057,-0.24018081,-0.41229619

>  <Name>
lig.pdb

>  <RI>
0

>  <Rbt.Current_Directory>
/home/itssahil/PROJECTS/Mol_Feturizer/New_Systems/rnas/5btp

>  <Rbt.Executable>
rbdock ($Id: //depot/dev/client3/rdock/2013.1/src/exe/rbdock.cxx#4 $)

>  <Rbt.Library>
libRbt.so (2013.1, Build901 2013/11/27)

>  <Rbt.Parameter_File>
/export/apps/rDock/src/rDock_2013.1_src/data/scripts/dock_solv.prm

>  <Rbt.Receptor>
prm/pocket_docking_3.prm

>  <SCORE>
-15.0545

>  <SCORE.INTER>
-15.753

>  <SCORE.INTER.CONST>
1

>  <SCORE.INTER.POLAR>
0

>  <SCORE.INTER.ROT>
5

>  <SCORE.INTER.SOLV>
19.2501

>  <SCORE.INTER.VDW>
-23.852

>  <SCORE.INTER.norm>
-0.716046

>  <SCORE.INTRA>
0.69749

>  <SCORE.INTRA.DIHEDRAL>
-0.584179

>  <SCORE.INTRA.DIHEDRAL.0>
4.21161

>  <SCORE.INTRA.POLAR>
0

>  <SCORE.INTRA.POLAR.0>
0

>  <SCORE.INTRA.REPUL>
0.00584082

>  <SCORE.INTRA.REPUL.0>
0

>  <SCORE.INTRA.SOLV>
2.89413

>  <SCORE.INTRA.SOLV.lig_0>
-41.4168

>  <SCORE.INTRA.VDW>
-0.486691

>  <SCORE.INTRA.VDW.0>
-1.62533

>  <SCORE.INTRA.norm>
0.0317041

>  <SCORE.RESTR>
0.00104259

>  <SCORE.RESTR.CAVITY>
0.00104259

>  <SCORE.RESTR.norm>
4.73907e-05

>  <SCORE.SYSTEM>
0

>  <SCORE.SYSTEM.CONST>
0

>  <SCORE.SYSTEM.DIHEDRAL>
0

>  <SCORE.SYSTEM.SOLV>
0

>  <SCORE.SYSTEM.norm>
0

>  <SCORE.heavy>
22

>  <SCORE.norm>
-0.684295

>  <RMSD>
2.245

$$$$
lig.pdb
 OpenBabel11021811523D
libRbt.so/2013.1/901 2013/11/27
 22 23  0  0  0  0  0  0  0  0999 V2000
   13.1738  -59.7932  -36.8638 O   0  0  0  0  0  0  0  0  0  0  0  0
   13.9234  -59.1329  -37.5661 C   0  0  0  0  0  0  0  0  0  0  0  0
   13.4920  -58.5090  -38.6622 N   0  0  0  0  0  0  0  0  0  0  0  0
   15.3655  -59.0280  -37.2048 C   0  0  0  0  0  0  0  0  0  0  0  0
   16.3737  -58.3313  -38.0189 C   0  0  0  0  0  0  0  0  0  0  0  0
   16.1137  -57.6551  -39.2832 N   0  0  0  0  0  0  0  0  0  0  0  0
   16.0723  -59.4796  -36.1451 N   0  0  0  0  0  0  0  0  0  0  0  0
   17.3768  -59.0956  -36.3044 C   0  0  0  0  0  0  0  0  0  0  0  0
   17.5641  -58.3957  -37.4445 N   0  0  0  0  0  0  0  0  0  0  0  0
   18.8312  -57.8175  -37.9497 C   0  0  1  0  0  0  0  0  0  0  0  0
   19.2674  -56.6491  -37.0810 C   0  0  1  0  0  0  0  0  0  0  0  0
   20.7715  -56.7220  -37.1453 C   0  0  2  0  0  0  0  0  0  0  0  0
   21.2295  -56.0483  -38.3193 O   0  0  0  0  0  0  0  0  0  0  0  0
   18.8108  -55.4076  -37.6195 O   0  0  0  0  0  0  0  0  0  0  0  0
   19.8926  -58.7784  -37.9049 O   0  0  0  0  0  0  0  0  0  0  0  0
   21.0477  -58.2063  -37.2866 C   0  0  2  0  0  0  0  0  0  0  0  0
   21.2760  -58.8270  -35.9170 C   0  0  0  0  0  0  0  0  0  0  0  0
   22.3589  -59.7504  -36.0161 O   0  0  0  0  0  0  0  0  0  0  0  0
   22.1614  -61.2134  -36.6614 P   0  0  0  0  0  0  0  0  0  0  0  0
   21.4067  -60.9747  -37.9486 O   0  0  0  0  0  0  0  0  0  0  0  0
   21.3706  -61.9496  -35.6060 O   0  0  0  0  0  0  0  0  0  0  0  0
   23.5768  -61.7058  -36.8525 O   0  0  0  0  0  0  0  0  0  0  0  0
  1  2  2  0  0  0  0
  2  4  1  0  0  0  0
  2  3  1  0  0  0  0
  4  7  1  0  0  0  0
  5  9  1  0  0  0  0
  5  4  2  0  0  0  0
  6  5  1  0  0  0  0
  8  7  2  0  0  0  0
  9  8  1  0  0  0  0
 10 15  1  0  0  0  0
 10  9  1  1  0  0  0
 10 11  1  0  0  0  0
 11 14  1  6  0  0  0
 11 12  1  0  0  0  0
 12 13  1  6  0  0  0
 15 16  1  0  0  0  0
 16 12  1  0  0  0  0
 16 17  1  1  0  0  0
 17 18  1  0  0  0  0
 18 19  1  0  0  0  0
 19 21  1  0  0  0  0
 19 20  1  0  0  0  0
 22 19  2  0  0  0  0
M  END
>  <CHROM.1>
176.08365543,110.16020559,-138.74357451,-77.62447211,47.39209836,19.00594823
-58.95866729,-37.22235100,2.88668280,-0.06306131,-0.26921248

>  <Name>
lig.pdb

>  <RI>
0

>  <Rbt.Current_Directory>
/home/itssahil/PROJECTS/Mol_Feturizer/New_Systems/rnas/5btp

>  <Rbt.Executable>
rbdock ($Id: //depot/dev/client3/rdock/2013.1/src/exe/rbdock.cxx#4 $)

>  <Rbt.Library>
libRbt.so (2013.1, Build901 2013/11/27)

>  <Rbt.Parameter_File>
/export/apps/rDock/src/rDock_2013.1_src/data/scripts/dock_solv.prm

>  <Rbt.Receptor>
prm/pocket_docking_5.prm

>  <SCORE>
-18.9846

>  <SCORE.INTER>
-20.724

>  <SCORE.INTER.CONST>
1

>  <SCORE.INTER.POLAR>
0

>  <SCORE.INTER.ROT>
5

>  <SCORE.INTER.SOLV>
21.0976

>  <SCORE.INTER.VDW>
-27.7818

>  <SCORE.INTER.norm>
-0.941998

>  <SCORE.INTRA>
1.73939

>  <SCORE.INTRA.DIHEDRAL>
4.00567

>  <SCORE.INTRA.DIHEDRAL.0>
4.21161

>  <SCORE.INTRA.POLAR>
0

>  <SCORE.INTRA.POLAR.0>
0

>  <SCORE.INTRA.REPUL>
0

>  <SCORE.INTRA.REPUL.0>
0

>  <SCORE.INTRA.SOLV>
0.651304

>  <SCORE.INTRA.SOLV.lig_0>
-41.4168

>  <SCORE.INTRA.VDW>
-0.5891

>  <SCORE.INTRA.VDW.0>
-1.62533

>  <SCORE.INTRA.norm>
0.079063

>  <SCORE.RESTR>
0

>  <SCORE.RESTR.CAVITY>
0

>  <SCORE.RESTR.norm>
0

>  <SCORE.SYSTEM>
0

>  <SCORE.SYSTEM.CONST>
0

>  <SCORE.SYSTEM.DIHEDRAL>
0

>  <SCORE.SYSTEM.SOLV>
0

>  <SCORE.SYSTEM.norm>
0

>  <SCORE.heavy>
22

>  <SCORE.norm>
-0.862935

>  <RMSD>
2.252

$$$$
lig.pdb
 OpenBabel11021811523D
libRbt.so/2013.1/901 2013/11/27
 22 23  0  0  0  0  0  0  0  0999 V2000
   13.3846  -58.4814  -38.5354 O   0  0  0  0  0  0  0  0  0  0  0  0
   13.7516  -59.0203  -37.5029 C   0  0  0  0  0  0  0  0  0  0  0  0
   12.8941  -59.6316  -36.6858 N   0  0  0  0  0  0  0  0  0  0  0  0
   15.1941  -58.9859  -37.1296 C   0  0  0  0  0  0  0  0  0  0  0  0
   16.2468  -58.3688  -37.9517 C   0  0  0  0  0  0  0  0  0  0  0  0
   16.0361  -57.7141  -39.2363 N   0  0  0  0  0  0  0  0  0  0  0  0
   15.8651  -59.4468  -36.0509 N   0  0  0  0  0  0  0  0  0  0  0  0
   17.1904  -59.1404  -36.2070 C   0  0  0  0  0  0  0  0  0  0  0  0
   17.4266  -58.4835  -37.3635 N   0  0  0  0  0  0  0  0  0  0  0  0
   18.7284  -57.9906  -37.8708 C   0  0  1  0  0  0  0  0  0  0  0  0
   19.2471  -56.8601  -36.9975 C   0  0  1  0  0  0  0  0  0  0  0  0
   20.7424  -57.0356  -37.0686 C   0  0  2  0  0  0  0  0  0  0  0  0
   21.2410  -56.3880  -38.2408 O   0  0  0  0  0  0  0  0  0  0  0  0
   18.8747  -55.5870  -37.5271 O   0  0  0  0  0  0  0  0  0  0  0  0
   19.7215  -59.0224  -37.8360 O   0  0  0  0  0  0  0  0  0  0  0  0
   20.9155  -58.5345  -37.2194 C   0  0  2  0  0  0  0  0  0  0  0  0
   21.1061  -59.1775  -35.8543 C   0  0  0  0  0  0  0  0  0  0  0  0
   21.1296  -60.5938  -36.0231 O   0  0  0  0  0  0  0  0  0  0  0  0
   22.2155  -61.3105  -36.9734 P   0  0  0  0  0  0  0  0  0  0  0  0
   22.4051  -62.6879  -36.3815 O   0  0  0  0  0  0  0  0  0  0  0  0
   23.4231  -60.4116  -36.8525 O   0  0  0  0  0  0  0  0  0  0  0  0
   21.5522  -61.3029  -38.3308 O   0  0  0  0  0  0  0  0  0  0  0  0
  1  2  2  0  0  0  0
  2  4  1  0  0  0  0
  2  3  1  0  0  0  0
  4  7  1  0  0  0  0
  5  9  1  0  0  0  0
  5  4  2  0  0  0  0
  6  5  1  0  0  0  0
  8  7  2  0  0  0  0
  9  8  1  0  0  0  0
 10 15  1  0  0  0  0
 10  9  1  1  0  0  0
 10 11  1  0  0  0  0
 11 14  1  6  0  0  0
 11 12  1  0  0  0  0
 12 13  1  6  0  0  0
 15 16  1  0  0  0  0
 16 12  1  0  0  0  0
 16 17  1  1  0  0  0
 17 18  1  0  0  0  0
 18 19  1  0  0  0  0
 19 21  1  0  0  0  0
 19 20  1  0  0  0  0
 22 19  2  0  0  0  0
M  END
>  <CHROM.1>
-1.90722707,112.33038653,174.21610133,58.57339139,151.73794415,18.92059212
-59.07632268,-37.25810864,2.87677543,-0.02800641,-0.21572135

>  <Name>
lig.pdb

>  <RI>
0

>  <Rbt.Current_Directory>
/home/itssahil/PROJECTS/Mol_Feturizer/New_Systems/rnas/5btp

>  <Rbt.Executable>
rbdock ($Id: //depot/dev/client3/rdock/2013.1/src/exe/rbdock.cxx#4 $)

>  <Rbt.Library>
libRbt.so (2013.1, Build901 2013/11/27)

>  <Rbt.Parameter_File>
/export/apps/rDock/src/rDock_2013.1_src/data/scripts/dock_solv.prm

>  <Rbt.Receptor>
prm/pocket_docking_8.prm

>  <SCORE>
-20.5297

>  <SCORE.INTER>
-20.5855

>  <SCORE.INTER.CONST>
1

>  <SCORE.INTER.POLAR>
0

>  <SCORE.INTER.ROT>
5

>  <SCORE.INTER.SOLV>
24.3192

>  <SCORE.INTER.VDW>
-28.7634

>  <SCORE.INTER.norm>
-0.935703

>  <SCORE.INTRA>
0.0557536

>  <SCORE.INTRA.DIHEDRAL>
-0.556254

>  <SCORE.INTRA.DIHEDRAL.0>
4.21161

>  <SCORE.INTRA.POLAR>
0

>  <SCORE.INTRA.POLAR.0>
0

>  <SCORE.INTRA.REPUL>
0

>  <SCORE.INTRA.REPUL.0>
0

>  <SCORE.INTRA.SOLV>
1.3083

>  <SCORE.INTRA.SOLV.lig_0>
-41.4168

>  <SCORE.INTRA.VDW>
-0.320271

>  <SCORE.INTRA.VDW.0>
-1.62533

>  <SCORE.INTRA.norm>
0.00253425

>  <SCORE.RESTR>
0

>  <SCORE.RESTR.CAVITY>
0

>  <SCORE.RESTR.norm>
0

>  <SCORE.SYSTEM>
0

>  <SCORE.SYSTEM.CONST>
0

>  <SCORE.SYSTEM.DIHEDRAL>
0

>  <SCORE.SYSTEM.SOLV>
0

>  <SCORE.SYSTEM.norm>
0

>  <SCORE.heavy>
22

>  <SCORE.norm>
-0.933169

>  <RMSD>
2.296

$$$$
lig.pdb
 OpenBabel11021811523D
libRbt.so/2013.1/901 2013/11/27
 22 23  0  0  0  0  0  0  0  0999 V2000
   13.4858  -58.6263  -38.6217 O   0  0  0  0  0  0  0  0  0  0  0  0
   13.8587  -59.1226  -37.5702 C   0  0  0  0  0  0  0  0  0  0  0  0
   13.0143  -59.7462  -36.7488 N   0  0  0  0  0  0  0  0  0  0  0  0
   15.2929  -59.0202  -37.1780 C   0  0  0  0  0  0  0  0  0  0  0  0
   16.3275  -58.3609  -37.9903 C   0  0  0  0  0  0  0  0  0  0  0  0
   16.1047  -57.7244  -39.2820 N   0  0  0  0  0  0  0  0  0  0  0  0
   15.9696  -59.4434  -36.0875 N   0  0  0  0  0  0  0  0  0  0  0  0
   17.2815  -59.0779  -36.2281 C   0  0  0  0  0  0  0  0  0  0  0  0
   17.5033  -58.4181  -37.3858 N   0  0  0  0  0  0  0  0  0  0  0  0
   18.7881  -57.8697  -37.8792 C   0  0  1  0  0  0  0  0  0  0  0  0
   19.3056  -56.7951  -36.9371 C   0  0  1  0  0  0  0  0  0  0  0  0
   20.8018  -56.9409  -37.0461 C   0  0  2  0  0  0  0  0  0  0  0  0
   21.2692  -56.2044  -38.1779 O   0  0  0  0  0  0  0  0  0  0  0  0
   18.9046  -55.4941  -37.3689 O   0  0  0  0  0  0  0  0  0  0  0  0
   19.7970  -58.8850  -37.9345 O   0  0  0  0  0  0  0  0  0  0  0  0
   20.9946  -58.4225  -37.3054 C   0  0  2  0  0  0  0  0  0  0  0  0
   21.2196  -59.1568  -35.9927 C   0  0  0  0  0  0  0  0  0  0  0  0
   22.3438  -60.0214  -36.1474 O   0  0  0  0  0  0  0  0  0  0  0  0
   22.2105  -61.4541  -36.8723 P   0  0  0  0  0  0  0  0  0  0  0  0
   23.6299  -61.8688  -37.1834 O   0  0  0  0  0  0  0  0  0  0  0  0
   21.3732  -61.1452  -38.0908 O   0  0  0  0  0  0  0  0  0  0  0  0
   21.5262  -62.3103  -35.8325 O   0  0  0  0  0  0  0  0  0  0  0  0
  1  2  2  0  0  0  0
  2  4  1  0  0  0  0
  2  3  1  0  0  0  0
  4  7  1  0  0  0  0
  5  9  1  0  0  0  0
  5  4  2  0  0  0  0
  6  5  1  0  0  0  0
  8  7  2  0  0  0  0
  9  8  1  0  0  0  0
 10 15  1  0  0  0  0
 10  9  1  1  0  0  0
 10 11  1  0  0  0  0
 11 14  1  6  0  0  0
 11 12  1  0  0  0  0
 12 13  1  6  0  0  0
 15 16  1  0  0  0  0
 16 12  1  0  0  0  0
 16 17  1  1  0  0  0
 17 18  1  0  0  0  0
 18 19  1  0  0  0  0
 19 21  1  0  0  0  0
 19 20  1  0  0  0  0
 22 19  2  0  0  0  0
M  END
>  <CHROM.1>
-0.71386002,117.39389618,-132.53796766,-80.31588304,164.47980617,18.99375926
-59.08193834,-37.25058760,2.86370355,-0.04752708,-0.19795622

>  <Name>
lig.pdb

>  <RI>
0

>  <Rbt.Current_Directory>
/home/itssahil/PROJECTS/Mol_Feturizer/New_Systems/rnas/5btp

>  <Rbt.Executable>
rbdock ($Id: //depot/dev/client3/rdock/2013.1/src/exe/rbdock.cxx#4 $)

>  <Rbt.Library>
libRbt.so (2013.1, Build901 2013/11/27)

>  <Rbt.Parameter_File>
/export/apps/rDock/src/rDock_2013.1_src/data/scripts/dock_solv.prm

>  <Rbt.Receptor>
prm/pocket_docking_7.prm

>  <SCORE>
-18.6561

>  <SCORE.INTER>
-20.9898

>  <SCORE.INTER.CONST>
1

>  <SCORE.INTER.POLAR>
0

>  <SCORE.INTER.ROT>
5

>  <SCORE.INTER.SOLV>
22.4102

>  <SCORE.INTER.VDW>
-28.3966

>  <SCORE.INTER.norm>
-0.95408

>  <SCORE.INTRA>
2.33366

>  <SCORE.INTRA.DIHEDRAL>
5.12239

>  <SCORE.INTRA.DIHEDRAL.0>
4.21161

>  <SCORE.INTRA.POLAR>
0

>  <SCORE.INTRA.POLAR.0>
0

>  <SCORE.INTRA.REPUL>
0

>  <SCORE.INTRA.REPUL.0>
0

>  <SCORE.INTRA.SOLV>
0.442543

>  <SCORE.INTRA.SOLV.lig_0>
-41.4168

>  <SCORE.INTRA.VDW>
-0.44881

>  <SCORE.INTRA.VDW.0>
-1.62533

>  <SCORE.INTRA.norm>
0.106075

>  <SCORE.RESTR>
0

>  <SCORE.RESTR.CAVITY>
0

>  <SCORE.RESTR.norm>
0

>  <SCORE.SYSTEM>
0

>  <SCORE.SYSTEM.CONST>
0

>  <SCORE.SYSTEM.DIHEDRAL>
0

>  <SCORE.SYSTEM.SOLV>
0

>  <SCORE.SYSTEM.norm>
0

>  <SCORE.heavy>
22

>  <SCORE.norm>
-0.848005

>  <RMSD>
2.306

$$$$
lig.pdb
 OpenBabel11021811523D
libRbt.so/2013.1/901 2013/11/27
 22 23  0  0  0  0  0  0  0  0999 V2000
   13.4827  -58.6455  -38.5975 O   0  0  0  0  0  0  0  0  0  0  0  0
   13.8362  -59.0963  -37.5191 C   0  0  0  0  0  0  0  0  0  0  0  0
   12.9714  -59.6582  -36.6746 N   0  0  0  0  0  0  0  0  0  0  0  0
   15.2694  -59.0069  -37.1203 C   0  0  0  0  0  0  0  0  0  0  0  0
   16.3221  -58.3983  -37.9487 C   0  0  0  0  0  0  0  0  0  0  0  0
   16.1205  -57.8063  -39.2648 N   0  0  0  0  0  0  0  0  0  0  0  0
   15.9303  -59.4021  -36.0097 N   0  0  0  0  0  0  0  0  0  0  0  0
   17.2501  -59.0674  -36.1539 C   0  0  0  0  0  0  0  0  0  0  0  0
   17.4924  -58.4556  -37.3336 N   0  0  0  0  0  0  0  0  0  0  0  0
   18.7910  -57.9506  -37.8374 C   0  0  1  0  0  0  0  0  0  0  0  0
   19.3128  -56.8376  -36.9437 C   0  0  1  0  0  0  0  0  0  0  0  0
   20.8080  -57.0097  -37.0261 C   0  0  2  0  0  0  0  0  0  0  0  0
   21.2997  -56.3374  -38.1873 O   0  0  0  0  0  0  0  0  0  0  0  0
   18.9362  -55.5544  -37.4449 O   0  0  0  0  0  0  0  0  0  0  0  0
   19.7855  -58.9816  -37.8291 O   0  0  0  0  0  0  0  0  0  0  0  0
   20.9821  -58.5049  -37.2087 C   0  0  2  0  0  0  0  0  0  0  0  0
   21.1805  -59.1757  -35.8583 C   0  0  0  0  0  0  0  0  0  0  0  0
   21.1216  -60.5888  -36.0444 O   0  0  0  0  0  0  0  0  0  0  0  0
   22.1094  -61.3450  -37.0682 P   0  0  0  0  0  0  0  0  0  0  0  0
   23.3882  -60.5402  -37.0447 O   0  0  0  0  0  0  0  0  0  0  0  0
   21.3600  -61.2809  -38.3780 O   0  0  0  0  0  0  0  0  0  0  0  0
   22.2348  -62.7292  -36.4759 O   0  0  0  0  0  0  0  0  0  0  0  0
  1  2  2  0  0  0  0
  2  4  1  0  0  0  0
  2  3  1  0  0  0  0
  4  7  1  0  0  0  0
  5  9  1  0  0  0  0
  5  4  2  0  0  0  0
  6  5  1  0  0  0  0
  8  7  2  0  0  0  0
  9  8  1  0  0  0  0
 10 15  1  0  0  0  0
 10  9  1  1  0  0  0
 10 11  1  0  0  0  0
 11 14  1  6  0  0  0
 11 12  1  0  0  0  0
 12 13  1  6  0  0  0
 15 16  1  0  0  0  0
 16 12  1  0  0  0  0
 16 17  1  1  0  0  0
 17 18  1  0  0  0  0
 18 19  1  0  0  0  0
 19 21  1  0  0  0  0
 19 20  1  0  0  0  0
 22 19  2  0  0  0  0
M  END
>  <CHROM.1>
0.08024801,116.54961759,170.65159812,56.86967042,31.80281608,18.94142950
-59.08739442,-37.27072016,2.88612766,-0.03159902,-0.17539103

>  <Name>
lig.pdb

>  <RI>
0

>  <Rbt.Current_Directory>
/home/itssahil/PROJECTS/Mol_Feturizer/New_Systems/rnas/5btp

>  <Rbt.Executable>
rbdock ($Id: //depot/dev/client3/rdock/2013.1/src/exe/rbdock.cxx#4 $)

>  <Rbt.Library>
libRbt.so (2013.1, Build901 2013/11/27)

>  <Rbt.Parameter_File>
/export/apps/rDock/src/rDock_2013.1_src/data/scripts/dock_solv.prm

>  <Rbt.Receptor>
prm/pocket_docking_5.prm

>  <SCORE>
-21.8661

>  <SCORE.INTER>
-21.6354

>  <SCORE.INTER.CONST>
1

>  <SCORE.INTER.POLAR>
0

>  <SCORE.INTER.ROT>
5

>  <SCORE.INTER.SOLV>
23.0207

>  <SCORE.INTER.VDW>
-29.0305

>  <SCORE.INTER.norm>
-0.983425

>  <SCORE.INTRA>
-0.230788

>  <SCORE.INTRA.DIHEDRAL>
-0.34453

>  <SCORE.INTRA.DIHEDRAL.0>
4.21161

>  <SCORE.INTRA.POLAR>
0

>  <SCORE.INTRA.POLAR.0>
0

>  <SCORE.INTRA.REPUL>
0

>  <SCORE.INTRA.REPUL.0>
0

>  <SCORE.INTRA.SOLV>
0.613344

>  <SCORE.INTRA.SOLV.lig_0>
-41.4168

>  <SCORE.INTRA.VDW>
-0.365196

>  <SCORE.INTRA.VDW.0>
-1.62533

>  <SCORE.INTRA.norm>
-0.0104904

>  <SCORE.RESTR>
0

>  <SCORE.RESTR.CAVITY>
0

>  <SCORE.RESTR.norm>
0

>  <SCORE.SYSTEM>
0

>  <SCORE.SYSTEM.CONST>
0

>  <SCORE.SYSTEM.DIHEDRAL>
0

>  <SCORE.SYSTEM.SOLV>
0

>  <SCORE.SYSTEM.norm>
0

>  <SCORE.heavy>
22

>  <SCORE.norm>
-0.993915

>  <RMSD>
2.319

$$$$
lig.pdb
 OpenBabel11021811523D
libRbt.so/2013.1/901 2013/11/27
 22 23  0  0  0  0  0  0  0  0999 V2000
   13.4865  -58.6341  -38.5823 O   0  0  0  0  0  0  0  0  0  0  0  0
   13.8487  -59.0987  -37.5127 C   0  0  0  0  0  0  0  0  0  0  0  0
   12.9918  -59.6767  -36.6710 N   0  0  0  0  0  0  0  0  0  0  0  0
   15.2840  -59.0084  -37.1214 C   0  0  0  0  0  0  0  0  0  0  0  0
   16.3321  -58.3998  -37.9557 C   0  0  0  0  0  0  0  0  0  0  0  0
   16.1233  -57.8086  -39.2710 N   0  0  0  0  0  0  0  0  0  0  0  0
   15.9509  -59.4026  -36.0141 N   0  0  0  0  0  0  0  0  0  0  0  0
   17.2697  -59.0673  -36.1654 C   0  0  0  0  0  0  0  0  0  0  0  0
   17.5056  -58.4561  -37.3467 N   0  0  0  0  0  0  0  0  0  0  0  0
   18.8012  -57.9508  -37.8576 C   0  0  1  0  0  0  0  0  0  0  0  0
   19.3273  -56.8371  -36.9671 C   0  0  1  0  0  0  0  0  0  0  0  0
   20.8220  -57.0085  -37.0574 C   0  0  2  0  0  0  0  0  0  0  0  0
   21.3073  -56.3366  -38.2215 O   0  0  0  0  0  0  0  0  0  0  0  0
   18.9474  -55.5543  -37.4671 O   0  0  0  0  0  0  0  0  0  0  0  0
   19.7962  -58.9813  -37.8539 O   0  0  0  0  0  0  0  0  0  0  0  0
   20.9959  -58.5038  -37.2401 C   0  0  2  0  0  0  0  0  0  0  0  0
   21.2017  -59.1737  -35.8904 C   0  0  0  0  0  0  0  0  0  0  0  0
   21.1625  -60.5873  -36.0787 O   0  0  0  0  0  0  0  0  0  0  0  0
   22.1684  -61.3294  -37.0953 P   0  0  0  0  0  0  0  0  0  0  0  0
   23.4059  -60.4627  -37.1237 O   0  0  0  0  0  0  0  0  0  0  0  0
   21.3937  -61.3473  -38.3918 O   0  0  0  0  0  0  0  0  0  0  0  0
   22.3725  -62.6844  -36.4593 O   0  0  0  0  0  0  0  0  0  0  0  0
  1  2  2  0  0  0  0
  2  4  1  0  0  0  0
  2  3  1  0  0  0  0
  4  7  1  0  0  0  0
  5  9  1  0  0  0  0
  5  4  2  0  0  0  0
  6  5  1  0  0  0  0
  8  7  2  0  0  0  0
  9  8  1  0  0  0  0
 10 15  1  0  0  0  0
 10  9  1  1  0  0  0
 10 11  1  0  0  0  0
 11 14  1  6  0  0  0
 11 12  1  0  0  0  0
 12 13  1  6  0  0  0
 15 16  1  0  0  0  0
 16 12  1  0  0  0  0
 16 17  1  1  0  0  0
 17 18  1  0  0  0  0
 18 19  1  0  0  0  0
 19 21  1  0  0  0  0
 19 20  1  0  0  0  0
 22 19  2  0  0  0  0
M  END
>  <CHROM.1>
-0.80954039,116.55640561,171.51481157,57.26228810,28.51871921,18.96723830
-59.08345476,-37.28873515,2.88843692,-0.02666722,-0.17849578

>  <Name>
lig.pdb

>  <RI>
0

>  <Rbt.Current_Directory>
/home/itssahil/PROJECTS/Mol_Feturizer/New_Systems/rnas/5btp

>  <Rbt.Executable>
rbdock ($Id: //depot/dev/client3/rdock/2013.1/src/exe/rbdock.cxx#4 $)

>  <Rbt.Library>
libRbt.so (2013.1, Build901 2013/11/27)

>  <Rbt.Parameter_File>
/export/apps/rDock/src/rDock_2013.1_src/data/scripts/dock_solv.prm

>  <Rbt.Receptor>
prm/pocket_docking_8.prm

>  <SCORE>
-21.8737

>  <SCORE.INTER>
-21.7155

>  <SCORE.INTER.CONST>
1

>  <SCORE.INTER.POLAR>
0

>  <SCORE.INTER.ROT>
5

>  <SCORE.INTER.SOLV>
23.0718

>  <SCORE.INTER.VDW>
-29.1009

>  <SCORE.INTER.norm>
-0.987069

>  <SCORE.INTRA>
-0.158202

>  <SCORE.INTRA.DIHEDRAL>
-0.201709

>  <SCORE.INTRA.DIHEDRAL.0>
4.21161

>  <SCORE.INTRA.POLAR>
0

>  <SCORE.INTRA.POLAR.0>
0

>  <SCORE.INTRA.REPUL>
0

>  <SCORE.INTRA.REPUL.0>
0

>  <SCORE.INTRA.SOLV>
0.60399

>  <SCORE.INTRA.SOLV.lig_0>
-41.4168

>  <SCORE.INTRA.VDW>
-0.359342

>  <SCORE.INTRA.VDW.0>
-1.62533

>  <SCORE.INTRA.norm>
-0.00719099

>  <SCORE.RESTR>
0

>  <SCORE.RESTR.CAVITY>
0

>  <SCORE.RESTR.norm>
0

>  <SCORE.SYSTEM>
0

>  <SCORE.SYSTEM.CONST>
0

>  <SCORE.SYSTEM.DIHEDRAL>
0

>  <SCORE.SYSTEM.SOLV>
0

>  <SCORE.SYSTEM.norm>
0

>  <SCORE.heavy>
22

>  <SCORE.norm>
-0.99426

>  <RMSD>
2.321

$$$$
lig.pdb
 OpenBabel11021811523D
libRbt.so/2013.1/901 2013/11/27
 22 23  0  0  0  0  0  0  0  0999 V2000
   13.4841  -58.4876  -38.5644 O   0  0  0  0  0  0  0  0  0  0  0  0
   13.8243  -59.0214  -37.5202 C   0  0  0  0  0  0  0  0  0  0  0  0
   12.9435  -59.6139  -36.7141 N   0  0  0  0  0  0  0  0  0  0  0  0
   15.2597  -59.0021  -37.1197 C   0  0  0  0  0  0  0  0  0  0  0  0
   16.3374  -58.4160  -37.9321 C   0  0  0  0  0  0  0  0  0  0  0  0
   16.1615  -57.7816  -39.2320 N   0  0  0  0  0  0  0  0  0  0  0  0
   15.9028  -59.4536  -36.0202 N   0  0  0  0  0  0  0  0  0  0  0  0
   17.2354  -59.1702  -36.1559 C   0  0  0  0  0  0  0  0  0  0  0  0
   17.5039  -58.5380  -37.3191 N   0  0  0  0  0  0  0  0  0  0  0  0
   18.8226  -58.0742  -37.8098 C   0  0  1  0  0  0  0  0  0  0  0  0
   19.3594  -56.9616  -36.9244 C   0  0  1  0  0  0  0  0  0  0  0  0
   20.8506  -57.1732  -36.9808 C   0  0  2  0  0  0  0  0  0  0  0  0
   21.3773  -56.5314  -38.1439 O   0  0  0  0  0  0  0  0  0  0  0  0
   19.0238  -55.6768  -37.4503 O   0  0  0  0  0  0  0  0  0  0  0  0
   19.7898  -59.1301  -37.7707 O   0  0  0  0  0  0  0  0  0  0  0  0
   20.9887  -58.6750  -37.1387 C   0  0  2  0  0  0  0  0  0  0  0  0
   21.1490  -59.3302  -35.7756 C   0  0  0  0  0  0  0  0  0  0  0  0
   21.1174  -60.7457  -35.9499 O   0  0  0  0  0  0  0  0  0  0  0  0
   22.2492  -61.5147  -36.8005 P   0  0  0  0  0  0  0  0  0  0  0  0
   21.9440  -61.1875  -38.2438 O   0  0  0  0  0  0  0  0  0  0  0  0
   22.0294  -62.9630  -36.4329 O   0  0  0  0  0  0  0  0  0  0  0  0
   23.5388  -60.9184  -36.2870 O   0  0  0  0  0  0  0  0  0  0  0  0
  1  2  2  0  0  0  0
  2  4  1  0  0  0  0
  2  3  1  0  0  0  0
  4  7  1  0  0  0  0
  5  9  1  0  0  0  0
  5  4  2  0  0  0  0
  6  5  1  0  0  0  0
  8  7  2  0  0  0  0
  9  8  1  0  0  0  0
 10 15  1  0  0  0  0
 10  9  1  1  0  0  0
 10 11  1  0  0  0  0
 11 14  1  6  0  0  0
 11 12  1  0  0  0  0
 12 13  1  6  0  0  0
 15 16  1  0  0  0  0
 16 12  1  0  0  0  0
 16 17  1  1  0  0  0
 17 18  1  0  0  0  0
 18 19  1  0  0  0  0
 19 21  1  0  0  0  0
 19 20  1  0  0  0  0
 22 19  2  0  0  0  0
M  END
>  <CHROM.1>
-2.41992322,113.87076454,173.26003065,63.70210070,-73.85409507,18.99102654
-59.18495766,-37.17913786,2.84667487,-0.04108790,-0.22397004

>  <Name>
lig.pdb

>  <RI>
0

>  <Rbt.Current_Directory>
/home/itssahil/PROJECTS/Mol_Feturizer/New_Systems/rnas/5btp

>  <Rbt.Executable>
rbdock ($Id: //depot/dev/client3/rdock/2013.1/src/exe/rbdock.cxx#4 $)

>  <Rbt.Library>
libRbt.so (2013.1, Build901 2013/11/27)

>  <Rbt.Parameter_File>
/export/apps/rDock/src/rDock_2013.1_src/data/scripts/dock_solv.prm

>  <Rbt.Receptor>
prm/pocket_docking_6.prm

>  <SCORE>
-21.543

>  <SCORE.INTER>
-20.8536

>  <SCORE.INTER.CONST>
1

>  <SCORE.INTER.POLAR>
0

>  <SCORE.INTER.ROT>
5

>  <SCORE.INTER.SOLV>
21.6862

>  <SCORE.INTER.VDW>
-28.0645

>  <SCORE.INTER.norm>
-0.947891

>  <SCORE.INTRA>
-0.689435

>  <SCORE.INTRA.DIHEDRAL>
-1.2363

>  <SCORE.INTRA.DIHEDRAL.0>
4.21161

>  <SCORE.INTRA.POLAR>
0

>  <SCORE.INTRA.POLAR.0>
0

>  <SCORE.INTRA.REPUL>
0

>  <SCORE.INTRA.REPUL.0>
0

>  <SCORE.INTRA.SOLV>
0.944582

>  <SCORE.INTRA.SOLV.lig_0>
-41.4168

>  <SCORE.INTRA.VDW>
-0.543575

>  <SCORE.INTRA.VDW.0>
-1.62533

>  <SCORE.INTRA.norm>
-0.0313379

>  <SCORE.RESTR>
0

>  <SCORE.RESTR.CAVITY>
0

>  <SCORE.RESTR.norm>
0

>  <SCORE.SYSTEM>
0

>  <SCORE.SYSTEM.CONST>
0

>  <SCORE.SYSTEM.DIHEDRAL>
0

>  <SCORE.SYSTEM.SOLV>
0

>  <SCORE.SYSTEM.norm>
0

>  <SCORE.heavy>
22

>  <SCORE.norm>
-0.979229

>  <RMSD>
2.338

$$$$
lig.pdb
 OpenBabel11021811523D
libRbt.so/2013.1/901 2013/11/27
 22 23  0  0  0  0  0  0  0  0999 V2000
   12.9289  -59.5974  -36.7574 O   0  0  0  0  0  0  0  0  0  0  0  0
   13.7256  -59.0431  -37.4985 C   0  0  0  0  0  0  0  0  0  0  0  0
   13.3464  -58.4891  -38.6500 N   0  0  0  0  0  0  0  0  0  0  0  0
   15.1665  -58.9927  -37.1212 C   0  0  0  0  0  0  0  0  0  0  0  0
   16.2179  -58.3832  -37.9507 C   0  0  0  0  0  0  0  0  0  0  0  0
   16.0071  -57.7524  -39.2472 N   0  0  0  0  0  0  0  0  0  0  0  0
   15.8370  -59.4303  -36.0326 N   0  0  0  0  0  0  0  0  0  0  0  0
   17.1608  -59.1180  -36.1898 C   0  0  0  0  0  0  0  0  0  0  0  0
   17.3965  -58.4798  -37.3569 N   0  0  0  0  0  0  0  0  0  0  0  0
   18.6967  -57.9874  -37.8687 C   0  0  1  0  0  0  0  0  0  0  0  0
   19.2046  -56.8376  -37.0144 C   0  0  1  0  0  0  0  0  0  0  0  0
   20.7013  -57.0041  -37.0772 C   0  0  2  0  0  0  0  0  0  0  0  0
   21.1996  -56.3746  -38.2593 O   0  0  0  0  0  0  0  0  0  0  0  0
   18.8254  -55.5769  -37.5684 O   0  0  0  0  0  0  0  0  0  0  0  0
   19.6967  -59.0115  -37.8117 O   0  0  0  0  0  0  0  0  0  0  0  0
   20.8851  -58.5043  -37.2000 C   0  0  2  0  0  0  0  0  0  0  0  0
   21.0752  -59.1209  -35.8228 C   0  0  0  0  0  0  0  0  0  0  0  0
   21.0765  -60.5407  -35.9615 O   0  0  0  0  0  0  0  0  0  0  0  0
   22.1428  -61.2933  -36.9063 P   0  0  0  0  0  0  0  0  0  0  0  0
   23.4080  -60.4741  -36.7984 O   0  0  0  0  0  0  0  0  0  0  0  0
   21.4879  -61.2471  -38.2665 O   0  0  0  0  0  0  0  0  0  0  0  0
   22.2403  -62.6716  -36.2955 O   0  0  0  0  0  0  0  0  0  0  0  0
  1  2  2  0  0  0  0
  2  4  1  0  0  0  0
  2  3  1  0  0  0  0
  4  7  1  0  0  0  0
  5  9  1  0  0  0  0
  5  4  2  0  0  0  0
  6  5  1  0  0  0  0
  8  7  2  0  0  0  0
  9  8  1  0  0  0  0
 10 15  1  0  0  0  0
 10  9  1  1  0  0  0
 10 11  1  0  0  0  0
 11 14  1  6  0  0  0
 11 12  1  0  0  0  0
 12 13  1  6  0  0  0
 15 16  1  0  0  0  0
 16 12  1  0  0  0  0
 16 17  1  1  0  0  0
 17 18  1  0  0  0  0
 18 19  1  0  0  0  0
 19 21  1  0  0  0  0
 19 20  1  0  0  0  0
 22 19  2  0  0  0  0
M  END
>  <CHROM.1>
178.38950010,112.28217344,172.83263112,58.40656419,34.21633672,18.87593526
-59.07126128,-37.23486261,2.88192393,-0.03113070,-0.23305942

>  <Name>
lig.pdb

>  <RI>
0

>  <Rbt.Current_Directory>
/home/itssahil/PROJECTS/Mol_Feturizer/New_Systems/rnas/5btp

>  <Rbt.Executable>
rbdock ($Id: //depot/dev/client3/rdock/2013.1/src/exe/rbdock.cxx#4 $)

>  <Rbt.Library>
libRbt.so (2013.1, Build901 2013/11/27)

>  <Rbt.Parameter_File>
/export/apps/rDock/src/rDock_2013.1_src/data/scripts/dock_solv.prm

>  <Rbt.Receptor>
prm/pocket_docking_7.prm

>  <SCORE>
-21.682

>  <SCORE.INTER>
-21.3392

>  <SCORE.INTER.CONST>
1

>  <SCORE.INTER.POLAR>
0

>  <SCORE.INTER.ROT>
5

>  <SCORE.INTER.SOLV>
22.4438

>  <SCORE.INTER.VDW>
-28.6408

>  <SCORE.INTER.norm>
-0.969965

>  <SCORE.INTRA>
-0.342807

>  <SCORE.INTRA.DIHEDRAL>
-0.646648

>  <SCORE.INTRA.DIHEDRAL.0>
4.21161

>  <SCORE.INTRA.POLAR>
0

>  <SCORE.INTRA.POLAR.0>
0

>  <SCORE.INTRA.REPUL>
0

>  <SCORE.INTRA.REPUL.0>
0

>  <SCORE.INTRA.SOLV>
0.858297

>  <SCORE.INTRA.SOLV.lig_0>
-41.4168

>  <SCORE.INTRA.VDW>
-0.448631

>  <SCORE.INTRA.VDW.0>
-1.62533

>  <SCORE.INTRA.norm>
-0.0155821

>  <SCORE.RESTR>
0

>  <SCORE.RESTR.CAVITY>
0

>  <SCORE.RESTR.norm>
0

>  <SCORE.SYSTEM>
0

>  <SCORE.SYSTEM.CONST>
0

>  <SCORE.SYSTEM.DIHEDRAL>
0

>  <SCORE.SYSTEM.SOLV>
0

>  <SCORE.SYSTEM.norm>
0

>  <SCORE.heavy>
22

>  <SCORE.norm>
-0.985547

>  <RMSD>
2.356

$$$$
lig.pdb
 OpenBabel11021811523D
libRbt.so/2013.1/901 2013/11/27
 22 23  0  0  0  0  0  0  0  0999 V2000
   14.5650  -60.1943  -36.2891 O   0  0  0  0  0  0  0  0  0  0  0  0
   14.1794  -59.2846  -37.0065 C   0  0  0  0  0  0  0  0  0  0  0  0
   12.8942  -58.9371  -37.0714 N   0  0  0  0  0  0  0  0  0  0  0  0
   15.1629  -58.5462  -37.8484 C   0  0  0  0  0  0  0  0  0  0  0  0
   16.5938  -58.4196  -37.5299 C   0  0  0  0  0  0  0  0  0  0  0  0
   17.2486  -58.9860  -36.3579 N   0  0  0  0  0  0  0  0  0  0  0  0
   15.0376  -57.8723  -39.0130 N   0  0  0  0  0  0  0  0  0  0  0  0
   16.2689  -57.3859  -39.3619 C   0  0  0  0  0  0  0  0  0  0  0  0
   17.2194  -57.7175  -38.4610 N   0  0  0  0  0  0  0  0  0  0  0  0
   18.6598  -57.3733  -38.5020 C   0  0  1  0  0  0  0  0  0  0  0  0
   18.9497  -56.1852  -37.5996 C   0  0  1  0  0  0  0  0  0  0  0  0
   20.3469  -56.4655  -37.1087 C   0  0  2  0  0  0  0  0  0  0  0  0
   21.2917  -55.9928  -38.0711 O   0  0  0  0  0  0  0  0  0  0  0  0
   18.9218  -54.9608  -38.3343 O   0  0  0  0  0  0  0  0  0  0  0  0
   19.4646  -58.4569  -38.0220 O   0  0  0  0  0  0  0  0  0  0  0  0
   20.4069  -57.9798  -37.0585 C   0  0  2  0  0  0  0  0  0  0  0  0
   20.0351  -58.4706  -35.6678 C   0  0  0  0  0  0  0  0  0  0  0  0
   20.3363  -59.8627  -35.5862 O   0  0  0  0  0  0  0  0  0  0  0  0
   21.7974  -60.4311  -35.9577 P   0  0  0  0  0  0  0  0  0  0  0  0
   22.7607  -59.3556  -35.5116 O   0  0  0  0  0  0  0  0  0  0  0  0
   21.7231  -60.6152  -37.4549 O   0  0  0  0  0  0  0  0  0  0  0  0
   21.8863  -61.7136  -35.1642 O   0  0  0  0  0  0  0  0  0  0  0  0
  1  2  2  0  0  0  0
  2  4  1  0  0  0  0
  2  3  1  0  0  0  0
  4  7  1  0  0  0  0
  5  9  1  0  0  0  0
  5  4  2  0  0  0  0
  6  5  1  0  0  0  0
  8  7  2  0  0  0  0
  9  8  1  0  0  0  0
 10 15  1  0  0  0  0
 10  9  1  1  0  0  0
 10 11  1  0  0  0  0
 11 14  1  6  0  0  0
 11 12  1  0  0  0  0
 12 13  1  6  0  0  0
 15 16  1  0  0  0  0
 16 12  1  0  0  0  0
 16 17  1  1  0  0  0
 17 18  1  0  0  0  0
 18 19  1  0  0  0  0
 19 21  1  0  0  0  0
 19 20  1  0  0  0  0
 22 19  2  0  0  0  0
M  END
>  <CHROM.1>
-25.96899487,-80.45126653,-169.52293962,53.29821258,34.55085917,18.74614418
-58.55891238,-37.12585576,2.87343897,-0.11861892,-0.49383483

>  <Name>
lig.pdb

>  <RI>
0

>  <Rbt.Current_Directory>
/home/itssahil/PROJECTS/Mol_Feturizer/New_Systems/rnas/5btp

>  <Rbt.Executable>
rbdock ($Id: //depot/dev/client3/rdock/2013.1/src/exe/rbdock.cxx#4 $)

>  <Rbt.Library>
libRbt.so (2013.1, Build901 2013/11/27)

>  <Rbt.Parameter_File>
/export/apps/rDock/src/rDock_2013.1_src/data/scripts/dock_solv.prm

>  <Rbt.Receptor>
prm/pocket_docking_3.prm

>  <SCORE>
-16.1023

>  <SCORE.INTER>
-17.5064

>  <SCORE.INTER.CONST>
1

>  <SCORE.INTER.POLAR>
0

>  <SCORE.INTER.ROT>
5

>  <SCORE.INTER.SOLV>
21.03

>  <SCORE.INTER.VDW>
-25.6143

>  <SCORE.INTER.norm>
-0.795746

>  <SCORE.INTRA>
1.40129

>  <SCORE.INTRA.DIHEDRAL>
1.88833

>  <SCORE.INTRA.DIHEDRAL.0>
4.21161

>  <SCORE.INTRA.POLAR>
0

>  <SCORE.INTRA.POLAR.0>
0

>  <SCORE.INTRA.REPUL>
0.0104616

>  <SCORE.INTRA.REPUL.0>
0

>  <SCORE.INTRA.SOLV>
1.95648

>  <SCORE.INTRA.SOLV.lig_0>
-41.4168

>  <SCORE.INTRA.VDW>
-0.573424

>  <SCORE.INTRA.VDW.0>
-1.62533

>  <SCORE.INTRA.norm>
0.0636951

>  <SCORE.RESTR>
0.00276853

>  <SCORE.RESTR.CAVITY>
0.00276853

>  <SCORE.RESTR.norm>
0.000125842

>  <SCORE.SYSTEM>
0

>  <SCORE.SYSTEM.CONST>
0

>  <SCORE.SYSTEM.DIHEDRAL>
0

>  <SCORE.SYSTEM.SOLV>
0

>  <SCORE.SYSTEM.norm>
0

>  <SCORE.heavy>
22

>  <SCORE.norm>
-0.731925

>  <RMSD>
2.387

$$$$
lig.pdb
 OpenBabel11021811523D
libRbt.so/2013.1/901 2013/11/27
 22 23  0  0  0  0  0  0  0  0999 V2000
   13.2471  -58.9565  -37.9476 O   0  0  0  0  0  0  0  0  0  0  0  0
   14.3549  -59.1432  -37.4690 C   0  0  0  0  0  0  0  0  0  0  0  0
   14.5394  -59.9315  -36.4100 N   0  0  0  0  0  0  0  0  0  0  0  0
   15.5378  -58.4635  -38.0689 C   0  0  0  0  0  0  0  0  0  0  0  0
   16.8926  -58.5020  -37.4961 C   0  0  0  0  0  0  0  0  0  0  0  0
   17.2694  -59.1972  -36.2722 N   0  0  0  0  0  0  0  0  0  0  0  0
   15.6878  -57.7162  -39.1848 N   0  0  0  0  0  0  0  0  0  0  0  0
   17.0010  -57.3397  -39.2757 C   0  0  0  0  0  0  0  0  0  0  0  0
   17.7379  -57.8167  -38.2490 N   0  0  0  0  0  0  0  0  0  0  0  0
   19.1870  -57.6201  -38.0114 C   0  0  1  0  0  0  0  0  0  0  0  0
   19.4128  -56.7472  -36.7879 C   0  0  1  0  0  0  0  0  0  0  0  0
   20.7013  -57.2854  -36.2206 C   0  0  2  0  0  0  0  0  0  0  0  0
   21.8063  -56.6729  -36.8885 O   0  0  0  0  0  0  0  0  0  0  0  0
   19.5708  -55.3760  -37.1549 O   0  0  0  0  0  0  0  0  0  0  0  0
   19.8424  -58.8668  -37.7503 O   0  0  0  0  0  0  0  0  0  0  0  0
   20.6587  -58.7575  -36.5817 C   0  0  2  0  0  0  0  0  0  0  0  0
   20.0544  -59.5578  -35.4383 C   0  0  0  0  0  0  0  0  0  0  0  0
   20.8441  -60.7295  -35.2420 O   0  0  0  0  0  0  0  0  0  0  0  0
   20.5858  -61.7203  -33.9980 P   0  0  0  0  0  0  0  0  0  0  0  0
   19.2134  -62.3041  -34.2412 O   0  0  0  0  0  0  0  0  0  0  0  0
   20.6653  -60.7989  -32.8039 O   0  0  0  0  0  0  0  0  0  0  0  0
   21.7144  -62.7188  -34.1054 O   0  0  0  0  0  0  0  0  0  0  0  0
  1  2  2  0  0  0  0
  2  4  1  0  0  0  0
  2  3  1  0  0  0  0
  4  7  1  0  0  0  0
  5  9  1  0  0  0  0
  5  4  2  0  0  0  0
  6  5  1  0  0  0  0
  8  7  2  0  0  0  0
  9  8  1  0  0  0  0
 10 15  1  0  0  0  0
 10  9  1  1  0  0  0
 10 11  1  0  0  0  0
 11 14  1  6  0  0  0
 11 12  1  0  0  0  0
 12 13  1  6  0  0  0
 15 16  1  0  0  0  0
 16 12  1  0  0  0  0
 16 17  1  1  0  0  0
 17 18  1  0  0  0  0
 18 19  1  0  0  0  0
 19 21  1  0  0  0  0
 19 20  1  0  0  0  0
 22 19  2  0  0  0  0
M  END
>  <CHROM.1>
173.40086970,-68.26472329,-135.96946539,172.90441436,65.39803282,18.68021114
-59.11818247,-36.41168048,2.42009518,-0.26996564,-0.59957417

>  <Name>
lig.pdb

>  <RI>
0

>  <Rbt.Current_Directory>
/home/itssahil/PROJECTS/Mol_Feturizer/New_Systems/rnas/5btp

>  <Rbt.Executable>
rbdock ($Id: //depot/dev/client3/rdock/2013.1/src/exe/rbdock.cxx#4 $)

>  <Rbt.Library>
libRbt.so (2013.1, Build901 2013/11/27)

>  <Rbt.Parameter_File>
/export/apps/rDock/src/rDock_2013.1_src/data/scripts/dock_solv.prm

>  <Rbt.Receptor>
prm/pocket_docking_6.prm

>  <SCORE>
-15.133

>  <SCORE.INTER>
-16.4278

>  <SCORE.INTER.CONST>
1

>  <SCORE.INTER.POLAR>
0

>  <SCORE.INTER.ROT>
5

>  <SCORE.INTER.SOLV>
19.0957

>  <SCORE.INTER.VDW>
-24.2505

>  <SCORE.INTER.norm>
-0.74672

>  <SCORE.INTRA>
1.29481

>  <SCORE.INTRA.DIHEDRAL>
3.01456

>  <SCORE.INTRA.DIHEDRAL.0>
4.21161

>  <SCORE.INTRA.POLAR>
0

>  <SCORE.INTRA.POLAR.0>
0

>  <SCORE.INTRA.REPUL>
0

>  <SCORE.INTRA.REPUL.0>
0

>  <SCORE.INTRA.SOLV>
1.00983

>  <SCORE.INTRA.SOLV.lig_0>
-41.4168

>  <SCORE.INTRA.VDW>
-0.717385

>  <SCORE.INTRA.VDW.0>
-1.62533

>  <SCORE.INTRA.norm>
0.058855

>  <SCORE.RESTR>
0

>  <SCORE.RESTR.CAVITY>
0

>  <SCORE.RESTR.norm>
0

>  <SCORE.SYSTEM>
0

>  <SCORE.SYSTEM.CONST>
0

>  <SCORE.SYSTEM.DIHEDRAL>
0

>  <SCORE.SYSTEM.SOLV>
0

>  <SCORE.SYSTEM.norm>
0

>  <SCORE.heavy>
22

>  <SCORE.norm>
-0.687865

>  <RMSD>
2.388

$$$$
lig.pdb
 OpenBabel11021811523D
libRbt.so/2013.1/901 2013/11/27
 22 23  0  0  0  0  0  0  0  0999 V2000
   12.9935  -59.6787  -36.7529 O   0  0  0  0  0  0  0  0  0  0  0  0
   13.7770  -59.1072  -37.4949 C   0  0  0  0  0  0  0  0  0  0  0  0
   13.3859  -58.5682  -38.6495 N   0  0  0  0  0  0  0  0  0  0  0  0
   15.2154  -59.0179  -37.1152 C   0  0  0  0  0  0  0  0  0  0  0  0
   16.2551  -58.3994  -37.9527 C   0  0  0  0  0  0  0  0  0  0  0  0
   16.0339  -57.7963  -39.2606 N   0  0  0  0  0  0  0  0  0  0  0  0
   15.8926  -59.4212  -36.0175 N   0  0  0  0  0  0  0  0  0  0  0  0
   17.2094  -59.0820  -36.1770 C   0  0  0  0  0  0  0  0  0  0  0  0
   17.4340  -58.4592  -37.3545 N   0  0  0  0  0  0  0  0  0  0  0  0
   18.7242  -57.9467  -37.8718 C   0  0  1  0  0  0  0  0  0  0  0  0
   19.2436  -56.8235  -36.9894 C   0  0  1  0  0  0  0  0  0  0  0  0
   20.7394  -56.9835  -37.0825 C   0  0  2  0  0  0  0  0  0  0  0  0
   21.2164  -56.3148  -38.2519 O   0  0  0  0  0  0  0  0  0  0  0  0
   18.8522  -55.5468  -37.4960 O   0  0  0  0  0  0  0  0  0  0  0  0
   19.7275  -58.9691  -37.8645 O   0  0  0  0  0  0  0  0  0  0  0  0
   20.9248  -58.4784  -37.2567 C   0  0  2  0  0  0  0  0  0  0  0  0
   21.1394  -59.1385  -35.9035 C   0  0  0  0  0  0  0  0  0  0  0  0
   21.1322  -60.5533  -36.0865 O   0  0  0  0  0  0  0  0  0  0  0  0
   22.1430  -61.2746  -37.1131 P   0  0  0  0  0  0  0  0  0  0  0  0
   23.3442  -60.3607  -37.1866 O   0  0  0  0  0  0  0  0  0  0  0  0
   21.3401  -61.3477  -38.3902 O   0  0  0  0  0  0  0  0  0  0  0  0
   22.4154  -62.6082  -36.4575 O   0  0  0  0  0  0  0  0  0  0  0  0
  1  2  2  0  0  0  0
  2  4  1  0  0  0  0
  2  3  1  0  0  0  0
  4  7  1  0  0  0  0
  5  9  1  0  0  0  0
  5  4  2  0  0  0  0
  6  5  1  0  0  0  0
  8  7  2  0  0  0  0
  9  8  1  0  0  0  0
 10 15  1  0  0  0  0
 10  9  1  1  0  0  0
 10 11  1  0  0  0  0
 11 14  1  6  0  0  0
 11 12  1  0  0  0  0
 12 13  1  6  0  0  0
 15 16  1  0  0  0  0
 16 12  1  0  0  0  0
 16 17  1  1  0  0  0
 17 18  1  0  0  0  0
 18 19  1  0  0  0  0
 19 21  1  0  0  0  0
 19 20  1  0  0  0  0
 22 19  2  0  0  0  0
M  END
>  <CHROM.1>
177.61347115,115.54187925,172.41703387,56.29391749,27.13727432,18.90572595
-59.06708245,-37.29548532,2.89864666,-0.02110999,-0.18608696

>  <Name>
lig.pdb

>  <RI>
0

>  <Rbt.Current_Directory>
/home/itssahil/PROJECTS/Mol_Feturizer/New_Systems/rnas/5btp

>  <Rbt.Executable>
rbdock ($Id: //depot/dev/client3/rdock/2013.1/src/exe/rbdock.cxx#4 $)

>  <Rbt.Library>
libRbt.so (2013.1, Build901 2013/11/27)

>  <Rbt.Parameter_File>
/export/apps/rDock/src/rDock_2013.1_src/data/scripts/dock_solv.prm

>  <Rbt.Receptor>
prm/pocket_docking_5.prm

>  <SCORE>
-21.8414

>  <SCORE.INTER>
-21.9123

>  <SCORE.INTER.CONST>
1

>  <SCORE.INTER.POLAR>
0

>  <SCORE.INTER.ROT>
5

>  <SCORE.INTER.SOLV>
23.0039

>  <SCORE.INTER.VDW>
-29.2095

>  <SCORE.INTER.norm>
-0.996012

>  <SCORE.INTRA>
0.0708539

>  <SCORE.INTRA.DIHEDRAL>
-0.118519

>  <SCORE.INTRA.DIHEDRAL.0>
4.21161

>  <SCORE.INTRA.POLAR>
0

>  <SCORE.INTRA.POLAR.0>
0

>  <SCORE.INTRA.REPUL>
0

>  <SCORE.INTRA.REPUL.0>
0

>  <SCORE.INTRA.SOLV>
0.866226

>  <SCORE.INTRA.SOLV.lig_0>
-41.4168

>  <SCORE.INTRA.VDW>
-0.303

>  <SCORE.INTRA.VDW.0>
-1.62533

>  <SCORE.INTRA.norm>
0.00322063

>  <SCORE.RESTR>
0

>  <SCORE.RESTR.CAVITY>
0

>  <SCORE.RESTR.norm>
0

>  <SCORE.SYSTEM>
0

>  <SCORE.SYSTEM.CONST>
0

>  <SCORE.SYSTEM.DIHEDRAL>
0

>  <SCORE.SYSTEM.SOLV>
0

>  <SCORE.SYSTEM.norm>
0

>  <SCORE.heavy>
22

>  <SCORE.norm>
-0.992791

>  <RMSD>
2.415

$$$$
lig.pdb
 OpenBabel11021811523D
libRbt.so/2013.1/901 2013/11/27
 22 23  0  0  0  0  0  0  0  0999 V2000
   12.9594  -59.7110  -36.7926 O   0  0  0  0  0  0  0  0  0  0  0  0
   13.7461  -59.1134  -37.5102 C   0  0  0  0  0  0  0  0  0  0  0  0
   13.3582  -58.5252  -38.6418 N   0  0  0  0  0  0  0  0  0  0  0  0
   15.1848  -59.0470  -37.1268 C   0  0  0  0  0  0  0  0  0  0  0  0
   16.2313  -58.4174  -37.9474 C   0  0  0  0  0  0  0  0  0  0  0  0
   16.0174  -57.7796  -39.2399 N   0  0  0  0  0  0  0  0  0  0  0  0
   15.8567  -59.4841  -36.0388 N   0  0  0  0  0  0  0  0  0  0  0  0
   17.1769  -59.1533  -36.1883 C   0  0  0  0  0  0  0  0  0  0  0  0
   17.4088  -58.5032  -37.3495 N   0  0  0  0  0  0  0  0  0  0  0  0
   18.7044  -57.9899  -37.8523 C   0  0  1  0  0  0  0  0  0  0  0  0
   19.2153  -56.8692  -36.9618 C   0  0  1  0  0  0  0  0  0  0  0  0
   20.7119  -57.0297  -37.0401 C   0  0  2  0  0  0  0  0  0  0  0  0
   21.2009  -56.3581  -38.2028 O   0  0  0  0  0  0  0  0  0  0  0  0
   18.8295  -55.5911  -37.4690 O   0  0  0  0  0  0  0  0  0  0  0  0
   19.7071  -59.0128  -37.8376 O   0  0  0  0  0  0  0  0  0  0  0  0
   20.8984  -58.5242  -37.2164 C   0  0  2  0  0  0  0  0  0  0  0  0
   21.0990  -59.1879  -35.8628 C   0  0  0  0  0  0  0  0  0  0  0  0
   21.0718  -60.6024  -36.0464 O   0  0  0  0  0  0  0  0  0  0  0  0
   22.0946  -61.3411  -37.0484 P   0  0  0  0  0  0  0  0  0  0  0  0
   23.3302  -60.4711  -37.0577 O   0  0  0  0  0  0  0  0  0  0  0  0
   21.3395  -61.3601  -38.3563 O   0  0  0  0  0  0  0  0  0  0  0  0
   22.2928  -62.6960  -36.4103 O   0  0  0  0  0  0  0  0  0  0  0  0
  1  2  2  0  0  0  0
  2  4  1  0  0  0  0
  2  3  1  0  0  0  0
  4  7  1  0  0  0  0
  5  9  1  0  0  0  0
  5  4  2  0  0  0  0
  6  5  1  0  0  0  0
  8  7  2  0  0  0  0
  9  8  1  0  0  0  0
 10 15  1  0  0  0  0
 10  9  1  1  0  0  0
 10 11  1  0  0  0  0
 11 14  1  6  0  0  0
 11 12  1  0  0  0  0
 12 13  1  6  0  0  0
 15 16  1  0  0  0  0
 16 12  1  0  0  0  0
 16 17  1  1  0  0  0
 17 18  1  0  0  0  0
 18 19  1  0  0  0  0
 19 21  1  0  0  0  0
 19 20  1  0  0  0  0
 22 19  2  0  0  0  0
M  END
>  <CHROM.1>
176.65695681,114.06234535,171.50710534,57.51006171,28.90674226,18.87254185
-59.10981425,-37.26810094,2.88903824,-0.02891296,-0.18935409

>  <Name>
lig.pdb

>  <RI>
0

>  <Rbt.Current_Directory>
/home/itssahil/PROJECTS/Mol_Feturizer/New_Systems/rnas/5btp

>  <Rbt.Executable>
rbdock ($Id: //depot/dev/client3/rdock/2013.1/src/exe/rbdock.cxx#4 $)

>  <Rbt.Library>
libRbt.so (2013.1, Build901 2013/11/27)

>  <Rbt.Parameter_File>
/export/apps/rDock/src/rDock_2013.1_src/data/scripts/dock_solv.prm

>  <Rbt.Receptor>
prm/pocket_docking_6.prm

>  <SCORE>
-21.7765

>  <SCORE.INTER>
-21.737

>  <SCORE.INTER.CONST>
1

>  <SCORE.INTER.POLAR>
0

>  <SCORE.INTER.ROT>
5

>  <SCORE.INTER.SOLV>
22.8248

>  <SCORE.INTER.VDW>
-29.0329

>  <SCORE.INTER.norm>
-0.988045

>  <SCORE.INTRA>
-0.0395218

>  <SCORE.INTRA.DIHEDRAL>
-0.194949

>  <SCORE.INTRA.DIHEDRAL.0>
4.21161

>  <SCORE.INTRA.POLAR>
0

>  <SCORE.INTRA.POLAR.0>
0

>  <SCORE.INTRA.REPUL>
0

>  <SCORE.INTRA.REPUL.0>
0

>  <SCORE.INTRA.SOLV>
0.863636

>  <SCORE.INTRA.SOLV.lig_0>
-41.4168

>  <SCORE.INTRA.VDW>
-0.373865

>  <SCORE.INTRA.VDW.0>
-1.62533

>  <SCORE.INTRA.norm>
-0.00179645

>  <SCORE.RESTR>
0

>  <SCORE.RESTR.CAVITY>
0

>  <SCORE.RESTR.norm>
0

>  <SCORE.SYSTEM>
0

>  <SCORE.SYSTEM.CONST>
0

>  <SCORE.SYSTEM.DIHEDRAL>
0

>  <SCORE.SYSTEM.SOLV>
0

>  <SCORE.SYSTEM.norm>
0

>  <SCORE.heavy>
22

>  <SCORE.norm>
-0.989842

>  <RMSD>
2.415

$$$$
lig.pdb
 OpenBabel11021811523D
libRbt.so/2013.1/901 2013/11/27
 22 23  0  0  0  0  0  0  0  0999 V2000
   12.9576  -59.5839  -36.8119 O   0  0  0  0  0  0  0  0  0  0  0  0
   13.7791  -59.0378  -37.5317 C   0  0  0  0  0  0  0  0  0  0  0  0
   13.4326  -58.4622  -38.6829 N   0  0  0  0  0  0  0  0  0  0  0  0
   15.2137  -59.0224  -37.1280 C   0  0  0  0  0  0  0  0  0  0  0  0
   16.2943  -58.4372  -37.9371 C   0  0  0  0  0  0  0  0  0  0  0  0
   16.1225  -57.8000  -39.2362 N   0  0  0  0  0  0  0  0  0  0  0  0
   15.8534  -59.4773  -36.0280 N   0  0  0  0  0  0  0  0  0  0  0  0
   17.1869  -59.1966  -36.1605 C   0  0  0  0  0  0  0  0  0  0  0  0
   17.4592  -58.5628  -37.3219 N   0  0  0  0  0  0  0  0  0  0  0  0
   18.7800  -58.1010  -37.8090 C   0  0  1  0  0  0  0  0  0  0  0  0
   19.3061  -56.9744  -36.9350 C   0  0  1  0  0  0  0  0  0  0  0  0
   20.7984  -57.1814  -36.9773 C   0  0  2  0  0  0  0  0  0  0  0  0
   21.3317  -56.5536  -38.1451 O   0  0  0  0  0  0  0  0  0  0  0  0
   18.9699  -55.6982  -37.4811 O   0  0  0  0  0  0  0  0  0  0  0  0
   19.7506  -59.1527  -37.7481 O   0  0  0  0  0  0  0  0  0  0  0  0
   20.9431  -58.6846  -37.1134 C   0  0  2  0  0  0  0  0  0  0  0  0
   21.0953  -59.3204  -35.7402 C   0  0  0  0  0  0  0  0  0  0  0  0
   21.0510  -60.7381  -35.8930 O   0  0  0  0  0  0  0  0  0  0  0  0
   22.1719  -61.5293  -36.7376 P   0  0  0  0  0  0  0  0  0  0  0  0
   21.8496  -61.2378  -38.1849 O   0  0  0  0  0  0  0  0  0  0  0  0
   21.9553  -62.9678  -36.3314 O   0  0  0  0  0  0  0  0  0  0  0  0
   23.4680  -60.9217  -36.2546 O   0  0  0  0  0  0  0  0  0  0  0  0
  1  2  2  0  0  0  0
  2  4  1  0  0  0  0
  2  3  1  0  0  0  0
  4  7  1  0  0  0  0
  5  9  1  0  0  0  0
  5  4  2  0  0  0  0
  6  5  1  0  0  0  0
  8  7  2  0  0  0  0
  9  8  1  0  0  0  0
 10 15  1  0  0  0  0
 10  9  1  1  0  0  0
 10 11  1  0  0  0  0
 11 14  1  6  0  0  0
 11 12  1  0  0  0  0
 12 13  1  6  0  0  0
 15 16  1  0  0  0  0
 16 12  1  0  0  0  0
 16 17  1  1  0  0  0
 17 18  1  0  0  0  0
 18 19  1  0  0  0  0
 19 21  1  0  0  0  0
 19 20  1  0  0  0  0
 22 19  2  0  0  0  0
M  END
>  <CHROM.1>
177.75716314,112.86814784,172.44762183,63.31720538,-74.66586371,18.93512111
-59.20410718,-37.15965843,2.84663717,-0.04553388,-0.23747034

>  <Name>
lig.pdb

>  <RI>
0

>  <Rbt.Current_Directory>
/home/itssahil/PROJECTS/Mol_Feturizer/New_Systems/rnas/5btp

>  <Rbt.Executable>
rbdock ($Id: //depot/dev/client3/rdock/2013.1/src/exe/rbdock.cxx#4 $)

>  <Rbt.Library>
libRbt.so (2013.1, Build901 2013/11/27)

>  <Rbt.Parameter_File>
/export/apps/rDock/src/rDock_2013.1_src/data/scripts/dock_solv.prm

>  <Rbt.Receptor>
prm/pocket_docking_6.prm

>  <SCORE>
-21.4682

>  <SCORE.INTER>
-20.9583

>  <SCORE.INTER.CONST>
1

>  <SCORE.INTER.POLAR>
0

>  <SCORE.INTER.ROT>
5

>  <SCORE.INTER.SOLV>
21.3599

>  <SCORE.INTER.VDW>
-28.0255

>  <SCORE.INTER.norm>
-0.952648

>  <SCORE.INTRA>
-0.509993

>  <SCORE.INTRA.DIHEDRAL>
-1.17605

>  <SCORE.INTRA.DIHEDRAL.0>
4.21161

>  <SCORE.INTRA.POLAR>
0

>  <SCORE.INTRA.POLAR.0>
0

>  <SCORE.INTRA.REPUL>
0

>  <SCORE.INTRA.REPUL.0>
0

>  <SCORE.INTRA.SOLV>
1.21253

>  <SCORE.INTRA.SOLV.lig_0>
-41.4168

>  <SCORE.INTRA.VDW>
-0.528231

>  <SCORE.INTRA.VDW.0>
-1.62533

>  <SCORE.INTRA.norm>
-0.0231815

>  <SCORE.RESTR>
0

>  <SCORE.RESTR.CAVITY>
0

>  <SCORE.RESTR.norm>
0

>  <SCORE.SYSTEM>
0

>  <SCORE.SYSTEM.CONST>
0

>  <SCORE.SYSTEM.DIHEDRAL>
0

>  <SCORE.SYSTEM.SOLV>
0

>  <SCORE.SYSTEM.norm>
0

>  <SCORE.heavy>
22

>  <SCORE.norm>
-0.975829

>  <RMSD>
2.423

$$$$
lig.pdb
 OpenBabel11021811523D
libRbt.so/2013.1/901 2013/11/27
 22 23  0  0  0  0  0  0  0  0999 V2000
   12.9341  -59.4549  -36.8667 O   0  0  0  0  0  0  0  0  0  0  0  0
   13.7738  -58.9482  -37.5941 C   0  0  0  0  0  0  0  0  0  0  0  0
   13.4502  -58.3973  -38.7639 N   0  0  0  0  0  0  0  0  0  0  0  0
   15.2051  -58.9544  -37.1785 C   0  0  0  0  0  0  0  0  0  0  0  0
   16.3007  -58.3823  -37.9767 C   0  0  0  0  0  0  0  0  0  0  0  0
   16.1489  -57.7388  -39.2752 N   0  0  0  0  0  0  0  0  0  0  0  0
   15.8291  -59.4216  -36.0746 N   0  0  0  0  0  0  0  0  0  0  0  0
   17.1675  -59.1595  -36.1950 C   0  0  0  0  0  0  0  0  0  0  0  0
   17.4585  -58.5263  -37.3523 N   0  0  0  0  0  0  0  0  0  0  0  0
   18.7897  -58.0819  -37.8269 C   0  0  1  0  0  0  0  0  0  0  0  0
   19.3228  -56.9630  -36.9473 C   0  0  1  0  0  0  0  0  0  0  0  0
   20.8126  -57.1898  -36.9760 C   0  0  2  0  0  0  0  0  0  0  0  0
   21.3648  -56.5686  -38.1384 O   0  0  0  0  0  0  0  0  0  0  0  0
   19.0088  -55.6820  -37.4955 O   0  0  0  0  0  0  0  0  0  0  0  0
   19.7456  -59.1465  -37.7579 O   0  0  0  0  0  0  0  0  0  0  0  0
   20.9384  -58.6948  -37.1119 C   0  0  2  0  0  0  0  0  0  0  0  0
   21.0695  -59.3334  -35.7379 C   0  0  0  0  0  0  0  0  0  0  0  0
   21.0458  -60.7510  -35.8961 O   0  0  0  0  0  0  0  0  0  0  0  0
   22.1792  -61.5228  -36.7420 P   0  0  0  0  0  0  0  0  0  0  0  0
   21.8717  -61.2071  -38.1874 O   0  0  0  0  0  0  0  0  0  0  0  0
   21.9641  -62.9690  -36.3635 O   0  0  0  0  0  0  0  0  0  0  0  0
   23.4674  -60.9188  -36.2340 O   0  0  0  0  0  0  0  0  0  0  0  0
  1  2  2  0  0  0  0
  2  4  1  0  0  0  0
  2  3  1  0  0  0  0
  4  7  1  0  0  0  0
  5  9  1  0  0  0  0
  5  4  2  0  0  0  0
  6  5  1  0  0  0  0
  8  7  2  0  0  0  0
  9  8  1  0  0  0  0
 10 15  1  0  0  0  0
 10  9  1  1  0  0  0
 10 11  1  0  0  0  0
 11 14  1  6  0  0  0
 11 12  1  0  0  0  0
 12 13  1  6  0  0  0
 15 16  1  0  0  0  0
 16 12  1  0  0  0  0
 16 17  1  1  0  0  0
 17 18  1  0  0  0  0
 18 19  1  0  0  0  0
 19 21  1  0  0  0  0
 19 20  1  0  0  0  0
 22 19  2  0  0  0  0
M  END
>  <CHROM.1>
179.60104704,112.71741860,174.07240655,62.18922709,-73.53330767,18.93920015
-59.17756879,-37.18063784,2.83600481,-0.04965154,-0.23717859

>  <Name>
lig.pdb

>  <RI>
0

>  <Rbt.Current_Directory>
/home/itssahil/PROJECTS/Mol_Feturizer/New_Systems/rnas/5btp

>  <Rbt.Executable>
rbdock ($Id: //depot/dev/client3/rdock/2013.1/src/exe/rbdock.cxx#4 $)

>  <Rbt.Library>
libRbt.so (2013.1, Build901 2013/11/27)

>  <Rbt.Parameter_File>
/export/apps/rDock/src/rDock_2013.1_src/data/scripts/dock_solv.prm

>  <Rbt.Receptor>
prm/pocket_docking_8.prm

>  <SCORE>
-21.4703

>  <SCORE.INTER>
-20.9167

>  <SCORE.INTER.CONST>
1

>  <SCORE.INTER.POLAR>
0

>  <SCORE.INTER.ROT>
5

>  <SCORE.INTER.SOLV>
21.3481

>  <SCORE.INTER.VDW>
-27.9938

>  <SCORE.INTER.norm>
-0.95076

>  <SCORE.INTRA>
-0.553553

>  <SCORE.INTRA.DIHEDRAL>
-1.34923

>  <SCORE.INTRA.DIHEDRAL.0>
4.21161

>  <SCORE.INTRA.POLAR>
0

>  <SCORE.INTRA.POLAR.0>
0

>  <SCORE.INTRA.REPUL>
0

>  <SCORE.INTRA.REPUL.0>
0

>  <SCORE.INTRA.SOLV>
1.22077

>  <SCORE.INTRA.SOLV.lig_0>
-41.4168

>  <SCORE.INTRA.VDW>
-0.489325

>  <SCORE.INTRA.VDW.0>
-1.62533

>  <SCORE.INTRA.norm>
-0.0251615

>  <SCORE.RESTR>
0

>  <SCORE.RESTR.CAVITY>
0

>  <SCORE.RESTR.norm>
0

>  <SCORE.SYSTEM>
0

>  <SCORE.SYSTEM.CONST>
0

>  <SCORE.SYSTEM.DIHEDRAL>
0

>  <SCORE.SYSTEM.SOLV>
0

>  <SCORE.SYSTEM.norm>
0

>  <SCORE.heavy>
22

>  <SCORE.norm>
-0.975922

>  <RMSD>
2.424

$$$$
lig.pdb
 OpenBabel11021811523D
libRbt.so/2013.1/901 2013/11/27
 22 23  0  0  0  0  0  0  0  0999 V2000
   13.2529  -59.2706  -37.7844 O   0  0  0  0  0  0  0  0  0  0  0  0
   14.4001  -59.2615  -37.3663 C   0  0  0  0  0  0  0  0  0  0  0  0
   14.7531  -59.9284  -36.2675 N   0  0  0  0  0  0  0  0  0  0  0  0
   15.4386  -58.4735  -38.0887 C   0  0  0  0  0  0  0  0  0  0  0  0
   16.8192  -58.2926  -37.6133 C   0  0  0  0  0  0  0  0  0  0  0  0
   17.3641  -58.8461  -36.3805 N   0  0  0  0  0  0  0  0  0  0  0  0
   15.4141  -57.7912  -39.2550 N   0  0  0  0  0  0  0  0  0  0  0  0
   16.6549  -57.2508  -39.4620 C   0  0  0  0  0  0  0  0  0  0  0  0
   17.5135  -57.5544  -38.4643 N   0  0  0  0  0  0  0  0  0  0  0  0
   18.9341  -57.1514  -38.3433 C   0  0  1  0  0  0  0  0  0  0  0  0
   19.1098  -56.1511  -37.2127 C   0  0  1  0  0  0  0  0  0  0  0  0
   20.4895  -56.4653  -36.6936 C   0  0  2  0  0  0  0  0  0  0  0  0
   21.4617  -55.7769  -37.4829 O   0  0  0  0  0  0  0  0  0  0  0  0
   19.0601  -54.8092  -37.6991 O   0  0  0  0  0  0  0  0  0  0  0  0
   19.7655  -58.2745  -38.0281 O   0  0  0  0  0  0  0  0  0  0  0  0
   20.6252  -57.9568  -36.9309 C   0  0  2  0  0  0  0  0  0  0  0  0
   20.2009  -58.7235  -35.6879 C   0  0  0  0  0  0  0  0  0  0  0  0
   20.4372  -60.1123  -35.9129 O   0  0  0  0  0  0  0  0  0  0  0  0
   21.9209  -60.6818  -36.1777 P   0  0  0  0  0  0  0  0  0  0  0  0
   21.7791  -62.1851  -36.1200 O   0  0  0  0  0  0  0  0  0  0  0  0
   22.7227  -60.0902  -35.0427 O   0  0  0  0  0  0  0  0  0  0  0  0
   22.2642  -60.1416  -37.5462 O   0  0  0  0  0  0  0  0  0  0  0  0
  1  2  2  0  0  0  0
  2  4  1  0  0  0  0
  2  3  1  0  0  0  0
  4  7  1  0  0  0  0
  5  9  1  0  0  0  0
  5  4  2  0  0  0  0
  6  5  1  0  0  0  0
  8  7  2  0  0  0  0
  9  8  1  0  0  0  0
 10 15  1  0  0  0  0
 10  9  1  1  0  0  0
 10 11  1  0  0  0  0
 11 14  1  6  0  0  0
 11 12  1  0  0  0  0
 12 13  1  6  0  0  0
 15 16  1  0  0  0  0
 16 12  1  0  0  0  0
 16 17  1  1  0  0  0
 17 18  1  0  0  0  0
 18 19  1  0  0  0  0
 19 21  1  0  0  0  0
 19 20  1  0  0  0  0
 22 19  2  0  0  0  0
M  END
>  <CHROM.1>
174.34839462,-69.50590539,-175.68228756,62.14487937,170.23616954,18.93982302
-58.57068551,-37.16781958,2.84707306,-0.17021741,-0.32854016

>  <Name>
lig.pdb

>  <RI>
0

>  <Rbt.Current_Directory>
/home/itssahil/PROJECTS/Mol_Feturizer/New_Systems/rnas/5btp

>  <Rbt.Executable>
rbdock ($Id: //depot/dev/client3/rdock/2013.1/src/exe/rbdock.cxx#4 $)

>  <Rbt.Library>
libRbt.so (2013.1, Build901 2013/11/27)

>  <Rbt.Parameter_File>
/export/apps/rDock/src/rDock_2013.1_src/data/scripts/dock_solv.prm

>  <Rbt.Receptor>
prm/pocket_docking_7.prm

>  <SCORE>
-16.0021

>  <SCORE.INTER>
-16.3358

>  <SCORE.INTER.CONST>
1

>  <SCORE.INTER.POLAR>
0

>  <SCORE.INTER.ROT>
5

>  <SCORE.INTER.SOLV>
19.9649

>  <SCORE.INTER.VDW>
-24.4788

>  <SCORE.INTER.norm>
-0.742537

>  <SCORE.INTRA>
0.333682

>  <SCORE.INTRA.DIHEDRAL>
-1.45014

>  <SCORE.INTRA.DIHEDRAL.0>
4.21161

>  <SCORE.INTRA.POLAR>
0

>  <SCORE.INTRA.POLAR.0>
0

>  <SCORE.INTRA.REPUL>
0.0289929

>  <SCORE.INTRA.REPUL.0>
0

>  <SCORE.INTRA.SOLV>
2.93302

>  <SCORE.INTRA.SOLV.lig_0>
-41.4168

>  <SCORE.INTRA.VDW>
-0.552726

>  <SCORE.INTRA.VDW.0>
-1.62533

>  <SCORE.INTRA.norm>
0.0151674

>  <SCORE.RESTR>
0

>  <SCORE.RESTR.CAVITY>
0

>  <SCORE.RESTR.norm>
0

>  <SCORE.SYSTEM>
0

>  <SCORE.SYSTEM.CONST>
0

>  <SCORE.SYSTEM.DIHEDRAL>
0

>  <SCORE.SYSTEM.SOLV>
0

>  <SCORE.SYSTEM.norm>
0

>  <SCORE.heavy>
22

>  <SCORE.norm>
-0.727369

>  <RMSD>
2.427

$$$$
lig.pdb
 OpenBabel11021811523D
libRbt.so/2013.1/901 2013/11/27
 22 23  0  0  0  0  0  0  0  0999 V2000
   12.9641  -59.5078  -36.7753 O   0  0  0  0  0  0  0  0  0  0  0  0
   13.7945  -59.0169  -37.5239 C   0  0  0  0  0  0  0  0  0  0  0  0
   13.4561  -58.4912  -38.7012 N   0  0  0  0  0  0  0  0  0  0  0  0
   15.2309  -59.0144  -37.1263 C   0  0  0  0  0  0  0  0  0  0  0  0
   16.3121  -58.4302  -37.9354 C   0  0  0  0  0  0  0  0  0  0  0  0
   16.1392  -57.7817  -39.2288 N   0  0  0  0  0  0  0  0  0  0  0  0
   15.8722  -59.4822  -36.0327 N   0  0  0  0  0  0  0  0  0  0  0  0
   17.2070  -59.2095  -36.1686 C   0  0  0  0  0  0  0  0  0  0  0  0
   17.4787  -58.5685  -37.3263 N   0  0  0  0  0  0  0  0  0  0  0  0
   18.8005  -58.1119  -37.8154 C   0  0  1  0  0  0  0  0  0  0  0  0
   19.3368  -56.9941  -36.9363 C   0  0  1  0  0  0  0  0  0  0  0  0
   20.8277  -57.2100  -36.9854 C   0  0  2  0  0  0  0  0  0  0  0  0
   21.3605  -56.5783  -38.1513 O   0  0  0  0  0  0  0  0  0  0  0  0
   19.0066  -55.7124  -37.4731 O   0  0  0  0  0  0  0  0  0  0  0  0
   19.7648  -59.1699  -37.7646 O   0  0  0  0  0  0  0  0  0  0  0  0
   20.9625  -58.7133  -37.1315 C   0  0  2  0  0  0  0  0  0  0  0  0
   21.1158  -59.3586  -35.7629 C   0  0  0  0  0  0  0  0  0  0  0  0
   21.1070  -60.7754  -35.9296 O   0  0  0  0  0  0  0  0  0  0  0  0
   22.2425  -61.5290  -36.7891 P   0  0  0  0  0  0  0  0  0  0  0  0
   21.9352  -61.1869  -38.2286 O   0  0  0  0  0  0  0  0  0  0  0  0
   22.0299  -62.9825  -36.4379 O   0  0  0  0  0  0  0  0  0  0  0  0
   23.5292  -60.9321  -36.2691 O   0  0  0  0  0  0  0  0  0  0  0  0
  1  2  2  0  0  0  0
  2  4  1  0  0  0  0
  2  3  1  0  0  0  0
  4  7  1  0  0  0  0
  5  9  1  0  0  0  0
  5  4  2  0  0  0  0
  6  5  1  0  0  0  0
  8  7  2  0  0  0  0
  9  8  1  0  0  0  0
 10 15  1  0  0  0  0
 10  9  1  1  0  0  0
 10 11  1  0  0  0  0
 11 14  1  6  0  0  0
 11 12  1  0  0  0  0
 12 13  1  6  0  0  0
 15 16  1  0  0  0  0
 16 12  1  0  0  0  0
 16 17  1  1  0  0  0
 17 18  1  0  0  0  0
 18 19  1  0  0  0  0
 19 21  1  0  0  0  0
 19 20  1  0  0  0  0
 22 19  2  0  0  0  0
M  END
>  <CHROM.1>
-178.83047975,112.76865496,174.36355553,62.34982995,-72.50312821,18.97011109
-59.20884729,-37.17622858,2.84664490,-0.03899622,-0.23202381

>  <Name>
lig.pdb

>  <RI>
0

>  <Rbt.Current_Directory>
/home/itssahil/PROJECTS/Mol_Feturizer/New_Systems/rnas/5btp

>  <Rbt.Executable>
rbdock ($Id: //depot/dev/client3/rdock/2013.1/src/exe/rbdock.cxx#4 $)

>  <Rbt.Library>
libRbt.so (2013.1, Build901 2013/11/27)

>  <Rbt.Parameter_File>
/export/apps/rDock/src/rDock_2013.1_src/data/scripts/dock_solv.prm

>  <Rbt.Receptor>
prm/pocket_docking_5.prm

>  <SCORE>
-21.4318

>  <SCORE.INTER>
-20.8548

>  <SCORE.INTER.CONST>
1

>  <SCORE.INTER.POLAR>
0

>  <SCORE.INTER.ROT>
5

>  <SCORE.INTER.SOLV>
21.4939

>  <SCORE.INTER.VDW>
-28.0012

>  <SCORE.INTER.norm>
-0.947945

>  <SCORE.INTRA>
-0.577007

>  <SCORE.INTRA.DIHEDRAL>
-1.39396

>  <SCORE.INTRA.DIHEDRAL.0>
4.21161

>  <SCORE.INTRA.POLAR>
0

>  <SCORE.INTRA.POLAR.0>
0

>  <SCORE.INTRA.REPUL>
0

>  <SCORE.INTRA.REPUL.0>
0

>  <SCORE.INTRA.SOLV>
1.20819

>  <SCORE.INTRA.SOLV.lig_0>
-41.4168

>  <SCORE.INTRA.VDW>
-0.484122

>  <SCORE.INTRA.VDW.0>
-1.62533

>  <SCORE.INTRA.norm>
-0.0262276

>  <SCORE.RESTR>
0

>  <SCORE.RESTR.CAVITY>
0

>  <SCORE.RESTR.norm>
0

>  <SCORE.SYSTEM>
0

>  <SCORE.SYSTEM.CONST>
0

>  <SCORE.SYSTEM.DIHEDRAL>
0

>  <SCORE.SYSTEM.SOLV>
0

>  <SCORE.SYSTEM.norm>
0

>  <SCORE.heavy>
22

>  <SCORE.norm>
-0.974172

>  <RMSD>
2.436

$$$$
lig.pdb
 OpenBabel11021811523D
libRbt.so/2013.1/901 2013/11/27
 22 23  0  0  0  0  0  0  0  0999 V2000
   12.8669  -59.3223  -36.7877 O   0  0  0  0  0  0  0  0  0  0  0  0
   13.7330  -58.8987  -37.5370 C   0  0  0  0  0  0  0  0  0  0  0  0
   13.4411  -58.4013  -38.7388 N   0  0  0  0  0  0  0  0  0  0  0  0
   15.1605  -58.9488  -37.1116 C   0  0  0  0  0  0  0  0  0  0  0  0
   16.2821  -58.4414  -37.9176 C   0  0  0  0  0  0  0  0  0  0  0  0
   16.1629  -57.8285  -39.2341 N   0  0  0  0  0  0  0  0  0  0  0  0
   15.7595  -59.4092  -35.9911 N   0  0  0  0  0  0  0  0  0  0  0  0
   17.1078  -59.2024  -36.1095 C   0  0  0  0  0  0  0  0  0  0  0  0
   17.4298  -58.6128  -37.2815 N   0  0  0  0  0  0  0  0  0  0  0  0
   18.7800  -58.2334  -37.7589 C   0  0  1  0  0  0  0  0  0  0  0  0
   19.4559  -57.3053  -36.7631 C   0  0  1  0  0  0  0  0  0  0  0  0
   20.9132  -57.6652  -36.8995 C   0  0  2  0  0  0  0  0  0  0  0  0
   21.4806  -56.9409  -37.9929 O   0  0  0  0  0  0  0  0  0  0  0  0
   19.2517  -55.9359  -37.1138 O   0  0  0  0  0  0  0  0  0  0  0  0
   19.6259  -59.3824  -37.8857 O   0  0  0  0  0  0  0  0  0  0  0  0
   20.8817  -59.1410  -37.2465 C   0  0  2  0  0  0  0  0  0  0  0  0
   21.0000  -59.9769  -35.9814 C   0  0  0  0  0  0  0  0  0  0  0  0
   22.3429  -60.4467  -35.8761 O   0  0  0  0  0  0  0  0  0  0  0  0
   22.9275  -61.5584  -36.8852 P   0  0  0  0  0  0  0  0  0  0  0  0
   22.9603  -60.8820  -38.2361 O   0  0  0  0  0  0  0  0  0  0  0  0
   21.9228  -62.6809  -36.7777 O   0  0  0  0  0  0  0  0  0  0  0  0
   24.2903  -61.8694  -36.3122 O   0  0  0  0  0  0  0  0  0  0  0  0
  1  2  2  0  0  0  0
  2  4  1  0  0  0  0
  2  3  1  0  0  0  0
  4  7  1  0  0  0  0
  5  9  1  0  0  0  0
  5  4  2  0  0  0  0
  6  5  1  0  0  0  0
  8  7  2  0  0  0  0
  9  8  1  0  0  0  0
 10 15  1  0  0  0  0
 10  9  1  1  0  0  0
 10 11  1  0  0  0  0
 11 14  1  6  0  0  0
 11 12  1  0  0  0  0
 12 13  1  6  0  0  0
 15 16  1  0  0  0  0
 16 12  1  0  0  0  0
 16 17  1  1  0  0  0
 17 18  1  0  0  0  0
 18 19  1  0  0  0  0
 19 21  1  0  0  0  0
 19 20  1  0  0  0  0
 22 19  2  0  0  0  0
M  END
>  <CHROM.1>
-178.59754804,123.29551855,-101.37696853,-69.86720399,66.50944529,19.16475440
-59.30996040,-37.17944465,2.84631425,-0.02202668,-0.20831036

>  <Name>
lig.pdb

>  <RI>
0

>  <Rbt.Current_Directory>
/home/itssahil/PROJECTS/Mol_Feturizer/New_Systems/rnas/5btp

>  <Rbt.Executable>
rbdock ($Id: //depot/dev/client3/rdock/2013.1/src/exe/rbdock.cxx#4 $)

>  <Rbt.Library>
libRbt.so (2013.1, Build901 2013/11/27)

>  <Rbt.Parameter_File>
/export/apps/rDock/src/rDock_2013.1_src/data/scripts/dock_solv.prm

>  <Rbt.Receptor>
prm/pocket_docking_6.prm

>  <SCORE>
-18.6779

>  <SCORE.INTER>
-19.8911

>  <SCORE.INTER.CONST>
1

>  <SCORE.INTER.POLAR>
0

>  <SCORE.INTER.ROT>
5

>  <SCORE.INTER.SOLV>
21.5357

>  <SCORE.INTER.VDW>
-27.3727

>  <SCORE.INTER.norm>
-0.904143

>  <SCORE.INTRA>
1.21328

>  <SCORE.INTRA.DIHEDRAL>
2.86026

>  <SCORE.INTRA.DIHEDRAL.0>
4.21161

>  <SCORE.INTRA.POLAR>
0

>  <SCORE.INTRA.POLAR.0>
0

>  <SCORE.INTRA.REPUL>
0

>  <SCORE.INTRA.REPUL.0>
0

>  <SCORE.INTRA.SOLV>
0.44882

>  <SCORE.INTRA.SOLV.lig_0>
-41.4168

>  <SCORE.INTRA.VDW>
-0.441261

>  <SCORE.INTRA.VDW.0>
-1.62533

>  <SCORE.INTRA.norm>
0.0551491

>  <SCORE.RESTR>
0

>  <SCORE.RESTR.CAVITY>
0

>  <SCORE.RESTR.norm>
0

>  <SCORE.SYSTEM>
0

>  <SCORE.SYSTEM.CONST>
0

>  <SCORE.SYSTEM.DIHEDRAL>
0

>  <SCORE.SYSTEM.SOLV>
0

>  <SCORE.SYSTEM.norm>
0

>  <SCORE.heavy>
22

>  <SCORE.norm>
-0.848994

>  <RMSD>
2.440

$$$$
lig.pdb
 OpenBabel11021811523D
libRbt.so/2013.1/901 2013/11/27
 22 23  0  0  0  0  0  0  0  0999 V2000
   13.4300  -58.7641  -38.6352 O   0  0  0  0  0  0  0  0  0  0  0  0
   13.7814  -59.1632  -37.5360 C   0  0  0  0  0  0  0  0  0  0  0  0
   12.9158  -59.6885  -36.6691 N   0  0  0  0  0  0  0  0  0  0  0  0
   15.2130  -59.0502  -37.1371 C   0  0  0  0  0  0  0  0  0  0  0  0
   16.2502  -58.3999  -37.9533 C   0  0  0  0  0  0  0  0  0  0  0  0
   16.0329  -57.7839  -39.2558 N   0  0  0  0  0  0  0  0  0  0  0  0
   15.8846  -59.4546  -36.0364 N   0  0  0  0  0  0  0  0  0  0  0  0
   17.1962  -59.0871  -36.1749 C   0  0  0  0  0  0  0  0  0  0  0  0
   17.4226  -58.4442  -37.3412 N   0  0  0  0  0  0  0  0  0  0  0  0
   18.7085  -57.8991  -37.8354 C   0  0  1  0  0  0  0  0  0  0  0  0
   19.2974  -56.9261  -36.8273 C   0  0  1  0  0  0  0  0  0  0  0  0
   20.7826  -57.1120  -37.0046 C   0  0  2  0  0  0  0  0  0  0  0  0
   21.2367  -56.2982  -38.0879 O   0  0  0  0  0  0  0  0  0  0  0  0
   18.9292  -55.5805  -37.1335 O   0  0  0  0  0  0  0  0  0  0  0  0
   19.6772  -58.9392  -38.0133 O   0  0  0  0  0  0  0  0  0  0  0  0
   20.9121  -58.5718  -37.3937 C   0  0  2  0  0  0  0  0  0  0  0  0
   21.1559  -59.4218  -36.1563 C   0  0  0  0  0  0  0  0  0  0  0  0
   22.3563  -60.1675  -36.3517 O   0  0  0  0  0  0  0  0  0  0  0  0
   22.4363  -61.3687  -37.4224 P   0  0  0  0  0  0  0  0  0  0  0  0
   23.6524  -61.0614  -38.2652 O   0  0  0  0  0  0  0  0  0  0  0  0
   21.1244  -61.2565  -38.1621 O   0  0  0  0  0  0  0  0  0  0  0  0
   22.5740  -62.5999  -36.5578 O   0  0  0  0  0  0  0  0  0  0  0  0
  1  2  2  0  0  0  0
  2  4  1  0  0  0  0
  2  3  1  0  0  0  0
  4  7  1  0  0  0  0
  5  9  1  0  0  0  0
  5  4  2  0  0  0  0
  6  5  1  0  0  0  0
  8  7  2  0  0  0  0
  9  8  1  0  0  0  0
 10 15  1  0  0  0  0
 10  9  1  1  0  0  0
 10 11  1  0  0  0  0
 11 14  1  6  0  0  0
 11 12  1  0  0  0  0
 12 13  1  6  0  0  0
 15 16  1  0  0  0  0
 16 12  1  0  0  0  0
 16 17  1  1  0  0  0
 17 18  1  0  0  0  0
 18 19  1  0  0  0  0
 19 21  1  0  0  0  0
 19 20  1  0  0  0  0
 22 19  2  0  0  0  0
M  END
>  <CHROM.1>
4.15436856,123.95633491,-124.27689023,-69.67896861,128.42781796,19.01015136
-59.11556209,-37.37983450,2.89516452,-0.00977247,-0.08083819

>  <Name>
lig.pdb

>  <RI>
0

>  <Rbt.Current_Directory>
/home/itssahil/PROJECTS/Mol_Feturizer/New_Systems/rnas/5btp

>  <Rbt.Executable>
rbdock ($Id: //depot/dev/client3/rdock/2013.1/src/exe/rbdock.cxx#4 $)

>  <Rbt.Library>
libRbt.so (2013.1, Build901 2013/11/27)

>  <Rbt.Parameter_File>
/export/apps/rDock/src/rDock_2013.1_src/data/scripts/dock_solv.prm

>  <Rbt.Receptor>
prm/pocket_docking_7.prm

>  <SCORE>
-18.6949

>  <SCORE.INTER>
-22.3984

>  <SCORE.INTER.CONST>
1

>  <SCORE.INTER.POLAR>
0

>  <SCORE.INTER.ROT>
5

>  <SCORE.INTER.SOLV>
24.1539

>  <SCORE.INTER.VDW>
-29.9169

>  <SCORE.INTER.norm>
-1.01811

>  <SCORE.INTRA>
3.7035

>  <SCORE.INTRA.DIHEDRAL>
6.17671

>  <SCORE.INTRA.DIHEDRAL.0>
4.21161

>  <SCORE.INTRA.POLAR>
0

>  <SCORE.INTRA.POLAR.0>
0

>  <SCORE.INTRA.REPUL>
0

>  <SCORE.INTRA.REPUL.0>
0

>  <SCORE.INTRA.SOLV>
0.353664

>  <SCORE.INTRA.SOLV.lig_0>
-41.4168

>  <SCORE.INTRA.VDW>
0.438313

>  <SCORE.INTRA.VDW.0>
-1.62533

>  <SCORE.INTRA.norm>
0.168341

>  <SCORE.RESTR>
0

>  <SCORE.RESTR.CAVITY>
0

>  <SCORE.RESTR.norm>
0

>  <SCORE.SYSTEM>
0

>  <SCORE.SYSTEM.CONST>
0

>  <SCORE.SYSTEM.DIHEDRAL>
0

>  <SCORE.SYSTEM.SOLV>
0

>  <SCORE.SYSTEM.norm>
0

>  <SCORE.heavy>
22

>  <SCORE.norm>
-0.84977

>  <RMSD>
2.442

$$$$
lig.pdb
 OpenBabel11021811523D
libRbt.so/2013.1/901 2013/11/27
 22 23  0  0  0  0  0  0  0  0999 V2000
   14.9660  -59.8807  -36.1900 O   0  0  0  0  0  0  0  0  0  0  0  0
   14.6453  -59.3531  -37.2434 C   0  0  0  0  0  0  0  0  0  0  0  0
   13.4316  -59.5154  -37.7701 N   0  0  0  0  0  0  0  0  0  0  0  0
   15.6362  -58.5148  -37.9761 C   0  0  0  0  0  0  0  0  0  0  0  0
   17.0056  -58.2523  -37.5063 C   0  0  0  0  0  0  0  0  0  0  0  0
   17.5837  -58.7628  -36.2700 N   0  0  0  0  0  0  0  0  0  0  0  0
   15.5707  -57.8458  -39.1484 N   0  0  0  0  0  0  0  0  0  0  0  0
   16.7787  -57.2387  -39.3640 C   0  0  0  0  0  0  0  0  0  0  0  0
   17.6554  -57.4842  -38.3660 N   0  0  0  0  0  0  0  0  0  0  0  0
   19.0514  -57.0011  -38.2528 C   0  0  1  0  0  0  0  0  0  0  0  0
   19.2066  -56.1003  -37.0386 C   0  0  1  0  0  0  0  0  0  0  0  0
   20.6221  -56.3692  -36.5960 C   0  0  2  0  0  0  0  0  0  0  0  0
   21.5183  -55.5478  -37.3471 O   0  0  0  0  0  0  0  0  0  0  0  0
   19.0542  -54.7253  -37.3937 O   0  0  0  0  0  0  0  0  0  0  0  0
   19.9631  -58.0910  -38.0723 O   0  0  0  0  0  0  0  0  0  0  0  0
   20.8423  -57.8201  -36.9779 C   0  0  2  0  0  0  0  0  0  0  0  0
   20.5146  -58.7249  -35.8002 C   0  0  0  0  0  0  0  0  0  0  0  0
   20.6824  -60.0800  -36.2133 O   0  0  0  0  0  0  0  0  0  0  0  0
   22.1437  -60.7036  -36.4812 P   0  0  0  0  0  0  0  0  0  0  0  0
   22.7878  -59.7745  -37.4838 O   0  0  0  0  0  0  0  0  0  0  0  0
   21.8351  -62.0804  -37.0202 O   0  0  0  0  0  0  0  0  0  0  0  0
   22.7875  -60.6868  -35.1146 O   0  0  0  0  0  0  0  0  0  0  0  0
  1  2  2  0  0  0  0
  2  4  1  0  0  0  0
  2  3  1  0  0  0  0
  4  7  1  0  0  0  0
  5  9  1  0  0  0  0
  5  4  2  0  0  0  0
  6  5  1  0  0  0  0
  8  7  2  0  0  0  0
  9  8  1  0  0  0  0
 10 15  1  0  0  0  0
 10  9  1  1  0  0  0
 10 11  1  0  0  0  0
 11 14  1  6  0  0  0
 11 12  1  0  0  0  0
 12 13  1  6  0  0  0
 15 16  1  0  0  0  0
 16 12  1  0  0  0  0
 16 17  1  1  0  0  0
 17 18  1  0  0  0  0
 18 19  1  0  0  0  0
 19 21  1  0  0  0  0
 19 20  1  0  0  0  0
 22 19  2  0  0  0  0
M  END
>  <CHROM.1>
-0.82368812,-63.29095126,177.74167679,71.34209231,-54.59491881,19.12814490
-58.54684893,-37.18482200,2.87907454,-0.14379711,-0.23312767

>  <Name>
lig.pdb

>  <RI>
0

>  <Rbt.Current_Directory>
/home/itssahil/PROJECTS/Mol_Feturizer/New_Systems/rnas/5btp

>  <Rbt.Executable>
rbdock ($Id: //depot/dev/client3/rdock/2013.1/src/exe/rbdock.cxx#4 $)

>  <Rbt.Library>
libRbt.so (2013.1, Build901 2013/11/27)

>  <Rbt.Parameter_File>
/export/apps/rDock/src/rDock_2013.1_src/data/scripts/dock_solv.prm

>  <Rbt.Receptor>
prm/pocket_docking_4.prm

>  <SCORE>
-17.2772

>  <SCORE.INTER>
-16.9756

>  <SCORE.INTER.CONST>
1

>  <SCORE.INTER.POLAR>
0

>  <SCORE.INTER.ROT>
5

>  <SCORE.INTER.SOLV>
18.6469

>  <SCORE.INTER.VDW>
-24.4661

>  <SCORE.INTER.norm>
-0.77162

>  <SCORE.INTRA>
-0.301594

>  <SCORE.INTRA.DIHEDRAL>
-1.10653

>  <SCORE.INTRA.DIHEDRAL.0>
4.21161

>  <SCORE.INTRA.POLAR>
0

>  <SCORE.INTRA.POLAR.0>
0

>  <SCORE.INTRA.REPUL>
0.0089527

>  <SCORE.INTRA.REPUL.0>
0

>  <SCORE.INTRA.SOLV>
2.05282

>  <SCORE.INTRA.SOLV.lig_0>
-41.4168

>  <SCORE.INTRA.VDW>
-0.819504

>  <SCORE.INTRA.VDW.0>
-1.62533

>  <SCORE.INTRA.norm>
-0.0137088

>  <SCORE.RESTR>
0

>  <SCORE.RESTR.CAVITY>
0

>  <SCORE.RESTR.norm>
0

>  <SCORE.SYSTEM>
0

>  <SCORE.SYSTEM.CONST>
0

>  <SCORE.SYSTEM.DIHEDRAL>
0

>  <SCORE.SYSTEM.SOLV>
0

>  <SCORE.SYSTEM.norm>
0

>  <SCORE.heavy>
22

>  <SCORE.norm>
-0.785329

>  <RMSD>
2.555

$$$$
lig.pdb
 OpenBabel11021811523D
libRbt.so/2013.1/901 2013/11/27
 22 23  0  0  0  0  0  0  0  0999 V2000
   14.9872  -59.8513  -36.1292 O   0  0  0  0  0  0  0  0  0  0  0  0
   14.6768  -59.3800  -37.2121 C   0  0  0  0  0  0  0  0  0  0  0  0
   13.4848  -59.6092  -37.7628 N   0  0  0  0  0  0  0  0  0  0  0  0
   15.6566  -58.5365  -37.9536 C   0  0  0  0  0  0  0  0  0  0  0  0
   17.0237  -58.2543  -37.4887 C   0  0  0  0  0  0  0  0  0  0  0  0
   17.6100  -58.7480  -36.2495 N   0  0  0  0  0  0  0  0  0  0  0  0
   15.5811  -57.8779  -39.1313 N   0  0  0  0  0  0  0  0  0  0  0  0
   16.7816  -57.2587  -39.3542 C   0  0  0  0  0  0  0  0  0  0  0  0
   17.6630  -57.4859  -38.3560 N   0  0  0  0  0  0  0  0  0  0  0  0
   19.0535  -56.9858  -38.2496 C   0  0  1  0  0  0  0  0  0  0  0  0
   19.2033  -56.0818  -37.0371 C   0  0  1  0  0  0  0  0  0  0  0  0
   20.6239  -56.3330  -36.6005 C   0  0  2  0  0  0  0  0  0  0  0  0
   21.5068  -55.5018  -37.3566 O   0  0  0  0  0  0  0  0  0  0  0  0
   19.0327  -54.7092  -37.3931 O   0  0  0  0  0  0  0  0  0  0  0  0
   19.9792  -58.0645  -38.0718 O   0  0  0  0  0  0  0  0  0  0  0  0
   20.8598  -57.7816  -36.9818 C   0  0  2  0  0  0  0  0  0  0  0  0
   20.5483  -58.6889  -35.8016 C   0  0  0  0  0  0  0  0  0  0  0  0
   20.6748  -60.0439  -36.2296 O   0  0  0  0  0  0  0  0  0  0  0  0
   22.1169  -60.7124  -36.4930 P   0  0  0  0  0  0  0  0  0  0  0  0
   22.7755  -59.8279  -37.5261 O   0  0  0  0  0  0  0  0  0  0  0  0
   21.7678  -62.0947  -36.9916 O   0  0  0  0  0  0  0  0  0  0  0  0
   22.7736  -60.6755  -35.1330 O   0  0  0  0  0  0  0  0  0  0  0  0
  1  2  2  0  0  0  0
  2  4  1  0  0  0  0
  2  3  1  0  0  0  0
  4  7  1  0  0  0  0
  5  9  1  0  0  0  0
  5  4  2  0  0  0  0
  6  5  1  0  0  0  0
  8  7  2  0  0  0  0
  9  8  1  0  0  0  0
 10 15  1  0  0  0  0
 10  9  1  1  0  0  0
 10 11  1  0  0  0  0
 11 14  1  6  0  0  0
 11 12  1  0  0  0  0
 12 13  1  6  0  0  0
 15 16  1  0  0  0  0
 16 12  1  0  0  0  0
 16 17  1  1  0  0  0
 17 18  1  0  0  0  0
 18 19  1  0  0  0  0
 19 21  1  0  0  0  0
 19 20  1  0  0  0  0
 22 19  2  0  0  0  0
M  END
>  <CHROM.1>
2.09862887,-62.86270716,175.28165300,73.66625988,-57.08496036,19.12987484
-58.54453338,-37.18063056,2.88250676,-0.14176722,-0.22951087

>  <Name>
lig.pdb

>  <RI>
0

>  <Rbt.Current_Directory>
/home/itssahil/PROJECTS/Mol_Feturizer/New_Systems/rnas/5btp

>  <Rbt.Executable>
rbdock ($Id: //depot/dev/client3/rdock/2013.1/src/exe/rbdock.cxx#4 $)

>  <Rbt.Library>
libRbt.so (2013.1, Build901 2013/11/27)

>  <Rbt.Parameter_File>
/export/apps/rDock/src/rDock_2013.1_src/data/scripts/dock_solv.prm

>  <Rbt.Receptor>
prm/pocket_docking_4.prm

>  <SCORE>
-17.2928

>  <SCORE.INTER>
-16.9922

>  <SCORE.INTER.CONST>
1

>  <SCORE.INTER.POLAR>
0

>  <SCORE.INTER.ROT>
5

>  <SCORE.INTER.SOLV>
18.7234

>  <SCORE.INTER.VDW>
-24.5026

>  <SCORE.INTER.norm>
-0.772374

>  <SCORE.INTRA>
-0.300612

>  <SCORE.INTRA.DIHEDRAL>
-0.797151

>  <SCORE.INTRA.DIHEDRAL.0>
4.21161

>  <SCORE.INTRA.POLAR>
0

>  <SCORE.INTRA.POLAR.0>
0

>  <SCORE.INTRA.REPUL>
0.0052025

>  <SCORE.INTRA.REPUL.0>
0

>  <SCORE.INTRA.SOLV>
2.04097

>  <SCORE.INTRA.SOLV.lig_0>
-41.4168

>  <SCORE.INTRA.VDW>
-0.948536

>  <SCORE.INTRA.VDW.0>
-1.62533

>  <SCORE.INTRA.norm>
-0.0136642

>  <SCORE.RESTR>
0

>  <SCORE.RESTR.CAVITY>
0

>  <SCORE.RESTR.norm>
0

>  <SCORE.SYSTEM>
0

>  <SCORE.SYSTEM.CONST>
0

>  <SCORE.SYSTEM.DIHEDRAL>
0

>  <SCORE.SYSTEM.SOLV>
0

>  <SCORE.SYSTEM.norm>
0

>  <SCORE.heavy>
22

>  <SCORE.norm>
-0.786039

>  <RMSD>
2.563

$$$$
lig.pdb
 OpenBabel11021811523D
libRbt.so/2013.1/901 2013/11/27
 22 23  0  0  0  0  0  0  0  0999 V2000
   15.0550  -59.8846  -36.1289 O   0  0  0  0  0  0  0  0  0  0  0  0
   14.7415  -59.3742  -37.1930 C   0  0  0  0  0  0  0  0  0  0  0  0
   13.5434  -59.5735  -37.7422 N   0  0  0  0  0  0  0  0  0  0  0  0
   15.7240  -58.5154  -37.9130 C   0  0  0  0  0  0  0  0  0  0  0  0
   17.0973  -58.2624  -37.4493 C   0  0  0  0  0  0  0  0  0  0  0  0
   17.6877  -58.8034  -36.2320 N   0  0  0  0  0  0  0  0  0  0  0  0
   15.6464  -57.8166  -39.0670 N   0  0  0  0  0  0  0  0  0  0  0  0
   16.8514  -57.2017  -39.2781 C   0  0  0  0  0  0  0  0  0  0  0  0
   17.7377  -57.4711  -38.2949 N   0  0  0  0  0  0  0  0  0  0  0  0
   19.1338  -56.9883  -38.1823 C   0  0  1  0  0  0  0  0  0  0  0  0
   19.3103  -56.1575  -36.9219 C   0  0  1  0  0  0  0  0  0  0  0  0
   20.7354  -56.4442  -36.5238 C   0  0  2  0  0  0  0  0  0  0  0  0
   21.6131  -55.5769  -37.2445 O   0  0  0  0  0  0  0  0  0  0  0  0
   19.1454  -54.7653  -37.1947 O   0  0  0  0  0  0  0  0  0  0  0  0
   20.0532  -58.0822  -38.0826 O   0  0  0  0  0  0  0  0  0  0  0  0
   20.9533  -57.8698  -36.9924 C   0  0  2  0  0  0  0  0  0  0  0  0
   20.6530  -58.8420  -35.8621 C   0  0  0  0  0  0  0  0  0  0  0  0
   20.7568  -60.1706  -36.3713 O   0  0  0  0  0  0  0  0  0  0  0  0
   22.1867  -60.8381  -36.6969 P   0  0  0  0  0  0  0  0  0  0  0  0
   22.8892  -59.8421  -37.5903 O   0  0  0  0  0  0  0  0  0  0  0  0
   21.8132  -62.1309  -37.3826 O   0  0  0  0  0  0  0  0  0  0  0  0
   22.8154  -61.0017  -35.3330 O   0  0  0  0  0  0  0  0  0  0  0  0
  1  2  2  0  0  0  0
  2  4  1  0  0  0  0
  2  3  1  0  0  0  0
  4  7  1  0  0  0  0
  5  9  1  0  0  0  0
  5  4  2  0  0  0  0
  6  5  1  0  0  0  0
  8  7  2  0  0  0  0
  9  8  1  0  0  0  0
 10 15  1  0  0  0  0
 10  9  1  1  0  0  0
 10 11  1  0  0  0  0
 11 14  1  6  0  0  0
 11 12  1  0  0  0  0
 12 13  1  6  0  0  0
 15 16  1  0  0  0  0
 16 12  1  0  0  0  0
 16 17  1  1  0  0  0
 17 18  1  0  0  0  0
 18 19  1  0  0  0  0
 19 21  1  0  0  0  0
 19 20  1  0  0  0  0
 22 19  2  0  0  0  0
M  END
>  <CHROM.1>
2.12117543,-61.38169606,175.07813158,73.81658622,-52.24668750,19.20950322
-58.60168759,-37.20306194,2.87544562,-0.12095481,-0.17285278

>  <Name>
lig.pdb

>  <RI>
0

>  <Rbt.Current_Directory>
/home/itssahil/PROJECTS/Mol_Feturizer/New_Systems/rnas/5btp

>  <Rbt.Executable>
rbdock ($Id: //depot/dev/client3/rdock/2013.1/src/exe/rbdock.cxx#4 $)

>  <Rbt.Library>
libRbt.so (2013.1, Build901 2013/11/27)

>  <Rbt.Parameter_File>
/export/apps/rDock/src/rDock_2013.1_src/data/scripts/dock_solv.prm

>  <Rbt.Receptor>
prm/pocket_docking_5.prm

>  <SCORE>
-17.5732

>  <SCORE.INTER>
-17.3375

>  <SCORE.INTER.CONST>
1

>  <SCORE.INTER.POLAR>
0

>  <SCORE.INTER.ROT>
5

>  <SCORE.INTER.SOLV>
18.8643

>  <SCORE.INTER.VDW>
-24.7797

>  <SCORE.INTER.norm>
-0.788066

>  <SCORE.INTRA>
-0.235782

>  <SCORE.INTRA.DIHEDRAL>
-0.685836

>  <SCORE.INTRA.DIHEDRAL.0>
4.21161

>  <SCORE.INTRA.POLAR>
0

>  <SCORE.INTRA.POLAR.0>
0

>  <SCORE.INTRA.REPUL>
0

>  <SCORE.INTRA.REPUL.0>
0

>  <SCORE.INTRA.SOLV>
2.00251

>  <SCORE.INTRA.SOLV.lig_0>
-41.4168

>  <SCORE.INTRA.VDW>
-0.894119

>  <SCORE.INTRA.VDW.0>
-1.62533

>  <SCORE.INTRA.norm>
-0.0107174

>  <SCORE.RESTR>
0

>  <SCORE.RESTR.CAVITY>
0

>  <SCORE.RESTR.norm>
0

>  <SCORE.SYSTEM>
0

>  <SCORE.SYSTEM.CONST>
0

>  <SCORE.SYSTEM.DIHEDRAL>
0

>  <SCORE.SYSTEM.SOLV>
0

>  <SCORE.SYSTEM.norm>
0

>  <SCORE.heavy>
22

>  <SCORE.norm>
-0.798784

>  <RMSD>
2.627

$$$$
lig.pdb
 OpenBabel11021811523D
libRbt.so/2013.1/901 2013/11/27
 22 23  0  0  0  0  0  0  0  0999 V2000
   13.5555  -59.5152  -38.0256 O   0  0  0  0  0  0  0  0  0  0  0  0
   14.6431  -59.3177  -37.5069 C   0  0  0  0  0  0  0  0  0  0  0  0
   14.9831  -59.8844  -36.3493 N   0  0  0  0  0  0  0  0  0  0  0  0
   15.6186  -58.4073  -38.1709 C   0  0  0  0  0  0  0  0  0  0  0  0
   16.9667  -58.1217  -37.6553 C   0  0  0  0  0  0  0  0  0  0  0  0
   17.5356  -58.6761  -36.4337 N   0  0  0  0  0  0  0  0  0  0  0  0
   15.5547  -57.6800  -39.3081 N   0  0  0  0  0  0  0  0  0  0  0  0
   16.7442  -57.0199  -39.4626 C   0  0  0  0  0  0  0  0  0  0  0  0
   17.6069  -57.2867  -38.4580 N   0  0  0  0  0  0  0  0  0  0  0  0
   18.9814  -56.7611  -38.2863 C   0  0  1  0  0  0  0  0  0  0  0  0
   19.1010  -55.9999  -36.9763 C   0  0  1  0  0  0  0  0  0  0  0  0
   20.5275  -56.2577  -36.5635 C   0  0  2  0  0  0  0  0  0  0  0  0
   21.3865  -55.3184  -37.2130 O   0  0  0  0  0  0  0  0  0  0  0  0
   18.8897  -54.6010  -37.1717 O   0  0  0  0  0  0  0  0  0  0  0  0
   19.9389  -57.8251  -38.2294 O   0  0  0  0  0  0  0  0  0  0  0  0
   20.8081  -57.6445  -37.1088 C   0  0  2  0  0  0  0  0  0  0  0  0
   20.5215  -58.6916  -36.0437 C   0  0  0  0  0  0  0  0  0  0  0  0
   20.6248  -59.9825  -36.6420 O   0  0  0  0  0  0  0  0  0  0  0  0
   22.0549  -60.6330  -36.9988 P   0  0  0  0  0  0  0  0  0  0  0  0
   21.7759  -61.5949  -38.1304 O   0  0  0  0  0  0  0  0  0  0  0  0
   22.4613  -61.2982  -35.7051 O   0  0  0  0  0  0  0  0  0  0  0  0
   22.8947  -59.4396  -37.3898 O   0  0  0  0  0  0  0  0  0  0  0  0
  1  2  2  0  0  0  0
  2  4  1  0  0  0  0
  2  3  1  0  0  0  0
  4  7  1  0  0  0  0
  5  9  1  0  0  0  0
  5  4  2  0  0  0  0
  6  5  1  0  0  0  0
  8  7  2  0  0  0  0
  9  8  1  0  0  0  0
 10 15  1  0  0  0  0
 10  9  1  1  0  0  0
 10 11  1  0  0  0  0
 11 14  1  6  0  0  0
 11 12  1  0  0  0  0
 12 13  1  6  0  0  0
 15 16  1  0  0  0  0
 16 12  1  0  0  0  0
 16 17  1  1  0  0  0
 17 18  1  0  0  0  0
 18 19  1  0  0  0  0
 19 21  1  0  0  0  0
 19 20  1  0  0  0  0
 22 19  2  0  0  0  0
M  END
>  <CHROM.1>
-178.47109406,-59.45841762,172.43570622,75.00407672,-154.18703790,19.06546937
-58.42945653,-37.40774787,2.90074602,-0.14191548,-0.10383479

>  <Name>
lig.pdb

>  <RI>
0

>  <Rbt.Current_Directory>
/home/itssahil/PROJECTS/Mol_Feturizer/New_Systems/rnas/5btp

>  <Rbt.Executable>
rbdock ($Id: //depot/dev/client3/rdock/2013.1/src/exe/rbdock.cxx#4 $)

>  <Rbt.Library>
libRbt.so (2013.1, Build901 2013/11/27)

>  <Rbt.Parameter_File>
/export/apps/rDock/src/rDock_2013.1_src/data/scripts/dock_solv.prm

>  <Rbt.Receptor>
prm/pocket_docking_7.prm

>  <SCORE>
-16.0835

>  <SCORE.INTER>
-17.2177

>  <SCORE.INTER.CONST>
1

>  <SCORE.INTER.POLAR>
0

>  <SCORE.INTER.ROT>
5

>  <SCORE.INTER.SOLV>
21.2288

>  <SCORE.INTER.VDW>
-25.4881

>  <SCORE.INTER.norm>
-0.782625

>  <SCORE.INTRA>
1.13428

>  <SCORE.INTRA.DIHEDRAL>
0.42305

>  <SCORE.INTRA.DIHEDRAL.0>
4.21161

>  <SCORE.INTRA.POLAR>
0

>  <SCORE.INTRA.POLAR.0>
0

>  <SCORE.INTRA.REPUL>
0

>  <SCORE.INTRA.REPUL.0>
0

>  <SCORE.INTRA.SOLV>
2.79477

>  <SCORE.INTRA.SOLV.lig_0>
-41.4168

>  <SCORE.INTRA.VDW>
-0.474634

>  <SCORE.INTRA.VDW.0>
-1.62533

>  <SCORE.INTRA.norm>
0.051558

>  <SCORE.RESTR>
0

>  <SCORE.RESTR.CAVITY>
0

>  <SCORE.RESTR.norm>
0

>  <SCORE.SYSTEM>
0

>  <SCORE.SYSTEM.CONST>
0

>  <SCORE.SYSTEM.DIHEDRAL>
0

>  <SCORE.SYSTEM.SOLV>
0

>  <SCORE.SYSTEM.norm>
0

>  <SCORE.heavy>
22

>  <SCORE.norm>
-0.731067

>  <RMSD>
2.745

$$$$
lig.pdb
 OpenBabel11021811523D
libRbt.so/2013.1/901 2013/11/27
 22 23  0  0  0  0  0  0  0  0999 V2000
   14.9760  -60.0314  -36.1734 O   0  0  0  0  0  0  0  0  0  0  0  0
   14.7420  -59.3934  -37.1879 C   0  0  0  0  0  0  0  0  0  0  0  0
   13.5399  -59.4044  -37.7637 N   0  0  0  0  0  0  0  0  0  0  0  0
   15.8281  -58.5890  -37.8161 C   0  0  0  0  0  0  0  0  0  0  0  0
   17.1826  -58.4498  -37.2585 C   0  0  0  0  0  0  0  0  0  0  0  0
   17.6521  -59.0661  -36.0244 N   0  0  0  0  0  0  0  0  0  0  0  0
   15.8761  -57.8546  -38.9495 N   0  0  0  0  0  0  0  0  0  0  0  0
   17.1329  -57.3237  -39.0638 C   0  0  0  0  0  0  0  0  0  0  0  0
   17.9316  -57.6844  -38.0358 N   0  0  0  0  0  0  0  0  0  0  0  0
   19.3481  -57.3081  -37.8194 C   0  0  1  0  0  0  0  0  0  0  0  0
   19.5506  -56.7844  -36.4071 C   0  0  1  0  0  0  0  0  0  0  0  0
   20.9557  -57.2221  -36.0816 C   0  0  2  0  0  0  0  0  0  0  0  0
   21.8823  -56.2622  -36.5937 O   0  0  0  0  0  0  0  0  0  0  0  0
   19.4565  -55.3599  -36.3669 O   0  0  0  0  0  0  0  0  0  0  0  0
   20.2123  -58.4415  -37.9628 O   0  0  0  0  0  0  0  0  0  0  0  0
   21.1095  -58.5188  -36.8524 C   0  0  2  0  0  0  0  0  0  0  0  0
   20.7499  -59.6995  -35.9638 C   0  0  0  0  0  0  0  0  0  0  0  0
   21.7533  -60.7017  -36.1187 O   0  0  0  0  0  0  0  0  0  0  0  0
   22.0398  -61.3926  -37.5458 P   0  0  0  0  0  0  0  0  0  0  0  0
   20.7795  -61.1689  -38.3489 O   0  0  0  0  0  0  0  0  0  0  0  0
   22.2959  -62.8361  -37.1825 O   0  0  0  0  0  0  0  0  0  0  0  0
   23.2467  -60.6442  -38.0612 O   0  0  0  0  0  0  0  0  0  0  0  0
  1  2  2  0  0  0  0
  2  4  1  0  0  0  0
  2  3  1  0  0  0  0
  4  7  1  0  0  0  0
  5  9  1  0  0  0  0
  5  4  2  0  0  0  0
  6  5  1  0  0  0  0
  8  7  2  0  0  0  0
  9  8  1  0  0  0  0
 10 15  1  0  0  0  0
 10  9  1  1  0  0  0
 10 11  1  0  0  0  0
 11 14  1  6  0  0  0
 11 12  1  0  0  0  0
 12 13  1  6  0  0  0
 15 16  1  0  0  0  0
 16 12  1  0  0  0  0
 16 17  1  1  0  0  0
 17 18  1  0  0  0  0
 18 19  1  0  0  0  0
 19 21  1  0  0  0  0
 19 20  1  0  0  0  0
 22 19  2  0  0  0  0
M  END
>  <CHROM.1>
-3.05075410,-49.82417315,-133.99050151,-61.05202989,-21.12516043,19.28928951
-59.00681358,-37.25820910,2.84206853,-0.07942244,0.09375004

>  <Name>
lig.pdb

>  <RI>
0

>  <Rbt.Current_Directory>
/home/itssahil/PROJECTS/Mol_Feturizer/New_Systems/rnas/5btp

>  <Rbt.Executable>
rbdock ($Id: //depot/dev/client3/rdock/2013.1/src/exe/rbdock.cxx#4 $)

>  <Rbt.Library>
libRbt.so (2013.1, Build901 2013/11/27)

>  <Rbt.Parameter_File>
/export/apps/rDock/src/rDock_2013.1_src/data/scripts/dock_solv.prm

>  <Rbt.Receptor>
prm/pocket_docking_8.prm

>  <SCORE>
-14.8752

>  <SCORE.INTER>
-17.6383

>  <SCORE.INTER.CONST>
1

>  <SCORE.INTER.POLAR>
0

>  <SCORE.INTER.ROT>
5

>  <SCORE.INTER.SOLV>
22.0192

>  <SCORE.INTER.VDW>
-26.0319

>  <SCORE.INTER.norm>
-0.801742

>  <SCORE.INTRA>
2.76311

>  <SCORE.INTRA.DIHEDRAL>
4.54982

>  <SCORE.INTRA.DIHEDRAL.0>
4.21161

>  <SCORE.INTRA.POLAR>
0

>  <SCORE.INTRA.POLAR.0>
0

>  <SCORE.INTRA.REPUL>
0

>  <SCORE.INTRA.REPUL.0>
0

>  <SCORE.INTRA.SOLV>
2.31116

>  <SCORE.INTRA.SOLV.lig_0>
-41.4168

>  <SCORE.INTRA.VDW>
-0.667387

>  <SCORE.INTRA.VDW.0>
-1.62533

>  <SCORE.INTRA.norm>
0.125596

>  <SCORE.RESTR>
0

>  <SCORE.RESTR.CAVITY>
0

>  <SCORE.RESTR.norm>
0

>  <SCORE.SYSTEM>
0

>  <SCORE.SYSTEM.CONST>
0

>  <SCORE.SYSTEM.DIHEDRAL>
0

>  <SCORE.SYSTEM.SOLV>
0

>  <SCORE.SYSTEM.norm>
0

>  <SCORE.heavy>
22

>  <SCORE.norm>
-0.676146

>  <RMSD>
3.025

$$$$
lig.pdb
 OpenBabel11021811523D
libRbt.so/2013.1/901 2013/11/27
 22 23  0  0  0  0  0  0  0  0999 V2000
   15.9676  -58.5786  -38.8932 O   0  0  0  0  0  0  0  0  0  0  0  0
   16.7258  -57.6253  -38.9791 C   0  0  0  0  0  0  0  0  0  0  0  0
   16.3747  -56.5021  -39.6051 N   0  0  0  0  0  0  0  0  0  0  0  0
   18.0893  -57.7158  -38.3842 C   0  0  0  0  0  0  0  0  0  0  0  0
   18.9989  -56.5707  -38.2224 C   0  0  0  0  0  0  0  0  0  0  0  0
   18.7051  -55.1998  -38.6196 N   0  0  0  0  0  0  0  0  0  0  0  0
   18.7911  -58.7514  -37.8730 N   0  0  0  0  0  0  0  0  0  0  0  0
   20.0036  -58.2792  -37.4470 C   0  0  0  0  0  0  0  0  0  0  0  0
   20.1337  -56.9513  -37.6580 N   0  0  0  0  0  0  0  0  0  0  0  0
   21.2970  -56.0954  -37.3274 C   0  0  1  0  0  0  0  0  0  0  0  0
   21.5952  -56.1536  -35.8383 C   0  0  1  0  0  0  0  0  0  0  0  0
   23.0931  -55.9942  -35.7862 C   0  0  2  0  0  0  0  0  0  0  0  0
   23.4239  -54.6044  -35.8203 O   0  0  0  0  0  0  0  0  0  0  0  0
   20.9609  -55.0793  -35.1430 O   0  0  0  0  0  0  0  0  0  0  0  0
   22.4790  -56.5470  -37.9988 O   0  0  0  0  0  0  0  0  0  0  0  0
   23.5629  -56.6467  -37.0718 C   0  0  2  0  0  0  0  0  0  0  0  0
   23.9101  -58.1057  -36.8196 C   0  0  0  0  0  0  0  0  0  0  0  0
   22.7084  -58.8064  -36.5032 O   0  0  0  0  0  0  0  0  0  0  0  0
   22.7023  -60.3985  -36.2563 P   0  0  0  0  0  0  0  0  0  0  0  0
   21.2842  -60.7261  -35.8500 O   0  0  0  0  0  0  0  0  0  0  0  0
   23.7204  -60.5786  -35.1553 O   0  0  0  0  0  0  0  0  0  0  0  0
   23.1110  -60.9623  -37.5970 O   0  0  0  0  0  0  0  0  0  0  0  0
  1  2  2  0  0  0  0
  2  4  1  0  0  0  0
  2  3  1  0  0  0  0
  4  7  1  0  0  0  0
  5  9  1  0  0  0  0
  5  4  2  0  0  0  0
  6  5  1  0  0  0  0
  8  7  2  0  0  0  0
  9  8  1  0  0  0  0
 10 15  1  0  0  0  0
 10  9  1  1  0  0  0
 10 11  1  0  0  0  0
 11 14  1  1  0  0  0
 11 12  1  0  0  0  0
 12 13  1  6  0  0  0
 15 16  1  0  0  0  0
 16 12  1  0  0  0  0
 16 17  1  1  0  0  0
 17 18  1  0  0  0  0
 18 19  1  0  0  0  0
 19 21  1  0  0  0  0
 19 20  1  0  0  0  0
 22 19  2  0  0  0  0
M  END
>  <CHROM.1>
-169.13325625,121.08900200,67.16172543,176.62715753,175.79067895,20.97866388
-57.78045520,-37.12598312,2.88714740,-0.41422137,0.01505283

>  <Name>
lig.pdb

>  <RI>
0

>  <Rbt.Current_Directory>
/home/itssahil/PROJECTS/Mol_Feturizer/New_Systems/rnas/5btp

>  <Rbt.Executable>
rbdock ($Id: //depot/dev/client3/rdock/2013.1/src/exe/rbdock.cxx#4 $)

>  <Rbt.Library>
libRbt.so (2013.1, Build901 2013/11/27)

>  <Rbt.Parameter_File>
/export/apps/rDock/src/rDock_2013.1_src/data/scripts/dock_solv.prm

>  <Rbt.Receptor>
prm/pocket_docking_4.prm

>  <SCORE>
-9.68831

>  <SCORE.INTER>
-8.53296

>  <SCORE.INTER.CONST>
1

>  <SCORE.INTER.POLAR>
0

>  <SCORE.INTER.ROT>
5

>  <SCORE.INTER.SOLV>
16.2307

>  <SCORE.INTER.VDW>
-18.0322

>  <SCORE.INTER.norm>
-0.387862

>  <SCORE.INTRA>
-1.15535

>  <SCORE.INTRA.DIHEDRAL>
-1.1265

>  <SCORE.INTRA.DIHEDRAL.0>
4.21161

>  <SCORE.INTRA.POLAR>
0

>  <SCORE.INTRA.POLAR.0>
0

>  <SCORE.INTRA.REPUL>
0

>  <SCORE.INTRA.REPUL.0>
0

>  <SCORE.INTRA.SOLV>
1.17298

>  <SCORE.INTRA.SOLV.lig_0>
-41.4168

>  <SCORE.INTRA.VDW>
-1.17858

>  <SCORE.INTRA.VDW.0>
-1.62533

>  <SCORE.INTRA.norm>
-0.0525157

>  <SCORE.RESTR>
0

>  <SCORE.RESTR.CAVITY>
0

>  <SCORE.RESTR.norm>
0

>  <SCORE.SYSTEM>
0

>  <SCORE.SYSTEM.CONST>
0

>  <SCORE.SYSTEM.DIHEDRAL>
0

>  <SCORE.SYSTEM.SOLV>
0

>  <SCORE.SYSTEM.norm>
0

>  <SCORE.heavy>
22

>  <SCORE.norm>
-0.440378

>  <RMSD>
3.248

$$$$
lig.pdb
 OpenBabel11021811523D
libRbt.so/2013.1/901 2013/11/27
 22 23  0  0  0  0  0  0  0  0999 V2000
   13.1225  -58.4214  -39.1233 O   0  0  0  0  0  0  0  0  0  0  0  0
   13.8952  -58.8376  -38.2743 C   0  0  0  0  0  0  0  0  0  0  0  0
   13.4938  -59.6488  -37.2957 N   0  0  0  0  0  0  0  0  0  0  0  0
   15.3255  -58.4207  -38.3157 C   0  0  0  0  0  0  0  0  0  0  0  0
   16.3105  -58.7391  -37.2702 C   0  0  0  0  0  0  0  0  0  0  0  0
   16.0339  -59.4945  -36.0552 N   0  0  0  0  0  0  0  0  0  0  0  0
   16.0432  -57.7238  -39.2242 N   0  0  0  0  0  0  0  0  0  0  0  0
   17.3320  -57.6293  -38.7718 C   0  0  0  0  0  0  0  0  0  0  0  0
   17.4986  -58.2468  -37.5819 N   0  0  0  0  0  0  0  0  0  0  0  0
   18.7457  -58.3558  -36.7895 C   0  0  1  0  0  0  0  0  0  0  0  0
   19.9328  -58.6274  -37.6988 C   0  0  1  0  0  0  0  0  0  0  0  0
   21.0666  -57.9277  -36.9940 C   0  0  2  0  0  0  0  0  0  0  0  0
   21.6081  -58.7916  -35.9928 O   0  0  0  0  0  0  0  0  0  0  0  0
   20.2003  -60.0272  -37.7933 O   0  0  0  0  0  0  0  0  0  0  0  0
   19.0299  -57.1322  -36.1010 O   0  0  0  0  0  0  0  0  0  0  0  0
   20.3902  -56.7503  -36.3190 C   0  0  2  0  0  0  0  0  0  0  0  0
   20.4576  -55.5249  -37.2173 C   0  0  0  0  0  0  0  0  0  0  0  0
   21.5764  -54.7350  -36.8181 O   0  0  0  0  0  0  0  0  0  0  0  0
   23.0883  -55.2545  -37.0188 P   0  0  0  0  0  0  0  0  0  0  0  0
   23.2663  -56.3473  -35.9903 O   0  0  0  0  0  0  0  0  0  0  0  0
   23.9135  -54.0167  -36.7579 O   0  0  0  0  0  0  0  0  0  0  0  0
   23.1052  -55.7386  -38.4498 O   0  0  0  0  0  0  0  0  0  0  0  0
  1  2  2  0  0  0  0
  2  4  1  0  0  0  0
  2  3  1  0  0  0  0
  4  7  1  0  0  0  0
  5  9  1  0  0  0  0
  5  4  2  0  0  0  0
  6  5  1  0  0  0  0
  8  7  2  0  0  0  0
  9  8  1  0  0  0  0
 10 15  1  0  0  0  0
 10  9  1  6  0  0  0
 10 11  1  0  0  0  0
 11 14  1  1  0  0  0
 11 12  1  0  0  0  0
 12 13  1  1  0  0  0
 15 16  1  0  0  0  0
 16 12  1  0  0  0  0
 16 17  1  6  0  0  0
 17 18  1  0  0  0  0
 18 19  1  0  0  0  0
 19 21  1  0  0  0  0
 19 20  1  0  0  0  0
 22 19  2  0  0  0  0
M  END
>  <CHROM.1>
173.12757345,139.04596364,-96.21195246,67.50137161,-72.11660893,19.24679949
-57.38809025,-37.31833937,2.83528192,0.26571046,2.78974591

>  <Name>
lig.pdb

>  <RI>
0

>  <Rbt.Current_Directory>
/home/itssahil/PROJECTS/Mol_Feturizer/New_Systems/rnas/5btp

>  <Rbt.Executable>
rbdock ($Id: //depot/dev/client3/rdock/2013.1/src/exe/rbdock.cxx#4 $)

>  <Rbt.Library>
libRbt.so (2013.1, Build901 2013/11/27)

>  <Rbt.Parameter_File>
/export/apps/rDock/src/rDock_2013.1_src/data/scripts/dock_solv.prm

>  <Rbt.Receptor>
prm/pocket_docking_6.prm

>  <SCORE>
-15.1768

>  <SCORE.INTER>
-16.8012

>  <SCORE.INTER.CONST>
1

>  <SCORE.INTER.POLAR>
0

>  <SCORE.INTER.ROT>
5

>  <SCORE.INTER.SOLV>
22.3683

>  <SCORE.INTER.VDW>
-25.5902

>  <SCORE.INTER.norm>
-0.763691

>  <SCORE.INTRA>
1.62435

>  <SCORE.INTRA.DIHEDRAL>
2.34355

>  <SCORE.INTRA.DIHEDRAL.0>
4.21161

>  <SCORE.INTRA.POLAR>
0

>  <SCORE.INTRA.POLAR.0>
0

>  <SCORE.INTRA.REPUL>
0

>  <SCORE.INTRA.REPUL.0>
0

>  <SCORE.INTRA.SOLV>
1.83774

>  <SCORE.INTRA.SOLV.lig_0>
-41.4168

>  <SCORE.INTRA.VDW>
-0.466292

>  <SCORE.INTRA.VDW.0>
-1.62533

>  <SCORE.INTRA.norm>
0.0738342

>  <SCORE.RESTR>
0

>  <SCORE.RESTR.CAVITY>
0

>  <SCORE.RESTR.norm>
0

>  <SCORE.SYSTEM>
0

>  <SCORE.SYSTEM.CONST>
0

>  <SCORE.SYSTEM.DIHEDRAL>
0

>  <SCORE.SYSTEM.SOLV>
0

>  <SCORE.SYSTEM.norm>
0

>  <SCORE.heavy>
22

>  <SCORE.norm>
-0.689857

>  <RMSD>
3.301

$$$$
lig.pdb
 OpenBabel11021811523D
libRbt.so/2013.1/901 2013/11/27
 22 23  0  0  0  0  0  0  0  0999 V2000
   13.1336  -58.4140  -39.1091 O   0  0  0  0  0  0  0  0  0  0  0  0
   13.9119  -58.8483  -38.2744 C   0  0  0  0  0  0  0  0  0  0  0  0
   13.5174  -59.6823  -37.3122 N   0  0  0  0  0  0  0  0  0  0  0  0
   15.3413  -58.4283  -38.3147 C   0  0  0  0  0  0  0  0  0  0  0  0
   16.3227  -58.7320  -37.2613 C   0  0  0  0  0  0  0  0  0  0  0  0
   16.0427  -59.4737  -36.0387 N   0  0  0  0  0  0  0  0  0  0  0  0
   16.0612  -57.7404  -39.2283 N   0  0  0  0  0  0  0  0  0  0  0  0
   17.3478  -57.6374  -38.7715 C   0  0  0  0  0  0  0  0  0  0  0  0
   17.5109  -58.2405  -37.5738 N   0  0  0  0  0  0  0  0  0  0  0  0
   18.7548  -58.3370  -36.7748 C   0  0  1  0  0  0  0  0  0  0  0  0
   19.9502  -58.5905  -37.6785 C   0  0  1  0  0  0  0  0  0  0  0  0
   21.0713  -57.8795  -36.9649 C   0  0  2  0  0  0  0  0  0  0  0  0
   21.6180  -58.7403  -35.9638 O   0  0  0  0  0  0  0  0  0  0  0  0
   20.2356  -59.9865  -37.7767 O   0  0  0  0  0  0  0  0  0  0  0  0
   19.0200  -57.1126  -36.0803 O   0  0  0  0  0  0  0  0  0  0  0  0
   20.3767  -56.7131  -36.2893 C   0  0  2  0  0  0  0  0  0  0  0  0
   20.4339  -55.4836  -37.1827 C   0  0  0  0  0  0  0  0  0  0  0  0
   21.5645  -54.7018  -36.8010 O   0  0  0  0  0  0  0  0  0  0  0  0
   23.0694  -55.2235  -37.0439 P   0  0  0  0  0  0  0  0  0  0  0  0
   23.9390  -53.9981  -36.8835 O   0  0  0  0  0  0  0  0  0  0  0  0
   23.0200  -55.7692  -38.4514 O   0  0  0  0  0  0  0  0  0  0  0  0
   23.2573  -56.2649  -35.9657 O   0  0  0  0  0  0  0  0  0  0  0  0
  1  2  2  0  0  0  0
  2  4  1  0  0  0  0
  2  3  1  0  0  0  0
  4  7  1  0  0  0  0
  5  9  1  0  0  0  0
  5  4  2  0  0  0  0
  6  5  1  0  0  0  0
  8  7  2  0  0  0  0
  9  8  1  0  0  0  0
 10 15  1  0  0  0  0
 10  9  1  6  0  0  0
 10 11  1  0  0  0  0
 11 14  1  1  0  0  0
 11 12  1  0  0  0  0
 12 13  1  1  0  0  0
 15 16  1  0  0  0  0
 16 12  1  0  0  0  0
 16 17  1  6  0  0  0
 17 18  1  0  0  0  0
 18 19  1  0  0  0  0
 19 21  1  0  0  0  0
 19 20  1  0  0  0  0
 22 19  2  0  0  0  0
M  END
>  <CHROM.1>
171.05928864,140.10214473,-94.46663639,68.00460312,164.48589716,19.24797863
-57.36877684,-37.31523221,2.83452689,0.27105854,2.77336202

>  <Name>
lig.pdb

>  <RI>
0

>  <Rbt.Current_Directory>
/home/itssahil/PROJECTS/Mol_Feturizer/New_Systems/rnas/5btp

>  <Rbt.Executable>
rbdock ($Id: //depot/dev/client3/rdock/2013.1/src/exe/rbdock.cxx#4 $)

>  <Rbt.Library>
libRbt.so (2013.1, Build901 2013/11/27)

>  <Rbt.Parameter_File>
/export/apps/rDock/src/rDock_2013.1_src/data/scripts/dock_solv.prm

>  <Rbt.Receptor>
prm/pocket_docking_5.prm

>  <SCORE>
-15.5605

>  <SCORE.INTER>
-17.4755

>  <SCORE.INTER.CONST>
1

>  <SCORE.INTER.POLAR>
0

>  <SCORE.INTER.ROT>
5

>  <SCORE.INTER.SOLV>
20.9782

>  <SCORE.INTER.VDW>
-25.5764

>  <SCORE.INTER.norm>
-0.794343

>  <SCORE.INTRA>
1.91501

>  <SCORE.INTRA.DIHEDRAL>
2.40321

>  <SCORE.INTRA.DIHEDRAL.0>
4.21161

>  <SCORE.INTRA.POLAR>
0

>  <SCORE.INTRA.POLAR.0>
0

>  <SCORE.INTRA.REPUL>
0

>  <SCORE.INTRA.REPUL.0>
0

>  <SCORE.INTRA.SOLV>
2.25459

>  <SCORE.INTRA.SOLV.lig_0>
-41.4168

>  <SCORE.INTRA.VDW>
-0.413894

>  <SCORE.INTRA.VDW.0>
-1.62533

>  <SCORE.INTRA.norm>
0.0870458

>  <SCORE.RESTR>
0

>  <SCORE.RESTR.CAVITY>
0

>  <SCORE.RESTR.norm>
0

>  <SCORE.SYSTEM>
0

>  <SCORE.SYSTEM.CONST>
0

>  <SCORE.SYSTEM.DIHEDRAL>
0

>  <SCORE.SYSTEM.SOLV>
0

>  <SCORE.SYSTEM.norm>
0

>  <SCORE.heavy>
22

>  <SCORE.norm>
-0.707297

>  <RMSD>
3.341

$$$$
lig.pdb
 OpenBabel11021811523D
libRbt.so/2013.1/901 2013/11/27
 22 23  0  0  0  0  0  0  0  0999 V2000
   13.1224  -58.3925  -39.1114 O   0  0  0  0  0  0  0  0  0  0  0  0
   13.8966  -58.8291  -38.2740 C   0  0  0  0  0  0  0  0  0  0  0  0
   13.4946  -59.6541  -37.3074 N   0  0  0  0  0  0  0  0  0  0  0  0
   15.3297  -58.4221  -38.3163 C   0  0  0  0  0  0  0  0  0  0  0  0
   16.3085  -58.7300  -37.2618 C   0  0  0  0  0  0  0  0  0  0  0  0
   16.0221  -59.4640  -36.0360 N   0  0  0  0  0  0  0  0  0  0  0  0
   16.0556  -57.7445  -39.2330 N   0  0  0  0  0  0  0  0  0  0  0  0
   17.3431  -57.6511  -38.7768 C   0  0  0  0  0  0  0  0  0  0  0  0
   17.5010  -58.2505  -37.5765 N   0  0  0  0  0  0  0  0  0  0  0  0
   18.7442  -58.3547  -36.7773 C   0  0  1  0  0  0  0  0  0  0  0  0
   19.9388  -58.6111  -37.6813 C   0  0  1  0  0  0  0  0  0  0  0  0
   21.0628  -57.9070  -36.9653 C   0  0  2  0  0  0  0  0  0  0  0  0
   21.6052  -58.7730  -35.9663 O   0  0  0  0  0  0  0  0  0  0  0  0
   20.2180  -60.0081  -37.7830 O   0  0  0  0  0  0  0  0  0  0  0  0
   19.0146  -57.1334  -36.0794 O   0  0  0  0  0  0  0  0  0  0  0  0
   20.3731  -56.7394  -36.2868 C   0  0  2  0  0  0  0  0  0  0  0  0
   20.4362  -55.5077  -37.1769 C   0  0  0  0  0  0  0  0  0  0  0  0
   21.5622  -54.7252  -36.7836 O   0  0  0  0  0  0  0  0  0  0  0  0
   23.0701  -55.2237  -37.0553 P   0  0  0  0  0  0  0  0  0  0  0  0
   23.9231  -53.9841  -36.9161 O   0  0  0  0  0  0  0  0  0  0  0  0
   23.0010  -55.7747  -38.4598 O   0  0  0  0  0  0  0  0  0  0  0  0
   23.2963  -56.2584  -35.9780 O   0  0  0  0  0  0  0  0  0  0  0  0
  1  2  2  0  0  0  0
  2  4  1  0  0  0  0
  2  3  1  0  0  0  0
  4  7  1  0  0  0  0
  5  9  1  0  0  0  0
  5  4  2  0  0  0  0
  6  5  1  0  0  0  0
  8  7  2  0  0  0  0
  9  8  1  0  0  0  0
 10 15  1  0  0  0  0
 10  9  1  6  0  0  0
 10 11  1  0  0  0  0
 11 14  1  1  0  0  0
 11 12  1  0  0  0  0
 12 13  1  1  0  0  0
 15 16  1  0  0  0  0
 16 12  1  0  0  0  0
 16 17  1  6  0  0  0
 17 18  1  0  0  0  0
 18 19  1  0  0  0  0
 19 21  1  0  0  0  0
 19 20  1  0  0  0  0
 22 19  2  0  0  0  0
M  END
>  <CHROM.1>
171.13844450,140.57719666,-95.05313565,69.90281510,162.54862671,19.24043494
-57.37498489,-37.31868456,2.83571821,0.26867677,2.77450466

>  <Name>
lig.pdb

>  <RI>
0

>  <Rbt.Current_Directory>
/home/itssahil/PROJECTS/Mol_Feturizer/New_Systems/rnas/5btp

>  <Rbt.Executable>
rbdock ($Id: //depot/dev/client3/rdock/2013.1/src/exe/rbdock.cxx#4 $)

>  <Rbt.Library>
libRbt.so (2013.1, Build901 2013/11/27)

>  <Rbt.Parameter_File>
/export/apps/rDock/src/rDock_2013.1_src/data/scripts/dock_solv.prm

>  <Rbt.Receptor>
prm/pocket_docking_5.prm

>  <SCORE>
-15.544

>  <SCORE.INTER>
-17.4685

>  <SCORE.INTER.CONST>
1

>  <SCORE.INTER.POLAR>
0

>  <SCORE.INTER.ROT>
5

>  <SCORE.INTER.SOLV>
21.0406

>  <SCORE.INTER.VDW>
-25.5925

>  <SCORE.INTER.norm>
-0.794022

>  <SCORE.INTRA>
1.92452

>  <SCORE.INTRA.DIHEDRAL>
2.73001

>  <SCORE.INTRA.DIHEDRAL.0>
4.21161

>  <SCORE.INTRA.POLAR>
0

>  <SCORE.INTRA.POLAR.0>
0

>  <SCORE.INTRA.REPUL>
0

>  <SCORE.INTRA.REPUL.0>
0

>  <SCORE.INTRA.SOLV>
2.15416

>  <SCORE.INTRA.SOLV.lig_0>
-41.4168

>  <SCORE.INTRA.VDW>
-0.51756

>  <SCORE.INTRA.VDW.0>
-1.62533

>  <SCORE.INTRA.norm>
0.0874784

>  <SCORE.RESTR>
0

>  <SCORE.RESTR.CAVITY>
0

>  <SCORE.RESTR.norm>
0

>  <SCORE.SYSTEM>
0

>  <SCORE.SYSTEM.CONST>
0

>  <SCORE.SYSTEM.DIHEDRAL>
0

>  <SCORE.SYSTEM.SOLV>
0

>  <SCORE.SYSTEM.norm>
0

>  <SCORE.heavy>
22

>  <SCORE.norm>
-0.706544

>  <RMSD>
3.344

$$$$
lig.pdb
 OpenBabel11021811523D
libRbt.so/2013.1/901 2013/11/27
 22 23  0  0  0  0  0  0  0  0999 V2000
   15.6162  -59.7957  -36.2316 O   0  0  0  0  0  0  0  0  0  0  0  0
   15.6323  -59.0280  -37.1811 C   0  0  0  0  0  0  0  0  0  0  0  0
   14.5505  -58.8129  -37.9296 N   0  0  0  0  0  0  0  0  0  0  0  0
   16.8957  -58.3187  -37.5302 C   0  0  0  0  0  0  0  0  0  0  0  0
   18.1709  -58.5020  -36.8193 C   0  0  0  0  0  0  0  0  0  0  0  0
   18.3806  -59.3886  -35.6822 N   0  0  0  0  0  0  0  0  0  0  0  0
   17.1973  -57.4199  -38.4932 N   0  0  0  0  0  0  0  0  0  0  0  0
   18.5213  -57.0920  -38.3746 C   0  0  0  0  0  0  0  0  0  0  0  0
   19.1177  -57.7494  -37.3563 N   0  0  0  0  0  0  0  0  0  0  0  0
   20.5326  -57.6545  -36.9275 C   0  0  1  0  0  0  0  0  0  0  0  0
   21.0473  -56.2348  -37.0992 C   0  0  1  0  0  0  0  0  0  0  0  0
   22.0357  -56.0937  -35.9701 C   0  0  2  0  0  0  0  0  0  0  0  0
   23.2990  -56.6241  -36.3762 O   0  0  0  0  0  0  0  0  0  0  0  0
   21.7079  -56.0743  -38.3553 O   0  0  0  0  0  0  0  0  0  0  0  0
   20.6751  -57.9755  -35.5387 O   0  0  0  0  0  0  0  0  0  0  0  0
   21.4559  -56.9749  -34.8807 C   0  0  2  0  0  0  0  0  0  0  0  0
   20.5808  -56.1479  -33.9516 C   0  0  0  0  0  0  0  0  0  0  0  0
   21.3869  -55.1292  -33.3620 O   0  0  0  0  0  0  0  0  0  0  0  0
   20.7510  -54.0035  -32.4005 P   0  0  0  0  0  0  0  0  0  0  0  0
   21.9337  -53.2208  -31.8790 O   0  0  0  0  0  0  0  0  0  0  0  0
   20.0328  -54.8164  -31.3495 O   0  0  0  0  0  0  0  0  0  0  0  0
   19.8475  -53.2225  -33.3257 O   0  0  0  0  0  0  0  0  0  0  0  0
  1  2  2  0  0  0  0
  2  4  1  0  0  0  0
  2  3  1  0  0  0  0
  4  7  1  0  0  0  0
  5  9  1  0  0  0  0
  5  4  2  0  0  0  0
  6  5  1  0  0  0  0
  8  7  2  0  0  0  0
  9  8  1  0  0  0  0
 10 15  1  0  0  0  0
 10  9  1  1  0  0  0
 10 11  1  0  0  0  0
 11 14  1  6  0  0  0
 11 12  1  0  0  0  0
 12 13  1  6  0  0  0
 15 16  1  0  0  0  0
 16 12  1  0  0  0  0
 16 17  1  1  0  0  0
 17 18  1  0  0  0  0
 18 19  1  0  0  0  0
 19 21  1  0  0  0  0
 19 20  1  0  0  0  0
 22 19  2  0  0  0  0
M  END
>  <CHROM.1>
1.62722408,-144.44985921,-60.25130746,175.58582561,174.29590753,19.66023165
-56.60644644,-35.50238468,2.22739782,-0.31863181,-2.08798359

>  <Name>
lig.pdb

>  <RI>
0

>  <Rbt.Current_Directory>
/home/itssahil/PROJECTS/Mol_Feturizer/New_Systems/rnas/5btp

>  <Rbt.Executable>
rbdock ($Id: //depot/dev/client3/rdock/2013.1/src/exe/rbdock.cxx#4 $)

>  <Rbt.Library>
libRbt.so (2013.1, Build901 2013/11/27)

>  <Rbt.Parameter_File>
/export/apps/rDock/src/rDock_2013.1_src/data/scripts/dock_solv.prm

>  <Rbt.Receptor>
prm/pocket_docking_6.prm

>  <SCORE>
-11.1519

>  <SCORE.INTER>
-10.7582

>  <SCORE.INTER.CONST>
1

>  <SCORE.INTER.POLAR>
0

>  <SCORE.INTER.ROT>
5

>  <SCORE.INTER.SOLV>
15.985

>  <SCORE.INTER.VDW>
-19.4338

>  <SCORE.INTER.norm>
-0.48901

>  <SCORE.INTRA>
-0.393684

>  <SCORE.INTRA.DIHEDRAL>
-1.62781

>  <SCORE.INTRA.DIHEDRAL.0>
4.21161

>  <SCORE.INTRA.POLAR>
0

>  <SCORE.INTRA.POLAR.0>
0

>  <SCORE.INTRA.REPUL>
0

>  <SCORE.INTRA.REPUL.0>
0

>  <SCORE.INTRA.SOLV>
0.460731

>  <SCORE.INTRA.SOLV.lig_0>
-41.4168

>  <SCORE.INTRA.VDW>
0.189858

>  <SCORE.INTRA.VDW.0>
-1.62533

>  <SCORE.INTRA.norm>
-0.0178947

>  <SCORE.RESTR>
0

>  <SCORE.RESTR.CAVITY>
0

>  <SCORE.RESTR.norm>
0

>  <SCORE.SYSTEM>
0

>  <SCORE.SYSTEM.CONST>
0

>  <SCORE.SYSTEM.DIHEDRAL>
0

>  <SCORE.SYSTEM.SOLV>
0

>  <SCORE.SYSTEM.norm>
0

>  <SCORE.heavy>
22

>  <SCORE.norm>
-0.506904

>  <RMSD>
3.371

$$$$
lig.pdb
 OpenBabel11021811523D
libRbt.so/2013.1/901 2013/11/27
 22 23  0  0  0  0  0  0  0  0999 V2000
   13.4925  -59.5270  -37.3261 O   0  0  0  0  0  0  0  0  0  0  0  0
   13.8803  -58.7963  -38.2243 C   0  0  0  0  0  0  0  0  0  0  0  0
   13.0526  -58.3341  -39.1613 N   0  0  0  0  0  0  0  0  0  0  0  0
   15.3201  -58.4173  -38.2923 C   0  0  0  0  0  0  0  0  0  0  0  0
   16.3054  -58.7191  -37.2421 C   0  0  0  0  0  0  0  0  0  0  0  0
   16.0200  -59.4191  -35.9964 N   0  0  0  0  0  0  0  0  0  0  0  0
   16.0475  -57.7747  -39.2327 N   0  0  0  0  0  0  0  0  0  0  0  0
   17.3418  -57.6948  -38.7934 C   0  0  0  0  0  0  0  0  0  0  0  0
   17.5028  -58.2693  -37.5814 N   0  0  0  0  0  0  0  0  0  0  0  0
   18.7531  -58.3783  -36.7942 C   0  0  1  0  0  0  0  0  0  0  0  0
   19.9231  -58.7296  -37.6984 C   0  0  1  0  0  0  0  0  0  0  0  0
   21.0840  -58.0320  -37.0369 C   0  0  2  0  0  0  0  0  0  0  0  0
   21.6082  -58.8629  -35.9992 O   0  0  0  0  0  0  0  0  0  0  0  0
   20.1472  -60.1398  -37.7271 O   0  0  0  0  0  0  0  0  0  0  0  0
   19.0805  -57.1323  -36.1678 O   0  0  0  0  0  0  0  0  0  0  0  0
   20.4498  -56.8033  -36.4144 C   0  0  2  0  0  0  0  0  0  0  0  0
   20.5461  -55.6251  -37.3714 C   0  0  0  0  0  0  0  0  0  0  0  0
   21.9126  -55.4601  -37.7463 O   0  0  0  0  0  0  0  0  0  0  0  0
   23.0010  -54.8625  -36.7197 P   0  0  0  0  0  0  0  0  0  0  0  0
   22.9978  -55.8158  -35.5472 O   0  0  0  0  0  0  0  0  0  0  0  0
   22.4569  -53.4894  -36.4043 O   0  0  0  0  0  0  0  0  0  0  0  0
   24.2805  -54.8689  -37.5230 O   0  0  0  0  0  0  0  0  0  0  0  0
  1  2  2  0  0  0  0
  2  4  1  0  0  0  0
  2  3  1  0  0  0  0
  4  7  1  0  0  0  0
  5  9  1  0  0  0  0
  5  4  2  0  0  0  0
  6  5  1  0  0  0  0
  8  7  2  0  0  0  0
  9  8  1  0  0  0  0
 10 15  1  0  0  0  0
 10  9  1  6  0  0  0
 10 11  1  0  0  0  0
 11 14  1  1  0  0  0
 11 12  1  0  0  0  0
 12 13  1  1  0  0  0
 15 16  1  0  0  0  0
 16 12  1  0  0  0  0
 16 17  1  6  0  0  0
 17 18  1  0  0  0  0
 18 19  1  0  0  0  0
 19 21  1  0  0  0  0
 19 20  1  0  0  0  0
 22 19  2  0  0  0  0
M  END
>  <CHROM.1>
-8.40821757,138.43981178,-54.06899702,-73.06128567,59.80174626,19.23330255
-57.31523537,-37.25130722,2.78226340,0.25719454,2.89370366

>  <Name>
lig.pdb

>  <RI>
0

>  <Rbt.Current_Directory>
/home/itssahil/PROJECTS/Mol_Feturizer/New_Systems/rnas/5btp

>  <Rbt.Executable>
rbdock ($Id: //depot/dev/client3/rdock/2013.1/src/exe/rbdock.cxx#4 $)

>  <Rbt.Library>
libRbt.so (2013.1, Build901 2013/11/27)

>  <Rbt.Parameter_File>
/export/apps/rDock/src/rDock_2013.1_src/data/scripts/dock_solv.prm

>  <Rbt.Receptor>
prm/pocket_docking_5.prm

>  <SCORE>
-16.6033

>  <SCORE.INTER>
-16.3189

>  <SCORE.INTER.CONST>
1

>  <SCORE.INTER.POLAR>
0

>  <SCORE.INTER.ROT>
5

>  <SCORE.INTER.SOLV>
21.3789

>  <SCORE.INTER.VDW>
-24.9389

>  <SCORE.INTER.norm>
-0.74177

>  <SCORE.INTRA>
-0.284325

>  <SCORE.INTRA.DIHEDRAL>
-0.627536

>  <SCORE.INTRA.DIHEDRAL.0>
4.21161

>  <SCORE.INTRA.POLAR>
0

>  <SCORE.INTRA.POLAR.0>
0

>  <SCORE.INTRA.REPUL>
0

>  <SCORE.INTRA.REPUL.0>
0

>  <SCORE.INTRA.SOLV>
0.460187

>  <SCORE.INTRA.SOLV.lig_0>
-41.4168

>  <SCORE.INTRA.VDW>
-0.200651

>  <SCORE.INTRA.VDW.0>
-1.62533

>  <SCORE.INTRA.norm>
-0.0129239

>  <SCORE.RESTR>
0

>  <SCORE.RESTR.CAVITY>
0

>  <SCORE.RESTR.norm>
0

>  <SCORE.SYSTEM>
0

>  <SCORE.SYSTEM.CONST>
0

>  <SCORE.SYSTEM.DIHEDRAL>
0

>  <SCORE.SYSTEM.SOLV>
0

>  <SCORE.SYSTEM.norm>
0

>  <SCORE.heavy>
22

>  <SCORE.norm>
-0.754694

>  <RMSD>
3.397

$$$$
lig.pdb
 OpenBabel11021811523D
libRbt.so/2013.1/901 2013/11/27
 22 23  0  0  0  0  0  0  0  0999 V2000
   13.5426  -59.5799  -37.3328 O   0  0  0  0  0  0  0  0  0  0  0  0
   13.9255  -58.8416  -38.2270 C   0  0  0  0  0  0  0  0  0  0  0  0
   13.0980  -58.3931  -39.1709 N   0  0  0  0  0  0  0  0  0  0  0  0
   15.3589  -58.4373  -38.2820 C   0  0  0  0  0  0  0  0  0  0  0  0
   16.3477  -58.7521  -37.2389 C   0  0  0  0  0  0  0  0  0  0  0  0
   16.0724  -59.4911  -36.0137 N   0  0  0  0  0  0  0  0  0  0  0  0
   16.0768  -57.7571  -39.2029 N   0  0  0  0  0  0  0  0  0  0  0  0
   17.3691  -57.6683  -38.7595 C   0  0  0  0  0  0  0  0  0  0  0  0
   17.5380  -58.2735  -37.5636 N   0  0  0  0  0  0  0  0  0  0  0  0
   18.7890  -58.3840  -36.7776 C   0  0  1  0  0  0  0  0  0  0  0  0
   19.9571  -58.7397  -37.6825 C   0  0  1  0  0  0  0  0  0  0  0  0
   21.1204  -58.0436  -37.0237 C   0  0  2  0  0  0  0  0  0  0  0  0
   21.6439  -58.8738  -35.9851 O   0  0  0  0  0  0  0  0  0  0  0  0
   20.1779  -60.1506  -37.7088 O   0  0  0  0  0  0  0  0  0  0  0  0
   19.1201  -57.1376  -36.1540 O   0  0  0  0  0  0  0  0  0  0  0  0
   20.4898  -56.8122  -36.4028 C   0  0  2  0  0  0  0  0  0  0  0  0
   20.5877  -55.6361  -37.3621 C   0  0  0  0  0  0  0  0  0  0  0  0
   21.9491  -55.4956  -37.7647 O   0  0  0  0  0  0  0  0  0  0  0  0
   23.0455  -54.8125  -36.8018 P   0  0  0  0  0  0  0  0  0  0  0  0
   22.4760  -53.4548  -36.4617 O   0  0  0  0  0  0  0  0  0  0  0  0
   24.2818  -54.7674  -37.6681 O   0  0  0  0  0  0  0  0  0  0  0  0
   23.1252  -55.7644  -35.6313 O   0  0  0  0  0  0  0  0  0  0  0  0
  1  2  2  0  0  0  0
  2  4  1  0  0  0  0
  2  3  1  0  0  0  0
  4  7  1  0  0  0  0
  5  9  1  0  0  0  0
  5  4  2  0  0  0  0
  6  5  1  0  0  0  0
  8  7  2  0  0  0  0
  9  8  1  0  0  0  0
 10 15  1  0  0  0  0
 10  9  1  6  0  0  0
 10 11  1  0  0  0  0
 11 14  1  1  0  0  0
 11 12  1  0  0  0  0
 12 13  1  1  0  0  0
 15 16  1  0  0  0  0
 16 12  1  0  0  0  0
 16 17  1  6  0  0  0
 17 18  1  0  0  0  0
 18 19  1  0  0  0  0
 19 21  1  0  0  0  0
 19 20  1  0  0  0  0
 22 19  2  0  0  0  0
M  END
>  <CHROM.1>
-6.80466459,136.42192332,-52.65993222,-77.85640235,-55.20384882,19.27406062
-57.31647164,-37.26660535,2.77643538,0.25944549,2.87188088

>  <Name>
lig.pdb

>  <RI>
0

>  <Rbt.Current_Directory>
/home/itssahil/PROJECTS/Mol_Feturizer/New_Systems/rnas/5btp

>  <Rbt.Executable>
rbdock ($Id: //depot/dev/client3/rdock/2013.1/src/exe/rbdock.cxx#4 $)

>  <Rbt.Library>
libRbt.so (2013.1, Build901 2013/11/27)

>  <Rbt.Parameter_File>
/export/apps/rDock/src/rDock_2013.1_src/data/scripts/dock_solv.prm

>  <Rbt.Receptor>
prm/pocket_docking_6.prm

>  <SCORE>
-16.241

>  <SCORE.INTER>
-16.5759

>  <SCORE.INTER.CONST>
1

>  <SCORE.INTER.POLAR>
0

>  <SCORE.INTER.ROT>
5

>  <SCORE.INTER.SOLV>
21.1065

>  <SCORE.INTER.VDW>
-25.0194

>  <SCORE.INTER.norm>
-0.753452

>  <SCORE.INTRA>
0.334923

>  <SCORE.INTRA.DIHEDRAL>
0.0454737

>  <SCORE.INTRA.DIHEDRAL.0>
4.21161

>  <SCORE.INTRA.POLAR>
0

>  <SCORE.INTRA.POLAR.0>
0

>  <SCORE.INTRA.REPUL>
0

>  <SCORE.INTRA.REPUL.0>
0

>  <SCORE.INTRA.SOLV>
1.25114

>  <SCORE.INTRA.SOLV.lig_0>
-41.4168

>  <SCORE.INTRA.VDW>
-0.313383

>  <SCORE.INTRA.VDW.0>
-1.62533

>  <SCORE.INTRA.norm>
0.0152238

>  <SCORE.RESTR>
0

>  <SCORE.RESTR.CAVITY>
0

>  <SCORE.RESTR.norm>
0

>  <SCORE.SYSTEM>
0

>  <SCORE.SYSTEM.CONST>
0

>  <SCORE.SYSTEM.DIHEDRAL>
0

>  <SCORE.SYSTEM.SOLV>
0

>  <SCORE.SYSTEM.norm>
0

>  <SCORE.heavy>
22

>  <SCORE.norm>
-0.738228

>  <RMSD>
3.422

$$$$
lig.pdb
 OpenBabel11021811523D
libRbt.so/2013.1/901 2013/11/27
 22 23  0  0  0  0  0  0  0  0999 V2000
   15.9896  -57.3122  -39.6234 O   0  0  0  0  0  0  0  0  0  0  0  0
   15.5362  -58.0360  -38.7507 C   0  0  0  0  0  0  0  0  0  0  0  0
   14.2585  -58.4158  -38.7459 N   0  0  0  0  0  0  0  0  0  0  0  0
   16.4242  -58.5006  -37.6476 C   0  0  0  0  0  0  0  0  0  0  0  0
   17.8509  -58.1588  -37.5345 C   0  0  0  0  0  0  0  0  0  0  0  0
   18.5951  -57.3312  -38.4749 N   0  0  0  0  0  0  0  0  0  0  0  0
   16.1959  -59.2677  -36.5587 N   0  0  0  0  0  0  0  0  0  0  0  0
   17.3676  -59.3796  -35.8594 C   0  0  0  0  0  0  0  0  0  0  0  0
   18.3778  -58.7052  -36.4506 N   0  0  0  0  0  0  0  0  0  0  0  0
   19.7808  -58.5945  -35.9874 C   0  0  1  0  0  0  0  0  0  0  0  0
   20.7417  -58.9653  -37.1050 C   0  0  1  0  0  0  0  0  0  0  0  0
   21.9339  -58.0842  -36.8331 C   0  0  2  0  0  0  0  0  0  0  0  0
   22.7791  -58.7138  -35.8680 O   0  0  0  0  0  0  0  0  0  0  0  0
   21.1176  -60.3410  -37.0266 O   0  0  0  0  0  0  0  0  0  0  0  0
   20.0956  -57.2498  -35.6072 O   0  0  0  0  0  0  0  0  0  0  0  0
   21.3215  -56.8406  -36.2185 C   0  0  2  0  0  0  0  0  0  0  0  0
   21.0533  -55.8033  -37.2979 C   0  0  0  0  0  0  0  0  0  0  0  0
   22.0297  -54.7697  -37.1817 O   0  0  0  0  0  0  0  0  0  0  0  0
   23.5944  -55.0573  -37.4364 P   0  0  0  0  0  0  0  0  0  0  0  0
   23.6380  -55.9055  -38.6862 O   0  0  0  0  0  0  0  0  0  0  0  0
   24.0188  -55.7808  -36.1804 O   0  0  0  0  0  0  0  0  0  0  0  0
   24.1820  -53.6753  -37.6019 O   0  0  0  0  0  0  0  0  0  0  0  0
  1  2  2  0  0  0  0
  2  4  1  0  0  0  0
  2  3  1  0  0  0  0
  4  7  1  0  0  0  0
  5  9  1  0  0  0  0
  5  4  2  0  0  0  0
  6  5  1  0  0  0  0
  8  7  2  0  0  0  0
  9  8  1  0  0  0  0
 10 15  1  0  0  0  0
 10  9  1  6  0  0  0
 10 11  1  0  0  0  0
 11 14  1  1  0  0  0
 11 12  1  0  0  0  0
 12 13  1  1  0  0  0
 15 16  1  0  0  0  0
 16 12  1  0  0  0  0
 16 17  1  6  0  0  0
 17 18  1  0  0  0  0
 18 19  1  0  0  0  0
 19 21  1  0  0  0  0
 19 20  1  0  0  0  0
 22 19  2  0  0  0  0
M  END
>  <CHROM.1>
-0.84624496,-51.93155579,-105.78890482,64.70698553,44.27413534,20.19429038
-57.30556018,-37.22278230,2.84591854,0.28806702,2.60271940

>  <Name>
lig.pdb

>  <RI>
0

>  <Rbt.Current_Directory>
/home/itssahil/PROJECTS/Mol_Feturizer/New_Systems/rnas/5btp

>  <Rbt.Executable>
rbdock ($Id: //depot/dev/client3/rdock/2013.1/src/exe/rbdock.cxx#4 $)

>  <Rbt.Library>
libRbt.so (2013.1, Build901 2013/11/27)

>  <Rbt.Parameter_File>
/export/apps/rDock/src/rDock_2013.1_src/data/scripts/dock_solv.prm

>  <Rbt.Receptor>
prm/pocket_docking_5.prm

>  <SCORE>
-14.2079

>  <SCORE.INTER>
-15.7616

>  <SCORE.INTER.CONST>
1

>  <SCORE.INTER.POLAR>
0

>  <SCORE.INTER.ROT>
5

>  <SCORE.INTER.SOLV>
19.3026

>  <SCORE.INTER.VDW>
-23.8753

>  <SCORE.INTER.norm>
-0.716439

>  <SCORE.INTRA>
1.5537

>  <SCORE.INTRA.DIHEDRAL>
3.26542

>  <SCORE.INTRA.DIHEDRAL.0>
4.21161

>  <SCORE.INTRA.POLAR>
0

>  <SCORE.INTRA.POLAR.0>
0

>  <SCORE.INTRA.REPUL>
0

>  <SCORE.INTRA.REPUL.0>
0

>  <SCORE.INTRA.SOLV>
2.09407

>  <SCORE.INTRA.SOLV.lig_0>
-41.4168

>  <SCORE.INTRA.VDW>
-1.12604

>  <SCORE.INTRA.VDW.0>
-1.62533

>  <SCORE.INTRA.norm>
0.0706228

>  <SCORE.RESTR>
0

>  <SCORE.RESTR.CAVITY>
0

>  <SCORE.RESTR.norm>
0

>  <SCORE.SYSTEM>
0

>  <SCORE.SYSTEM.CONST>
0

>  <SCORE.SYSTEM.DIHEDRAL>
0

>  <SCORE.SYSTEM.SOLV>
0

>  <SCORE.SYSTEM.norm>
0

>  <SCORE.heavy>
22

>  <SCORE.norm>
-0.645816

>  <RMSD>
3.538

$$$$
lig.pdb
 OpenBabel11021811523D
libRbt.so/2013.1/901 2013/11/27
 22 23  0  0  0  0  0  0  0  0999 V2000
   13.8288  -58.5054  -38.8299 O   0  0  0  0  0  0  0  0  0  0  0  0
   14.6312  -58.8852  -37.9915 C   0  0  0  0  0  0  0  0  0  0  0  0
   14.2786  -59.7060  -37.0022 N   0  0  0  0  0  0  0  0  0  0  0  0
   16.0427  -58.4115  -38.0586 C   0  0  0  0  0  0  0  0  0  0  0  0
   17.0726  -58.7366  -37.0594 C   0  0  0  0  0  0  0  0  0  0  0  0
   16.8644  -59.5543  -35.8714 N   0  0  0  0  0  0  0  0  0  0  0  0
   16.7037  -57.6484  -38.9568 N   0  0  0  0  0  0  0  0  0  0  0  0
   18.0021  -57.5236  -38.5408 C   0  0  0  0  0  0  0  0  0  0  0  0
   18.2306  -58.1853  -37.3855 N   0  0  0  0  0  0  0  0  0  0  0  0
   19.5061  -58.2801  -36.6377 C   0  0  1  0  0  0  0  0  0  0  0  0
   20.5861  -58.9075  -37.5037 C   0  0  1  0  0  0  0  0  0  0  0  0
   21.8426  -58.2264  -37.0249 C   0  0  2  0  0  0  0  0  0  0  0  0
   22.3413  -58.9072  -35.8717 O   0  0  0  0  0  0  0  0  0  0  0  0
   20.6730  -60.3154  -37.2802 O   0  0  0  0  0  0  0  0  0  0  0  0
   19.9845  -56.9826  -36.2641 O   0  0  0  0  0  0  0  0  0  0  0  0
   21.3633  -56.8469  -36.6168 C   0  0  2  0  0  0  0  0  0  0  0  0
   21.5188  -55.8763  -37.7774 C   0  0  0  0  0  0  0  0  0  0  0  0
   22.8981  -55.8228  -38.1378 O   0  0  0  0  0  0  0  0  0  0  0  0
   23.9691  -55.0092  -37.2508 P   0  0  0  0  0  0  0  0  0  0  0  0
   25.2682  -55.1102  -38.0161 O   0  0  0  0  0  0  0  0  0  0  0  0
   23.9632  -55.7547  -35.9373 O   0  0  0  0  0  0  0  0  0  0  0  0
   23.3886  -53.6156  -37.1921 O   0  0  0  0  0  0  0  0  0  0  0  0
  1  2  2  0  0  0  0
  2  4  1  0  0  0  0
  2  3  1  0  0  0  0
  4  7  1  0  0  0  0
  5  9  1  0  0  0  0
  5  4  2  0  0  0  0
  6  5  1  0  0  0  0
  8  7  2  0  0  0  0
  9  8  1  0  0  0  0
 10 15  1  0  0  0  0
 10  9  1  6  0  0  0
 10 11  1  0  0  0  0
 11 14  1  1  0  0  0
 11 12  1  0  0  0  0
 12 13  1  1  0  0  0
 15 16  1  0  0  0  0
 16 12  1  0  0  0  0
 16 17  1  6  0  0  0
 17 18  1  0  0  0  0
 18 19  1  0  0  0  0
 19 21  1  0  0  0  0
 19 20  1  0  0  0  0
 22 19  2  0  0  0  0
M  END
>  <CHROM.1>
176.11764220,120.47017828,-59.84987051,-76.07028630,-175.79639116,20.05000453
-57.39045161,-37.31119721,2.80763420,0.23012357,2.72202057

>  <Name>
lig.pdb

>  <RI>
0

>  <Rbt.Current_Directory>
/home/itssahil/PROJECTS/Mol_Feturizer/New_Systems/rnas/5btp

>  <Rbt.Executable>
rbdock ($Id: //depot/dev/client3/rdock/2013.1/src/exe/rbdock.cxx#4 $)

>  <Rbt.Library>
libRbt.so (2013.1, Build901 2013/11/27)

>  <Rbt.Parameter_File>
/export/apps/rDock/src/rDock_2013.1_src/data/scripts/dock_solv.prm

>  <Rbt.Receptor>
prm/pocket_docking_6.prm

>  <SCORE>
-16.2755

>  <SCORE.INTER>
-15.9752

>  <SCORE.INTER.CONST>
1

>  <SCORE.INTER.POLAR>
0

>  <SCORE.INTER.ROT>
5

>  <SCORE.INTER.SOLV>
20.7678

>  <SCORE.INTER.VDW>
-24.5061

>  <SCORE.INTER.norm>
-0.726145

>  <SCORE.INTRA>
-0.300302

>  <SCORE.INTRA.DIHEDRAL>
-0.51089

>  <SCORE.INTRA.DIHEDRAL.0>
4.21161

>  <SCORE.INTRA.POLAR>
0

>  <SCORE.INTRA.POLAR.0>
0

>  <SCORE.INTRA.REPUL>
0

>  <SCORE.INTRA.REPUL.0>
0

>  <SCORE.INTRA.SOLV>
0.872358

>  <SCORE.INTRA.SOLV.lig_0>
-41.4168

>  <SCORE.INTRA.VDW>
-0.481036

>  <SCORE.INTRA.VDW.0>
-1.62533

>  <SCORE.INTRA.norm>
-0.0136501

>  <SCORE.RESTR>
0

>  <SCORE.RESTR.CAVITY>
0

>  <SCORE.RESTR.norm>
0

>  <SCORE.SYSTEM>
0

>  <SCORE.SYSTEM.CONST>
0

>  <SCORE.SYSTEM.DIHEDRAL>
0

>  <SCORE.SYSTEM.SOLV>
0

>  <SCORE.SYSTEM.norm>
0

>  <SCORE.heavy>
22

>  <SCORE.norm>
-0.739795

>  <RMSD>
3.541

$$$$
lig.pdb
 OpenBabel11021811523D
libRbt.so/2013.1/901 2013/11/27
 22 23  0  0  0  0  0  0  0  0999 V2000
   14.1722  -59.0666  -37.7473 O   0  0  0  0  0  0  0  0  0  0  0  0
   14.8906  -58.3198  -38.3933 C   0  0  0  0  0  0  0  0  0  0  0  0
   14.4095  -57.5561  -39.3742 N   0  0  0  0  0  0  0  0  0  0  0  0
   16.3497  -58.2647  -38.0946 C   0  0  0  0  0  0  0  0  0  0  0  0
   17.0006  -59.0145  -37.0087 C   0  0  0  0  0  0  0  0  0  0  0  0
   16.3217  -59.9047  -36.0761 N   0  0  0  0  0  0  0  0  0  0  0  0
   17.3719  -57.5983  -38.6752 N   0  0  0  0  0  0  0  0  0  0  0  0
   18.5242  -57.9126  -38.0059 C   0  0  0  0  0  0  0  0  0  0  0  0
   18.3020  -58.7752  -36.9903 N   0  0  0  0  0  0  0  0  0  0  0  0
   19.3000  -59.3399  -36.0522 C   0  0  1  0  0  0  0  0  0  0  0  0
   20.6830  -59.3403  -36.6823 C   0  0  1  0  0  0  0  0  0  0  0  0
   21.5938  -59.1254  -35.5008 C   0  0  2  0  0  0  0  0  0  0  0  0
   21.8569  -60.3805  -34.8700 O   0  0  0  0  0  0  0  0  0  0  0  0
   20.9671  -60.5956  -37.3016 O   0  0  0  0  0  0  0  0  0  0  0  0
   19.3943  -58.5508  -34.8604 O   0  0  0  0  0  0  0  0  0  0  0  0
   20.7641  -58.2662  -34.5666 C   0  0  2  0  0  0  0  0  0  0  0  0
   21.0619  -56.7946  -34.8092 C   0  0  0  0  0  0  0  0  0  0  0  0
   21.1765  -56.5843  -36.2156 O   0  0  0  0  0  0  0  0  0  0  0  0
   21.8707  -55.2596  -36.8149 P   0  0  0  0  0  0  0  0  0  0  0  0
   20.8180  -54.1813  -36.7031 O   0  0  0  0  0  0  0  0  0  0  0  0
   22.2023  -55.6583  -38.2334 O   0  0  0  0  0  0  0  0  0  0  0  0
   23.0683  -55.0550  -35.9169 O   0  0  0  0  0  0  0  0  0  0  0  0
  1  2  2  0  0  0  0
  2  4  1  0  0  0  0
  2  3  1  0  0  0  0
  4  7  1  0  0  0  0
  5  9  1  0  0  0  0
  5  4  2  0  0  0  0
  6  5  1  0  0  0  0
  8  7  2  0  0  0  0
  9  8  1  0  0  0  0
 10 15  1  0  0  0  0
 10  9  1  6  0  0  0
 10 11  1  0  0  0  0
 11 14  1  1  0  0  0
 11 12  1  0  0  0  0
 12 13  1  1  0  0  0
 15 16  1  0  0  0  0
 16 12  1  0  0  0  0
 16 17  1  6  0  0  0
 17 18  1  0  0  0  0
 18 19  1  0  0  0  0
 19 21  1  0  0  0  0
 19 20  1  0  0  0  0
 22 19  2  0  0  0  0
M  END
>  <CHROM.1>
-3.10312941,155.07333823,40.68169600,-163.14792856,-78.86688767,19.42732887
-57.79445301,-36.74605681,2.93167563,0.37704840,2.74073073

>  <Name>
lig.pdb

>  <RI>
0

>  <Rbt.Current_Directory>
/home/itssahil/PROJECTS/Mol_Feturizer/New_Systems/rnas/5btp

>  <Rbt.Executable>
rbdock ($Id: //depot/dev/client3/rdock/2013.1/src/exe/rbdock.cxx#4 $)

>  <Rbt.Library>
libRbt.so (2013.1, Build901 2013/11/27)

>  <Rbt.Parameter_File>
/export/apps/rDock/src/rDock_2013.1_src/data/scripts/dock_solv.prm

>  <Rbt.Receptor>
prm/pocket_docking_4.prm

>  <SCORE>
-9.64766

>  <SCORE.INTER>
-10.9524

>  <SCORE.INTER.CONST>
1

>  <SCORE.INTER.POLAR>
0

>  <SCORE.INTER.ROT>
5

>  <SCORE.INTER.SOLV>
19.0429

>  <SCORE.INTER.VDW>
-20.5825

>  <SCORE.INTER.norm>
-0.497835

>  <SCORE.INTRA>
1.30471

>  <SCORE.INTRA.DIHEDRAL>
1.32639

>  <SCORE.INTRA.DIHEDRAL.0>
4.21161

>  <SCORE.INTRA.POLAR>
0

>  <SCORE.INTRA.POLAR.0>
0

>  <SCORE.INTRA.REPUL>
0

>  <SCORE.INTRA.REPUL.0>
0

>  <SCORE.INTRA.SOLV>
0.647856

>  <SCORE.INTRA.SOLV.lig_0>
-41.4168

>  <SCORE.INTRA.VDW>
0.317584

>  <SCORE.INTRA.VDW.0>
-1.62533

>  <SCORE.INTRA.norm>
0.0593048

>  <SCORE.RESTR>
0

>  <SCORE.RESTR.CAVITY>
0

>  <SCORE.RESTR.norm>
0

>  <SCORE.SYSTEM>
0

>  <SCORE.SYSTEM.CONST>
0

>  <SCORE.SYSTEM.DIHEDRAL>
0

>  <SCORE.SYSTEM.SOLV>
0

>  <SCORE.SYSTEM.norm>
0

>  <SCORE.heavy>
22

>  <SCORE.norm>
-0.43853

>  <RMSD>
3.592

$$$$
lig.pdb
 OpenBabel11021811523D
libRbt.so/2013.1/901 2013/11/27
 22 23  0  0  0  0  0  0  0  0999 V2000
   14.2218  -59.1697  -36.8245 O   0  0  0  0  0  0  0  0  0  0  0  0
   14.6372  -58.7016  -37.8730 C   0  0  0  0  0  0  0  0  0  0  0  0
   13.8400  -58.5180  -38.9254 N   0  0  0  0  0  0  0  0  0  0  0  0
   16.0770  -58.3364  -37.9944 C   0  0  0  0  0  0  0  0  0  0  0  0
   17.0972  -58.6456  -36.9803 C   0  0  0  0  0  0  0  0  0  0  0  0
   16.8510  -59.3407  -35.7235 N   0  0  0  0  0  0  0  0  0  0  0  0
   16.7755  -57.7025  -38.9622 N   0  0  0  0  0  0  0  0  0  0  0  0
   18.0857  -57.6341  -38.5708 C   0  0  0  0  0  0  0  0  0  0  0  0
   18.2855  -58.2078  -37.3642 N   0  0  0  0  0  0  0  0  0  0  0  0
   19.5627  -58.3273  -36.6230 C   0  0  1  0  0  0  0  0  0  0  0  0
   20.6476  -58.9006  -37.5199 C   0  0  1  0  0  0  0  0  0  0  0  0
   21.8981  -58.2322  -37.0088 C   0  0  2  0  0  0  0  0  0  0  0  0
   22.4047  -58.9645  -35.8911 O   0  0  0  0  0  0  0  0  0  0  0  0
   20.7482  -60.3170  -37.3666 O   0  0  0  0  0  0  0  0  0  0  0  0
   20.0292  -57.0455  -36.1858 O   0  0  0  0  0  0  0  0  0  0  0  0
   21.4062  -56.8792  -36.5324 C   0  0  2  0  0  0  0  0  0  0  0  0
   21.5510  -55.8508  -37.6435 C   0  0  0  0  0  0  0  0  0  0  0  0
   22.6181  -54.9673  -37.3029 O   0  0  0  0  0  0  0  0  0  0  0  0
   24.1558  -55.3560  -37.5861 P   0  0  0  0  0  0  0  0  0  0  0  0
   24.9412  -54.1061  -37.2631 O   0  0  0  0  0  0  0  0  0  0  0  0
   24.1519  -55.7250  -39.0507 O   0  0  0  0  0  0  0  0  0  0  0  0
   24.4053  -56.5086  -36.6419 O   0  0  0  0  0  0  0  0  0  0  0  0
  1  2  2  0  0  0  0
  2  4  1  0  0  0  0
  2  3  1  0  0  0  0
  4  7  1  0  0  0  0
  5  9  1  0  0  0  0
  5  4  2  0  0  0  0
  6  5  1  0  0  0  0
  8  7  2  0  0  0  0
  9  8  1  0  0  0  0
 10 15  1  0  0  0  0
 10  9  1  6  0  0  0
 10 11  1  0  0  0  0
 11 14  1  1  0  0  0
 11 12  1  0  0  0  0
 12 13  1  1  0  0  0
 15 16  1  0  0  0  0
 16 12  1  0  0  0  0
 16 17  1  6  0  0  0
 17 18  1  0  0  0  0
 18 19  1  0  0  0  0
 19 21  1  0  0  0  0
 19 20  1  0  0  0  0
 22 19  2  0  0  0  0
M  END
>  <CHROM.1>
7.57936220,129.57073981,-108.08301425,82.27843191,172.62957698,20.12620420
-57.44714310,-37.35078029,2.84783403,0.19780012,2.64380883

>  <Name>
lig.pdb

>  <RI>
0

>  <Rbt.Current_Directory>
/home/itssahil/PROJECTS/Mol_Feturizer/New_Systems/rnas/5btp

>  <Rbt.Executable>
rbdock ($Id: //depot/dev/client3/rdock/2013.1/src/exe/rbdock.cxx#4 $)

>  <Rbt.Library>
libRbt.so (2013.1, Build901 2013/11/27)

>  <Rbt.Parameter_File>
/export/apps/rDock/src/rDock_2013.1_src/data/scripts/dock_solv.prm

>  <Rbt.Receptor>
prm/pocket_docking_6.prm

>  <SCORE>
-14.1585

>  <SCORE.INTER>
-16.7183

>  <SCORE.INTER.CONST>
1

>  <SCORE.INTER.POLAR>
0

>  <SCORE.INTER.ROT>
5

>  <SCORE.INTER.SOLV>
20.2854

>  <SCORE.INTER.VDW>
-24.8406

>  <SCORE.INTER.norm>
-0.759921

>  <SCORE.INTRA>
2.55972

>  <SCORE.INTRA.DIHEDRAL>
5.43332

>  <SCORE.INTRA.DIHEDRAL.0>
4.21161

>  <SCORE.INTRA.POLAR>
0

>  <SCORE.INTRA.POLAR.0>
0

>  <SCORE.INTRA.REPUL>
0

>  <SCORE.INTRA.REPUL.0>
0

>  <SCORE.INTRA.SOLV>
1.30833

>  <SCORE.INTRA.SOLV.lig_0>
-41.4168

>  <SCORE.INTRA.VDW>
-0.811101

>  <SCORE.INTRA.VDW.0>
-1.62533

>  <SCORE.INTRA.norm>
0.116351

>  <SCORE.RESTR>
0

>  <SCORE.RESTR.CAVITY>
0

>  <SCORE.RESTR.norm>
0

>  <SCORE.SYSTEM>
0

>  <SCORE.SYSTEM.CONST>
0

>  <SCORE.SYSTEM.DIHEDRAL>
0

>  <SCORE.SYSTEM.SOLV>
0

>  <SCORE.SYSTEM.norm>
0

>  <SCORE.heavy>
22

>  <SCORE.norm>
-0.64357

>  <RMSD>
3.605

$$$$
lig.pdb
 OpenBabel11021811523D
libRbt.so/2013.1/901 2013/11/27
 22 23  0  0  0  0  0  0  0  0999 V2000
   13.0616  -58.3938  -39.1928 O   0  0  0  0  0  0  0  0  0  0  0  0
   13.8076  -58.7815  -38.3072 C   0  0  0  0  0  0  0  0  0  0  0  0
   13.3633  -59.5086  -37.2820 N   0  0  0  0  0  0  0  0  0  0  0  0
   15.2537  -58.4245  -38.3567 C   0  0  0  0  0  0  0  0  0  0  0  0
   16.2152  -58.7169  -37.2820 C   0  0  0  0  0  0  0  0  0  0  0  0
   15.8969  -59.3851  -36.0268 N   0  0  0  0  0  0  0  0  0  0  0  0
   16.0074  -57.8133  -39.2972 N   0  0  0  0  0  0  0  0  0  0  0  0
   17.2945  -57.7420  -38.8358 C   0  0  0  0  0  0  0  0  0  0  0  0
   17.4249  -58.2917  -37.6087 N   0  0  0  0  0  0  0  0  0  0  0  0
   18.6590  -58.4009  -36.7962 C   0  0  1  0  0  0  0  0  0  0  0  0
   19.8649  -58.6435  -37.6888 C   0  0  1  0  0  0  0  0  0  0  0  0
   20.9782  -57.9439  -36.9519 C   0  0  2  0  0  0  0  0  0  0  0  0
   21.5116  -58.8192  -35.9562 O   0  0  0  0  0  0  0  0  0  0  0  0
   20.1498  -60.0384  -37.8027 O   0  0  0  0  0  0  0  0  0  0  0  0
   18.9172  -57.1865  -36.0816 O   0  0  0  0  0  0  0  0  0  0  0  0
   20.2768  -56.7860  -36.2687 C   0  0  2  0  0  0  0  0  0  0  0  0
   20.3462  -55.5444  -37.1443 C   0  0  0  0  0  0  0  0  0  0  0  0
   19.6303  -54.4950  -36.4951 O   0  0  0  0  0  0  0  0  0  0  0  0
   20.1735  -53.8204  -35.1365 P   0  0  0  0  0  0  0  0  0  0  0  0
   21.5998  -53.4239  -35.4396 O   0  0  0  0  0  0  0  0  0  0  0  0
   20.0408  -54.9335  -34.1243 O   0  0  0  0  0  0  0  0  0  0  0  0
   19.2356  -52.6551  -34.9249 O   0  0  0  0  0  0  0  0  0  0  0  0
  1  2  2  0  0  0  0
  2  4  1  0  0  0  0
  2  3  1  0  0  0  0
  4  7  1  0  0  0  0
  5  9  1  0  0  0  0
  5  4  2  0  0  0  0
  6  5  1  0  0  0  0
  8  7  2  0  0  0  0
  9  8  1  0  0  0  0
 10 15  1  0  0  0  0
 10  9  1  6  0  0  0
 10 11  1  0  0  0  0
 11 14  1  1  0  0  0
 11 12  1  0  0  0  0
 12 13  1  1  0  0  0
 15 16  1  0  0  0  0
 16 12  1  0  0  0  0
 16 17  1  6  0  0  0
 17 18  1  0  0  0  0
 18 19  1  0  0  0  0
 19 21  1  0  0  0  0
 19 20  1  0  0  0  0
 22 19  2  0  0  0  0
M  END
>  <CHROM.1>
173.50188227,144.41536062,177.63564599,68.75898743,51.97860273,18.36201422
-57.00055085,-36.80328416,2.42664973,0.20184604,-2.80671711

>  <Name>
lig.pdb

>  <RI>
0

>  <Rbt.Current_Directory>
/home/itssahil/PROJECTS/Mol_Feturizer/New_Systems/rnas/5btp

>  <Rbt.Executable>
rbdock ($Id: //depot/dev/client3/rdock/2013.1/src/exe/rbdock.cxx#4 $)

>  <Rbt.Library>
libRbt.so (2013.1, Build901 2013/11/27)

>  <Rbt.Parameter_File>
/export/apps/rDock/src/rDock_2013.1_src/data/scripts/dock_solv.prm

>  <Rbt.Receptor>
prm/pocket_docking_6.prm

>  <SCORE>
-16.0877

>  <SCORE.INTER>
-15.6427

>  <SCORE.INTER.CONST>
1

>  <SCORE.INTER.POLAR>
0

>  <SCORE.INTER.ROT>
5

>  <SCORE.INTER.SOLV>
19.9332

>  <SCORE.INTER.VDW>
-24.0062

>  <SCORE.INTER.norm>
-0.711033

>  <SCORE.INTRA>
-0.445009

>  <SCORE.INTRA.DIHEDRAL>
-1.15894

>  <SCORE.INTRA.DIHEDRAL.0>
4.21161

>  <SCORE.INTRA.POLAR>
0

>  <SCORE.INTRA.POLAR.0>
0

>  <SCORE.INTRA.REPUL>
0

>  <SCORE.INTRA.REPUL.0>
0

>  <SCORE.INTRA.SOLV>
0.548413

>  <SCORE.INTRA.SOLV.lig_0>
-41.4168

>  <SCORE.INTRA.VDW>
-0.139744

>  <SCORE.INTRA.VDW.0>
-1.62533

>  <SCORE.INTRA.norm>
-0.0202277

>  <SCORE.RESTR>
0

>  <SCORE.RESTR.CAVITY>
0

>  <SCORE.RESTR.norm>
0

>  <SCORE.SYSTEM>
0

>  <SCORE.SYSTEM.CONST>
0

>  <SCORE.SYSTEM.DIHEDRAL>
0

>  <SCORE.SYSTEM.SOLV>
0

>  <SCORE.SYSTEM.norm>
0

>  <SCORE.heavy>
22

>  <SCORE.norm>
-0.731261

>  <RMSD>
3.616

$$$$
lig.pdb
 OpenBabel11021811523D
libRbt.so/2013.1/901 2013/11/27
 22 23  0  0  0  0  0  0  0  0999 V2000
   13.4070  -59.5489  -37.4239 O   0  0  0  0  0  0  0  0  0  0  0  0
   13.8022  -58.7849  -38.2906 C   0  0  0  0  0  0  0  0  0  0  0  0
   12.9828  -58.2900  -39.2184 N   0  0  0  0  0  0  0  0  0  0  0  0
   15.2417  -58.4009  -38.3301 C   0  0  0  0  0  0  0  0  0  0  0  0
   16.2146  -58.7298  -37.2765 C   0  0  0  0  0  0  0  0  0  0  0  0
   15.9156  -59.4650  -36.0545 N   0  0  0  0  0  0  0  0  0  0  0  0
   15.9790  -57.7307  -39.2430 N   0  0  0  0  0  0  0  0  0  0  0  0
   17.2676  -57.6603  -38.7856 C   0  0  0  0  0  0  0  0  0  0  0  0
   17.4150  -58.2680  -37.5881 N   0  0  0  0  0  0  0  0  0  0  0  0
   18.6557  -58.3963  -36.7887 C   0  0  1  0  0  0  0  0  0  0  0  0
   19.8504  -58.6436  -37.6951 C   0  0  1  0  0  0  0  0  0  0  0  0
   20.9778  -57.9613  -36.9635 C   0  0  2  0  0  0  0  0  0  0  0  0
   21.5121  -58.8500  -35.9803 O   0  0  0  0  0  0  0  0  0  0  0  0
   20.1200  -60.0403  -37.8230 O   0  0  0  0  0  0  0  0  0  0  0  0
   18.9332  -57.1904  -36.0669 O   0  0  0  0  0  0  0  0  0  0  0  0
   20.2948  -56.8020  -36.2642 C   0  0  2  0  0  0  0  0  0  0  0  0
   20.3682  -55.5540  -37.1303 C   0  0  0  0  0  0  0  0  0  0  0  0
   19.6879  -54.4971  -36.4556 O   0  0  0  0  0  0  0  0  0  0  0  0
   20.2487  -53.8798  -35.0770 P   0  0  0  0  0  0  0  0  0  0  0  0
   21.6988  -53.5574  -35.3539 O   0  0  0  0  0  0  0  0  0  0  0  0
   20.0406  -55.0030  -34.0890 O   0  0  0  0  0  0  0  0  0  0  0  0
   19.3738  -52.6685  -34.8543 O   0  0  0  0  0  0  0  0  0  0  0  0
  1  2  2  0  0  0  0
  2  4  1  0  0  0  0
  2  3  1  0  0  0  0
  4  7  1  0  0  0  0
  5  9  1  0  0  0  0
  5  4  2  0  0  0  0
  6  5  1  0  0  0  0
  8  7  2  0  0  0  0
  9  8  1  0  0  0  0
 10 15  1  0  0  0  0
 10  9  1  6  0  0  0
 10 11  1  0  0  0  0
 11 14  1  1  0  0  0
 11 12  1  0  0  0  0
 12 13  1  1  0  0  0
 15 16  1  0  0  0  0
 16 12  1  0  0  0  0
 16 17  1  6  0  0  0
 17 18  1  0  0  0  0
 18 19  1  0  0  0  0
 19 21  1  0  0  0  0
 19 20  1  0  0  0  0
 22 19  2  0  0  0  0
M  END
>  <CHROM.1>
-8.93260643,141.55347469,178.56414946,66.62019669,50.71084328,18.38166296
-57.01970953,-36.77825575,2.43451105,0.20051221,-2.80286817

>  <Name>
lig.pdb

>  <RI>
0

>  <Rbt.Current_Directory>
/home/itssahil/PROJECTS/Mol_Feturizer/New_Systems/rnas/5btp

>  <Rbt.Executable>
rbdock ($Id: //depot/dev/client3/rdock/2013.1/src/exe/rbdock.cxx#4 $)

>  <Rbt.Library>
libRbt.so (2013.1, Build901 2013/11/27)

>  <Rbt.Parameter_File>
/export/apps/rDock/src/rDock_2013.1_src/data/scripts/dock_solv.prm

>  <Rbt.Receptor>
prm/pocket_docking_6.prm

>  <SCORE>
-15.7853

>  <SCORE.INTER>
-15.1873

>  <SCORE.INTER.CONST>
1

>  <SCORE.INTER.POLAR>
0

>  <SCORE.INTER.ROT>
5

>  <SCORE.INTER.SOLV>
19.9212

>  <SCORE.INTER.VDW>
-23.6986

>  <SCORE.INTER.norm>
-0.690331

>  <SCORE.INTRA>
-0.597972

>  <SCORE.INTRA.DIHEDRAL>
-1.16694

>  <SCORE.INTRA.DIHEDRAL.0>
4.21161

>  <SCORE.INTRA.POLAR>
0

>  <SCORE.INTRA.POLAR.0>
0

>  <SCORE.INTRA.REPUL>
0

>  <SCORE.INTRA.REPUL.0>
0

>  <SCORE.INTRA.SOLV>
0.333599

>  <SCORE.INTRA.SOLV.lig_0>
-41.4168

>  <SCORE.INTRA.VDW>
-0.1813

>  <SCORE.INTRA.VDW.0>
-1.62533

>  <SCORE.INTRA.norm>
-0.0271806

>  <SCORE.RESTR>
0

>  <SCORE.RESTR.CAVITY>
0

>  <SCORE.RESTR.norm>
0

>  <SCORE.SYSTEM>
0

>  <SCORE.SYSTEM.CONST>
0

>  <SCORE.SYSTEM.DIHEDRAL>
0

>  <SCORE.SYSTEM.SOLV>
0

>  <SCORE.SYSTEM.norm>
0

>  <SCORE.heavy>
22

>  <SCORE.norm>
-0.717512

>  <RMSD>
3.633

$$$$
lig.pdb
 OpenBabel11021811523D
libRbt.so/2013.1/901 2013/11/27
 22 23  0  0  0  0  0  0  0  0999 V2000
   13.4121  -59.5467  -37.4357 O   0  0  0  0  0  0  0  0  0  0  0  0
   13.8139  -58.7862  -38.3024 C   0  0  0  0  0  0  0  0  0  0  0  0
   12.9983  -58.2821  -39.2284 N   0  0  0  0  0  0  0  0  0  0  0  0
   15.2573  -58.4174  -38.3439 C   0  0  0  0  0  0  0  0  0  0  0  0
   16.2219  -58.7300  -37.2777 C   0  0  0  0  0  0  0  0  0  0  0  0
   15.9098  -59.4323  -36.0398 N   0  0  0  0  0  0  0  0  0  0  0  0
   16.0057  -57.7768  -39.2691 N   0  0  0  0  0  0  0  0  0  0  0  0
   17.2926  -57.7079  -38.8070 C   0  0  0  0  0  0  0  0  0  0  0  0
   17.4282  -58.2877  -37.5945 N   0  0  0  0  0  0  0  0  0  0  0  0
   18.6638  -58.4085  -36.7859 C   0  0  1  0  0  0  0  0  0  0  0  0
   19.8670  -58.6459  -37.6837 C   0  0  1  0  0  0  0  0  0  0  0  0
   20.9840  -57.9569  -36.9425 C   0  0  2  0  0  0  0  0  0  0  0  0
   21.5172  -58.8435  -35.9568 O   0  0  0  0  0  0  0  0  0  0  0  0
   20.1474  -60.0404  -37.8119 O   0  0  0  0  0  0  0  0  0  0  0  0
   18.9273  -57.2020  -36.0601 O   0  0  0  0  0  0  0  0  0  0  0  0
   20.2876  -56.8037  -36.2464 C   0  0  2  0  0  0  0  0  0  0  0  0
   20.3587  -55.5537  -37.1099 C   0  0  0  0  0  0  0  0  0  0  0  0
   19.6342  -54.5131  -36.4562 O   0  0  0  0  0  0  0  0  0  0  0  0
   20.1629  -53.8520  -35.0853 P   0  0  0  0  0  0  0  0  0  0  0  0
   21.5860  -53.4347  -35.3755 O   0  0  0  0  0  0  0  0  0  0  0  0
   20.0383  -54.9812  -34.0900 O   0  0  0  0  0  0  0  0  0  0  0  0
   19.2106  -52.7008  -34.8615 O   0  0  0  0  0  0  0  0  0  0  0  0
  1  2  2  0  0  0  0
  2  4  1  0  0  0  0
  2  3  1  0  0  0  0
  4  7  1  0  0  0  0
  5  9  1  0  0  0  0
  5  4  2  0  0  0  0
  6  5  1  0  0  0  0
  8  7  2  0  0  0  0
  9  8  1  0  0  0  0
 10 15  1  0  0  0  0
 10  9  1  6  0  0  0
 10 11  1  0  0  0  0
 11 14  1  1  0  0  0
 11 12  1  0  0  0  0
 12 13  1  1  0  0  0
 15 16  1  0  0  0  0
 16 12  1  0  0  0  0
 16 17  1  6  0  0  0
 17 18  1  0  0  0  0
 18 19  1  0  0  0  0
 19 21  1  0  0  0  0
 19 20  1  0  0  0  0
 22 19  2  0  0  0  0
M  END
>  <CHROM.1>
-10.41717663,143.33510056,176.96964809,68.57897263,52.61086689,18.36395302
-57.01663682,-36.77910797,2.42493138,0.20174252,-2.80080824

>  <Name>
lig.pdb

>  <RI>
0

>  <Rbt.Current_Directory>
/home/itssahil/PROJECTS/Mol_Feturizer/New_Systems/rnas/5btp

>  <Rbt.Executable>
rbdock ($Id: //depot/dev/client3/rdock/2013.1/src/exe/rbdock.cxx#4 $)

>  <Rbt.Library>
libRbt.so (2013.1, Build901 2013/11/27)

>  <Rbt.Parameter_File>
/export/apps/rDock/src/rDock_2013.1_src/data/scripts/dock_solv.prm

>  <Rbt.Receptor>
prm/pocket_docking_6.prm

>  <SCORE>
-15.8016

>  <SCORE.INTER>
-15.3158

>  <SCORE.INTER.CONST>
1

>  <SCORE.INTER.POLAR>
0

>  <SCORE.INTER.ROT>
5

>  <SCORE.INTER.SOLV>
20.0038

>  <SCORE.INTER.VDW>
-23.8118

>  <SCORE.INTER.norm>
-0.696172

>  <SCORE.INTRA>
-0.485785

>  <SCORE.INTRA.DIHEDRAL>
-0.949866

>  <SCORE.INTRA.DIHEDRAL.0>
4.21161

>  <SCORE.INTRA.POLAR>
0

>  <SCORE.INTRA.POLAR.0>
0

>  <SCORE.INTRA.REPUL>
0

>  <SCORE.INTRA.REPUL.0>
0

>  <SCORE.INTRA.SOLV>
0.307736

>  <SCORE.INTRA.SOLV.lig_0>
-41.4168

>  <SCORE.INTRA.VDW>
-0.16472

>  <SCORE.INTRA.VDW.0>
-1.62533

>  <SCORE.INTRA.norm>
-0.0220811

>  <SCORE.RESTR>
0

>  <SCORE.RESTR.CAVITY>
0

>  <SCORE.RESTR.norm>
0

>  <SCORE.SYSTEM>
0

>  <SCORE.SYSTEM.CONST>
0

>  <SCORE.SYSTEM.DIHEDRAL>
0

>  <SCORE.SYSTEM.SOLV>
0

>  <SCORE.SYSTEM.norm>
0

>  <SCORE.heavy>
22

>  <SCORE.norm>
-0.718253

>  <RMSD>
3.656

$$$$
lig.pdb
 OpenBabel11021811523D
libRbt.so/2013.1/901 2013/11/27
 22 23  0  0  0  0  0  0  0  0999 V2000
   12.9313  -58.3878  -39.1462 O   0  0  0  0  0  0  0  0  0  0  0  0
   13.6850  -58.7795  -38.2690 C   0  0  0  0  0  0  0  0  0  0  0  0
   13.2449  -59.4865  -37.2281 N   0  0  0  0  0  0  0  0  0  0  0  0
   15.1364  -58.4504  -38.3471 C   0  0  0  0  0  0  0  0  0  0  0  0
   16.0973  -58.6833  -37.2574 C   0  0  0  0  0  0  0  0  0  0  0  0
   15.7732  -59.2576  -35.9581 N   0  0  0  0  0  0  0  0  0  0  0  0
   15.8962  -57.9181  -39.3298 N   0  0  0  0  0  0  0  0  0  0  0  0
   17.1861  -57.8361  -38.8781 C   0  0  0  0  0  0  0  0  0  0  0  0
   17.3125  -58.3015  -37.6163 N   0  0  0  0  0  0  0  0  0  0  0  0
   18.5477  -58.3743  -36.8015 C   0  0  1  0  0  0  0  0  0  0  0  0
   19.7607  -58.5913  -37.6912 C   0  0  1  0  0  0  0  0  0  0  0  0
   20.8547  -57.8590  -36.9571 C   0  0  2  0  0  0  0  0  0  0  0  0
   21.4090  -58.7145  -35.9555 O   0  0  0  0  0  0  0  0  0  0  0  0
   20.0814  -59.9791  -37.7964 O   0  0  0  0  0  0  0  0  0  0  0  0
   18.7739  -57.1495  -36.0940 O   0  0  0  0  0  0  0  0  0  0  0  0
   20.1230  -56.7154  -36.2817 C   0  0  2  0  0  0  0  0  0  0  0  0
   20.1619  -55.4777  -37.1646 C   0  0  0  0  0  0  0  0  0  0  0  0
   19.3619  -54.4653  -36.5561 O   0  0  0  0  0  0  0  0  0  0  0  0
   19.8252  -53.7276  -35.2007 P   0  0  0  0  0  0  0  0  0  0  0  0
   21.1837  -53.1461  -35.5163 O   0  0  0  0  0  0  0  0  0  0  0  0
   19.8503  -54.8505  -34.1909 O   0  0  0  0  0  0  0  0  0  0  0  0
   18.7442  -52.6964  -34.9762 O   0  0  0  0  0  0  0  0  0  0  0  0
  1  2  2  0  0  0  0
  2  4  1  0  0  0  0
  2  3  1  0  0  0  0
  4  7  1  0  0  0  0
  5  9  1  0  0  0  0
  5  4  2  0  0  0  0
  6  5  1  0  0  0  0
  8  7  2  0  0  0  0
  9  8  1  0  0  0  0
 10 15  1  0  0  0  0
 10  9  1  6  0  0  0
 10 11  1  0  0  0  0
 11 14  1  1  0  0  0
 11 12  1  0  0  0  0
 12 13  1  1  0  0  0
 15 16  1  0  0  0  0
 16 12  1  0  0  0  0
 16 17  1  6  0  0  0
 17 18  1  0  0  0  0
 18 19  1  0  0  0  0
 19 21  1  0  0  0  0
 19 20  1  0  0  0  0
 22 19  2  0  0  0  0
M  END
>  <CHROM.1>
170.08810049,148.77205121,174.70151547,70.25296401,56.42783456,18.17725169
-56.95468129,-36.81711525,2.40502615,0.18588878,-2.80056365

>  <Name>
lig.pdb

>  <RI>
0

>  <Rbt.Current_Directory>
/home/itssahil/PROJECTS/Mol_Feturizer/New_Systems/rnas/5btp

>  <Rbt.Executable>
rbdock ($Id: //depot/dev/client3/rdock/2013.1/src/exe/rbdock.cxx#4 $)

>  <Rbt.Library>
libRbt.so (2013.1, Build901 2013/11/27)

>  <Rbt.Parameter_File>
/export/apps/rDock/src/rDock_2013.1_src/data/scripts/dock_solv.prm

>  <Rbt.Receptor>
prm/pocket_docking_6.prm

>  <SCORE>
-16.0327

>  <SCORE.INTER>
-15.8475

>  <SCORE.INTER.CONST>
1

>  <SCORE.INTER.POLAR>
0

>  <SCORE.INTER.ROT>
5

>  <SCORE.INTER.SOLV>
20.642

>  <SCORE.INTER.VDW>
-24.379

>  <SCORE.INTER.norm>
-0.720342

>  <SCORE.INTRA>
-0.185144

>  <SCORE.INTRA.DIHEDRAL>
-0.83356

>  <SCORE.INTRA.DIHEDRAL.0>
4.21161

>  <SCORE.INTRA.POLAR>
0

>  <SCORE.INTRA.POLAR.0>
0

>  <SCORE.INTRA.REPUL>
0

>  <SCORE.INTRA.REPUL.0>
0

>  <SCORE.INTRA.SOLV>
0.543277

>  <SCORE.INTRA.SOLV.lig_0>
-41.4168

>  <SCORE.INTRA.VDW>
-0.040003

>  <SCORE.INTRA.VDW.0>
-1.62533

>  <SCORE.INTRA.norm>
-0.00841565

>  <SCORE.RESTR>
0

>  <SCORE.RESTR.CAVITY>
0

>  <SCORE.RESTR.norm>
0

>  <SCORE.SYSTEM>
0

>  <SCORE.SYSTEM.CONST>
0

>  <SCORE.SYSTEM.DIHEDRAL>
0

>  <SCORE.SYSTEM.SOLV>
0

>  <SCORE.SYSTEM.norm>
0

>  <SCORE.heavy>
22

>  <SCORE.norm>
-0.728758

>  <RMSD>
3.716

$$$$
lig.pdb
 OpenBabel11021811523D
libRbt.so/2013.1/901 2013/11/27
 22 23  0  0  0  0  0  0  0  0999 V2000
   14.5846  -58.5025  -39.4162 O   0  0  0  0  0  0  0  0  0  0  0  0
   15.1652  -58.7042  -38.3611 C   0  0  0  0  0  0  0  0  0  0  0  0
   14.6127  -59.4176  -37.3799 N   0  0  0  0  0  0  0  0  0  0  0  0
   16.5234  -58.1284  -38.1488 C   0  0  0  0  0  0  0  0  0  0  0  0
   17.3257  -58.3286  -36.9318 C   0  0  0  0  0  0  0  0  0  0  0  0
   16.9129  -59.1049  -35.7698 N   0  0  0  0  0  0  0  0  0  0  0  0
   17.3163  -57.3589  -38.9269 N   0  0  0  0  0  0  0  0  0  0  0  0
   18.4799  -57.1172  -38.2471 C   0  0  0  0  0  0  0  0  0  0  0  0
   18.4894  -57.7065  -37.0316 N   0  0  0  0  0  0  0  0  0  0  0  0
   19.5715  -57.6701  -36.0203 C   0  0  1  0  0  0  0  0  0  0  0  0
   20.4630  -58.8942  -36.1496 C   0  0  1  0  0  0  0  0  0  0  0  0
   21.8169  -58.3720  -35.7422 C   0  0  2  0  0  0  0  0  0  0  0  0
   21.9320  -58.4117  -34.3184 O   0  0  0  0  0  0  0  0  0  0  0  0
   20.0469  -59.9314  -35.2603 O   0  0  0  0  0  0  0  0  0  0  0  0
   20.4160  -56.5282  -36.2069 O   0  0  0  0  0  0  0  0  0  0  0  0
   21.7892  -56.9256  -36.1966 C   0  0  2  0  0  0  0  0  0  0  0  0
   22.3846  -56.8055  -37.5909 C   0  0  0  0  0  0  0  0  0  0  0  0
   22.4724  -55.4214  -37.9253 O   0  0  0  0  0  0  0  0  0  0  0  0
   23.6513  -54.4885  -37.3459 P   0  0  0  0  0  0  0  0  0  0  0  0
   24.9323  -55.1836  -37.7447 O   0  0  0  0  0  0  0  0  0  0  0  0
   23.3850  -54.4836  -35.8592 O   0  0  0  0  0  0  0  0  0  0  0  0
   23.4213  -53.1645  -38.0361 O   0  0  0  0  0  0  0  0  0  0  0  0
  1  2  2  0  0  0  0
  2  4  1  0  0  0  0
  2  3  1  0  0  0  0
  4  7  1  0  0  0  0
  5  9  1  0  0  0  0
  5  4  2  0  0  0  0
  6  5  1  0  0  0  0
  8  7  2  0  0  0  0
  9  8  1  0  0  0  0
 10 15  1  0  0  0  0
 10  9  1  6  0  0  0
 10 11  1  0  0  0  0
 11 14  1  1  0  0  0
 11 12  1  0  0  0  0
 12 13  1  1  0  0  0
 15 16  1  0  0  0  0
 16 12  1  0  0  0  0
 16 17  1  6  0  0  0
 17 18  1  0  0  0  0
 18 19  1  0  0  0  0
 19 21  1  0  0  0  0
 19 20  1  0  0  0  0
 22 19  2  0  0  0  0
M  END
>  <CHROM.1>
-178.69821615,84.81268230,-173.91190036,78.41550611,55.40397965,20.13266301
-57.08953035,-37.02939525,2.87357073,0.38601002,2.37988269

>  <Name>
lig.pdb

>  <RI>
0

>  <Rbt.Current_Directory>
/home/itssahil/PROJECTS/Mol_Feturizer/New_Systems/rnas/5btp

>  <Rbt.Executable>
rbdock ($Id: //depot/dev/client3/rdock/2013.1/src/exe/rbdock.cxx#4 $)

>  <Rbt.Library>
libRbt.so (2013.1, Build901 2013/11/27)

>  <Rbt.Parameter_File>
/export/apps/rDock/src/rDock_2013.1_src/data/scripts/dock_solv.prm

>  <Rbt.Receptor>
prm/pocket_docking_5.prm

>  <SCORE>
-13.7987

>  <SCORE.INTER>
-13.4323

>  <SCORE.INTER.CONST>
1

>  <SCORE.INTER.POLAR>
0

>  <SCORE.INTER.ROT>
5

>  <SCORE.INTER.SOLV>
20.3482

>  <SCORE.INTER.VDW>
-22.6709

>  <SCORE.INTER.norm>
-0.610559

>  <SCORE.INTRA>
-0.366403

>  <SCORE.INTRA.DIHEDRAL>
-0.0709826

>  <SCORE.INTRA.DIHEDRAL.0>
4.21161

>  <SCORE.INTRA.POLAR>
0

>  <SCORE.INTRA.POLAR.0>
0

>  <SCORE.INTRA.REPUL>
0

>  <SCORE.INTRA.REPUL.0>
0

>  <SCORE.INTRA.SOLV>
0.765012

>  <SCORE.INTRA.SOLV.lig_0>
-41.4168

>  <SCORE.INTRA.VDW>
-0.713417

>  <SCORE.INTRA.VDW.0>
-1.62533

>  <SCORE.INTRA.norm>
-0.0166547

>  <SCORE.RESTR>
0

>  <SCORE.RESTR.CAVITY>
0

>  <SCORE.RESTR.norm>
0

>  <SCORE.SYSTEM>
0

>  <SCORE.SYSTEM.CONST>
0

>  <SCORE.SYSTEM.DIHEDRAL>
0

>  <SCORE.SYSTEM.SOLV>
0

>  <SCORE.SYSTEM.norm>
0

>  <SCORE.heavy>
22

>  <SCORE.norm>
-0.627213

>  <RMSD>
3.743

$$$$
lig.pdb
 OpenBabel11021811523D
libRbt.so/2013.1/901 2013/11/27
 22 23  0  0  0  0  0  0  0  0999 V2000
   17.6215  -54.6971  -39.4955 O   0  0  0  0  0  0  0  0  0  0  0  0
   17.5404  -55.8766  -39.1899 C   0  0  0  0  0  0  0  0  0  0  0  0
   16.4681  -56.6088  -39.4914 N   0  0  0  0  0  0  0  0  0  0  0  0
   18.6596  -56.5207  -38.4457 C   0  0  0  0  0  0  0  0  0  0  0  0
   18.5690  -57.8349  -37.7904 C   0  0  0  0  0  0  0  0  0  0  0  0
   17.3859  -58.6852  -37.7696 N   0  0  0  0  0  0  0  0  0  0  0  0
   19.9304  -56.1321  -38.2001 N   0  0  0  0  0  0  0  0  0  0  0  0
   20.5449  -57.1126  -37.4682 C   0  0  0  0  0  0  0  0  0  0  0  0
   19.7189  -58.1515  -37.2170 N   0  0  0  0  0  0  0  0  0  0  0  0
   20.0290  -59.3880  -36.4621 C   0  0  1  0  0  0  0  0  0  0  0  0
   21.4386  -59.8632  -36.7740 C   0  0  1  0  0  0  0  0  0  0  0  0
   21.8775  -60.4954  -35.4780 C   0  0  2  0  0  0  0  0  0  0  0  0
   21.4105  -61.8450  -35.4262 O   0  0  0  0  0  0  0  0  0  0  0  0
   21.4352  -60.8355  -37.8201 O   0  0  0  0  0  0  0  0  0  0  0  0
   19.9787  -59.1579  -35.0491 O   0  0  0  0  0  0  0  0  0  0  0  0
   21.1536  -59.6802  -34.4241 C   0  0  2  0  0  0  0  0  0  0  0  0
   22.0434  -58.5457  -33.9400 C   0  0  0  0  0  0  0  0  0  0  0  0
   21.3431  -57.8250  -32.9274 O   0  0  0  0  0  0  0  0  0  0  0  0
   21.9834  -56.5243  -32.2244 P   0  0  0  0  0  0  0  0  0  0  0  0
   20.9691  -56.1008  -31.1874 O   0  0  0  0  0  0  0  0  0  0  0  0
   22.1383  -55.5554  -33.3726 O   0  0  0  0  0  0  0  0  0  0  0  0
   23.2819  -57.0402  -31.6498 O   0  0  0  0  0  0  0  0  0  0  0  0
  1  2  2  0  0  0  0
  2  4  1  0  0  0  0
  2  3  1  0  0  0  0
  4  7  1  0  0  0  0
  5  9  1  0  0  0  0
  5  4  2  0  0  0  0
  6  5  1  0  0  0  0
  8  7  2  0  0  0  0
  9  8  1  0  0  0  0
 10 15  1  0  0  0  0
 10  9  1  6  0  0  0
 10 11  1  0  0  0  0
 11 14  1  6  0  0  0
 11 12  1  0  0  0  0
 12 13  1  6  0  0  0
 15 16  1  0  0  0  0
 16 12  1  0  0  0  0
 16 17  1  6  0  0  0
 17 18  1  0  0  0  0
 18 19  1  0  0  0  0
 19 21  1  0  0  0  0
 19 20  1  0  0  0  0
 22 19  2  0  0  0  0
M  END
>  <CHROM.1>
167.04315495,140.95274596,-178.49804046,-178.15038698,-177.63749869,20.40218056
-57.85706113,-35.68395906,2.77421306,0.96516815,-2.62202735

>  <Name>
lig.pdb

>  <RI>
0

>  <Rbt.Current_Directory>
/home/itssahil/PROJECTS/Mol_Feturizer/New_Systems/rnas/5btp

>  <Rbt.Executable>
rbdock ($Id: //depot/dev/client3/rdock/2013.1/src/exe/rbdock.cxx#4 $)

>  <Rbt.Library>
libRbt.so (2013.1, Build901 2013/11/27)

>  <Rbt.Parameter_File>
/export/apps/rDock/src/rDock_2013.1_src/data/scripts/dock_solv.prm

>  <Rbt.Receptor>
prm/pocket_docking_4.prm

>  <SCORE>
-8.60026

>  <SCORE.INTER>
-7.75072

>  <SCORE.INTER.CONST>
1

>  <SCORE.INTER.POLAR>
0

>  <SCORE.INTER.ROT>
5

>  <SCORE.INTER.SOLV>
16.4051

>  <SCORE.INTER.VDW>
-17.5689

>  <SCORE.INTER.norm>
-0.352305

>  <SCORE.INTRA>
-0.849538

>  <SCORE.INTRA.DIHEDRAL>
-1.19628

>  <SCORE.INTRA.DIHEDRAL.0>
4.21161

>  <SCORE.INTRA.POLAR>
0

>  <SCORE.INTRA.POLAR.0>
0

>  <SCORE.INTRA.REPUL>
0

>  <SCORE.INTRA.REPUL.0>
0

>  <SCORE.INTRA.SOLV>
-0.100999

>  <SCORE.INTRA.SOLV.lig_0>
-41.4168

>  <SCORE.INTRA.VDW>
-0.200901

>  <SCORE.INTRA.VDW.0>
-1.62533

>  <SCORE.INTRA.norm>
-0.0386154

>  <SCORE.RESTR>
0

>  <SCORE.RESTR.CAVITY>
0

>  <SCORE.RESTR.norm>
0

>  <SCORE.SYSTEM>
0

>  <SCORE.SYSTEM.CONST>
0

>  <SCORE.SYSTEM.DIHEDRAL>
0

>  <SCORE.SYSTEM.SOLV>
0

>  <SCORE.SYSTEM.norm>
0

>  <SCORE.heavy>
22

>  <SCORE.norm>
-0.390921

>  <RMSD>
3.821

$$$$
lig.pdb
 OpenBabel11021811523D
libRbt.so/2013.1/901 2013/11/27
 22 23  0  0  0  0  0  0  0  0999 V2000
   14.2783  -57.8149  -39.3143 O   0  0  0  0  0  0  0  0  0  0  0  0
   14.9302  -58.3595  -38.4372 C   0  0  0  0  0  0  0  0  0  0  0  0
   14.3820  -59.2353  -37.5949 N   0  0  0  0  0  0  0  0  0  0  0  0
   16.3762  -58.0315  -38.2862 C   0  0  0  0  0  0  0  0  0  0  0  0
   17.2508  -58.6047  -37.2512 C   0  0  0  0  0  0  0  0  0  0  0  0
   16.8351  -59.5607  -36.2330 N   0  0  0  0  0  0  0  0  0  0  0  0
   17.2014  -57.2189  -38.9826 N   0  0  0  0  0  0  0  0  0  0  0  0
   18.4488  -57.2926  -38.4229 C   0  0  0  0  0  0  0  0  0  0  0  0
   18.4828  -58.1360  -37.3682 N   0  0  0  0  0  0  0  0  0  0  0  0
   19.6497  -58.4717  -36.5194 C   0  0  1  0  0  0  0  0  0  0  0  0
   20.7815  -59.0301  -37.3662 C   0  0  1  0  0  0  0  0  0  0  0  0
   22.0141  -58.5563  -36.6395 C   0  0  2  0  0  0  0  0  0  0  0  0
   22.3235  -59.4695  -35.5848 O   0  0  0  0  0  0  0  0  0  0  0  0
   20.7462  -60.4575  -37.3976 O   0  0  0  0  0  0  0  0  0  0  0  0
   20.1656  -57.3067  -35.8647 O   0  0  0  0  0  0  0  0  0  0  0  0
   21.5828  -57.2329  -36.0378 C   0  0  2  0  0  0  0  0  0  0  0  0
   21.9416  -56.0915  -36.9767 C   0  0  0  0  0  0  0  0  0  0  0  0
   23.3632  -55.9884  -37.0374 O   0  0  0  0  0  0  0  0  0  0  0  0
   24.0891  -54.9036  -37.9820 P   0  0  0  0  0  0  0  0  0  0  0  0
   23.3461  -53.6109  -37.7360 O   0  0  0  0  0  0  0  0  0  0  0  0
   23.8994  -55.4742  -39.3675 O   0  0  0  0  0  0  0  0  0  0  0  0
   25.5157  -54.9052  -37.4849 O   0  0  0  0  0  0  0  0  0  0  0  0
  1  2  2  0  0  0  0
  2  4  1  0  0  0  0
  2  3  1  0  0  0  0
  4  7  1  0  0  0  0
  5  9  1  0  0  0  0
  5  4  2  0  0  0  0
  6  5  1  0  0  0  0
  8  7  2  0  0  0  0
  9  8  1  0  0  0  0
 10 15  1  0  0  0  0
 10  9  1  6  0  0  0
 10 11  1  0  0  0  0
 11 14  1  1  0  0  0
 11 12  1  0  0  0  0
 12 13  1  1  0  0  0
 15 16  1  0  0  0  0
 16 12  1  0  0  0  0
 16 17  1  6  0  0  0
 17 18  1  0  0  0  0
 18 19  1  0  0  0  0
 19 21  1  0  0  0  0
 19 20  1  0  0  0  0
 22 19  2  0  0  0  0
M  END
>  <CHROM.1>
178.74152339,122.46707813,-67.19967836,178.10416585,46.16964296,20.25270558
-57.34407420,-37.47475272,2.84370024,0.23606712,2.60394697

>  <Name>
lig.pdb

>  <RI>
0

>  <Rbt.Current_Directory>
/home/itssahil/PROJECTS/Mol_Feturizer/New_Systems/rnas/5btp

>  <Rbt.Executable>
rbdock ($Id: //depot/dev/client3/rdock/2013.1/src/exe/rbdock.cxx#4 $)

>  <Rbt.Library>
libRbt.so (2013.1, Build901 2013/11/27)

>  <Rbt.Parameter_File>
/export/apps/rDock/src/rDock_2013.1_src/data/scripts/dock_solv.prm

>  <Rbt.Receptor>
prm/pocket_docking_5.prm

>  <SCORE>
-16.7914

>  <SCORE.INTER>
-15.8153

>  <SCORE.INTER.CONST>
1

>  <SCORE.INTER.POLAR>
0

>  <SCORE.INTER.ROT>
5

>  <SCORE.INTER.SOLV>
21.1327

>  <SCORE.INTER.VDW>
-24.5211

>  <SCORE.INTER.norm>
-0.718877

>  <SCORE.INTRA>
-0.984364

>  <SCORE.INTRA.DIHEDRAL>
-1.28218

>  <SCORE.INTRA.DIHEDRAL.0>
4.21161

>  <SCORE.INTRA.POLAR>
0

>  <SCORE.INTRA.POLAR.0>
0

>  <SCORE.INTRA.REPUL>
0

>  <SCORE.INTRA.REPUL.0>
0

>  <SCORE.INTRA.SOLV>
-0.142953

>  <SCORE.INTRA.SOLV.lig_0>
-41.4168

>  <SCORE.INTRA.VDW>
-0.271796

>  <SCORE.INTRA.VDW.0>
-1.62533

>  <SCORE.INTRA.norm>
-0.0447438

>  <SCORE.RESTR>
0.00828529

>  <SCORE.RESTR.CAVITY>
0.00828529

>  <SCORE.RESTR.norm>
0.000376604

>  <SCORE.SYSTEM>
0

>  <SCORE.SYSTEM.CONST>
0

>  <SCORE.SYSTEM.DIHEDRAL>
0

>  <SCORE.SYSTEM.SOLV>
0

>  <SCORE.SYSTEM.norm>
0

>  <SCORE.heavy>
22

>  <SCORE.norm>
-0.763245

>  <RMSD>
3.832

$$$$
lig.pdb
 OpenBabel11021811523D
libRbt.so/2013.1/901 2013/11/27
 22 23  0  0  0  0  0  0  0  0999 V2000
   13.5450  -57.9017  -39.3936 O   0  0  0  0  0  0  0  0  0  0  0  0
   14.0929  -58.3845  -38.4149 C   0  0  0  0  0  0  0  0  0  0  0  0
   13.3983  -58.9545  -37.4303 N   0  0  0  0  0  0  0  0  0  0  0  0
   15.5778  -58.3265  -38.3016 C   0  0  0  0  0  0  0  0  0  0  0  0
   16.3503  -58.9595  -37.2212 C   0  0  0  0  0  0  0  0  0  0  0  0
   15.7833  -59.7216  -36.1161 N   0  0  0  0  0  0  0  0  0  0  0  0
   16.5267  -57.7535  -39.0745 N   0  0  0  0  0  0  0  0  0  0  0  0
   17.7495  -58.0129  -38.5158 C   0  0  0  0  0  0  0  0  0  0  0  0
   17.6460  -58.7476  -37.3869 N   0  0  0  0  0  0  0  0  0  0  0  0
   18.7464  -59.2213  -36.5153 C   0  0  1  0  0  0  0  0  0  0  0  0
   20.0890  -59.0318  -37.2019 C   0  0  1  0  0  0  0  0  0  0  0  0
   21.0214  -58.7517  -36.0512 C   0  0  2  0  0  0  0  0  0  0  0  0
   21.4609  -59.9878  -35.4848 O   0  0  0  0  0  0  0  0  0  0  0  0
   20.4916  -60.2203  -37.8841 O   0  0  0  0  0  0  0  0  0  0  0  0
   18.8011  -58.4705  -35.2966 O   0  0  0  0  0  0  0  0  0  0  0  0
   20.1394  -58.0334  -35.0485 C   0  0  2  0  0  0  0  0  0  0  0  0
   20.2484  -56.5287  -35.2418 C   0  0  0  0  0  0  0  0  0  0  0  0
   19.5235  -56.1722  -36.4176 O   0  0  0  0  0  0  0  0  0  0  0  0
   19.3368  -54.6335  -36.8573 P   0  0  0  0  0  0  0  0  0  0  0  0
   20.7312  -54.0514  -36.8463 O   0  0  0  0  0  0  0  0  0  0  0  0
   18.4249  -54.0797  -35.7882 O   0  0  0  0  0  0  0  0  0  0  0  0
   18.7159  -54.7346  -38.2309 O   0  0  0  0  0  0  0  0  0  0  0  0
  1  2  2  0  0  0  0
  2  4  1  0  0  0  0
  2  3  1  0  0  0  0
  4  7  1  0  0  0  0
  5  9  1  0  0  0  0
  5  4  2  0  0  0  0
  6  5  1  0  0  0  0
  8  7  2  0  0  0  0
  9  8  1  0  0  0  0
 10 15  1  0  0  0  0
 10  9  1  6  0  0  0
 10 11  1  0  0  0  0
 11 14  1  1  0  0  0
 11 12  1  0  0  0  0
 12 13  1  1  0  0  0
 15 16  1  0  0  0  0
 16 12  1  0  0  0  0
 16 17  1  6  0  0  0
 17 18  1  0  0  0  0
 18 19  1  0  0  0  0
 19 21  1  0  0  0  0
 19 20  1  0  0  0  0
 22 19  2  0  0  0  0
M  END
>  <CHROM.1>
-175.30048882,167.66991770,74.42542497,175.26485583,51.38615251,18.24217042
-57.53132959,-37.00633077,2.82628588,0.36692649,3.06158141

>  <Name>
lig.pdb

>  <RI>
0

>  <Rbt.Current_Directory>
/home/itssahil/PROJECTS/Mol_Feturizer/New_Systems/rnas/5btp

>  <Rbt.Executable>
rbdock ($Id: //depot/dev/client3/rdock/2013.1/src/exe/rbdock.cxx#4 $)

>  <Rbt.Library>
libRbt.so (2013.1, Build901 2013/11/27)

>  <Rbt.Parameter_File>
/export/apps/rDock/src/rDock_2013.1_src/data/scripts/dock_solv.prm

>  <Rbt.Receptor>
prm/pocket_docking_6.prm

>  <SCORE>
-15.9181

>  <SCORE.INTER>
-15.3802

>  <SCORE.INTER.CONST>
1

>  <SCORE.INTER.POLAR>
0

>  <SCORE.INTER.ROT>
5

>  <SCORE.INTER.SOLV>
22.6126

>  <SCORE.INTER.VDW>
-24.7243

>  <SCORE.INTER.norm>
-0.699098

>  <SCORE.INTRA>
-0.53799

>  <SCORE.INTRA.DIHEDRAL>
-0.790538

>  <SCORE.INTRA.DIHEDRAL.0>
4.21161

>  <SCORE.INTRA.POLAR>
0

>  <SCORE.INTRA.POLAR.0>
0

>  <SCORE.INTRA.REPUL>
0

>  <SCORE.INTRA.REPUL.0>
0

>  <SCORE.INTRA.SOLV>
1.03112

>  <SCORE.INTRA.SOLV.lig_0>
-41.4168

>  <SCORE.INTRA.VDW>
-0.65828

>  <SCORE.INTRA.VDW.0>
-1.62533

>  <SCORE.INTRA.norm>
-0.0244541

>  <SCORE.RESTR>
0

>  <SCORE.RESTR.CAVITY>
0

>  <SCORE.RESTR.norm>
0

>  <SCORE.SYSTEM>
0

>  <SCORE.SYSTEM.CONST>
0

>  <SCORE.SYSTEM.DIHEDRAL>
0

>  <SCORE.SYSTEM.SOLV>
0

>  <SCORE.SYSTEM.norm>
0

>  <SCORE.heavy>
22

>  <SCORE.norm>
-0.723552

>  <RMSD>
3.848

$$$$
lig.pdb
 OpenBabel11021811523D
libRbt.so/2013.1/901 2013/11/27
 22 23  0  0  0  0  0  0  0  0999 V2000
   14.4267  -59.2066  -37.5687 O   0  0  0  0  0  0  0  0  0  0  0  0
   14.9383  -58.4197  -38.3498 C   0  0  0  0  0  0  0  0  0  0  0  0
   14.2422  -57.8563  -39.3371 N   0  0  0  0  0  0  0  0  0  0  0  0
   16.3842  -58.0850  -38.2132 C   0  0  0  0  0  0  0  0  0  0  0  0
   17.2705  -58.6507  -37.1840 C   0  0  0  0  0  0  0  0  0  0  0  0
   16.8681  -59.6044  -36.1585 N   0  0  0  0  0  0  0  0  0  0  0  0
   17.1997  -57.2717  -38.9201 N   0  0  0  0  0  0  0  0  0  0  0  0
   18.4524  -57.3381  -38.3715 C   0  0  0  0  0  0  0  0  0  0  0  0
   18.4994  -58.1773  -37.3140 N   0  0  0  0  0  0  0  0  0  0  0  0
   19.6754  -58.5049  -36.4745 C   0  0  1  0  0  0  0  0  0  0  0  0
   20.8088  -59.0434  -37.3320 C   0  0  1  0  0  0  0  0  0  0  0  0
   22.0398  -58.5599  -36.6091 C   0  0  2  0  0  0  0  0  0  0  0  0
   22.3666  -59.4768  -35.5629 O   0  0  0  0  0  0  0  0  0  0  0  0
   20.7906  -60.4709  -37.3736 O   0  0  0  0  0  0  0  0  0  0  0  0
   20.1810  -57.3385  -35.8144 O   0  0  0  0  0  0  0  0  0  0  0  0
   21.5961  -57.2462  -35.9953 C   0  0  2  0  0  0  0  0  0  0  0  0
   21.9356  -56.0938  -36.9280 C   0  0  0  0  0  0  0  0  0  0  0  0
   23.3534  -55.9382  -36.9540 O   0  0  0  0  0  0  0  0  0  0  0  0
   24.0676  -54.8945  -37.9522 P   0  0  0  0  0  0  0  0  0  0  0  0
   23.3568  -53.5814  -37.7195 O   0  0  0  0  0  0  0  0  0  0  0  0
   23.8222  -55.4999  -39.3140 O   0  0  0  0  0  0  0  0  0  0  0  0
   25.5095  -54.9096  -37.5015 O   0  0  0  0  0  0  0  0  0  0  0  0
  1  2  2  0  0  0  0
  2  4  1  0  0  0  0
  2  3  1  0  0  0  0
  4  7  1  0  0  0  0
  5  9  1  0  0  0  0
  5  4  2  0  0  0  0
  6  5  1  0  0  0  0
  8  7  2  0  0  0  0
  9  8  1  0  0  0  0
 10 15  1  0  0  0  0
 10  9  1  6  0  0  0
 10 11  1  0  0  0  0
 11 14  1  1  0  0  0
 11 12  1  0  0  0  0
 12 13  1  1  0  0  0
 15 16  1  0  0  0  0
 16 12  1  0  0  0  0
 16 17  1  6  0  0  0
 17 18  1  0  0  0  0
 18 19  1  0  0  0  0
 19 21  1  0  0  0  0
 19 20  1  0  0  0  0
 22 19  2  0  0  0  0
M  END
>  <CHROM.1>
0.31035195,123.26928868,-69.51432986,174.12539833,51.66100223,20.25979146
-57.36834517,-37.42352368,2.83130648,0.23442183,2.60935374

>  <Name>
lig.pdb

>  <RI>
0

>  <Rbt.Current_Directory>
/home/itssahil/PROJECTS/Mol_Feturizer/New_Systems/rnas/5btp

>  <Rbt.Executable>
rbdock ($Id: //depot/dev/client3/rdock/2013.1/src/exe/rbdock.cxx#4 $)

>  <Rbt.Library>
libRbt.so (2013.1, Build901 2013/11/27)

>  <Rbt.Parameter_File>
/export/apps/rDock/src/rDock_2013.1_src/data/scripts/dock_solv.prm

>  <Rbt.Receptor>
prm/pocket_docking_5.prm

>  <SCORE>
-16.5524

>  <SCORE.INTER>
-15.4255

>  <SCORE.INTER.CONST>
1

>  <SCORE.INTER.POLAR>
0

>  <SCORE.INTER.ROT>
5

>  <SCORE.INTER.SOLV>
21.2511

>  <SCORE.INTER.VDW>
-24.3007

>  <SCORE.INTER.norm>
-0.701159

>  <SCORE.INTRA>
-1.12706

>  <SCORE.INTRA.DIHEDRAL>
-1.1873

>  <SCORE.INTRA.DIHEDRAL.0>
4.21161

>  <SCORE.INTRA.POLAR>
0

>  <SCORE.INTRA.POLAR.0>
0

>  <SCORE.INTRA.REPUL>
0

>  <SCORE.INTRA.REPUL.0>
0

>  <SCORE.INTRA.SOLV>
-0.38924

>  <SCORE.INTRA.SOLV.lig_0>
-41.4168

>  <SCORE.INTRA.VDW>
-0.338791

>  <SCORE.INTRA.VDW.0>
-1.62533

>  <SCORE.INTRA.norm>
-0.0512302

>  <SCORE.RESTR>
0.000162106

>  <SCORE.RESTR.CAVITY>
0.000162106

>  <SCORE.RESTR.norm>
7.36845e-06

>  <SCORE.SYSTEM>
0

>  <SCORE.SYSTEM.CONST>
0

>  <SCORE.SYSTEM.DIHEDRAL>
0

>  <SCORE.SYSTEM.SOLV>
0

>  <SCORE.SYSTEM.norm>
0

>  <SCORE.heavy>
22

>  <SCORE.norm>
-0.752382

>  <RMSD>
3.878

$$$$
lig.pdb
 OpenBabel11021811523D
libRbt.so/2013.1/901 2013/11/27
 22 23  0  0  0  0  0  0  0  0999 V2000
   13.4510  -59.0698  -37.4953 O   0  0  0  0  0  0  0  0  0  0  0  0
   14.0771  -58.4639  -38.3508 C   0  0  0  0  0  0  0  0  0  0  0  0
   13.4741  -57.9077  -39.4014 N   0  0  0  0  0  0  0  0  0  0  0  0
   15.5586  -58.3507  -38.2342 C   0  0  0  0  0  0  0  0  0  0  0  0
   16.3584  -59.0055  -37.1871 C   0  0  0  0  0  0  0  0  0  0  0  0
   15.8251  -59.8453  -36.1223 N   0  0  0  0  0  0  0  0  0  0  0  0
   16.4819  -57.7007  -38.9767 N   0  0  0  0  0  0  0  0  0  0  0  0
   17.7152  -57.9377  -38.4315 C   0  0  0  0  0  0  0  0  0  0  0  0
   17.6439  -58.7323  -37.3414 N   0  0  0  0  0  0  0  0  0  0  0  0
   18.7644  -59.2041  -36.4947 C   0  0  1  0  0  0  0  0  0  0  0  0
   20.0924  -58.9969  -37.2043 C   0  0  1  0  0  0  0  0  0  0  0  0
   21.0436  -58.7187  -36.0687 C   0  0  2  0  0  0  0  0  0  0  0  0
   21.5042  -59.9559  -35.5215 O   0  0  0  0  0  0  0  0  0  0  0  0
   20.4923  -60.1758  -37.9044 O   0  0  0  0  0  0  0  0  0  0  0  0
   18.8354  -58.4634  -35.2706 O   0  0  0  0  0  0  0  0  0  0  0  0
   20.1744  -58.0169  -35.0434 C   0  0  2  0  0  0  0  0  0  0  0  0
   20.2669  -56.5098  -35.2253 C   0  0  0  0  0  0  0  0  0  0  0  0
   19.5534  -56.1544  -36.4085 O   0  0  0  0  0  0  0  0  0  0  0  0
   19.3627  -54.6157  -36.8465 P   0  0  0  0  0  0  0  0  0  0  0  0
   20.7562  -54.0311  -36.8389 O   0  0  0  0  0  0  0  0  0  0  0  0
   18.4528  -54.0645  -35.7744 O   0  0  0  0  0  0  0  0  0  0  0  0
   18.7383  -54.7169  -38.2184 O   0  0  0  0  0  0  0  0  0  0  0  0
  1  2  2  0  0  0  0
  2  4  1  0  0  0  0
  2  3  1  0  0  0  0
  4  7  1  0  0  0  0
  5  9  1  0  0  0  0
  5  4  2  0  0  0  0
  6  5  1  0  0  0  0
  8  7  2  0  0  0  0
  9  8  1  0  0  0  0
 10 15  1  0  0  0  0
 10  9  1  6  0  0  0
 10 11  1  0  0  0  0
 11 14  1  1  0  0  0
 11 12  1  0  0  0  0
 12 13  1  1  0  0  0
 15 16  1  0  0  0  0
 16 12  1  0  0  0  0
 16 17  1  6  0  0  0
 17 18  1  0  0  0  0
 18 19  1  0  0  0  0
 19 21  1  0  0  0  0
 19 20  1  0  0  0  0
 22 19  2  0  0  0  0
M  END
>  <CHROM.1>
4.34586474,164.46056820,72.56531006,175.73284981,52.24203179,18.25349776
-57.53441331,-36.98028509,2.79323355,0.35504194,3.05677380

>  <Name>
lig.pdb

>  <RI>
0

>  <Rbt.Current_Directory>
/home/itssahil/PROJECTS/Mol_Feturizer/New_Systems/rnas/5btp

>  <Rbt.Executable>
rbdock ($Id: //depot/dev/client3/rdock/2013.1/src/exe/rbdock.cxx#4 $)

>  <Rbt.Library>
libRbt.so (2013.1, Build901 2013/11/27)

>  <Rbt.Parameter_File>
/export/apps/rDock/src/rDock_2013.1_src/data/scripts/dock_solv.prm

>  <Rbt.Receptor>
prm/pocket_docking_3.prm

>  <SCORE>
-15.6281

>  <SCORE.INTER>
-14.818

>  <SCORE.INTER.CONST>
1

>  <SCORE.INTER.POLAR>
0

>  <SCORE.INTER.ROT>
5

>  <SCORE.INTER.SOLV>
22.6511

>  <SCORE.INTER.VDW>
-24.3624

>  <SCORE.INTER.norm>
-0.673547

>  <SCORE.INTRA>
-0.810056

>  <SCORE.INTRA.DIHEDRAL>
-1.00992

>  <SCORE.INTRA.DIHEDRAL.0>
4.21161

>  <SCORE.INTRA.POLAR>
0

>  <SCORE.INTRA.POLAR.0>
0

>  <SCORE.INTRA.REPUL>
0

>  <SCORE.INTRA.REPUL.0>
0

>  <SCORE.INTRA.SOLV>
0.82108

>  <SCORE.INTRA.SOLV.lig_0>
-41.4168

>  <SCORE.INTRA.VDW>
-0.715637

>  <SCORE.INTRA.VDW.0>
-1.62533

>  <SCORE.INTRA.norm>
-0.0368207

>  <SCORE.RESTR>
0

>  <SCORE.RESTR.CAVITY>
0

>  <SCORE.RESTR.norm>
0

>  <SCORE.SYSTEM>
0

>  <SCORE.SYSTEM.CONST>
0

>  <SCORE.SYSTEM.DIHEDRAL>
0

>  <SCORE.SYSTEM.SOLV>
0

>  <SCORE.SYSTEM.norm>
0

>  <SCORE.heavy>
22

>  <SCORE.norm>
-0.710368

>  <RMSD>
3.889

$$$$
lig.pdb
 OpenBabel11021811523D
libRbt.so/2013.1/901 2013/11/27
 22 23  0  0  0  0  0  0  0  0999 V2000
   14.6270  -59.2843  -37.4830 O   0  0  0  0  0  0  0  0  0  0  0  0
   15.1021  -58.4931  -38.2826 C   0  0  0  0  0  0  0  0  0  0  0  0
   14.3817  -57.9875  -39.2837 N   0  0  0  0  0  0  0  0  0  0  0  0
   16.5301  -58.0867  -38.1531 C   0  0  0  0  0  0  0  0  0  0  0  0
   17.4440  -58.5946  -37.1179 C   0  0  0  0  0  0  0  0  0  0  0  0
   17.0896  -59.5527  -36.0788 N   0  0  0  0  0  0  0  0  0  0  0  0
   17.3043  -57.2444  -38.8723 N   0  0  0  0  0  0  0  0  0  0  0  0
   18.5593  -57.2424  -38.3251 C   0  0  0  0  0  0  0  0  0  0  0  0
   18.6483  -58.0638  -37.2564 N   0  0  0  0  0  0  0  0  0  0  0  0
   19.8397  -58.3225  -36.4147 C   0  0  1  0  0  0  0  0  0  0  0  0
   20.9819  -58.8627  -37.2594 C   0  0  1  0  0  0  0  0  0  0  0  0
   22.2037  -58.3144  -36.5678 C   0  0  2  0  0  0  0  0  0  0  0  0
   22.5652  -59.1777  -35.4879 O   0  0  0  0  0  0  0  0  0  0  0  0
   21.0051  -60.2906  -37.2424 O   0  0  0  0  0  0  0  0  0  0  0  0
   20.3161  -57.1157  -35.8073 O   0  0  0  0  0  0  0  0  0  0  0  0
   21.7265  -56.9900  -36.0044 C   0  0  2  0  0  0  0  0  0  0  0  0
   22.0248  -55.8676  -36.9864 C   0  0  0  0  0  0  0  0  0  0  0  0
   23.4243  -55.5939  -36.9456 O   0  0  0  0  0  0  0  0  0  0  0  0
   24.0933  -54.4840  -37.9030 P   0  0  0  0  0  0  0  0  0  0  0  0
   25.4775  -54.2633  -37.3384 O   0  0  0  0  0  0  0  0  0  0  0  0
   23.1670  -53.3003  -37.7548 O   0  0  0  0  0  0  0  0  0  0  0  0
   24.0740  -55.1384  -39.2645 O   0  0  0  0  0  0  0  0  0  0  0  0
  1  2  2  0  0  0  0
  2  4  1  0  0  0  0
  2  3  1  0  0  0  0
  4  7  1  0  0  0  0
  5  9  1  0  0  0  0
  5  4  2  0  0  0  0
  6  5  1  0  0  0  0
  8  7  2  0  0  0  0
  9  8  1  0  0  0  0
 10 15  1  0  0  0  0
 10  9  1  6  0  0  0
 10 11  1  0  0  0  0
 11 14  1  1  0  0  0
 11 12  1  0  0  0  0
 12 13  1  1  0  0  0
 15 16  1  0  0  0  0
 16 12  1  0  0  0  0
 16 17  1  6  0  0  0
 17 18  1  0  0  0  0
 18 19  1  0  0  0  0
 19 21  1  0  0  0  0
 19 20  1  0  0  0  0
 22 19  2  0  0  0  0
M  END
>  <CHROM.1>
0.94519559,121.29751842,-74.46546294,178.03084347,166.87306204,20.37992799
-57.17103451,-37.37241570,2.78244508,0.25725040,2.61940827

>  <Name>
lig.pdb

>  <RI>
0

>  <Rbt.Current_Directory>
/home/itssahil/PROJECTS/Mol_Feturizer/New_Systems/rnas/5btp

>  <Rbt.Executable>
rbdock ($Id: //depot/dev/client3/rdock/2013.1/src/exe/rbdock.cxx#4 $)

>  <Rbt.Library>
libRbt.so (2013.1, Build901 2013/11/27)

>  <Rbt.Parameter_File>
/export/apps/rDock/src/rDock_2013.1_src/data/scripts/dock_solv.prm

>  <Rbt.Receptor>
prm/pocket_docking_7.prm

>  <SCORE>
-16.4681

>  <SCORE.INTER>
-15.7129

>  <SCORE.INTER.CONST>
1

>  <SCORE.INTER.POLAR>
0

>  <SCORE.INTER.ROT>
5

>  <SCORE.INTER.SOLV>
22.7718

>  <SCORE.INTER.VDW>
-24.9992

>  <SCORE.INTER.norm>
-0.714224

>  <SCORE.INTRA>
-0.755214

>  <SCORE.INTRA.DIHEDRAL>
-0.772755

>  <SCORE.INTRA.DIHEDRAL.0>
4.21161

>  <SCORE.INTRA.POLAR>
0

>  <SCORE.INTRA.POLAR.0>
0

>  <SCORE.INTRA.REPUL>
0

>  <SCORE.INTRA.REPUL.0>
0

>  <SCORE.INTRA.SOLV>
-0.242021

>  <SCORE.INTRA.SOLV.lig_0>
-41.4168

>  <SCORE.INTRA.VDW>
-0.247826

>  <SCORE.INTRA.VDW.0>
-1.62533

>  <SCORE.INTRA.norm>
-0.0343279

>  <SCORE.RESTR>
0

>  <SCORE.RESTR.CAVITY>
0

>  <SCORE.RESTR.norm>
0

>  <SCORE.SYSTEM>
0

>  <SCORE.SYSTEM.CONST>
0

>  <SCORE.SYSTEM.DIHEDRAL>
0

>  <SCORE.SYSTEM.SOLV>
0

>  <SCORE.SYSTEM.norm>
0

>  <SCORE.heavy>
22

>  <SCORE.norm>
-0.748552

>  <RMSD>
3.926

$$$$
lig.pdb
 OpenBabel11021811523D
libRbt.so/2013.1/901 2013/11/27
 22 23  0  0  0  0  0  0  0  0999 V2000
   15.4519  -58.7720  -37.9346 O   0  0  0  0  0  0  0  0  0  0  0  0
   16.3476  -58.2066  -38.5422 C   0  0  0  0  0  0  0  0  0  0  0  0
   16.1565  -57.6904  -39.7562 N   0  0  0  0  0  0  0  0  0  0  0  0
   17.6996  -58.0990  -37.9244 C   0  0  0  0  0  0  0  0  0  0  0  0
   18.0628  -58.6806  -36.6226 C   0  0  0  0  0  0  0  0  0  0  0  0
   17.1642  -59.4327  -35.7566 N   0  0  0  0  0  0  0  0  0  0  0  0
   18.8453  -57.5155  -38.3404 N   0  0  0  0  0  0  0  0  0  0  0  0
   19.8037  -57.7225  -37.3848 C   0  0  0  0  0  0  0  0  0  0  0  0
   19.3309  -58.4320  -36.3371 N   0  0  0  0  0  0  0  0  0  0  0  0
   20.0707  -58.8493  -35.1232 C   0  0  1  0  0  0  0  0  0  0  0  0
   21.4609  -59.3421  -35.4896 C   0  0  1  0  0  0  0  0  0  0  0  0
   22.2879  -58.9429  -34.2944 C   0  0  2  0  0  0  0  0  0  0  0  0
   22.1751  -59.9460  -33.2829 O   0  0  0  0  0  0  0  0  0  0  0  0
   21.4793  -60.7612  -35.6497 O   0  0  0  0  0  0  0  0  0  0  0  0
   20.2511  -57.7493  -34.2235 O   0  0  0  0  0  0  0  0  0  0  0  0
   21.6171  -57.6726  -33.8089 C   0  0  2  0  0  0  0  0  0  0  0  0
   22.2902  -56.4577  -34.4288 C   0  0  0  0  0  0  0  0  0  0  0  0
   22.1486  -56.5388  -35.8460 O   0  0  0  0  0  0  0  0  0  0  0  0
   22.7635  -55.4116  -36.8193 P   0  0  0  0  0  0  0  0  0  0  0  0
   22.1270  -54.1169  -36.3697 O   0  0  0  0  0  0  0  0  0  0  0  0
   22.3318  -55.8713  -38.1917 O   0  0  0  0  0  0  0  0  0  0  0  0
   24.2492  -55.4972  -36.5595 O   0  0  0  0  0  0  0  0  0  0  0  0
  1  2  2  0  0  0  0
  2  4  1  0  0  0  0
  2  3  1  0  0  0  0
  4  7  1  0  0  0  0
  5  9  1  0  0  0  0
  5  4  2  0  0  0  0
  6  5  1  0  0  0  0
  8  7  2  0  0  0  0
  9  8  1  0  0  0  0
 10 15  1  0  0  0  0
 10  9  1  6  0  0  0
 10 11  1  0  0  0  0
 11 14  1  1  0  0  0
 11 12  1  0  0  0  0
 12 13  1  1  0  0  0
 15 16  1  0  0  0  0
 16 12  1  0  0  0  0
 16 17  1  6  0  0  0
 17 18  1  0  0  0  0
 18 19  1  0  0  0  0
 19 21  1  0  0  0  0
 19 20  1  0  0  0  0
 22 19  2  0  0  0  0
M  END
>  <CHROM.1>
2.40068986,137.64079931,61.15546935,-179.39989252,-57.88861834,20.41041114
-57.64261945,-36.30690657,-3.13790759,0.47202185,2.41054460

>  <Name>
lig.pdb

>  <RI>
0

>  <Rbt.Current_Directory>
/home/itssahil/PROJECTS/Mol_Feturizer/New_Systems/rnas/5btp

>  <Rbt.Executable>
rbdock ($Id: //depot/dev/client3/rdock/2013.1/src/exe/rbdock.cxx#4 $)

>  <Rbt.Library>
libRbt.so (2013.1, Build901 2013/11/27)

>  <Rbt.Parameter_File>
/export/apps/rDock/src/rDock_2013.1_src/data/scripts/dock_solv.prm

>  <Rbt.Receptor>
prm/pocket_docking_4.prm

>  <SCORE>
-9.90477

>  <SCORE.INTER>
-8.40309

>  <SCORE.INTER.CONST>
1

>  <SCORE.INTER.POLAR>
0

>  <SCORE.INTER.ROT>
5

>  <SCORE.INTER.SOLV>
15.3358

>  <SCORE.INTER.VDW>
-17.6473

>  <SCORE.INTER.norm>
-0.381958

>  <SCORE.INTRA>
-1.50169

>  <SCORE.INTRA.DIHEDRAL>
-1.76551

>  <SCORE.INTRA.DIHEDRAL.0>
4.21161

>  <SCORE.INTRA.POLAR>
0

>  <SCORE.INTRA.POLAR.0>
0

>  <SCORE.INTRA.REPUL>
0

>  <SCORE.INTRA.REPUL.0>
0

>  <SCORE.INTRA.SOLV>
0.753495

>  <SCORE.INTRA.SOLV.lig_0>
-41.4168

>  <SCORE.INTRA.VDW>
-0.995683

>  <SCORE.INTRA.VDW.0>
-1.62533

>  <SCORE.INTRA.norm>
-0.0682585

>  <SCORE.RESTR>
0

>  <SCORE.RESTR.CAVITY>
0

>  <SCORE.RESTR.norm>
0

>  <SCORE.SYSTEM>
0

>  <SCORE.SYSTEM.CONST>
0

>  <SCORE.SYSTEM.DIHEDRAL>
0

>  <SCORE.SYSTEM.SOLV>
0

>  <SCORE.SYSTEM.norm>
0

>  <SCORE.heavy>
22

>  <SCORE.norm>
-0.450217

>  <RMSD>
3.979

$$$$
lig.pdb
 OpenBabel11021811523D
libRbt.so/2013.1/901 2013/11/27
 22 23  0  0  0  0  0  0  0  0999 V2000
   13.3315  -57.9794  -39.3624 O   0  0  0  0  0  0  0  0  0  0  0  0
   13.9211  -58.4511  -38.4027 C   0  0  0  0  0  0  0  0  0  0  0  0
   13.2689  -58.9434  -37.3496 N   0  0  0  0  0  0  0  0  0  0  0  0
   15.4113  -58.4676  -38.3924 C   0  0  0  0  0  0  0  0  0  0  0  0
   16.2251  -58.9824  -37.2799 C   0  0  0  0  0  0  0  0  0  0  0  0
   15.6997  -59.5395  -36.0402 N   0  0  0  0  0  0  0  0  0  0  0  0
   16.3311  -58.0720  -39.3000 N   0  0  0  0  0  0  0  0  0  0  0  0
   17.5755  -58.3213  -38.7863 C   0  0  0  0  0  0  0  0  0  0  0  0
   17.5149  -58.8761  -37.5561 N   0  0  0  0  0  0  0  0  0  0  0  0
   18.6487  -59.2839  -36.6940 C   0  0  1  0  0  0  0  0  0  0  0  0
   19.9680  -59.0968  -37.4250 C   0  0  1  0  0  0  0  0  0  0  0  0
   20.9234  -58.7424  -36.3144 C   0  0  2  0  0  0  0  0  0  0  0  0
   21.4067  -59.9407  -35.7038 O   0  0  0  0  0  0  0  0  0  0  0  0
   20.3804  -60.3064  -38.0625 O   0  0  0  0  0  0  0  0  0  0  0  0
   18.7177  -58.4760  -35.5131 O   0  0  0  0  0  0  0  0  0  0  0  0
   20.0514  -57.9980  -35.3220 C   0  0  2  0  0  0  0  0  0  0  0  0
   20.1197  -56.5020  -35.5873 C   0  0  0  0  0  0  0  0  0  0  0  0
   19.0464  -56.1497  -36.4585 O   0  0  0  0  0  0  0  0  0  0  0  0
   19.3029  -55.3304  -37.8218 P   0  0  0  0  0  0  0  0  0  0  0  0
   18.0094  -55.4422  -38.5949 O   0  0  0  0  0  0  0  0  0  0  0  0
   20.4655  -56.0631  -38.4484 O   0  0  0  0  0  0  0  0  0  0  0  0
   19.6192  -53.9348  -37.3374 O   0  0  0  0  0  0  0  0  0  0  0  0
  1  2  2  0  0  0  0
  2  4  1  0  0  0  0
  2  3  1  0  0  0  0
  4  7  1  0  0  0  0
  5  9  1  0  0  0  0
  5  4  2  0  0  0  0
  6  5  1  0  0  0  0
  8  7  2  0  0  0  0
  9  8  1  0  0  0  0
 10 15  1  0  0  0  0
 10  9  1  6  0  0  0
 10 11  1  0  0  0  0
 11 14  1  1  0  0  0
 11 12  1  0  0  0  0
 12 13  1  1  0  0  0
 15 16  1  0  0  0  0
 16 12  1  0  0  0  0
 16 17  1  6  0  0  0
 17 18  1  0  0  0  0
 18 19  1  0  0  0  0
 19 21  1  0  0  0  0
 19 20  1  0  0  0  0
 22 19  2  0  0  0  0
M  END
>  <CHROM.1>
178.60553848,175.40873228,92.95982129,-127.27978649,167.14680548,18.13619724
-57.75977339,-37.37484779,3.01409188,0.30351463,2.84171584

>  <Name>
lig.pdb

>  <RI>
0

>  <Rbt.Current_Directory>
/home/itssahil/PROJECTS/Mol_Feturizer/New_Systems/rnas/5btp

>  <Rbt.Executable>
rbdock ($Id: //depot/dev/client3/rdock/2013.1/src/exe/rbdock.cxx#4 $)

>  <Rbt.Library>
libRbt.so (2013.1, Build901 2013/11/27)

>  <Rbt.Parameter_File>
/export/apps/rDock/src/rDock_2013.1_src/data/scripts/dock_solv.prm

>  <Rbt.Receptor>
prm/pocket_docking_2.prm

>  <SCORE>
-12.3759

>  <SCORE.INTER>
-17.4851

>  <SCORE.INTER.CONST>
1

>  <SCORE.INTER.POLAR>
0

>  <SCORE.INTER.ROT>
5

>  <SCORE.INTER.SOLV>
23.6869

>  <SCORE.INTER.VDW>
-26.4857

>  <SCORE.INTER.norm>
-0.794779

>  <SCORE.INTRA>
4.08763

>  <SCORE.INTRA.DIHEDRAL>
8.42263

>  <SCORE.INTRA.DIHEDRAL.0>
4.21161

>  <SCORE.INTRA.POLAR>
0

>  <SCORE.INTRA.POLAR.0>
0

>  <SCORE.INTRA.REPUL>
0

>  <SCORE.INTRA.REPUL.0>
0

>  <SCORE.INTRA.SOLV>
2.38632

>  <SCORE.INTRA.SOLV.lig_0>
-41.4168

>  <SCORE.INTRA.VDW>
-1.31684

>  <SCORE.INTRA.VDW.0>
-1.62533

>  <SCORE.INTRA.norm>
0.185801

>  <SCORE.RESTR>
1.02157

>  <SCORE.RESTR.CAVITY>
1.02157

>  <SCORE.RESTR.norm>
0.0464351

>  <SCORE.SYSTEM>
0

>  <SCORE.SYSTEM.CONST>
0

>  <SCORE.SYSTEM.DIHEDRAL>
0

>  <SCORE.SYSTEM.SOLV>
0

>  <SCORE.SYSTEM.norm>
0

>  <SCORE.heavy>
22

>  <SCORE.norm>
-0.562542

>  <RMSD>
3.997

$$$$
lig.pdb
 OpenBabel11021811523D
libRbt.so/2013.1/901 2013/11/27
 22 23  0  0  0  0  0  0  0  0999 V2000
   17.1628  -56.6310  -39.5275 O   0  0  0  0  0  0  0  0  0  0  0  0
   16.5820  -57.5653  -38.9975 C   0  0  0  0  0  0  0  0  0  0  0  0
   15.4389  -58.0490  -39.4834 N   0  0  0  0  0  0  0  0  0  0  0  0
   17.1509  -58.1787  -37.7642 C   0  0  0  0  0  0  0  0  0  0  0  0
   18.4848  -57.8690  -37.2259 C   0  0  0  0  0  0  0  0  0  0  0  0
   19.4337  -56.9332  -37.8151 N   0  0  0  0  0  0  0  0  0  0  0  0
   16.6571  -59.0791  -36.8858 N   0  0  0  0  0  0  0  0  0  0  0  0
   17.5990  -59.2931  -35.9154 C   0  0  0  0  0  0  0  0  0  0  0  0
   18.7135  -58.5574  -36.1191 N   0  0  0  0  0  0  0  0  0  0  0  0
   19.9360  -58.5222  -35.2829 C   0  0  1  0  0  0  0  0  0  0  0  0
   21.1054  -59.1517  -36.0218 C   0  0  1  0  0  0  0  0  0  0  0  0
   22.2882  -58.3659  -35.5165 C   0  0  2  0  0  0  0  0  0  0  0  0
   22.7382  -58.9270  -34.2817 O   0  0  0  0  0  0  0  0  0  0  0  0
   21.2484  -60.5312  -35.6808 O   0  0  0  0  0  0  0  0  0  0  0  0
   20.3195  -57.1749  -34.9835 O   0  0  0  0  0  0  0  0  0  0  0  0
   21.7110  -56.9886  -35.2533 C   0  0  2  0  0  0  0  0  0  0  0  0
   21.8984  -56.1023  -36.4750 C   0  0  0  0  0  0  0  0  0  0  0  0
   23.2761  -55.7431  -36.5636 O   0  0  0  0  0  0  0  0  0  0  0  0
   23.8055  -54.7046  -37.6759 P   0  0  0  0  0  0  0  0  0  0  0  0
   22.9361  -53.4794  -37.5126 O   0  0  0  0  0  0  0  0  0  0  0  0
   23.5896  -55.4503  -38.9714 O   0  0  0  0  0  0  0  0  0  0  0  0
   25.2531  -54.4947  -37.2981 O   0  0  0  0  0  0  0  0  0  0  0  0
  1  2  2  0  0  0  0
  2  4  1  0  0  0  0
  2  3  1  0  0  0  0
  4  7  1  0  0  0  0
  5  9  1  0  0  0  0
  5  4  2  0  0  0  0
  6  5  1  0  0  0  0
  8  7  2  0  0  0  0
  9  8  1  0  0  0  0
 10 15  1  0  0  0  0
 10  9  1  6  0  0  0
 10 11  1  0  0  0  0
 11 14  1  1  0  0  0
 11 12  1  0  0  0  0
 12 13  1  1  0  0  0
 15 16  1  0  0  0  0
 16 12  1  0  0  0  0
 16 17  1  6  0  0  0
 17 18  1  0  0  0  0
 18 19  1  0  0  0  0
 19 21  1  0  0  0  0
 19 20  1  0  0  0  0
 22 19  2  0  0  0  0
M  END
>  <CHROM.1>
-9.26394702,-68.88436932,-73.18237152,-174.78938291,53.18472936,20.64547857
-57.15329071,-36.91387057,2.86504256,0.36871783,2.39732980

>  <Name>
lig.pdb

>  <RI>
0

>  <Rbt.Current_Directory>
/home/itssahil/PROJECTS/Mol_Feturizer/New_Systems/rnas/5btp

>  <Rbt.Executable>
rbdock ($Id: //depot/dev/client3/rdock/2013.1/src/exe/rbdock.cxx#4 $)

>  <Rbt.Library>
libRbt.so (2013.1, Build901 2013/11/27)

>  <Rbt.Parameter_File>
/export/apps/rDock/src/rDock_2013.1_src/data/scripts/dock_solv.prm

>  <Rbt.Receptor>
prm/pocket_docking_6.prm

>  <SCORE>
-12.8914

>  <SCORE.INTER>
-12.3527

>  <SCORE.INTER.CONST>
1

>  <SCORE.INTER.POLAR>
0

>  <SCORE.INTER.ROT>
5

>  <SCORE.INTER.SOLV>
17.1356

>  <SCORE.INTER.VDW>
-20.8803

>  <SCORE.INTER.norm>
-0.561485

>  <SCORE.INTRA>
-0.538761

>  <SCORE.INTRA.DIHEDRAL>
-0.684608

>  <SCORE.INTRA.DIHEDRAL.0>
4.21161

>  <SCORE.INTRA.POLAR>
0

>  <SCORE.INTRA.POLAR.0>
0

>  <SCORE.INTRA.REPUL>
0

>  <SCORE.INTRA.REPUL.0>
0

>  <SCORE.INTRA.SOLV>
0.926091

>  <SCORE.INTRA.SOLV.lig_0>
-41.4168

>  <SCORE.INTRA.VDW>
-0.659503

>  <SCORE.INTRA.VDW.0>
-1.62533

>  <SCORE.INTRA.norm>
-0.0244891

>  <SCORE.RESTR>
0

>  <SCORE.RESTR.CAVITY>
0

>  <SCORE.RESTR.norm>
0

>  <SCORE.SYSTEM>
0

>  <SCORE.SYSTEM.CONST>
0

>  <SCORE.SYSTEM.DIHEDRAL>
0

>  <SCORE.SYSTEM.SOLV>
0

>  <SCORE.SYSTEM.norm>
0

>  <SCORE.heavy>
22

>  <SCORE.norm>
-0.585974

>  <RMSD>
4.023

$$$$
lig.pdb
 OpenBabel11021811523D
libRbt.so/2013.1/901 2013/11/27
 22 23  0  0  0  0  0  0  0  0999 V2000
   14.8469  -59.3089  -37.4462 O   0  0  0  0  0  0  0  0  0  0  0  0
   15.2917  -58.4930  -38.2383 C   0  0  0  0  0  0  0  0  0  0  0  0
   14.5468  -57.9909  -39.2231 N   0  0  0  0  0  0  0  0  0  0  0  0
   16.7101  -58.0513  -38.1185 C   0  0  0  0  0  0  0  0  0  0  0  0
   17.6397  -58.5266  -37.0818 C   0  0  0  0  0  0  0  0  0  0  0  0
   17.3121  -59.4823  -36.0317 N   0  0  0  0  0  0  0  0  0  0  0  0
   17.4613  -57.1981  -38.8493 N   0  0  0  0  0  0  0  0  0  0  0  0
   18.7179  -57.1605  -38.3070 C   0  0  0  0  0  0  0  0  0  0  0  0
   18.8304  -57.9687  -37.2304 N   0  0  0  0  0  0  0  0  0  0  0  0
   20.0307  -58.1902  -36.3907 C   0  0  1  0  0  0  0  0  0  0  0  0
   21.1515  -58.8030  -37.2143 C   0  0  1  0  0  0  0  0  0  0  0  0
   22.3919  -58.2298  -36.5782 C   0  0  2  0  0  0  0  0  0  0  0  0
   22.7571  -59.0257  -35.4489 O   0  0  0  0  0  0  0  0  0  0  0  0
   21.1538  -60.2269  -37.1032 O   0  0  0  0  0  0  0  0  0  0  0  0
   20.5343  -56.9538  -35.8714 O   0  0  0  0  0  0  0  0  0  0  0  0
   21.9432  -56.8637  -36.0967 C   0  0  2  0  0  0  0  0  0  0  0  0
   22.2430  -55.8134  -37.1550 C   0  0  0  0  0  0  0  0  0  0  0  0
   23.6390  -55.5219  -37.1173 O   0  0  0  0  0  0  0  0  0  0  0  0
   24.3069  -54.4682  -38.1369 P   0  0  0  0  0  0  0  0  0  0  0  0
   25.7227  -54.2872  -37.6407 O   0  0  0  0  0  0  0  0  0  0  0  0
   23.4350  -53.2443  -37.9849 O   0  0  0  0  0  0  0  0  0  0  0  0
   24.2007  -55.1607  -39.4754 O   0  0  0  0  0  0  0  0  0  0  0  0
  1  2  2  0  0  0  0
  2  4  1  0  0  0  0
  2  3  1  0  0  0  0
  4  7  1  0  0  0  0
  5  9  1  0  0  0  0
  5  4  2  0  0  0  0
  6  5  1  0  0  0  0
  8  7  2  0  0  0  0
  9  8  1  0  0  0  0
 10 15  1  0  0  0  0
 10  9  1  6  0  0  0
 10 11  1  0  0  0  0
 11 14  1  1  0  0  0
 11 12  1  0  0  0  0
 12 13  1  1  0  0  0
 15 16  1  0  0  0  0
 16 12  1  0  0  0  0
 16 17  1  6  0  0  0
 17 18  1  0  0  0  0
 18 19  1  0  0  0  0
 19 21  1  0  0  0  0
 19 20  1  0  0  0  0
 22 19  2  0  0  0  0
M  END
>  <CHROM.1>
-0.61661757,117.33030393,-76.68305931,178.58508898,171.58956788,20.57622363
-57.11445058,-37.42832095,2.77749621,0.24918843,2.56921624

>  <Name>
lig.pdb

>  <RI>
0

>  <Rbt.Current_Directory>
/home/itssahil/PROJECTS/Mol_Feturizer/New_Systems/rnas/5btp

>  <Rbt.Executable>
rbdock ($Id: //depot/dev/client3/rdock/2013.1/src/exe/rbdock.cxx#4 $)

>  <Rbt.Library>
libRbt.so (2013.1, Build901 2013/11/27)

>  <Rbt.Parameter_File>
/export/apps/rDock/src/rDock_2013.1_src/data/scripts/dock_solv.prm

>  <Rbt.Receptor>
prm/pocket_docking_6.prm

>  <SCORE>
-16.6946

>  <SCORE.INTER>
-15.9004

>  <SCORE.INTER.CONST>
1

>  <SCORE.INTER.POLAR>
0

>  <SCORE.INTER.ROT>
5

>  <SCORE.INTER.SOLV>
23.0695

>  <SCORE.INTER.VDW>
-25.2234

>  <SCORE.INTER.norm>
-0.722745

>  <SCORE.INTRA>
-0.794185

>  <SCORE.INTRA.DIHEDRAL>
-0.716698

>  <SCORE.INTRA.DIHEDRAL.0>
4.21161

>  <SCORE.INTRA.POLAR>
0

>  <SCORE.INTRA.POLAR.0>
0

>  <SCORE.INTRA.REPUL>
0

>  <SCORE.INTRA.REPUL.0>
0

>  <SCORE.INTRA.SOLV>
-0.209927

>  <SCORE.INTRA.SOLV.lig_0>
-41.4168

>  <SCORE.INTRA.VDW>
-0.330872

>  <SCORE.INTRA.VDW.0>
-1.62533

>  <SCORE.INTRA.norm>
-0.0360993

>  <SCORE.RESTR>
0

>  <SCORE.RESTR.CAVITY>
0

>  <SCORE.RESTR.norm>
0

>  <SCORE.SYSTEM>
0

>  <SCORE.SYSTEM.CONST>
0

>  <SCORE.SYSTEM.DIHEDRAL>
0

>  <SCORE.SYSTEM.SOLV>
0

>  <SCORE.SYSTEM.norm>
0

>  <SCORE.heavy>
22

>  <SCORE.norm>
-0.758844

>  <RMSD>
4.045

$$$$
lig.pdb
 OpenBabel11021811523D
libRbt.so/2013.1/901 2013/11/27
 22 23  0  0  0  0  0  0  0  0999 V2000
   14.2776  -57.8761  -39.3436 O   0  0  0  0  0  0  0  0  0  0  0  0
   14.3152  -58.8640  -38.6269 C   0  0  0  0  0  0  0  0  0  0  0  0
   13.3816  -59.8133  -38.6889 N   0  0  0  0  0  0  0  0  0  0  0  0
   15.4233  -59.0143  -37.6416 C   0  0  0  0  0  0  0  0  0  0  0  0
   16.7112  -58.3085  -37.7311 C   0  0  0  0  0  0  0  0  0  0  0  0
   17.0881  -57.3754  -38.7849 N   0  0  0  0  0  0  0  0  0  0  0  0
   15.5421  -59.7464  -36.5119 N   0  0  0  0  0  0  0  0  0  0  0  0
   16.7785  -59.5080  -35.9742 C   0  0  0  0  0  0  0  0  0  0  0  0
   17.4933  -58.6324  -36.7140 N   0  0  0  0  0  0  0  0  0  0  0  0
   18.8628  -58.1340  -36.4473 C   0  0  1  0  0  0  0  0  0  0  0  0
   19.7758  -58.4282  -37.6261 C   0  0  1  0  0  0  0  0  0  0  0  0
   20.7341  -57.2648  -37.6111 C   0  0  2  0  0  0  0  0  0  0  0  0
   21.7954  -57.5361  -36.6934 O   0  0  0  0  0  0  0  0  0  0  0  0
   20.4850  -59.6532  -37.4359 O   0  0  0  0  0  0  0  0  0  0  0  0
   18.8706  -56.7127  -36.2691 O   0  0  0  0  0  0  0  0  0  0  0  0
   19.8946  -56.1223  -37.0734 C   0  0  2  0  0  0  0  0  0  0  0  0
   19.2784  -55.3414  -38.2240 C   0  0  0  0  0  0  0  0  0  0  0  0
   18.3048  -54.4459  -37.6899 O   0  0  0  0  0  0  0  0  0  0  0  0
   18.7126  -53.2750  -36.6610 P   0  0  0  0  0  0  0  0  0  0  0  0
   19.8776  -52.5682  -37.3143 O   0  0  0  0  0  0  0  0  0  0  0  0
   19.0719  -54.0325  -35.4048 O   0  0  0  0  0  0  0  0  0  0  0  0
   17.4560  -52.4422  -36.5624 O   0  0  0  0  0  0  0  0  0  0  0  0
  1  2  2  0  0  0  0
  2  4  1  0  0  0  0
  2  3  1  0  0  0  0
  4  7  1  0  0  0  0
  5  9  1  0  0  0  0
  5  4  2  0  0  0  0
  6  5  1  0  0  0  0
  8  7  2  0  0  0  0
  9  8  1  0  0  0  0
 10 15  1  0  0  0  0
 10  9  1  6  0  0  0
 10 11  1  0  0  0  0
 11 14  1  1  0  0  0
 11 12  1  0  0  0  0
 12 13  1  1  0  0  0
 15 16  1  0  0  0  0
 16 12  1  0  0  0  0
 16 17  1  6  0  0  0
 17 18  1  0  0  0  0
 18 19  1  0  0  0  0
 19 21  1  0  0  0  0
 19 20  1  0  0  0  0
 22 19  2  0  0  0  0
M  END
>  <CHROM.1>
-20.59474276,-57.20601177,169.13483871,62.19296766,49.97199225,18.02201071
-56.74542943,-37.26787907,2.22260989,0.21158541,-3.09096308

>  <Name>
lig.pdb

>  <RI>
0

>  <Rbt.Current_Directory>
/home/itssahil/PROJECTS/Mol_Feturizer/New_Systems/rnas/5btp

>  <Rbt.Executable>
rbdock ($Id: //depot/dev/client3/rdock/2013.1/src/exe/rbdock.cxx#4 $)

>  <Rbt.Library>
libRbt.so (2013.1, Build901 2013/11/27)

>  <Rbt.Parameter_File>
/export/apps/rDock/src/rDock_2013.1_src/data/scripts/dock_solv.prm

>  <Rbt.Receptor>
prm/pocket_docking_4.prm

>  <SCORE>
-18.1406

>  <SCORE.INTER>
-18.3881

>  <SCORE.INTER.CONST>
1

>  <SCORE.INTER.POLAR>
0

>  <SCORE.INTER.ROT>
5

>  <SCORE.INTER.SOLV>
21.2347

>  <SCORE.INTER.VDW>
-26.2703

>  <SCORE.INTER.norm>
-0.835822

>  <SCORE.INTRA>
0.24743

>  <SCORE.INTRA.DIHEDRAL>
0.219637

>  <SCORE.INTRA.DIHEDRAL.0>
4.21161

>  <SCORE.INTRA.POLAR>
0

>  <SCORE.INTRA.POLAR.0>
0

>  <SCORE.INTRA.REPUL>
0

>  <SCORE.INTRA.REPUL.0>
0

>  <SCORE.INTRA.SOLV>
1.92371

>  <SCORE.INTRA.SOLV.lig_0>
-41.4168

>  <SCORE.INTRA.VDW>
-0.824244

>  <SCORE.INTRA.VDW.0>
-1.62533

>  <SCORE.INTRA.norm>
0.0112468

>  <SCORE.RESTR>
0

>  <SCORE.RESTR.CAVITY>
0

>  <SCORE.RESTR.norm>
0

>  <SCORE.SYSTEM>
0

>  <SCORE.SYSTEM.CONST>
0

>  <SCORE.SYSTEM.DIHEDRAL>
0

>  <SCORE.SYSTEM.SOLV>
0

>  <SCORE.SYSTEM.norm>
0

>  <SCORE.heavy>
22

>  <SCORE.norm>
-0.824575

>  <RMSD>
4.130

$$$$
lig.pdb
 OpenBabel11021811523D
libRbt.so/2013.1/901 2013/11/27
 22 23  0  0  0  0  0  0  0  0999 V2000
   15.5557  -59.7241  -36.3463 O   0  0  0  0  0  0  0  0  0  0  0  0
   15.6085  -59.0102  -37.3355 C   0  0  0  0  0  0  0  0  0  0  0  0
   14.5958  -58.9286  -38.1984 N   0  0  0  0  0  0  0  0  0  0  0  0
   16.8408  -58.2156  -37.6024 C   0  0  0  0  0  0  0  0  0  0  0  0
   18.0313  -58.2200  -36.7377 C   0  0  0  0  0  0  0  0  0  0  0  0
   18.1754  -58.9881  -35.5079 N   0  0  0  0  0  0  0  0  0  0  0  0
   17.1803  -57.3733  -38.6031 N   0  0  0  0  0  0  0  0  0  0  0  0
   18.4480  -56.9137  -38.3655 C   0  0  0  0  0  0  0  0  0  0  0  0
   18.9696  -57.4275  -37.2303 N   0  0  0  0  0  0  0  0  0  0  0  0
   20.3092  -57.1654  -36.6543 C   0  0  1  0  0  0  0  0  0  0  0  0
   20.8858  -55.8746  -37.2121 C   0  0  1  0  0  0  0  0  0  0  0  0
   21.7029  -55.3437  -36.0622 C   0  0  2  0  0  0  0  0  0  0  0  0
   22.9954  -55.9531  -36.0773 O   0  0  0  0  0  0  0  0  0  0  0  0
   21.7269  -56.1296  -38.3379 O   0  0  0  0  0  0  0  0  0  0  0  0
   20.2381  -57.0006  -35.2331 O   0  0  0  0  0  0  0  0  0  0  0  0
   20.9444  -55.8217  -34.8393 C   0  0  2  0  0  0  0  0  0  0  0  0
   19.9684  -54.7499  -34.3790 C   0  0  0  0  0  0  0  0  0  0  0  0
   20.7173  -53.6207  -33.9326 O   0  0  0  0  0  0  0  0  0  0  0  0
   19.9913  -52.3089  -33.3426 P   0  0  0  0  0  0  0  0  0  0  0  0
   19.0521  -51.8562  -34.4364 O   0  0  0  0  0  0  0  0  0  0  0  0
   21.1432  -51.3667  -33.0845 O   0  0  0  0  0  0  0  0  0  0  0  0
   19.2993  -52.8203  -32.1008 O   0  0  0  0  0  0  0  0  0  0  0  0
  1  2  2  0  0  0  0
  2  4  1  0  0  0  0
  2  3  1  0  0  0  0
  4  7  1  0  0  0  0
  5  9  1  0  0  0  0
  5  4  2  0  0  0  0
  6  5  1  0  0  0  0
  8  7  2  0  0  0  0
  9  8  1  0  0  0  0
 10 15  1  0  0  0  0
 10  9  1  6  0  0  0
 10 11  1  0  0  0  0
 11 14  1  6  0  0  0
 11 12  1  0  0  0  0
 12 13  1  1  0  0  0
 15 16  1  0  0  0  0
 16 12  1  0  0  0  0
 16 17  1  6  0  0  0
 17 18  1  0  0  0  0
 18 19  1  0  0  0  0
 19 21  1  0  0  0  0
 19 20  1  0  0  0  0
 22 19  2  0  0  0  0
M  END
>  <CHROM.1>
-0.30577619,-160.13599338,-65.62016360,-178.58076863,-56.80043976,19.30709132
-55.82367217,-35.76456641,2.07987961,-0.23866940,-2.43431990

>  <Name>
lig.pdb

>  <RI>
0

>  <Rbt.Current_Directory>
/home/itssahil/PROJECTS/Mol_Feturizer/New_Systems/rnas/5btp

>  <Rbt.Executable>
rbdock ($Id: //depot/dev/client3/rdock/2013.1/src/exe/rbdock.cxx#4 $)

>  <Rbt.Library>
libRbt.so (2013.1, Build901 2013/11/27)

>  <Rbt.Parameter_File>
/export/apps/rDock/src/rDock_2013.1_src/data/scripts/dock_solv.prm

>  <Rbt.Receptor>
prm/pocket_docking_7.prm

>  <SCORE>
-10.5803

>  <SCORE.INTER>
-10.0768

>  <SCORE.INTER.CONST>
1

>  <SCORE.INTER.POLAR>
0

>  <SCORE.INTER.ROT>
5

>  <SCORE.INTER.SOLV>
16.1032

>  <SCORE.INTER.VDW>
-19.0189

>  <SCORE.INTER.norm>
-0.458037

>  <SCORE.INTRA>
-0.503519

>  <SCORE.INTRA.DIHEDRAL>
-1.64087

>  <SCORE.INTRA.DIHEDRAL.0>
4.21161

>  <SCORE.INTRA.POLAR>
0

>  <SCORE.INTRA.POLAR.0>
0

>  <SCORE.INTRA.REPUL>
0

>  <SCORE.INTRA.REPUL.0>
0

>  <SCORE.INTRA.SOLV>
0.151733

>  <SCORE.INTRA.SOLV.lig_0>
-41.4168

>  <SCORE.INTRA.VDW>
0.241049

>  <SCORE.INTRA.VDW.0>
-1.62533

>  <SCORE.INTRA.norm>
-0.0228872

>  <SCORE.RESTR>
0

>  <SCORE.RESTR.CAVITY>
0

>  <SCORE.RESTR.norm>
0

>  <SCORE.SYSTEM>
0

>  <SCORE.SYSTEM.CONST>
0

>  <SCORE.SYSTEM.DIHEDRAL>
0

>  <SCORE.SYSTEM.SOLV>
0

>  <SCORE.SYSTEM.norm>
0

>  <SCORE.heavy>
22

>  <SCORE.norm>
-0.480924

>  <RMSD>
4.142

$$$$
lig.pdb
 OpenBabel11021811523D
libRbt.so/2013.1/901 2013/11/27
 22 23  0  0  0  0  0  0  0  0999 V2000
   14.3953  -58.3502  -39.2149 O   0  0  0  0  0  0  0  0  0  0  0  0
   14.4555  -59.0848  -38.2414 C   0  0  0  0  0  0  0  0  0  0  0  0
   13.4691  -59.9273  -37.9344 N   0  0  0  0  0  0  0  0  0  0  0  0
   15.6540  -59.0348  -37.3570 C   0  0  0  0  0  0  0  0  0  0  0  0
   16.8251  -58.1776  -37.5986 C   0  0  0  0  0  0  0  0  0  0  0  0
   16.9841  -57.2679  -38.7258 N   0  0  0  0  0  0  0  0  0  0  0  0
   15.9647  -59.6780  -36.2098 N   0  0  0  0  0  0  0  0  0  0  0  0
   17.2003  -59.2531  -35.8008 C   0  0  0  0  0  0  0  0  0  0  0  0
   17.7274  -58.3389  -36.6441 N   0  0  0  0  0  0  0  0  0  0  0  0
   19.0370  -57.6557  -36.5293 C   0  0  1  0  0  0  0  0  0  0  0  0
   19.8057  -57.7540  -37.8367 C   0  0  1  0  0  0  0  0  0  0  0  0
   20.5831  -56.4631  -37.8706 C   0  0  2  0  0  0  0  0  0  0  0  0
   21.7914  -56.6171  -37.1233 O   0  0  0  0  0  0  0  0  0  0  0  0
   20.6999  -58.8676  -37.8266 O   0  0  0  0  0  0  0  0  0  0  0  0
   18.8699  -56.2592  -36.2575 O   0  0  0  0  0  0  0  0  0  0  0  0
   19.6760  -55.4853  -37.1492 C   0  0  2  0  0  0  0  0  0  0  0  0
   18.7991  -54.7505  -38.1514 C   0  0  0  0  0  0  0  0  0  0  0  0
   18.8100  -53.3616  -37.8260 O   0  0  0  0  0  0  0  0  0  0  0  0
   17.9882  -52.7858  -36.5655 P   0  0  0  0  0  0  0  0  0  0  0  0
   18.4566  -51.3572  -36.4125 O   0  0  0  0  0  0  0  0  0  0  0  0
   18.4057  -53.6996  -35.4378 O   0  0  0  0  0  0  0  0  0  0  0  0
   16.5463  -52.9250  -36.9943 O   0  0  0  0  0  0  0  0  0  0  0  0
  1  2  2  0  0  0  0
  2  4  1  0  0  0  0
  2  3  1  0  0  0  0
  4  7  1  0  0  0  0
  5  9  1  0  0  0  0
  5  4  2  0  0  0  0
  6  5  1  0  0  0  0
  8  7  2  0  0  0  0
  9  8  1  0  0  0  0
 10 15  1  0  0  0  0
 10  9  1  6  0  0  0
 10 11  1  0  0  0  0
 11 14  1  1  0  0  0
 11 12  1  0  0  0  0
 12 13  1  1  0  0  0
 15 16  1  0  0  0  0
 16 12  1  0  0  0  0
 16 17  1  6  0  0  0
 17 18  1  0  0  0  0
 18 19  1  0  0  0  0
 19 21  1  0  0  0  0
 19 20  1  0  0  0  0
 22 19  2  0  0  0  0
M  END
>  <CHROM.1>
-2.28152846,-50.16336500,-134.39319820,-74.68088291,169.80900268,17.88372324
-56.36557064,-37.21263477,2.04597367,0.07806508,-3.03789402

>  <Name>
lig.pdb

>  <RI>
0

>  <Rbt.Current_Directory>
/home/itssahil/PROJECTS/Mol_Feturizer/New_Systems/rnas/5btp

>  <Rbt.Executable>
rbdock ($Id: //depot/dev/client3/rdock/2013.1/src/exe/rbdock.cxx#4 $)

>  <Rbt.Library>
libRbt.so (2013.1, Build901 2013/11/27)

>  <Rbt.Parameter_File>
/export/apps/rDock/src/rDock_2013.1_src/data/scripts/dock_solv.prm

>  <Rbt.Receptor>
prm/pocket_docking_7.prm

>  <SCORE>
-15.9814

>  <SCORE.INTER>
-18.3389

>  <SCORE.INTER.CONST>
1

>  <SCORE.INTER.POLAR>
0

>  <SCORE.INTER.ROT>
5

>  <SCORE.INTER.SOLV>
22.4748

>  <SCORE.INTER.VDW>
-26.6509

>  <SCORE.INTER.norm>
-0.833587

>  <SCORE.INTRA>
2.35752

>  <SCORE.INTRA.DIHEDRAL>
3.92821

>  <SCORE.INTRA.DIHEDRAL.0>
4.21161

>  <SCORE.INTRA.POLAR>
0

>  <SCORE.INTRA.POLAR.0>
0

>  <SCORE.INTRA.REPUL>
0

>  <SCORE.INTRA.REPUL.0>
0

>  <SCORE.INTRA.SOLV>
1.91145

>  <SCORE.INTRA.SOLV.lig_0>
-41.4168

>  <SCORE.INTRA.VDW>
-0.562317

>  <SCORE.INTRA.VDW.0>
-1.62533

>  <SCORE.INTRA.norm>
0.10716

>  <SCORE.RESTR>
0

>  <SCORE.RESTR.CAVITY>
0

>  <SCORE.RESTR.norm>
0

>  <SCORE.SYSTEM>
0

>  <SCORE.SYSTEM.CONST>
0

>  <SCORE.SYSTEM.DIHEDRAL>
0

>  <SCORE.SYSTEM.SOLV>
0

>  <SCORE.SYSTEM.norm>
0

>  <SCORE.heavy>
22

>  <SCORE.norm>
-0.726427

>  <RMSD>
4.405

$$$$
lig.pdb
 OpenBabel11021811523D
libRbt.so/2013.1/901 2013/11/27
 22 23  0  0  0  0  0  0  0  0999 V2000
   14.6707  -57.6275  -39.3881 O   0  0  0  0  0  0  0  0  0  0  0  0
   14.4476  -58.4235  -38.4894 C   0  0  0  0  0  0  0  0  0  0  0  0
   13.2471  -58.9790  -38.3243 N   0  0  0  0  0  0  0  0  0  0  0  0
   15.5368  -58.7789  -37.5362 C   0  0  0  0  0  0  0  0  0  0  0  0
   16.9049  -58.2421  -37.6062 C   0  0  0  0  0  0  0  0  0  0  0  0
   17.3896  -57.3009  -38.6074 N   0  0  0  0  0  0  0  0  0  0  0  0
   15.5707  -59.5904  -36.4561 N   0  0  0  0  0  0  0  0  0  0  0  0
   16.8332  -59.5493  -35.9281 C   0  0  0  0  0  0  0  0  0  0  0  0
   17.6486  -58.7288  -36.6257 N   0  0  0  0  0  0  0  0  0  0  0  0
   19.0743  -58.4305  -36.3546 C   0  0  1  0  0  0  0  0  0  0  0  0
   19.9140  -58.6657  -37.5994 C   0  0  1  0  0  0  0  0  0  0  0  0
   21.0037  -57.6321  -37.4733 C   0  0  2  0  0  0  0  0  0  0  0  0
   22.0495  -58.1438  -36.6447 O   0  0  0  0  0  0  0  0  0  0  0  0
   20.4774  -59.9781  -37.6009 O   0  0  0  0  0  0  0  0  0  0  0  0
   19.2557  -57.0563  -35.9930 O   0  0  0  0  0  0  0  0  0  0  0  0
   20.3206  -56.4839  -36.7560 C   0  0  2  0  0  0  0  0  0  0  0  0
   19.7710  -55.4902  -37.7677 C   0  0  0  0  0  0  0  0  0  0  0  0
   18.9691  -54.5368  -37.0724 O   0  0  0  0  0  0  0  0  0  0  0  0
   18.0851  -53.4451  -37.8615 P   0  0  0  0  0  0  0  0  0  0  0  0
   19.0742  -52.3997  -38.3222 O   0  0  0  0  0  0  0  0  0  0  0  0
   17.1171  -52.9617  -36.8078 O   0  0  0  0  0  0  0  0  0  0  0  0
   17.4586  -54.2442  -38.9801 O   0  0  0  0  0  0  0  0  0  0  0  0
  1  2  2  0  0  0  0
  2  4  1  0  0  0  0
  2  3  1  0  0  0  0
  4  7  1  0  0  0  0
  5  9  1  0  0  0  0
  5  4  2  0  0  0  0
  6  5  1  0  0  0  0
  8  7  2  0  0  0  0
  9  8  1  0  0  0  0
 10 15  1  0  0  0  0
 10  9  1  6  0  0  0
 10 11  1  0  0  0  0
 11 14  1  1  0  0  0
 11 12  1  0  0  0  0
 12 13  1  1  0  0  0
 15 16  1  0  0  0  0
 16 12  1  0  0  0  0
 16 17  1  6  0  0  0
 17 18  1  0  0  0  0
 18 19  1  0  0  0  0
 19 21  1  0  0  0  0
 19 20  1  0  0  0  0
 22 19  2  0  0  0  0
M  END
>  <CHROM.1>
-0.82771216,-52.93861609,171.46825457,-172.36042747,-76.69923896,18.00662621
-56.83252056,-37.49262762,2.12268971,0.20692333,2.99741088

>  <Name>
lig.pdb

>  <RI>
0

>  <Rbt.Current_Directory>
/home/itssahil/PROJECTS/Mol_Feturizer/New_Systems/rnas/5btp

>  <Rbt.Executable>
rbdock ($Id: //depot/dev/client3/rdock/2013.1/src/exe/rbdock.cxx#4 $)

>  <Rbt.Library>
libRbt.so (2013.1, Build901 2013/11/27)

>  <Rbt.Parameter_File>
/export/apps/rDock/src/rDock_2013.1_src/data/scripts/dock_solv.prm

>  <Rbt.Receptor>
prm/pocket_docking_8.prm

>  <SCORE>
-20.0716

>  <SCORE.INTER>
-19.6511

>  <SCORE.INTER.CONST>
1

>  <SCORE.INTER.POLAR>
0

>  <SCORE.INTER.ROT>
5

>  <SCORE.INTER.SOLV>
24.3724

>  <SCORE.INTER.VDW>
-28.1582

>  <SCORE.INTER.norm>
-0.893232

>  <SCORE.INTRA>
-0.420507

>  <SCORE.INTRA.DIHEDRAL>
-0.811899

>  <SCORE.INTRA.DIHEDRAL.0>
4.21161

>  <SCORE.INTRA.POLAR>
0

>  <SCORE.INTRA.POLAR.0>
0

>  <SCORE.INTRA.REPUL>
0

>  <SCORE.INTRA.REPUL.0>
0

>  <SCORE.INTRA.SOLV>
2.07005

>  <SCORE.INTRA.SOLV.lig_0>
-41.4168

>  <SCORE.INTRA.VDW>
-1.04958

>  <SCORE.INTRA.VDW.0>
-1.62533

>  <SCORE.INTRA.norm>
-0.0191139

>  <SCORE.RESTR>
0

>  <SCORE.RESTR.CAVITY>
0

>  <SCORE.RESTR.norm>
0

>  <SCORE.SYSTEM>
0

>  <SCORE.SYSTEM.CONST>
0

>  <SCORE.SYSTEM.DIHEDRAL>
0

>  <SCORE.SYSTEM.SOLV>
0

>  <SCORE.SYSTEM.norm>
0

>  <SCORE.heavy>
22

>  <SCORE.norm>
-0.912346

>  <RMSD>
4.414

$$$$
lig.pdb
 OpenBabel11021811523D
libRbt.so/2013.1/901 2013/11/27
 22 23  0  0  0  0  0  0  0  0999 V2000
   14.6663  -57.6165  -39.3783 O   0  0  0  0  0  0  0  0  0  0  0  0
   14.4480  -58.4217  -38.4867 C   0  0  0  0  0  0  0  0  0  0  0  0
   13.2508  -58.9856  -38.3263 N   0  0  0  0  0  0  0  0  0  0  0  0
   15.5395  -58.7792  -37.5369 C   0  0  0  0  0  0  0  0  0  0  0  0
   16.9071  -58.2411  -37.6082 C   0  0  0  0  0  0  0  0  0  0  0  0
   17.3888  -57.2964  -38.6075 N   0  0  0  0  0  0  0  0  0  0  0  0
   15.5764  -59.5941  -36.4595 N   0  0  0  0  0  0  0  0  0  0  0  0
   16.8400  -59.5536  -35.9340 C   0  0  0  0  0  0  0  0  0  0  0  0
   17.6533  -58.7303  -36.6309 N   0  0  0  0  0  0  0  0  0  0  0  0
   19.0793  -58.4317  -36.3619 C   0  0  1  0  0  0  0  0  0  0  0  0
   19.9175  -58.6689  -37.6073 C   0  0  1  0  0  0  0  0  0  0  0  0
   21.0075  -57.6352  -37.4841 C   0  0  2  0  0  0  0  0  0  0  0  0
   22.0542  -58.1457  -36.6559 O   0  0  0  0  0  0  0  0  0  0  0  0
   20.4808  -59.9813  -37.6074 O   0  0  0  0  0  0  0  0  0  0  0  0
   19.2613  -57.0570  -36.0026 O   0  0  0  0  0  0  0  0  0  0  0  0
   20.3253  -56.4859  -36.7677 C   0  0  2  0  0  0  0  0  0  0  0  0
   19.7746  -55.4936  -37.7802 C   0  0  0  0  0  0  0  0  0  0  0  0
   18.9264  -54.5743  -37.0942 O   0  0  0  0  0  0  0  0  0  0  0  0
   18.0830  -53.4539  -37.8876 P   0  0  0  0  0  0  0  0  0  0  0  0
   19.1032  -52.4223  -38.3101 O   0  0  0  0  0  0  0  0  0  0  0  0
   17.1003  -52.9659  -36.8498 O   0  0  0  0  0  0  0  0  0  0  0  0
   17.4672  -54.2244  -39.0320 O   0  0  0  0  0  0  0  0  0  0  0  0
  1  2  2  0  0  0  0
  2  4  1  0  0  0  0
  2  3  1  0  0  0  0
  4  7  1  0  0  0  0
  5  9  1  0  0  0  0
  5  4  2  0  0  0  0
  6  5  1  0  0  0  0
  8  7  2  0  0  0  0
  9  8  1  0  0  0  0
 10 15  1  0  0  0  0
 10  9  1  6  0  0  0
 10 11  1  0  0  0  0
 11 14  1  1  0  0  0
 11 12  1  0  0  0  0
 12 13  1  1  0  0  0
 15 16  1  0  0  0  0
 16 12  1  0  0  0  0
 16 17  1  6  0  0  0
 17 18  1  0  0  0  0
 18 19  1  0  0  0  0
 19 21  1  0  0  0  0
 19 20  1  0  0  0  0
 22 19  2  0  0  0  0
M  END
>  <CHROM.1>
-1.27753203,-53.21548024,168.95063756,-175.13333593,-73.69754566,18.00766384
-56.83615296,-37.50365153,2.12241582,0.20519703,2.99339348

>  <Name>
lig.pdb

>  <RI>
0

>  <Rbt.Current_Directory>
/home/itssahil/PROJECTS/Mol_Feturizer/New_Systems/rnas/5btp

>  <Rbt.Executable>
rbdock ($Id: //depot/dev/client3/rdock/2013.1/src/exe/rbdock.cxx#4 $)

>  <Rbt.Library>
libRbt.so (2013.1, Build901 2013/11/27)

>  <Rbt.Parameter_File>
/export/apps/rDock/src/rDock_2013.1_src/data/scripts/dock_solv.prm

>  <Rbt.Receptor>
prm/pocket_docking_7.prm

>  <SCORE>
-20.0888

>  <SCORE.INTER>
-19.5691

>  <SCORE.INTER.CONST>
1

>  <SCORE.INTER.POLAR>
0

>  <SCORE.INTER.ROT>
5

>  <SCORE.INTER.SOLV>
24.4702

>  <SCORE.INTER.VDW>
-28.1361

>  <SCORE.INTER.norm>
-0.889504

>  <SCORE.INTRA>
-0.519728

>  <SCORE.INTRA.DIHEDRAL>
-0.939559

>  <SCORE.INTRA.DIHEDRAL.0>
4.21161

>  <SCORE.INTRA.POLAR>
0

>  <SCORE.INTRA.POLAR.0>
0

>  <SCORE.INTRA.REPUL>
0

>  <SCORE.INTRA.REPUL.0>
0

>  <SCORE.INTRA.SOLV>
2.06468

>  <SCORE.INTRA.SOLV.lig_0>
-41.4168

>  <SCORE.INTRA.VDW>
-1.08229

>  <SCORE.INTRA.VDW.0>
-1.62533

>  <SCORE.INTRA.norm>
-0.023624

>  <SCORE.RESTR>
0

>  <SCORE.RESTR.CAVITY>
0

>  <SCORE.RESTR.norm>
0

>  <SCORE.SYSTEM>
0

>  <SCORE.SYSTEM.CONST>
0

>  <SCORE.SYSTEM.DIHEDRAL>
0

>  <SCORE.SYSTEM.SOLV>
0

>  <SCORE.SYSTEM.norm>
0

>  <SCORE.heavy>
22

>  <SCORE.norm>
-0.913128

>  <RMSD>
4.418

$$$$
lig.pdb
 OpenBabel11021811523D
libRbt.so/2013.1/901 2013/11/27
 22 23  0  0  0  0  0  0  0  0999 V2000
   13.3109  -59.5360  -37.3684 O   0  0  0  0  0  0  0  0  0  0  0  0
   13.7207  -58.8312  -38.2774 C   0  0  0  0  0  0  0  0  0  0  0  0
   12.9055  -58.3495  -39.2157 N   0  0  0  0  0  0  0  0  0  0  0  0
   15.1732  -58.5072  -38.3576 C   0  0  0  0  0  0  0  0  0  0  0  0
   16.1278  -58.7095  -37.2564 C   0  0  0  0  0  0  0  0  0  0  0  0
   15.7959  -59.2446  -35.9424 N   0  0  0  0  0  0  0  0  0  0  0  0
   15.9392  -58.0056  -39.3516 N   0  0  0  0  0  0  0  0  0  0  0  0
   17.2268  -57.9126  -38.8957 C   0  0  0  0  0  0  0  0  0  0  0  0
   17.3457  -58.3408  -37.6200 N   0  0  0  0  0  0  0  0  0  0  0  0
   18.5765  -58.3918  -36.7969 C   0  0  1  0  0  0  0  0  0  0  0  0
   19.8039  -58.5327  -37.6821 C   0  0  1  0  0  0  0  0  0  0  0  0
   20.8627  -57.7826  -36.9152 C   0  0  2  0  0  0  0  0  0  0  0  0
   21.4423  -58.6477  -35.9366 O   0  0  0  0  0  0  0  0  0  0  0  0
   20.1793  -59.9029  -37.8286 O   0  0  0  0  0  0  0  0  0  0  0  0
   18.7491  -57.1825  -36.0486 O   0  0  0  0  0  0  0  0  0  0  0  0
   20.0816  -56.6906  -36.2103 C   0  0  2  0  0  0  0  0  0  0  0  0
   20.0789  -55.4245  -37.0529 C   0  0  0  0  0  0  0  0  0  0  0  0
   19.0335  -54.5742  -36.5846 O   0  0  0  0  0  0  0  0  0  0  0  0
   18.5763  -53.2687  -37.4108 P   0  0  0  0  0  0  0  0  0  0  0  0
   19.7579  -52.3291  -37.3431 O   0  0  0  0  0  0  0  0  0  0  0  0
   17.3602  -52.7919  -36.6526 O   0  0  0  0  0  0  0  0  0  0  0  0
   18.2910  -53.8105  -38.7919 O   0  0  0  0  0  0  0  0  0  0  0  0
  1  2  2  0  0  0  0
  2  4  1  0  0  0  0
  2  3  1  0  0  0  0
  4  7  1  0  0  0  0
  5  9  1  0  0  0  0
  5  4  2  0  0  0  0
  6  5  1  0  0  0  0
  8  7  2  0  0  0  0
  9  8  1  0  0  0  0
 10 15  1  0  0  0  0
 10  9  1  6  0  0  0
 10 11  1  0  0  0  0
 11 14  1  1  0  0  0
 11 12  1  0  0  0  0
 12 13  1  1  0  0  0
 15 16  1  0  0  0  0
 16 12  1  0  0  0  0
 16 17  1  6  0  0  0
 17 18  1  0  0  0  0
 18 19  1  0  0  0  0
 19 21  1  0  0  0  0
 19 20  1  0  0  0  0
 22 19  2  0  0  0  0
M  END
>  <CHROM.1>
-14.83568963,153.01401399,162.70172270,-169.01841184,-66.90940561,17.84914274
-56.83850748,-37.40719921,2.35795276,0.24439105,3.09255714

>  <Name>
lig.pdb

>  <RI>
0

>  <Rbt.Current_Directory>
/home/itssahil/PROJECTS/Mol_Feturizer/New_Systems/rnas/5btp

>  <Rbt.Executable>
rbdock ($Id: //depot/dev/client3/rdock/2013.1/src/exe/rbdock.cxx#4 $)

>  <Rbt.Library>
libRbt.so (2013.1, Build901 2013/11/27)

>  <Rbt.Parameter_File>
/export/apps/rDock/src/rDock_2013.1_src/data/scripts/dock_solv.prm

>  <Rbt.Receptor>
prm/pocket_docking_6.prm

>  <SCORE>
-17.8662

>  <SCORE.INTER>
-18.0247

>  <SCORE.INTER.CONST>
1

>  <SCORE.INTER.POLAR>
0

>  <SCORE.INTER.ROT>
5

>  <SCORE.INTER.SOLV>
24.2725

>  <SCORE.INTER.VDW>
-27.0406

>  <SCORE.INTER.norm>
-0.819306

>  <SCORE.INTRA>
0.158517

>  <SCORE.INTRA.DIHEDRAL>
0.615922

>  <SCORE.INTRA.DIHEDRAL.0>
4.21161

>  <SCORE.INTRA.POLAR>
0

>  <SCORE.INTRA.POLAR.0>
0

>  <SCORE.INTRA.REPUL>
0

>  <SCORE.INTRA.REPUL.0>
0

>  <SCORE.INTRA.SOLV>
-0.11094

>  <SCORE.INTRA.SOLV.lig_0>
-41.4168

>  <SCORE.INTRA.VDW>
-0.0939743

>  <SCORE.INTRA.VDW.0>
-1.62533

>  <SCORE.INTRA.norm>
0.00720531

>  <SCORE.RESTR>
0

>  <SCORE.RESTR.CAVITY>
0

>  <SCORE.RESTR.norm>
0

>  <SCORE.SYSTEM>
0

>  <SCORE.SYSTEM.CONST>
0

>  <SCORE.SYSTEM.DIHEDRAL>
0

>  <SCORE.SYSTEM.SOLV>
0

>  <SCORE.SYSTEM.norm>
0

>  <SCORE.heavy>
22

>  <SCORE.norm>
-0.8121

>  <RMSD>
4.450

$$$$
lig.pdb
 OpenBabel11021811523D
libRbt.so/2013.1/901 2013/11/27
 22 23  0  0  0  0  0  0  0  0999 V2000
   13.3647  -59.1184  -38.2545 O   0  0  0  0  0  0  0  0  0  0  0  0
   14.4456  -58.5682  -38.3961 C   0  0  0  0  0  0  0  0  0  0  0  0
   14.6653  -57.6920  -39.3763 N   0  0  0  0  0  0  0  0  0  0  0  0
   15.5611  -58.8900  -37.4616 C   0  0  0  0  0  0  0  0  0  0  0  0
   16.9155  -58.3245  -37.5645 C   0  0  0  0  0  0  0  0  0  0  0  0
   17.3594  -57.3835  -38.5846 N   0  0  0  0  0  0  0  0  0  0  0  0
   15.6342  -59.6894  -36.3744 N   0  0  0  0  0  0  0  0  0  0  0  0
   16.9058  -59.6155  -35.8724 C   0  0  0  0  0  0  0  0  0  0  0  0
   17.6891  -58.7848  -36.5945 N   0  0  0  0  0  0  0  0  0  0  0  0
   19.1130  -58.4530  -36.3551 C   0  0  1  0  0  0  0  0  0  0  0  0
   19.9316  -58.6775  -37.6158 C   0  0  1  0  0  0  0  0  0  0  0  0
   21.0002  -57.6190  -37.5189 C   0  0  2  0  0  0  0  0  0  0  0  0
   22.0743  -58.1017  -36.7093 O   0  0  0  0  0  0  0  0  0  0  0  0
   20.5243  -59.9769  -37.6212 O   0  0  0  0  0  0  0  0  0  0  0  0
   19.2710  -57.0728  -36.0057 O   0  0  0  0  0  0  0  0  0  0  0  0
   20.3066  -56.4817  -36.7944 C   0  0  2  0  0  0  0  0  0  0  0  0
   19.7138  -55.5071  -37.8003 C   0  0  0  0  0  0  0  0  0  0  0  0
   18.9392  -54.5424  -37.0899 O   0  0  0  0  0  0  0  0  0  0  0  0
   18.0710  -53.4261  -37.8619 P   0  0  0  0  0  0  0  0  0  0  0  0
   19.0758  -52.3908  -38.3114 O   0  0  0  0  0  0  0  0  0  0  0  0
   17.1138  -52.9410  -36.7991 O   0  0  0  0  0  0  0  0  0  0  0  0
   17.4286  -54.1999  -38.9892 O   0  0  0  0  0  0  0  0  0  0  0  0
  1  2  2  0  0  0  0
  2  4  1  0  0  0  0
  2  3  1  0  0  0  0
  4  7  1  0  0  0  0
  5  9  1  0  0  0  0
  5  4  2  0  0  0  0
  6  5  1  0  0  0  0
  8  7  2  0  0  0  0
  9  8  1  0  0  0  0
 10 15  1  0  0  0  0
 10  9  1  6  0  0  0
 10 11  1  0  0  0  0
 11 14  1  1  0  0  0
 11 12  1  0  0  0  0
 12 13  1  1  0  0  0
 15 16  1  0  0  0  0
 16 12  1  0  0  0  0
 16 17  1  6  0  0  0
 17 18  1  0  0  0  0
 18 19  1  0  0  0  0
 19 21  1  0  0  0  0
 19 20  1  0  0  0  0
 22 19  2  0  0  0  0
M  END
>  <CHROM.1>
177.82798515,-52.70873667,173.25912015,-175.02988932,-77.29045940,18.00970272
-56.87024678,-37.47721458,2.09381154,0.19046060,2.99733962

>  <Name>
lig.pdb

>  <RI>
0

>  <Rbt.Current_Directory>
/home/itssahil/PROJECTS/Mol_Feturizer/New_Systems/rnas/5btp

>  <Rbt.Executable>
rbdock ($Id: //depot/dev/client3/rdock/2013.1/src/exe/rbdock.cxx#4 $)

>  <Rbt.Library>
libRbt.so (2013.1, Build901 2013/11/27)

>  <Rbt.Parameter_File>
/export/apps/rDock/src/rDock_2013.1_src/data/scripts/dock_solv.prm

>  <Rbt.Receptor>
prm/pocket_docking_7.prm

>  <SCORE>
-19.7972

>  <SCORE.INTER>
-19.3646

>  <SCORE.INTER.CONST>
1

>  <SCORE.INTER.POLAR>
0

>  <SCORE.INTER.ROT>
5

>  <SCORE.INTER.SOLV>
24.826

>  <SCORE.INTER.VDW>
-28.1184

>  <SCORE.INTER.norm>
-0.88021

>  <SCORE.INTRA>
-0.432611

>  <SCORE.INTRA.DIHEDRAL>
-1.0294

>  <SCORE.INTRA.DIHEDRAL.0>
4.21161

>  <SCORE.INTRA.POLAR>
0

>  <SCORE.INTRA.POLAR.0>
0

>  <SCORE.INTRA.REPUL>
0

>  <SCORE.INTRA.REPUL.0>
0

>  <SCORE.INTRA.SOLV>
2.14248

>  <SCORE.INTRA.SOLV.lig_0>
-41.4168

>  <SCORE.INTRA.VDW>
-0.989153

>  <SCORE.INTRA.VDW.0>
-1.62533

>  <SCORE.INTRA.norm>
-0.0196641

>  <SCORE.RESTR>
0

>  <SCORE.RESTR.CAVITY>
0

>  <SCORE.RESTR.norm>
0

>  <SCORE.SYSTEM>
0

>  <SCORE.SYSTEM.CONST>
0

>  <SCORE.SYSTEM.DIHEDRAL>
0

>  <SCORE.SYSTEM.SOLV>
0

>  <SCORE.SYSTEM.norm>
0

>  <SCORE.heavy>
22

>  <SCORE.norm>
-0.899874

>  <RMSD>
4.461

$$$$
lig.pdb
 OpenBabel11021811523D
libRbt.so/2013.1/901 2013/11/27
 22 23  0  0  0  0  0  0  0  0999 V2000
   14.6549  -57.6290  -39.3929 O   0  0  0  0  0  0  0  0  0  0  0  0
   14.4371  -58.4354  -38.5022 C   0  0  0  0  0  0  0  0  0  0  0  0
   13.2411  -59.0025  -38.3445 N   0  0  0  0  0  0  0  0  0  0  0  0
   15.5277  -58.7905  -37.5506 C   0  0  0  0  0  0  0  0  0  0  0  0
   16.8940  -58.2486  -37.6187 C   0  0  0  0  0  0  0  0  0  0  0  0
   17.3751  -57.3018  -38.6164 N   0  0  0  0  0  0  0  0  0  0  0  0
   15.5647  -59.6061  -36.4737 N   0  0  0  0  0  0  0  0  0  0  0  0
   16.8272  -59.5626  -35.9457 C   0  0  0  0  0  0  0  0  0  0  0  0
   17.6396  -58.7365  -36.6404 N   0  0  0  0  0  0  0  0  0  0  0  0
   19.0642  -58.4342  -36.3683 C   0  0  1  0  0  0  0  0  0  0  0  0
   19.9054  -58.6674  -37.6124 C   0  0  1  0  0  0  0  0  0  0  0  0
   20.9922  -57.6307  -37.4859 C   0  0  2  0  0  0  0  0  0  0  0  0
   22.0388  -58.1394  -36.6564 O   0  0  0  0  0  0  0  0  0  0  0  0
   20.4724  -59.9782  -37.6133 O   0  0  0  0  0  0  0  0  0  0  0  0
   19.2416  -57.0595  -36.0069 O   0  0  0  0  0  0  0  0  0  0  0  0
   20.3054  -56.4843  -36.7693 C   0  0  2  0  0  0  0  0  0  0  0  0
   19.7538  -55.4923  -37.7816 C   0  0  0  0  0  0  0  0  0  0  0  0
   18.9443  -54.5443  -37.0879 O   0  0  0  0  0  0  0  0  0  0  0  0
   18.0754  -53.4412  -37.8779 P   0  0  0  0  0  0  0  0  0  0  0  0
   17.4495  -54.1893  -39.0321 O   0  0  0  0  0  0  0  0  0  0  0  0
   19.1096  -52.4199  -38.2883 O   0  0  0  0  0  0  0  0  0  0  0  0
   17.0886  -52.9628  -36.8387 O   0  0  0  0  0  0  0  0  0  0  0  0
  1  2  2  0  0  0  0
  2  4  1  0  0  0  0
  2  3  1  0  0  0  0
  4  7  1  0  0  0  0
  5  9  1  0  0  0  0
  5  4  2  0  0  0  0
  6  5  1  0  0  0  0
  8  7  2  0  0  0  0
  9  8  1  0  0  0  0
 10 15  1  0  0  0  0
 10  9  1  6  0  0  0
 10 11  1  0  0  0  0
 11 14  1  1  0  0  0
 11 12  1  0  0  0  0
 12 13  1  1  0  0  0
 15 16  1  0  0  0  0
 16 12  1  0  0  0  0
 16 17  1  6  0  0  0
 17 18  1  0  0  0  0
 18 19  1  0  0  0  0
 19 21  1  0  0  0  0
 19 20  1  0  0  0  0
 22 19  2  0  0  0  0
M  END
>  <CHROM.1>
-1.26897838,-53.18300165,171.22971926,-173.36015733,43.16453656,17.99681413
-56.83483265,-37.50677633,2.12048991,0.20772634,2.99710155

>  <Name>
lig.pdb

>  <RI>
0

>  <Rbt.Current_Directory>
/home/itssahil/PROJECTS/Mol_Feturizer/New_Systems/rnas/5btp

>  <Rbt.Executable>
rbdock ($Id: //depot/dev/client3/rdock/2013.1/src/exe/rbdock.cxx#4 $)

>  <Rbt.Library>
libRbt.so (2013.1, Build901 2013/11/27)

>  <Rbt.Parameter_File>
/export/apps/rDock/src/rDock_2013.1_src/data/scripts/dock_solv.prm

>  <Rbt.Receptor>
prm/pocket_docking_8.prm

>  <SCORE>
-20.5603

>  <SCORE.INTER>
-19.7928

>  <SCORE.INTER.CONST>
1

>  <SCORE.INTER.POLAR>
0

>  <SCORE.INTER.ROT>
5

>  <SCORE.INTER.SOLV>
23.858

>  <SCORE.INTER.VDW>
-28.0812

>  <SCORE.INTER.norm>
-0.899671

>  <SCORE.INTRA>
-0.767486

>  <SCORE.INTRA.DIHEDRAL>
-0.856584

>  <SCORE.INTRA.DIHEDRAL.0>
4.21161

>  <SCORE.INTRA.POLAR>
0

>  <SCORE.INTRA.POLAR.0>
0

>  <SCORE.INTRA.REPUL>
0

>  <SCORE.INTRA.REPUL.0>
0

>  <SCORE.INTRA.SOLV>
1.51711

>  <SCORE.INTRA.SOLV.lig_0>
-41.4168

>  <SCORE.INTRA.VDW>
-1.09775

>  <SCORE.INTRA.VDW.0>
-1.62533

>  <SCORE.INTRA.norm>
-0.0348857

>  <SCORE.RESTR>
0

>  <SCORE.RESTR.CAVITY>
0

>  <SCORE.RESTR.norm>
0

>  <SCORE.SYSTEM>
0

>  <SCORE.SYSTEM.CONST>
0

>  <SCORE.SYSTEM.DIHEDRAL>
0

>  <SCORE.SYSTEM.SOLV>
0

>  <SCORE.SYSTEM.norm>
0

>  <SCORE.heavy>
22

>  <SCORE.norm>
-0.934557

>  <RMSD>
4.475

$$$$
lig.pdb
 OpenBabel11021811523D
libRbt.so/2013.1/901 2013/11/27
 22 23  0  0  0  0  0  0  0  0999 V2000
   12.9184  -58.5289  -39.1681 O   0  0  0  0  0  0  0  0  0  0  0  0
   13.6754  -58.8771  -38.2755 C   0  0  0  0  0  0  0  0  0  0  0  0
   13.2423  -59.5485  -37.2085 N   0  0  0  0  0  0  0  0  0  0  0  0
   15.1229  -58.5336  -38.3648 C   0  0  0  0  0  0  0  0  0  0  0  0
   16.0818  -58.6984  -37.2611 C   0  0  0  0  0  0  0  0  0  0  0  0
   15.7594  -59.2103  -35.9355 N   0  0  0  0  0  0  0  0  0  0  0  0
   15.8801  -58.0420  -39.3704 N   0  0  0  0  0  0  0  0  0  0  0  0
   17.1668  -57.9204  -38.9186 C   0  0  0  0  0  0  0  0  0  0  0  0
   17.2936  -58.3195  -37.6342 N   0  0  0  0  0  0  0  0  0  0  0  0
   18.5260  -58.3349  -36.8122 C   0  0  1  0  0  0  0  0  0  0  0  0
   19.7530  -58.4963  -37.6945 C   0  0  1  0  0  0  0  0  0  0  0  0
   20.8077  -57.7140  -36.9546 C   0  0  2  0  0  0  0  0  0  0  0  0
   21.3949  -58.5425  -35.9492 O   0  0  0  0  0  0  0  0  0  0  0  0
   20.1378  -59.8679  -37.7967 O   0  0  0  0  0  0  0  0  0  0  0  0
   18.6913  -57.1006  -36.1043 O   0  0  0  0  0  0  0  0  0  0  0  0
   20.0201  -56.6050  -36.2845 C   0  0  2  0  0  0  0  0  0  0  0  0
   20.0071  -55.3672  -37.1681 C   0  0  0  0  0  0  0  0  0  0  0  0
   18.9086  -54.5457  -36.7763 O   0  0  0  0  0  0  0  0  0  0  0  0
   18.4388  -53.2875  -37.6663 P   0  0  0  0  0  0  0  0  0  0  0  0
   19.5973  -52.3185  -37.6162 O   0  0  0  0  0  0  0  0  0  0  0  0
   17.1972  -52.8074  -36.9526 O   0  0  0  0  0  0  0  0  0  0  0  0
   18.1935  -53.8938  -39.0281 O   0  0  0  0  0  0  0  0  0  0  0  0
  1  2  2  0  0  0  0
  2  4  1  0  0  0  0
  2  3  1  0  0  0  0
  4  7  1  0  0  0  0
  5  9  1  0  0  0  0
  5  4  2  0  0  0  0
  6  5  1  0  0  0  0
  8  7  2  0  0  0  0
  9  8  1  0  0  0  0
 10 15  1  0  0  0  0
 10  9  1  6  0  0  0
 10 11  1  0  0  0  0
 11 14  1  1  0  0  0
 11 12  1  0  0  0  0
 12 13  1  1  0  0  0
 15 16  1  0  0  0  0
 16 12  1  0  0  0  0
 16 17  1  6  0  0  0
 17 18  1  0  0  0  0
 18 19  1  0  0  0  0
 19 21  1  0  0  0  0
 19 20  1  0  0  0  0
 22 19  2  0  0  0  0
M  END
>  <CHROM.1>
169.38460055,152.21466654,159.38143198,-168.95981555,-65.05242686,17.77251202
-56.82396890,-37.49635657,2.36343154,0.24810964,3.04865236

>  <Name>
lig.pdb

>  <RI>
0

>  <Rbt.Current_Directory>
/home/itssahil/PROJECTS/Mol_Feturizer/New_Systems/rnas/5btp

>  <Rbt.Executable>
rbdock ($Id: //depot/dev/client3/rdock/2013.1/src/exe/rbdock.cxx#4 $)

>  <Rbt.Library>
libRbt.so (2013.1, Build901 2013/11/27)

>  <Rbt.Parameter_File>
/export/apps/rDock/src/rDock_2013.1_src/data/scripts/dock_solv.prm

>  <Rbt.Receptor>
prm/pocket_docking_8.prm

>  <SCORE>
-18.4997

>  <SCORE.INTER>
-18.7463

>  <SCORE.INTER.CONST>
1

>  <SCORE.INTER.POLAR>
0

>  <SCORE.INTER.ROT>
5

>  <SCORE.INTER.SOLV>
25.2824

>  <SCORE.INTER.VDW>
-27.8584

>  <SCORE.INTER.norm>
-0.852105

>  <SCORE.INTRA>
0.24657

>  <SCORE.INTRA.DIHEDRAL>
0.609684

>  <SCORE.INTRA.DIHEDRAL.0>
4.21161

>  <SCORE.INTRA.POLAR>
0

>  <SCORE.INTRA.POLAR.0>
0

>  <SCORE.INTRA.REPUL>
0

>  <SCORE.INTRA.REPUL.0>
0

>  <SCORE.INTRA.SOLV>
0.147684

>  <SCORE.INTRA.SOLV.lig_0>
-41.4168

>  <SCORE.INTRA.VDW>
-0.132114

>  <SCORE.INTRA.VDW.0>
-1.62533

>  <SCORE.INTRA.norm>
0.0112077

>  <SCORE.RESTR>
0

>  <SCORE.RESTR.CAVITY>
0

>  <SCORE.RESTR.norm>
0

>  <SCORE.SYSTEM>
0

>  <SCORE.SYSTEM.CONST>
0

>  <SCORE.SYSTEM.DIHEDRAL>
0

>  <SCORE.SYSTEM.SOLV>
0

>  <SCORE.SYSTEM.norm>
0

>  <SCORE.heavy>
22

>  <SCORE.norm>
-0.840898

>  <RMSD>
4.486

$$$$
lig.pdb
 OpenBabel11021811523D
libRbt.so/2013.1/901 2013/11/27
 22 23  0  0  0  0  0  0  0  0999 V2000
   12.9418  -58.5262  -39.2048 O   0  0  0  0  0  0  0  0  0  0  0  0
   13.6934  -58.8708  -38.3063 C   0  0  0  0  0  0  0  0  0  0  0  0
   13.2546  -59.5416  -37.2413 N   0  0  0  0  0  0  0  0  0  0  0  0
   15.1405  -58.5232  -38.3858 C   0  0  0  0  0  0  0  0  0  0  0  0
   16.0938  -58.6919  -37.2779 C   0  0  0  0  0  0  0  0  0  0  0  0
   15.7656  -59.2121  -35.9570 N   0  0  0  0  0  0  0  0  0  0  0  0
   15.9019  -58.0241  -39.3845 N   0  0  0  0  0  0  0  0  0  0  0  0
   17.1859  -57.9019  -38.9251 C   0  0  0  0  0  0  0  0  0  0  0  0
   17.3067  -58.3080  -37.6424 N   0  0  0  0  0  0  0  0  0  0  0  0
   18.5347  -58.3250  -36.8138 C   0  0  1  0  0  0  0  0  0  0  0  0
   19.7655  -58.4964  -37.6889 C   0  0  1  0  0  0  0  0  0  0  0  0
   20.8200  -57.7154  -36.9473 C   0  0  2  0  0  0  0  0  0  0  0  0
   21.3981  -58.5416  -35.9347 O   0  0  0  0  0  0  0  0  0  0  0  0
   20.1445  -59.8702  -37.7824 O   0  0  0  0  0  0  0  0  0  0  0  0
   18.7020  -57.0880  -36.1111 O   0  0  0  0  0  0  0  0  0  0  0  0
   20.0340  -56.5994  -36.2868 C   0  0  2  0  0  0  0  0  0  0  0  0
   20.0314  -55.3660  -37.1765 C   0  0  0  0  0  0  0  0  0  0  0  0
   19.0513  -54.4555  -36.6811 O   0  0  0  0  0  0  0  0  0  0  0  0
   18.6842  -53.1009  -37.4725 P   0  0  0  0  0  0  0  0  0  0  0  0
   18.3533  -53.5463  -38.8781 O   0  0  0  0  0  0  0  0  0  0  0  0
   19.9508  -52.2856  -37.3620 O   0  0  0  0  0  0  0  0  0  0  0  0
   17.5071  -52.5524  -36.7006 O   0  0  0  0  0  0  0  0  0  0  0  0
  1  2  2  0  0  0  0
  2  4  1  0  0  0  0
  2  3  1  0  0  0  0
  4  7  1  0  0  0  0
  5  9  1  0  0  0  0
  5  4  2  0  0  0  0
  6  5  1  0  0  0  0
  8  7  2  0  0  0  0
  9  8  1  0  0  0  0
 10 15  1  0  0  0  0
 10  9  1  6  0  0  0
 10 11  1  0  0  0  0
 11 14  1  1  0  0  0
 11 12  1  0  0  0  0
 12 13  1  1  0  0  0
 15 16  1  0  0  0  0
 16 12  1  0  0  0  0
 16 17  1  6  0  0  0
 17 18  1  0  0  0  0
 18 19  1  0  0  0  0
 19 21  1  0  0  0  0
 19 20  1  0  0  0  0
 22 19  2  0  0  0  0
M  END
>  <CHROM.1>
169.81681580,151.48750994,167.09858860,-174.04474592,52.96776830,17.85213011
-56.76699729,-37.44846759,2.33258901,0.25060821,3.07754897

>  <Name>
lig.pdb

>  <RI>
0

>  <Rbt.Current_Directory>
/home/itssahil/PROJECTS/Mol_Feturizer/New_Systems/rnas/5btp

>  <Rbt.Executable>
rbdock ($Id: //depot/dev/client3/rdock/2013.1/src/exe/rbdock.cxx#4 $)

>  <Rbt.Library>
libRbt.so (2013.1, Build901 2013/11/27)

>  <Rbt.Parameter_File>
/export/apps/rDock/src/rDock_2013.1_src/data/scripts/dock_solv.prm

>  <Rbt.Receptor>
prm/pocket_docking_7.prm

>  <SCORE>
-18.8031

>  <SCORE.INTER>
-18.2957

>  <SCORE.INTER.CONST>
1

>  <SCORE.INTER.POLAR>
0

>  <SCORE.INTER.ROT>
5

>  <SCORE.INTER.SOLV>
23.4172

>  <SCORE.INTER.VDW>
-26.9362

>  <SCORE.INTER.norm>
-0.831621

>  <SCORE.INTRA>
-0.50746

>  <SCORE.INTRA.DIHEDRAL>
-0.607555

>  <SCORE.INTRA.DIHEDRAL.0>
4.21161

>  <SCORE.INTRA.POLAR>
0

>  <SCORE.INTRA.POLAR.0>
0

>  <SCORE.INTRA.REPUL>
0

>  <SCORE.INTRA.REPUL.0>
0

>  <SCORE.INTRA.SOLV>
-0.210408

>  <SCORE.INTRA.SOLV.lig_0>
-41.4168

>  <SCORE.INTRA.VDW>
-0.098479

>  <SCORE.INTRA.VDW.0>
-1.62533

>  <SCORE.INTRA.norm>
-0.0230664

>  <SCORE.RESTR>
0

>  <SCORE.RESTR.CAVITY>
0

>  <SCORE.RESTR.norm>
0

>  <SCORE.SYSTEM>
0

>  <SCORE.SYSTEM.CONST>
0

>  <SCORE.SYSTEM.DIHEDRAL>
0

>  <SCORE.SYSTEM.SOLV>
0

>  <SCORE.SYSTEM.norm>
0

>  <SCORE.heavy>
22

>  <SCORE.norm>
-0.854687

>  <RMSD>
4.504

$$$$
lig.pdb
 OpenBabel11021811523D
libRbt.so/2013.1/901 2013/11/27
 22 23  0  0  0  0  0  0  0  0999 V2000
   12.9068  -58.4690  -39.1925 O   0  0  0  0  0  0  0  0  0  0  0  0
   13.6606  -58.8416  -38.3071 C   0  0  0  0  0  0  0  0  0  0  0  0
   13.2220  -59.5331  -37.2553 N   0  0  0  0  0  0  0  0  0  0  0  0
   15.1104  -58.5060  -38.3878 C   0  0  0  0  0  0  0  0  0  0  0  0
   16.0653  -58.6922  -37.2839 C   0  0  0  0  0  0  0  0  0  0  0  0
   15.7360  -59.2203  -35.9664 N   0  0  0  0  0  0  0  0  0  0  0  0
   15.8735  -58.0053  -39.3845 N   0  0  0  0  0  0  0  0  0  0  0  0
   17.1597  -57.8981  -38.9276 C   0  0  0  0  0  0  0  0  0  0  0  0
   17.2804  -58.3158  -37.6486 N   0  0  0  0  0  0  0  0  0  0  0  0
   18.5105  -58.3504  -36.8236 C   0  0  1  0  0  0  0  0  0  0  0  0
   19.7380  -58.5174  -37.7040 C   0  0  1  0  0  0  0  0  0  0  0  0
   20.7988  -57.7519  -36.9553 C   0  0  2  0  0  0  0  0  0  0  0  0
   21.3748  -58.5942  -35.9549 O   0  0  0  0  0  0  0  0  0  0  0  0
   20.1090  -59.8920  -37.8161 O   0  0  0  0  0  0  0  0  0  0  0  0
   18.6866  -57.1234  -36.1056 O   0  0  0  0  0  0  0  0  0  0  0  0
   20.0209  -56.6401  -36.2785 C   0  0  2  0  0  0  0  0  0  0  0  0
   20.0230  -55.3953  -37.1524 C   0  0  0  0  0  0  0  0  0  0  0  0
   18.9776  -54.5319  -36.7087 O   0  0  0  0  0  0  0  0  0  0  0  0
   18.5788  -53.2029  -37.5276 P   0  0  0  0  0  0  0  0  0  0  0  0
   18.2885  -53.6806  -38.9315 O   0  0  0  0  0  0  0  0  0  0  0  0
   19.8147  -52.3430  -37.4080 O   0  0  0  0  0  0  0  0  0  0  0  0
   17.3701  -52.6835  -36.7849 O   0  0  0  0  0  0  0  0  0  0  0  0
  1  2  2  0  0  0  0
  2  4  1  0  0  0  0
  2  3  1  0  0  0  0
  4  7  1  0  0  0  0
  5  9  1  0  0  0  0
  5  4  2  0  0  0  0
  6  5  1  0  0  0  0
  8  7  2  0  0  0  0
  9  8  1  0  0  0  0
 10 15  1  0  0  0  0
 10  9  1  6  0  0  0
 10 11  1  0  0  0  0
 11 14  1  1  0  0  0
 11 12  1  0  0  0  0
 12 13  1  1  0  0  0
 15 16  1  0  0  0  0
 16 12  1  0  0  0  0
 16 17  1  6  0  0  0
 17 18  1  0  0  0  0
 18 19  1  0  0  0  0
 19 21  1  0  0  0  0
 19 20  1  0  0  0  0
 22 19  2  0  0  0  0
M  END
>  <CHROM.1>
168.92134196,151.80269264,162.53571747,-172.37814156,54.79349128,17.80394157
-56.80227543,-37.46724281,2.35376652,0.24900262,3.07149060

>  <Name>
lig.pdb

>  <RI>
0

>  <Rbt.Current_Directory>
/home/itssahil/PROJECTS/Mol_Feturizer/New_Systems/rnas/5btp

>  <Rbt.Executable>
rbdock ($Id: //depot/dev/client3/rdock/2013.1/src/exe/rbdock.cxx#4 $)

>  <Rbt.Library>
libRbt.so (2013.1, Build901 2013/11/27)

>  <Rbt.Parameter_File>
/export/apps/rDock/src/rDock_2013.1_src/data/scripts/dock_solv.prm

>  <Rbt.Receptor>
prm/pocket_docking_6.prm

>  <SCORE>
-18.7909

>  <SCORE.INTER>
-18.5876

>  <SCORE.INTER.CONST>
1

>  <SCORE.INTER.POLAR>
0

>  <SCORE.INTER.ROT>
5

>  <SCORE.INTER.SOLV>
23.966

>  <SCORE.INTER.VDW>
-27.3138

>  <SCORE.INTER.norm>
-0.844893

>  <SCORE.INTRA>
-0.203251

>  <SCORE.INTRA.DIHEDRAL>
-0.0206608

>  <SCORE.INTRA.DIHEDRAL.0>
4.21161

>  <SCORE.INTRA.POLAR>
0

>  <SCORE.INTRA.POLAR.0>
0

>  <SCORE.INTRA.REPUL>
0

>  <SCORE.INTRA.REPUL.0>
0

>  <SCORE.INTRA.SOLV>
-0.200663

>  <SCORE.INTRA.SOLV.lig_0>
-41.4168

>  <SCORE.INTRA.VDW>
-0.0925897

>  <SCORE.INTRA.VDW.0>
-1.62533

>  <SCORE.INTRA.norm>
-0.0092387

>  <SCORE.RESTR>
0

>  <SCORE.RESTR.CAVITY>
0

>  <SCORE.RESTR.norm>
0

>  <SCORE.SYSTEM>
0

>  <SCORE.SYSTEM.CONST>
0

>  <SCORE.SYSTEM.DIHEDRAL>
0

>  <SCORE.SYSTEM.SOLV>
0

>  <SCORE.SYSTEM.norm>
0

>  <SCORE.heavy>
22

>  <SCORE.norm>
-0.854131

>  <RMSD>
4.512

$$$$
lig.pdb
 OpenBabel11021811523D
libRbt.so/2013.1/901 2013/11/27
 22 23  0  0  0  0  0  0  0  0999 V2000
   12.9636  -58.4401  -39.1781 O   0  0  0  0  0  0  0  0  0  0  0  0
   13.7148  -58.8277  -38.2969 C   0  0  0  0  0  0  0  0  0  0  0  0
   13.2696  -59.5176  -37.2468 N   0  0  0  0  0  0  0  0  0  0  0  0
   15.1691  -58.5128  -38.3808 C   0  0  0  0  0  0  0  0  0  0  0  0
   16.1188  -58.6880  -37.2707 C   0  0  0  0  0  0  0  0  0  0  0  0
   15.7796  -59.1841  -35.9433 N   0  0  0  0  0  0  0  0  0  0  0  0
   15.9410  -58.0431  -39.3857 N   0  0  0  0  0  0  0  0  0  0  0  0
   17.2274  -57.9431  -38.9278 C   0  0  0  0  0  0  0  0  0  0  0  0
   17.3396  -58.3353  -37.6400 N   0  0  0  0  0  0  0  0  0  0  0  0
   18.5672  -58.3685  -36.8113 C   0  0  1  0  0  0  0  0  0  0  0  0
   19.7983  -58.5246  -37.6887 C   0  0  1  0  0  0  0  0  0  0  0  0
   20.8529  -57.7582  -36.9323 C   0  0  2  0  0  0  0  0  0  0  0  0
   21.4299  -58.6033  -35.9347 O   0  0  0  0  0  0  0  0  0  0  0  0
   20.1764  -59.8968  -37.8072 O   0  0  0  0  0  0  0  0  0  0  0  0
   18.7350  -57.1447  -36.0858 O   0  0  0  0  0  0  0  0  0  0  0  0
   20.0675  -56.6540  -36.2518 C   0  0  2  0  0  0  0  0  0  0  0  0
   20.0663  -55.4043  -37.1187 C   0  0  0  0  0  0  0  0  0  0  0  0
   18.9932  -54.5645  -36.6965 O   0  0  0  0  0  0  0  0  0  0  0  0
   18.4356  -53.3768  -37.6316 P   0  0  0  0  0  0  0  0  0  0  0  0
   18.1894  -54.0205  -38.9764 O   0  0  0  0  0  0  0  0  0  0  0  0
   19.5647  -52.3737  -37.6213 O   0  0  0  0  0  0  0  0  0  0  0  0
   17.1819  -52.9284  -36.9178 O   0  0  0  0  0  0  0  0  0  0  0  0
  1  2  2  0  0  0  0
  2  4  1  0  0  0  0
  2  3  1  0  0  0  0
  4  7  1  0  0  0  0
  5  9  1  0  0  0  0
  5  4  2  0  0  0  0
  6  5  1  0  0  0  0
  8  7  2  0  0  0  0
  9  8  1  0  0  0  0
 10 15  1  0  0  0  0
 10  9  1  6  0  0  0
 10 11  1  0  0  0  0
 11 14  1  1  0  0  0
 11 12  1  0  0  0  0
 12 13  1  1  0  0  0
 15 16  1  0  0  0  0
 16 12  1  0  0  0  0
 16 17  1  6  0  0  0
 17 18  1  0  0  0  0
 18 19  1  0  0  0  0
 19 21  1  0  0  0  0
 19 20  1  0  0  0  0
 22 19  2  0  0  0  0
M  END
>  <CHROM.1>
167.41498943,153.64110307,161.03152507,-162.55600998,50.22162901,17.80463372
-56.85407860,-37.48507296,2.39121884,0.25086021,3.05767844

>  <Name>
lig.pdb

>  <RI>
0

>  <Rbt.Current_Directory>
/home/itssahil/PROJECTS/Mol_Feturizer/New_Systems/rnas/5btp

>  <Rbt.Executable>
rbdock ($Id: //depot/dev/client3/rdock/2013.1/src/exe/rbdock.cxx#4 $)

>  <Rbt.Library>
libRbt.so (2013.1, Build901 2013/11/27)

>  <Rbt.Parameter_File>
/export/apps/rDock/src/rDock_2013.1_src/data/scripts/dock_solv.prm

>  <Rbt.Receptor>
prm/pocket_docking_5.prm

>  <SCORE>
-18.7928

>  <SCORE.INTER>
-19.2707

>  <SCORE.INTER.CONST>
1

>  <SCORE.INTER.POLAR>
0

>  <SCORE.INTER.ROT>
5

>  <SCORE.INTER.SOLV>
24.5517

>  <SCORE.INTER.VDW>
-27.9643

>  <SCORE.INTER.norm>
-0.87594

>  <SCORE.INTRA>
0.477879

>  <SCORE.INTRA.DIHEDRAL>
1.49443

>  <SCORE.INTRA.DIHEDRAL.0>
4.21161

>  <SCORE.INTRA.POLAR>
0

>  <SCORE.INTRA.POLAR.0>
0

>  <SCORE.INTRA.REPUL>
0

>  <SCORE.INTRA.REPUL.0>
0

>  <SCORE.INTRA.SOLV>
-0.154938

>  <SCORE.INTRA.SOLV.lig_0>
-41.4168

>  <SCORE.INTRA.VDW>
-0.191866

>  <SCORE.INTRA.VDW.0>
-1.62533

>  <SCORE.INTRA.norm>
0.0217218

>  <SCORE.RESTR>
0

>  <SCORE.RESTR.CAVITY>
0

>  <SCORE.RESTR.norm>
0

>  <SCORE.SYSTEM>
0

>  <SCORE.SYSTEM.CONST>
0

>  <SCORE.SYSTEM.DIHEDRAL>
0

>  <SCORE.SYSTEM.SOLV>
0

>  <SCORE.SYSTEM.norm>
0

>  <SCORE.heavy>
22

>  <SCORE.norm>
-0.854218

>  <RMSD>
4.513

$$$$
lig.pdb
 OpenBabel11021811523D
libRbt.so/2013.1/901 2013/11/27
 22 23  0  0  0  0  0  0  0  0999 V2000
   13.4248  -59.1731  -38.3762 O   0  0  0  0  0  0  0  0  0  0  0  0
   14.4858  -58.5747  -38.4613 C   0  0  0  0  0  0  0  0  0  0  0  0
   14.6999  -57.6535  -39.4007 N   0  0  0  0  0  0  0  0  0  0  0  0
   15.5835  -58.8865  -37.5027 C   0  0  0  0  0  0  0  0  0  0  0  0
   16.9401  -58.3232  -37.5869 C   0  0  0  0  0  0  0  0  0  0  0  0
   17.4037  -57.3942  -38.6093 N   0  0  0  0  0  0  0  0  0  0  0  0
   15.6357  -59.6735  -36.4053 N   0  0  0  0  0  0  0  0  0  0  0  0
   16.8979  -59.5947  -35.8806 C   0  0  0  0  0  0  0  0  0  0  0  0
   17.6951  -58.7730  -36.5975 N   0  0  0  0  0  0  0  0  0  0  0  0
   19.1147  -58.4394  -36.3356 C   0  0  1  0  0  0  0  0  0  0  0  0
   19.9545  -58.6684  -37.5814 C   0  0  1  0  0  0  0  0  0  0  0  0
   21.0208  -57.6089  -37.4708 C   0  0  2  0  0  0  0  0  0  0  0  0
   22.0814  -58.0879  -36.6414 O   0  0  0  0  0  0  0  0  0  0  0  0
   20.5478  -59.9675  -37.5718 O   0  0  0  0  0  0  0  0  0  0  0  0
   19.2661  -57.0578  -35.9890 O   0  0  0  0  0  0  0  0  0  0  0  0
   20.3145  -56.4692  -36.7625 C   0  0  2  0  0  0  0  0  0  0  0  0
   19.7383  -55.4988  -37.7819 C   0  0  0  0  0  0  0  0  0  0  0  0
   18.9537  -54.5302  -37.0881 O   0  0  0  0  0  0  0  0  0  0  0  0
   18.0841  -53.4282  -37.8789 P   0  0  0  0  0  0  0  0  0  0  0  0
   17.4474  -54.1805  -39.0244 O   0  0  0  0  0  0  0  0  0  0  0  0
   19.1198  -52.4138  -38.3024 O   0  0  0  0  0  0  0  0  0  0  0  0
   17.1064  -52.9394  -36.8361 O   0  0  0  0  0  0  0  0  0  0  0  0
  1  2  2  0  0  0  0
  2  4  1  0  0  0  0
  2  3  1  0  0  0  0
  4  7  1  0  0  0  0
  5  9  1  0  0  0  0
  5  4  2  0  0  0  0
  6  5  1  0  0  0  0
  8  7  2  0  0  0  0
  9  8  1  0  0  0  0
 10 15  1  0  0  0  0
 10  9  1  6  0  0  0
 10 11  1  0  0  0  0
 11 14  1  1  0  0  0
 11 12  1  0  0  0  0
 12 13  1  1  0  0  0
 15 16  1  0  0  0  0
 16 12  1  0  0  0  0
 16 17  1  6  0  0  0
 17 18  1  0  0  0  0
 18 19  1  0  0  0  0
 19 21  1  0  0  0  0
 19 20  1  0  0  0  0
 22 19  2  0  0  0  0
M  END
>  <CHROM.1>
174.04850462,-52.25879112,173.37773586,-174.26146868,42.18015024,18.02814083
-56.86550448,-37.48366112,2.09725443,0.20923511,2.99388640

>  <Name>
lig.pdb

>  <RI>
0

>  <Rbt.Current_Directory>
/home/itssahil/PROJECTS/Mol_Feturizer/New_Systems/rnas/5btp

>  <Rbt.Executable>
rbdock ($Id: //depot/dev/client3/rdock/2013.1/src/exe/rbdock.cxx#4 $)

>  <Rbt.Library>
libRbt.so (2013.1, Build901 2013/11/27)

>  <Rbt.Parameter_File>
/export/apps/rDock/src/rDock_2013.1_src/data/scripts/dock_solv.prm

>  <Rbt.Receptor>
prm/pocket_docking_5.prm

>  <SCORE>
-20.2901

>  <SCORE.INTER>
-19.6646

>  <SCORE.INTER.CONST>
1

>  <SCORE.INTER.POLAR>
0

>  <SCORE.INTER.ROT>
5

>  <SCORE.INTER.SOLV>
24.0803

>  <SCORE.INTER.VDW>
-28.0698

>  <SCORE.INTER.norm>
-0.893844

>  <SCORE.INTRA>
-0.625572

>  <SCORE.INTRA.DIHEDRAL>
-0.863029

>  <SCORE.INTRA.DIHEDRAL.0>
4.21161

>  <SCORE.INTRA.POLAR>
0

>  <SCORE.INTRA.POLAR.0>
0

>  <SCORE.INTRA.REPUL>
0.00062577

>  <SCORE.INTRA.REPUL.0>
0

>  <SCORE.INTRA.SOLV>
1.64802

>  <SCORE.INTRA.SOLV.lig_0>
-41.4168

>  <SCORE.INTRA.VDW>
-1.0212

>  <SCORE.INTRA.VDW.0>
-1.62533

>  <SCORE.INTRA.norm>
-0.0284351

>  <SCORE.RESTR>
0

>  <SCORE.RESTR.CAVITY>
0

>  <SCORE.RESTR.norm>
0

>  <SCORE.SYSTEM>
0

>  <SCORE.SYSTEM.CONST>
0

>  <SCORE.SYSTEM.DIHEDRAL>
0

>  <SCORE.SYSTEM.SOLV>
0

>  <SCORE.SYSTEM.norm>
0

>  <SCORE.heavy>
22

>  <SCORE.norm>
-0.922279

>  <RMSD>
4.515

$$$$
lig.pdb
 OpenBabel11021811523D
libRbt.so/2013.1/901 2013/11/27
 22 23  0  0  0  0  0  0  0  0999 V2000
   13.4196  -59.2191  -38.3884 O   0  0  0  0  0  0  0  0  0  0  0  0
   14.4650  -58.5916  -38.4558 C   0  0  0  0  0  0  0  0  0  0  0  0
   14.6580  -57.6437  -39.3729 N   0  0  0  0  0  0  0  0  0  0  0  0
   15.5673  -58.8968  -37.5003 C   0  0  0  0  0  0  0  0  0  0  0  0
   16.9217  -58.3291  -37.5913 C   0  0  0  0  0  0  0  0  0  0  0  0
   17.3782  -57.4015  -38.6181 N   0  0  0  0  0  0  0  0  0  0  0  0
   15.6264  -59.6804  -36.4009 N   0  0  0  0  0  0  0  0  0  0  0  0
   16.8903  -59.5958  -35.8812 C   0  0  0  0  0  0  0  0  0  0  0  0
   17.6820  -58.7734  -36.6035 N   0  0  0  0  0  0  0  0  0  0  0  0
   19.1013  -58.4342  -36.3479 C   0  0  1  0  0  0  0  0  0  0  0  0
   19.9359  -58.6565  -37.5985 C   0  0  1  0  0  0  0  0  0  0  0  0
   20.9981  -57.5927  -37.4906 C   0  0  2  0  0  0  0  0  0  0  0  0
   22.0649  -58.0689  -36.6677 O   0  0  0  0  0  0  0  0  0  0  0  0
   20.5349  -59.9531  -37.5948 O   0  0  0  0  0  0  0  0  0  0  0  0
   19.2484  -57.0527  -35.9988 O   0  0  0  0  0  0  0  0  0  0  0  0
   20.2904  -56.4578  -36.7761 C   0  0  2  0  0  0  0  0  0  0  0  0
   19.7047  -55.4876  -37.7904 C   0  0  0  0  0  0  0  0  0  0  0  0
   18.9344  -54.5132  -37.0888 O   0  0  0  0  0  0  0  0  0  0  0  0
   18.0576  -53.4106  -37.8708 P   0  0  0  0  0  0  0  0  0  0  0  0
   17.3994  -54.1650  -39.0027 O   0  0  0  0  0  0  0  0  0  0  0  0
   19.0913  -52.4031  -38.3152 O   0  0  0  0  0  0  0  0  0  0  0  0
   17.0988  -52.9125  -36.8149 O   0  0  0  0  0  0  0  0  0  0  0  0
  1  2  2  0  0  0  0
  2  4  1  0  0  0  0
  2  3  1  0  0  0  0
  4  7  1  0  0  0  0
  5  9  1  0  0  0  0
  5  4  2  0  0  0  0
  6  5  1  0  0  0  0
  8  7  2  0  0  0  0
  9  8  1  0  0  0  0
 10 15  1  0  0  0  0
 10  9  1  6  0  0  0
 10 11  1  0  0  0  0
 11 14  1  1  0  0  0
 11 12  1  0  0  0  0
 12 13  1  1  0  0  0
 15 16  1  0  0  0  0
 16 12  1  0  0  0  0
 16 17  1  6  0  0  0
 17 18  1  0  0  0  0
 18 19  1  0  0  0  0
 19 21  1  0  0  0  0
 19 20  1  0  0  0  0
 22 19  2  0  0  0  0
M  END
>  <CHROM.1>
172.03871480,-51.94650090,174.16245870,-174.17718820,42.26622814,18.00745359
-56.86002228,-37.48692291,2.09040487,0.20625733,2.99822595

>  <Name>
lig.pdb

>  <RI>
0

>  <Rbt.Current_Directory>
/home/itssahil/PROJECTS/Mol_Feturizer/New_Systems/rnas/5btp

>  <Rbt.Executable>
rbdock ($Id: //depot/dev/client3/rdock/2013.1/src/exe/rbdock.cxx#4 $)

>  <Rbt.Library>
libRbt.so (2013.1, Build901 2013/11/27)

>  <Rbt.Parameter_File>
/export/apps/rDock/src/rDock_2013.1_src/data/scripts/dock_solv.prm

>  <Rbt.Receptor>
prm/pocket_docking_7.prm

>  <SCORE>
-20.3239

>  <SCORE.INTER>
-19.699

>  <SCORE.INTER.CONST>
1

>  <SCORE.INTER.POLAR>
0

>  <SCORE.INTER.ROT>
5

>  <SCORE.INTER.SOLV>
24.1937

>  <SCORE.INTER.VDW>
-28.1306

>  <SCORE.INTER.norm>
-0.895411

>  <SCORE.INTRA>
-0.624827

>  <SCORE.INTRA.DIHEDRAL>
-0.801983

>  <SCORE.INTRA.DIHEDRAL.0>
4.21161

>  <SCORE.INTRA.POLAR>
0

>  <SCORE.INTRA.POLAR.0>
0

>  <SCORE.INTRA.REPUL>
0.000699514

>  <SCORE.INTRA.REPUL.0>
0

>  <SCORE.INTRA.SOLV>
1.61754

>  <SCORE.INTRA.SOLV.lig_0>
-41.4168

>  <SCORE.INTRA.VDW>
-1.0361

>  <SCORE.INTRA.VDW.0>
-1.62533

>  <SCORE.INTRA.norm>
-0.0284012

>  <SCORE.RESTR>
0

>  <SCORE.RESTR.CAVITY>
0

>  <SCORE.RESTR.norm>
0

>  <SCORE.SYSTEM>
0

>  <SCORE.SYSTEM.CONST>
0

>  <SCORE.SYSTEM.DIHEDRAL>
0

>  <SCORE.SYSTEM.SOLV>
0

>  <SCORE.SYSTEM.norm>
0

>  <SCORE.heavy>
22

>  <SCORE.norm>
-0.923812

>  <RMSD>
4.522

$$$$
lig.pdb
 OpenBabel11021811523D
libRbt.so/2013.1/901 2013/11/27
 22 23  0  0  0  0  0  0  0  0999 V2000
   12.9087  -58.4433  -39.1979 O   0  0  0  0  0  0  0  0  0  0  0  0
   13.6639  -58.8352  -38.3221 C   0  0  0  0  0  0  0  0  0  0  0  0
   13.2263  -59.5460  -37.2828 N   0  0  0  0  0  0  0  0  0  0  0  0
   15.1144  -58.5019  -38.4001 C   0  0  0  0  0  0  0  0  0  0  0  0
   16.0658  -58.6844  -37.2927 C   0  0  0  0  0  0  0  0  0  0  0  0
   15.7322  -59.2064  -35.9739 N   0  0  0  0  0  0  0  0  0  0  0  0
   15.8809  -58.0066  -39.3968 N   0  0  0  0  0  0  0  0  0  0  0  0
   17.1659  -57.8990  -38.9368 C   0  0  0  0  0  0  0  0  0  0  0  0
   17.2825  -58.3113  -37.6556 N   0  0  0  0  0  0  0  0  0  0  0  0
   18.5102  -58.3438  -36.8270 C   0  0  1  0  0  0  0  0  0  0  0  0
   19.7399  -58.5171  -37.7032 C   0  0  1  0  0  0  0  0  0  0  0  0
   20.7999  -57.7498  -36.9552 C   0  0  2  0  0  0  0  0  0  0  0  0
   21.3717  -58.5882  -35.9492 O   0  0  0  0  0  0  0  0  0  0  0  0
   20.1090  -59.8929  -37.8076 O   0  0  0  0  0  0  0  0  0  0  0  0
   18.6864  -57.1137  -36.1145 O   0  0  0  0  0  0  0  0  0  0  0  0
   20.0219  -56.6334  -36.2860 C   0  0  2  0  0  0  0  0  0  0  0  0
   20.0285  -55.3929  -37.1659 C   0  0  0  0  0  0  0  0  0  0  0  0
   18.9473  -54.5522  -36.7669 O   0  0  0  0  0  0  0  0  0  0  0  0
   18.4578  -53.3191  -37.6812 P   0  0  0  0  0  0  0  0  0  0  0  0
   17.1802  -52.8358  -37.0351 O   0  0  0  0  0  0  0  0  0  0  0  0
   18.2652  -53.9540  -39.0381 O   0  0  0  0  0  0  0  0  0  0  0  0
   19.6066  -52.3418  -37.5952 O   0  0  0  0  0  0  0  0  0  0  0  0
  1  2  2  0  0  0  0
  2  4  1  0  0  0  0
  2  3  1  0  0  0  0
  4  7  1  0  0  0  0
  5  9  1  0  0  0  0
  5  4  2  0  0  0  0
  6  5  1  0  0  0  0
  8  7  2  0  0  0  0
  9  8  1  0  0  0  0
 10 15  1  0  0  0  0
 10  9  1  6  0  0  0
 10 11  1  0  0  0  0
 11 14  1  1  0  0  0
 11 12  1  0  0  0  0
 12 13  1  1  0  0  0
 15 16  1  0  0  0  0
 16 12  1  0  0  0  0
 16 17  1  6  0  0  0
 17 18  1  0  0  0  0
 18 19  1  0  0  0  0
 19 21  1  0  0  0  0
 19 20  1  0  0  0  0
 22 19  2  0  0  0  0
M  END
>  <CHROM.1>
167.50814735,151.77005007,160.06442085,-166.38109423,171.09112841,17.77195168
-56.83124325,-37.51578986,2.38018768,0.25349915,3.04614557

>  <Name>
lig.pdb

>  <RI>
0

>  <Rbt.Current_Directory>
/home/itssahil/PROJECTS/Mol_Feturizer/New_Systems/rnas/5btp

>  <Rbt.Executable>
rbdock ($Id: //depot/dev/client3/rdock/2013.1/src/exe/rbdock.cxx#4 $)

>  <Rbt.Library>
libRbt.so (2013.1, Build901 2013/11/27)

>  <Rbt.Parameter_File>
/export/apps/rDock/src/rDock_2013.1_src/data/scripts/dock_solv.prm

>  <Rbt.Receptor>
prm/pocket_docking_5.prm

>  <SCORE>
-19.1143

>  <SCORE.INTER>
-19.5084

>  <SCORE.INTER.CONST>
1

>  <SCORE.INTER.POLAR>
0

>  <SCORE.INTER.ROT>
5

>  <SCORE.INTER.SOLV>
24.2042

>  <SCORE.INTER.VDW>
-28.007

>  <SCORE.INTER.norm>
-0.886744

>  <SCORE.INTRA>
0.394041

>  <SCORE.INTRA.DIHEDRAL>
1.0515

>  <SCORE.INTRA.DIHEDRAL.0>
4.21161

>  <SCORE.INTRA.POLAR>
0

>  <SCORE.INTRA.POLAR.0>
0

>  <SCORE.INTRA.REPUL>
0

>  <SCORE.INTRA.REPUL.0>
0

>  <SCORE.INTRA.SOLV>
-0.0103862

>  <SCORE.INTRA.SOLV.lig_0>
-41.4168

>  <SCORE.INTRA.VDW>
-0.126515

>  <SCORE.INTRA.VDW.0>
-1.62533

>  <SCORE.INTRA.norm>
0.0179109

>  <SCORE.RESTR>
0

>  <SCORE.RESTR.CAVITY>
0

>  <SCORE.RESTR.norm>
0

>  <SCORE.SYSTEM>
0

>  <SCORE.SYSTEM.CONST>
0

>  <SCORE.SYSTEM.DIHEDRAL>
0

>  <SCORE.SYSTEM.SOLV>
0

>  <SCORE.SYSTEM.norm>
0

>  <SCORE.heavy>
22

>  <SCORE.norm>
-0.868833

>  <RMSD>
4.536

$$$$
lig.pdb
 OpenBabel11021811523D
libRbt.so/2013.1/901 2013/11/27
 22 23  0  0  0  0  0  0  0  0999 V2000
   13.4122  -59.2470  -38.4433 O   0  0  0  0  0  0  0  0  0  0  0  0
   14.4370  -58.5835  -38.4694 C   0  0  0  0  0  0  0  0  0  0  0  0
   14.6077  -57.5877  -39.3390 N   0  0  0  0  0  0  0  0  0  0  0  0
   15.5394  -58.8977  -37.5170 C   0  0  0  0  0  0  0  0  0  0  0  0
   16.8914  -58.3227  -37.5978 C   0  0  0  0  0  0  0  0  0  0  0  0
   17.3452  -57.3784  -38.6104 N   0  0  0  0  0  0  0  0  0  0  0  0
   15.6005  -59.6968  -36.4289 N   0  0  0  0  0  0  0  0  0  0  0  0
   16.8633  -59.6141  -35.9063 C   0  0  0  0  0  0  0  0  0  0  0  0
   17.6523  -58.7779  -36.6154 N   0  0  0  0  0  0  0  0  0  0  0  0
   19.0698  -58.4361  -36.3530 C   0  0  1  0  0  0  0  0  0  0  0  0
   19.9163  -58.6871  -37.5900 C   0  0  1  0  0  0  0  0  0  0  0  0
   20.9798  -57.6233  -37.4945 C   0  0  2  0  0  0  0  0  0  0  0  0
   22.0372  -58.0839  -36.6508 O   0  0  0  0  0  0  0  0  0  0  0  0
   20.5123  -59.9845  -37.5524 O   0  0  0  0  0  0  0  0  0  0  0  0
   19.2165  -57.0477  -36.0323 O   0  0  0  0  0  0  0  0  0  0  0  0
   20.2675  -56.4718  -36.8118 C   0  0  2  0  0  0  0  0  0  0  0  0
   19.6942  -55.5226  -37.8527 C   0  0  0  0  0  0  0  0  0  0  0  0
   18.8999  -54.5456  -37.1821 O   0  0  0  0  0  0  0  0  0  0  0  0
   18.1325  -53.3838  -37.9927 P   0  0  0  0  0  0  0  0  0  0  0  0
   17.6727  -54.0391  -39.2744 O   0  0  0  0  0  0  0  0  0  0  0  0
   19.2018  -52.3340  -38.1817 O   0  0  0  0  0  0  0  0  0  0  0  0
   17.0120  -52.9875  -37.0601 O   0  0  0  0  0  0  0  0  0  0  0  0
  1  2  2  0  0  0  0
  2  4  1  0  0  0  0
  2  3  1  0  0  0  0
  4  7  1  0  0  0  0
  5  9  1  0  0  0  0
  5  4  2  0  0  0  0
  6  5  1  0  0  0  0
  8  7  2  0  0  0  0
  9  8  1  0  0  0  0
 10 15  1  0  0  0  0
 10  9  1  6  0  0  0
 10 11  1  0  0  0  0
 11 14  1  1  0  0  0
 11 12  1  0  0  0  0
 12 13  1  1  0  0  0
 15 16  1  0  0  0  0
 16 12  1  0  0  0  0
 16 17  1  6  0  0  0
 17 18  1  0  0  0  0
 18 19  1  0  0  0  0
 19 21  1  0  0  0  0
 19 20  1  0  0  0  0
 22 19  2  0  0  0  0
M  END
>  <CHROM.1>
169.51696990,-54.10399862,173.15565913,-179.61807536,36.55380991,18.00867225
-56.85891560,-37.52921100,2.08889142,0.21142007,2.97350904

>  <Name>
lig.pdb

>  <RI>
0

>  <Rbt.Current_Directory>
/home/itssahil/PROJECTS/Mol_Feturizer/New_Systems/rnas/5btp

>  <Rbt.Executable>
rbdock ($Id: //depot/dev/client3/rdock/2013.1/src/exe/rbdock.cxx#4 $)

>  <Rbt.Library>
libRbt.so (2013.1, Build901 2013/11/27)

>  <Rbt.Parameter_File>
/export/apps/rDock/src/rDock_2013.1_src/data/scripts/dock_solv.prm

>  <Rbt.Receptor>
prm/pocket_docking_8.prm

>  <SCORE>
-20.2307

>  <SCORE.INTER>
-19.8753

>  <SCORE.INTER.CONST>
1

>  <SCORE.INTER.POLAR>
0

>  <SCORE.INTER.ROT>
5

>  <SCORE.INTER.SOLV>
24.5291

>  <SCORE.INTER.VDW>
-28.3599

>  <SCORE.INTER.norm>
-0.903424

>  <SCORE.INTRA>
-0.355392

>  <SCORE.INTRA.DIHEDRAL>
-0.449609

>  <SCORE.INTRA.DIHEDRAL.0>
4.21161

>  <SCORE.INTRA.POLAR>
0

>  <SCORE.INTRA.POLAR.0>
0

>  <SCORE.INTRA.REPUL>
0

>  <SCORE.INTRA.REPUL.0>
0

>  <SCORE.INTRA.SOLV>
1.59133

>  <SCORE.INTRA.SOLV.lig_0>
-41.4168

>  <SCORE.INTRA.VDW>
-0.926252

>  <SCORE.INTRA.VDW.0>
-1.62533

>  <SCORE.INTRA.norm>
-0.0161542

>  <SCORE.RESTR>
0

>  <SCORE.RESTR.CAVITY>
0

>  <SCORE.RESTR.norm>
0

>  <SCORE.SYSTEM>
0

>  <SCORE.SYSTEM.CONST>
0

>  <SCORE.SYSTEM.DIHEDRAL>
0

>  <SCORE.SYSTEM.SOLV>
0

>  <SCORE.SYSTEM.norm>
0

>  <SCORE.heavy>
22

>  <SCORE.norm>
-0.919578

>  <RMSD>
4.543

$$$$
lig.pdb
 OpenBabel11021811523D
libRbt.so/2013.1/901 2013/11/27
 22 23  0  0  0  0  0  0  0  0999 V2000
   12.9035  -58.5017  -39.1666 O   0  0  0  0  0  0  0  0  0  0  0  0
   13.6558  -58.8590  -38.2736 C   0  0  0  0  0  0  0  0  0  0  0  0
   13.2119  -59.5128  -37.2001 N   0  0  0  0  0  0  0  0  0  0  0  0
   15.1099  -58.5469  -38.3699 C   0  0  0  0  0  0  0  0  0  0  0  0
   16.0632  -58.6958  -37.2591 C   0  0  0  0  0  0  0  0  0  0  0  0
   15.7282  -59.1594  -35.9190 N   0  0  0  0  0  0  0  0  0  0  0  0
   15.8787  -58.1021  -39.3885 N   0  0  0  0  0  0  0  0  0  0  0  0
   17.1666  -57.9917  -38.9374 C   0  0  0  0  0  0  0  0  0  0  0  0
   17.2830  -58.3527  -37.6409 N   0  0  0  0  0  0  0  0  0  0  0  0
   18.5133  -58.3665  -36.8156 C   0  0  1  0  0  0  0  0  0  0  0  0
   19.7438  -58.5099  -37.6961 C   0  0  1  0  0  0  0  0  0  0  0  0
   20.7905  -57.7267  -36.9458 C   0  0  2  0  0  0  0  0  0  0  0  0
   21.3814  -58.5602  -35.9467 O   0  0  0  0  0  0  0  0  0  0  0  0
   20.1395  -59.8775  -37.8103 O   0  0  0  0  0  0  0  0  0  0  0  0
   18.6671  -57.1378  -36.0955 O   0  0  0  0  0  0  0  0  0  0  0  0
   19.9926  -56.6302  -36.2673 C   0  0  2  0  0  0  0  0  0  0  0  0
   19.9724  -55.3842  -37.1391 C   0  0  0  0  0  0  0  0  0  0  0  0
   18.8947  -54.5529  -36.7117 O   0  0  0  0  0  0  0  0  0  0  0  0
   18.3094  -53.3831  -37.6524 P   0  0  0  0  0  0  0  0  0  0  0  0
   17.0543  -52.9116  -36.9553 O   0  0  0  0  0  0  0  0  0  0  0  0
   18.0623  -54.0897  -38.9642 O   0  0  0  0  0  0  0  0  0  0  0  0
   19.4252  -52.3650  -37.6803 O   0  0  0  0  0  0  0  0  0  0  0  0
  1  2  2  0  0  0  0
  2  4  1  0  0  0  0
  2  3  1  0  0  0  0
  4  7  1  0  0  0  0
  5  9  1  0  0  0  0
  5  4  2  0  0  0  0
  6  5  1  0  0  0  0
  8  7  2  0  0  0  0
  9  8  1  0  0  0  0
 10 15  1  0  0  0  0
 10  9  1  6  0  0  0
 10 11  1  0  0  0  0
 11 14  1  1  0  0  0
 11 12  1  0  0  0  0
 12 13  1  1  0  0  0
 15 16  1  0  0  0  0
 16 12  1  0  0  0  0
 16 17  1  6  0  0  0
 17 18  1  0  0  0  0
 18 19  1  0  0  0  0
 19 21  1  0  0  0  0
 19 20  1  0  0  0  0
 22 19  2  0  0  0  0
M  END
>  <CHROM.1>
167.99213925,155.03896607,161.38325066,-161.99434834,170.47433583,17.72651830
-56.85873206,-37.49081955,2.38464179,0.24562894,3.05920294

>  <Name>
lig.pdb

>  <RI>
0

>  <Rbt.Current_Directory>
/home/itssahil/PROJECTS/Mol_Feturizer/New_Systems/rnas/5btp

>  <Rbt.Executable>
rbdock ($Id: //depot/dev/client3/rdock/2013.1/src/exe/rbdock.cxx#4 $)

>  <Rbt.Library>
libRbt.so (2013.1, Build901 2013/11/27)

>  <Rbt.Parameter_File>
/export/apps/rDock/src/rDock_2013.1_src/data/scripts/dock_solv.prm

>  <Rbt.Receptor>
prm/pocket_docking_5.prm

>  <SCORE>
-18.8132

>  <SCORE.INTER>
-19.4039

>  <SCORE.INTER.CONST>
1

>  <SCORE.INTER.POLAR>
0

>  <SCORE.INTER.ROT>
5

>  <SCORE.INTER.SOLV>
24.5332

>  <SCORE.INTER.VDW>
-28.047

>  <SCORE.INTER.norm>
-0.881996

>  <SCORE.INTRA>
0.590747

>  <SCORE.INTRA.DIHEDRAL>
1.48362

>  <SCORE.INTRA.DIHEDRAL.0>
4.21161

>  <SCORE.INTRA.POLAR>
0

>  <SCORE.INTRA.POLAR.0>
0

>  <SCORE.INTRA.REPUL>
0

>  <SCORE.INTRA.REPUL.0>
0

>  <SCORE.INTRA.SOLV>
0.0181985

>  <SCORE.INTRA.SOLV.lig_0>
-41.4168

>  <SCORE.INTRA.VDW>
-0.160164

>  <SCORE.INTRA.VDW.0>
-1.62533

>  <SCORE.INTRA.norm>
0.0268521

>  <SCORE.RESTR>
0

>  <SCORE.RESTR.CAVITY>
0

>  <SCORE.RESTR.norm>
0

>  <SCORE.SYSTEM>
0

>  <SCORE.SYSTEM.CONST>
0

>  <SCORE.SYSTEM.DIHEDRAL>
0

>  <SCORE.SYSTEM.SOLV>
0

>  <SCORE.SYSTEM.norm>
0

>  <SCORE.heavy>
22

>  <SCORE.norm>
-0.855144

>  <RMSD>
4.544

$$$$
lig.pdb
 OpenBabel11021811523D
libRbt.so/2013.1/901 2013/11/27
 22 23  0  0  0  0  0  0  0  0999 V2000
   12.9052  -58.4526  -39.1933 O   0  0  0  0  0  0  0  0  0  0  0  0
   13.6606  -58.8407  -38.3160 C   0  0  0  0  0  0  0  0  0  0  0  0
   13.2239  -59.5501  -37.2754 N   0  0  0  0  0  0  0  0  0  0  0  0
   15.1104  -58.5042  -38.3938 C   0  0  0  0  0  0  0  0  0  0  0  0
   16.0624  -58.6862  -37.2867 C   0  0  0  0  0  0  0  0  0  0  0  0
   15.7299  -59.2106  -35.9685 N   0  0  0  0  0  0  0  0  0  0  0  0
   15.8758  -58.0060  -39.3898 N   0  0  0  0  0  0  0  0  0  0  0  0
   17.1607  -57.8964  -38.9298 C   0  0  0  0  0  0  0  0  0  0  0  0
   17.2782  -58.3100  -37.6492 N   0  0  0  0  0  0  0  0  0  0  0  0
   18.5061  -58.3411  -36.8207 C   0  0  1  0  0  0  0  0  0  0  0  0
   19.7369  -58.5006  -37.6980 C   0  0  1  0  0  0  0  0  0  0  0  0
   20.7921  -57.7322  -36.9445 C   0  0  2  0  0  0  0  0  0  0  0  0
   21.3690  -58.5743  -35.9444 O   0  0  0  0  0  0  0  0  0  0  0  0
   20.1143  -59.8733  -37.8122 O   0  0  0  0  0  0  0  0  0  0  0  0
   18.6747  -57.1151  -36.0993 O   0  0  0  0  0  0  0  0  0  0  0  0
   20.0073  -56.6254  -36.2673 C   0  0  2  0  0  0  0  0  0  0  0  0
   20.0064  -55.3786  -37.1382 C   0  0  0  0  0  0  0  0  0  0  0  0
   18.9129  -54.5529  -36.7413 O   0  0  0  0  0  0  0  0  0  0  0  0
   18.3745  -53.3597  -37.6806 P   0  0  0  0  0  0  0  0  0  0  0  0
   17.0965  -52.8913  -37.0244 O   0  0  0  0  0  0  0  0  0  0  0  0
   18.1742  -54.0380  -39.0152 O   0  0  0  0  0  0  0  0  0  0  0  0
   19.4985  -52.3509  -37.6439 O   0  0  0  0  0  0  0  0  0  0  0  0
  1  2  2  0  0  0  0
  2  4  1  0  0  0  0
  2  3  1  0  0  0  0
  4  7  1  0  0  0  0
  5  9  1  0  0  0  0
  5  4  2  0  0  0  0
  6  5  1  0  0  0  0
  8  7  2  0  0  0  0
  9  8  1  0  0  0  0
 10 15  1  0  0  0  0
 10  9  1  6  0  0  0
 10 11  1  0  0  0  0
 11 14  1  1  0  0  0
 11 12  1  0  0  0  0
 12 13  1  1  0  0  0
 15 16  1  0  0  0  0
 16 12  1  0  0  0  0
 16 17  1  6  0  0  0
 17 18  1  0  0  0  0
 18 19  1  0  0  0  0
 19 21  1  0  0  0  0
 19 20  1  0  0  0  0
 22 19  2  0  0  0  0
M  END
>  <CHROM.1>
167.72086894,152.17713067,159.55226534,-163.63736615,170.93060006,17.74486912
-56.83932158,-37.50941670,2.38758801,0.25394496,3.04853188

>  <Name>
lig.pdb

>  <RI>
0

>  <Rbt.Current_Directory>
/home/itssahil/PROJECTS/Mol_Feturizer/New_Systems/rnas/5btp

>  <Rbt.Executable>
rbdock ($Id: //depot/dev/client3/rdock/2013.1/src/exe/rbdock.cxx#4 $)

>  <Rbt.Library>
libRbt.so (2013.1, Build901 2013/11/27)

>  <Rbt.Parameter_File>
/export/apps/rDock/src/rDock_2013.1_src/data/scripts/dock_solv.prm

>  <Rbt.Receptor>
prm/pocket_docking_7.prm

>  <SCORE>
-19.023

>  <SCORE.INTER>
-19.5619

>  <SCORE.INTER.CONST>
1

>  <SCORE.INTER.POLAR>
0

>  <SCORE.INTER.ROT>
5

>  <SCORE.INTER.SOLV>
24.3505

>  <SCORE.INTER.VDW>
-28.0914

>  <SCORE.INTER.norm>
-0.889177

>  <SCORE.INTRA>
0.53891

>  <SCORE.INTRA.DIHEDRAL>
1.46505

>  <SCORE.INTRA.DIHEDRAL.0>
4.21161

>  <SCORE.INTRA.POLAR>
0

>  <SCORE.INTRA.POLAR.0>
0

>  <SCORE.INTRA.REPUL>
0

>  <SCORE.INTRA.REPUL.0>
0

>  <SCORE.INTRA.SOLV>
0.00135506

>  <SCORE.INTRA.SOLV.lig_0>
-41.4168

>  <SCORE.INTRA.VDW>
-0.194293

>  <SCORE.INTRA.VDW.0>
-1.62533

>  <SCORE.INTRA.norm>
0.0244959

>  <SCORE.RESTR>
0

>  <SCORE.RESTR.CAVITY>
0

>  <SCORE.RESTR.norm>
0

>  <SCORE.SYSTEM>
0

>  <SCORE.SYSTEM.CONST>
0

>  <SCORE.SYSTEM.DIHEDRAL>
0

>  <SCORE.SYSTEM.SOLV>
0

>  <SCORE.SYSTEM.norm>
0

>  <SCORE.heavy>
22

>  <SCORE.norm>
-0.864682

>  <RMSD>
4.544

$$$$
lig.pdb
 OpenBabel11021811523D
libRbt.so/2013.1/901 2013/11/27
 22 23  0  0  0  0  0  0  0  0999 V2000
   12.9398  -58.5660  -39.1377 O   0  0  0  0  0  0  0  0  0  0  0  0
   13.7077  -58.9157  -38.2550 C   0  0  0  0  0  0  0  0  0  0  0  0
   13.2917  -59.6104  -37.1961 N   0  0  0  0  0  0  0  0  0  0  0  0
   15.1489  -58.5476  -38.3472 C   0  0  0  0  0  0  0  0  0  0  0  0
   16.1107  -58.6875  -37.2426 C   0  0  0  0  0  0  0  0  0  0  0  0
   15.7975  -59.1953  -35.9132 N   0  0  0  0  0  0  0  0  0  0  0  0
   15.8973  -58.0502  -39.3566 N   0  0  0  0  0  0  0  0  0  0  0  0
   17.1817  -57.9028  -38.9060 C   0  0  0  0  0  0  0  0  0  0  0  0
   17.3156  -58.2903  -37.6189 N   0  0  0  0  0  0  0  0  0  0  0  0
   18.5483  -58.2781  -36.7971 C   0  0  1  0  0  0  0  0  0  0  0  0
   19.7767  -58.4430  -37.6767 C   0  0  1  0  0  0  0  0  0  0  0  0
   20.8235  -57.6367  -36.9516 C   0  0  2  0  0  0  0  0  0  0  0  0
   21.4193  -58.4406  -35.9314 O   0  0  0  0  0  0  0  0  0  0  0  0
   20.1755  -59.8123  -37.7540 O   0  0  0  0  0  0  0  0  0  0  0  0
   18.7011  -57.0294  -36.1119 O   0  0  0  0  0  0  0  0  0  0  0  0
   20.0248  -56.5236  -36.3016 C   0  0  2  0  0  0  0  0  0  0  0  0
   19.9990  -55.3024  -37.2077 C   0  0  0  0  0  0  0  0  0  0  0  0
   18.9348  -54.4512  -36.7860 O   0  0  0  0  0  0  0  0  0  0  0  0
   18.4846  -53.1720  -37.6561 P   0  0  0  0  0  0  0  0  0  0  0  0
   18.1607  -53.7242  -39.0249 O   0  0  0  0  0  0  0  0  0  0  0  0
   19.7063  -52.2847  -37.6182 O   0  0  0  0  0  0  0  0  0  0  0  0
   17.2893  -52.6386  -36.9018 O   0  0  0  0  0  0  0  0  0  0  0  0
  1  2  2  0  0  0  0
  2  4  1  0  0  0  0
  2  3  1  0  0  0  0
  4  7  1  0  0  0  0
  5  9  1  0  0  0  0
  5  4  2  0  0  0  0
  6  5  1  0  0  0  0
  8  7  2  0  0  0  0
  9  8  1  0  0  0  0
 10 15  1  0  0  0  0
 10  9  1  6  0  0  0
 10 11  1  0  0  0  0
 11 14  1  1  0  0  0
 11 12  1  0  0  0  0
 12 13  1  1  0  0  0
 15 16  1  0  0  0  0
 16 12  1  0  0  0  0
 16 17  1  6  0  0  0
 17 18  1  0  0  0  0
 18 19  1  0  0  0  0
 19 21  1  0  0  0  0
 19 20  1  0  0  0  0
 22 19  2  0  0  0  0
M  END
>  <CHROM.1>
168.03416344,151.46126178,162.36272406,-170.98041635,55.94214393,17.80216684
-56.76979933,-37.48497574,2.33477719,0.24890934,3.04709158

>  <Name>
lig.pdb

>  <RI>
0

>  <Rbt.Current_Directory>
/home/itssahil/PROJECTS/Mol_Feturizer/New_Systems/rnas/5btp

>  <Rbt.Executable>
rbdock ($Id: //depot/dev/client3/rdock/2013.1/src/exe/rbdock.cxx#4 $)

>  <Rbt.Library>
libRbt.so (2013.1, Build901 2013/11/27)

>  <Rbt.Parameter_File>
/export/apps/rDock/src/rDock_2013.1_src/data/scripts/dock_solv.prm

>  <Rbt.Receptor>
prm/pocket_docking_6.prm

>  <SCORE>
-18.7719

>  <SCORE.INTER>
-18.6419

>  <SCORE.INTER.CONST>
1

>  <SCORE.INTER.POLAR>
0

>  <SCORE.INTER.ROT>
5

>  <SCORE.INTER.SOLV>
24.2579

>  <SCORE.INTER.VDW>
-27.4472

>  <SCORE.INTER.norm>
-0.847359

>  <SCORE.INTRA>
-0.129964

>  <SCORE.INTRA.DIHEDRAL>
0.161256

>  <SCORE.INTRA.DIHEDRAL.0>
4.21161

>  <SCORE.INTRA.POLAR>
0

>  <SCORE.INTRA.POLAR.0>
0

>  <SCORE.INTRA.REPUL>
0

>  <SCORE.INTRA.REPUL.0>
0

>  <SCORE.INTRA.SOLV>
-0.201624

>  <SCORE.INTRA.SOLV.lig_0>
-41.4168

>  <SCORE.INTRA.VDW>
-0.10978

>  <SCORE.INTRA.VDW.0>
-1.62533

>  <SCORE.INTRA.norm>
-0.00590747

>  <SCORE.RESTR>
0

>  <SCORE.RESTR.CAVITY>
0

>  <SCORE.RESTR.norm>
0

>  <SCORE.SYSTEM>
0

>  <SCORE.SYSTEM.CONST>
0

>  <SCORE.SYSTEM.DIHEDRAL>
0

>  <SCORE.SYSTEM.SOLV>
0

>  <SCORE.SYSTEM.norm>
0

>  <SCORE.heavy>
22

>  <SCORE.norm>
-0.853267

>  <RMSD>
4.561

$$$$
lig.pdb
 OpenBabel11021811523D
libRbt.so/2013.1/901 2013/11/27
 22 23  0  0  0  0  0  0  0  0999 V2000
   13.3453  -59.5780  -37.3117 O   0  0  0  0  0  0  0  0  0  0  0  0
   13.7347  -58.8781  -38.2334 C   0  0  0  0  0  0  0  0  0  0  0  0
   12.9033  -58.4244  -39.1713 N   0  0  0  0  0  0  0  0  0  0  0  0
   15.1803  -58.5287  -38.3299 C   0  0  0  0  0  0  0  0  0  0  0  0
   16.1472  -58.6979  -37.2338 C   0  0  0  0  0  0  0  0  0  0  0  0
   15.8355  -59.2204  -35.9098 N   0  0  0  0  0  0  0  0  0  0  0  0
   15.9290  -58.0272  -39.3370 N   0  0  0  0  0  0  0  0  0  0  0  0
   17.2183  -57.9041  -38.8929 C   0  0  0  0  0  0  0  0  0  0  0  0
   17.3550  -58.3119  -37.6124 N   0  0  0  0  0  0  0  0  0  0  0  0
   18.5930  -58.3287  -36.7987 C   0  0  1  0  0  0  0  0  0  0  0  0
   19.8143  -58.4843  -37.6899 C   0  0  1  0  0  0  0  0  0  0  0  0
   20.8727  -57.7034  -36.9539 C   0  0  2  0  0  0  0  0  0  0  0  0
   21.4680  -58.5350  -35.9559 O   0  0  0  0  0  0  0  0  0  0  0  0
   20.2007  -59.8548  -37.8004 O   0  0  0  0  0  0  0  0  0  0  0  0
   18.7611  -57.0970  -36.0868 O   0  0  0  0  0  0  0  0  0  0  0  0
   20.0878  -56.5984  -36.2739 C   0  0  2  0  0  0  0  0  0  0  0  0
   20.0669  -55.3570  -37.1523 C   0  0  0  0  0  0  0  0  0  0  0  0
   18.9500  -54.5551  -36.7719 O   0  0  0  0  0  0  0  0  0  0  0  0
   18.4509  -53.3216  -37.6804 P   0  0  0  0  0  0  0  0  0  0  0  0
   17.1575  -52.8661  -37.0454 O   0  0  0  0  0  0  0  0  0  0  0  0
   18.2855  -53.9463  -39.0455 O   0  0  0  0  0  0  0  0  0  0  0  0
   19.5819  -52.3260  -37.5709 O   0  0  0  0  0  0  0  0  0  0  0  0
  1  2  2  0  0  0  0
  2  4  1  0  0  0  0
  2  3  1  0  0  0  0
  4  7  1  0  0  0  0
  5  9  1  0  0  0  0
  5  4  2  0  0  0  0
  6  5  1  0  0  0  0
  8  7  2  0  0  0  0
  9  8  1  0  0  0  0
 10 15  1  0  0  0  0
 10  9  1  6  0  0  0
 10 11  1  0  0  0  0
 11 14  1  1  0  0  0
 11 12  1  0  0  0  0
 12 13  1  1  0  0  0
 15 16  1  0  0  0  0
 16 12  1  0  0  0  0
 16 17  1  6  0  0  0
 17 18  1  0  0  0  0
 18 19  1  0  0  0  0
 19 21  1  0  0  0  0
 19 20  1  0  0  0  0
 22 19  2  0  0  0  0
M  END
>  <CHROM.1>
-14.86646993,152.00997509,157.95453836,-167.51097453,172.36923950,17.82311973
-56.83221308,-37.48349680,2.36703627,0.24169080,3.04393358

>  <Name>
lig.pdb

>  <RI>
0

>  <Rbt.Current_Directory>
/home/itssahil/PROJECTS/Mol_Feturizer/New_Systems/rnas/5btp

>  <Rbt.Executable>
rbdock ($Id: //depot/dev/client3/rdock/2013.1/src/exe/rbdock.cxx#4 $)

>  <Rbt.Library>
libRbt.so (2013.1, Build901 2013/11/27)

>  <Rbt.Parameter_File>
/export/apps/rDock/src/rDock_2013.1_src/data/scripts/dock_solv.prm

>  <Rbt.Receptor>
prm/pocket_docking_6.prm

>  <SCORE>
-18.513

>  <SCORE.INTER>
-18.933

>  <SCORE.INTER.CONST>
1

>  <SCORE.INTER.POLAR>
0

>  <SCORE.INTER.ROT>
5

>  <SCORE.INTER.SOLV>
24.0176

>  <SCORE.INTER.VDW>
-27.5612

>  <SCORE.INTER.norm>
-0.860592

>  <SCORE.INTRA>
0.419987

>  <SCORE.INTRA.DIHEDRAL>
1.35883

>  <SCORE.INTRA.DIHEDRAL.0>
4.21161

>  <SCORE.INTRA.POLAR>
0

>  <SCORE.INTRA.POLAR.0>
0

>  <SCORE.INTRA.REPUL>
0

>  <SCORE.INTRA.REPUL.0>
0

>  <SCORE.INTRA.SOLV>
-0.249215

>  <SCORE.INTRA.SOLV.lig_0>
-41.4168

>  <SCORE.INTRA.VDW>
-0.134822

>  <SCORE.INTRA.VDW.0>
-1.62533

>  <SCORE.INTRA.norm>
0.0190903

>  <SCORE.RESTR>
0

>  <SCORE.RESTR.CAVITY>
0

>  <SCORE.RESTR.norm>
0

>  <SCORE.SYSTEM>
0

>  <SCORE.SYSTEM.CONST>
0

>  <SCORE.SYSTEM.DIHEDRAL>
0

>  <SCORE.SYSTEM.SOLV>
0

>  <SCORE.SYSTEM.norm>
0

>  <SCORE.heavy>
22

>  <SCORE.norm>
-0.841501

>  <RMSD>
4.571

$$$$
lig.pdb
 OpenBabel11021811523D
libRbt.so/2013.1/901 2013/11/27
 22 23  0  0  0  0  0  0  0  0999 V2000
   13.9555  -59.1395  -38.7974 O   0  0  0  0  0  0  0  0  0  0  0  0
   14.7473  -59.1721  -37.8683 C   0  0  0  0  0  0  0  0  0  0  0  0
   14.4710  -59.8105  -36.7313 N   0  0  0  0  0  0  0  0  0  0  0  0
   16.0553  -58.4687  -37.9936 C   0  0  0  0  0  0  0  0  0  0  0  0
   17.0908  -58.4556  -36.9484 C   0  0  0  0  0  0  0  0  0  0  0  0
   16.9879  -59.1155  -35.6534 N   0  0  0  0  0  0  0  0  0  0  0  0
   16.6031  -57.7388  -38.9903 N   0  0  0  0  0  0  0  0  0  0  0  0
   17.8442  -57.3249  -38.5866 C   0  0  0  0  0  0  0  0  0  0  0  0
   18.1448  -57.7598  -37.3435 N   0  0  0  0  0  0  0  0  0  0  0  0
   19.3902  -57.5152  -36.5793 C   0  0  1  0  0  0  0  0  0  0  0  0
   20.5427  -57.2103  -37.5220 C   0  0  1  0  0  0  0  0  0  0  0  0
   21.3874  -56.2496  -36.7250 C   0  0  2  0  0  0  0  0  0  0  0  0
   22.2582  -56.9856  -35.8635 O   0  0  0  0  0  0  0  0  0  0  0  0
   21.2891  -58.3903  -37.8225 O   0  0  0  0  0  0  0  0  0  0  0  0
   19.2545  -56.3781  -35.7187 O   0  0  0  0  0  0  0  0  0  0  0  0
   20.3726  -55.5022  -35.8819 C   0  0  2  0  0  0  0  0  0  0  0  0
   19.9451  -54.2259  -36.5899 C   0  0  0  0  0  0  0  0  0  0  0  0
   19.1629  -54.5828  -37.7283 O   0  0  0  0  0  0  0  0  0  0  0  0
   18.2059  -53.5136  -38.4611 P   0  0  0  0  0  0  0  0  0  0  0  0
   19.0832  -52.3084  -38.7086 O   0  0  0  0  0  0  0  0  0  0  0  0
   17.1090  -53.2850  -37.4484 O   0  0  0  0  0  0  0  0  0  0  0  0
   17.7713  -54.2346  -39.7155 O   0  0  0  0  0  0  0  0  0  0  0  0
  1  2  2  0  0  0  0
  2  4  1  0  0  0  0
  2  3  1  0  0  0  0
  4  7  1  0  0  0  0
  5  9  1  0  0  0  0
  5  4  2  0  0  0  0
  6  5  1  0  0  0  0
  8  7  2  0  0  0  0
  9  8  1  0  0  0  0
 10 15  1  0  0  0  0
 10  9  1  6  0  0  0
 10 11  1  0  0  0  0
 11 14  1  1  0  0  0
 11 12  1  0  0  0  0
 12 13  1  1  0  0  0
 15 16  1  0  0  0  0
 16 12  1  0  0  0  0
 16 17  1  6  0  0  0
 17 18  1  0  0  0  0
 18 19  1  0  0  0  0
 19 21  1  0  0  0  0
 19 20  1  0  0  0  0
 22 19  2  0  0  0  0
M  END
>  <CHROM.1>
-179.15151553,156.09950854,69.76372270,162.27850056,50.62554407,18.29522953
-56.44747744,-37.50882290,2.39815474,0.33596687,2.84179200

>  <Name>
lig.pdb

>  <RI>
0

>  <Rbt.Current_Directory>
/home/itssahil/PROJECTS/Mol_Feturizer/New_Systems/rnas/5btp

>  <Rbt.Executable>
rbdock ($Id: //depot/dev/client3/rdock/2013.1/src/exe/rbdock.cxx#4 $)

>  <Rbt.Library>
libRbt.so (2013.1, Build901 2013/11/27)

>  <Rbt.Parameter_File>
/export/apps/rDock/src/rDock_2013.1_src/data/scripts/dock_solv.prm

>  <Rbt.Receptor>
prm/pocket_docking_7.prm

>  <SCORE>
-16.0562

>  <SCORE.INTER>
-15.8702

>  <SCORE.INTER.CONST>
1

>  <SCORE.INTER.POLAR>
0

>  <SCORE.INTER.ROT>
5

>  <SCORE.INTER.SOLV>
25.2484

>  <SCORE.INTER.VDW>
-25.9296

>  <SCORE.INTER.norm>
-0.721373

>  <SCORE.INTRA>
-0.186002

>  <SCORE.INTRA.DIHEDRAL>
0.110753

>  <SCORE.INTRA.DIHEDRAL.0>
4.21161

>  <SCORE.INTRA.POLAR>
0

>  <SCORE.INTRA.POLAR.0>
0

>  <SCORE.INTRA.REPUL>
0

>  <SCORE.INTRA.REPUL.0>
0

>  <SCORE.INTRA.SOLV>
1.28137

>  <SCORE.INTRA.SOLV.lig_0>
-41.4168

>  <SCORE.INTRA.VDW>
-0.882064

>  <SCORE.INTRA.VDW.0>
-1.62533

>  <SCORE.INTRA.norm>
-0.00845466

>  <SCORE.RESTR>
0

>  <SCORE.RESTR.CAVITY>
0

>  <SCORE.RESTR.norm>
0

>  <SCORE.SYSTEM>
0

>  <SCORE.SYSTEM.CONST>
0

>  <SCORE.SYSTEM.DIHEDRAL>
0

>  <SCORE.SYSTEM.SOLV>
0

>  <SCORE.SYSTEM.norm>
0

>  <SCORE.heavy>
22

>  <SCORE.norm>
-0.729827

>  <RMSD>
4.673

$$$$
lig.pdb
 OpenBabel11021811523D
libRbt.so/2013.1/901 2013/11/27
 22 23  0  0  0  0  0  0  0  0999 V2000
   16.4204  -56.7501  -39.7287 O   0  0  0  0  0  0  0  0  0  0  0  0
   16.9415  -57.4754  -38.8960 C   0  0  0  0  0  0  0  0  0  0  0  0
   16.3156  -58.5451  -38.4052 N   0  0  0  0  0  0  0  0  0  0  0  0
   18.3091  -57.1559  -38.3971 C   0  0  0  0  0  0  0  0  0  0  0  0
   19.0506  -57.9809  -37.4305 C   0  0  0  0  0  0  0  0  0  0  0  0
   18.5607  -59.2120  -36.8242 N   0  0  0  0  0  0  0  0  0  0  0  0
   19.1618  -56.1431  -38.6677 N   0  0  0  0  0  0  0  0  0  0  0  0
   20.3031  -56.3361  -37.9364 C   0  0  0  0  0  0  0  0  0  0  0  0
   20.2391  -57.4547  -37.1818 N   0  0  0  0  0  0  0  0  0  0  0  0
   21.2773  -57.9870  -36.2687 C   0  0  1  0  0  0  0  0  0  0  0  0
   22.0631  -59.0982  -36.9453 C   0  0  1  0  0  0  0  0  0  0  0  0
   23.4393  -58.9520  -36.3483 C   0  0  2  0  0  0  0  0  0  0  0  0
   23.4912  -59.6457  -35.1001 O   0  0  0  0  0  0  0  0  0  0  0  0
   21.5213  -60.3807  -36.6264 O   0  0  0  0  0  0  0  0  0  0  0  0
   22.2253  -56.9728  -35.9157 O   0  0  0  0  0  0  0  0  0  0  0  0
   23.5570  -57.4621  -36.0921 C   0  0  2  0  0  0  0  0  0  0  0  0
   24.2180  -56.7793  -37.2794 C   0  0  0  0  0  0  0  0  0  0  0  0
   24.0627  -55.3689  -37.1315 O   0  0  0  0  0  0  0  0  0  0  0  0
   24.5624  -54.3430  -38.2690 P   0  0  0  0  0  0  0  0  0  0  0  0
   24.2610  -55.0338  -39.5787 O   0  0  0  0  0  0  0  0  0  0  0  0
   26.0355  -54.1925  -37.9716 O   0  0  0  0  0  0  0  0  0  0  0  0
   23.7338  -53.1060  -38.0132 O   0  0  0  0  0  0  0  0  0  0  0  0
  1  2  2  0  0  0  0
  2  4  1  0  0  0  0
  2  3  1  0  0  0  0
  4  7  1  0  0  0  0
  5  9  1  0  0  0  0
  5  4  2  0  0  0  0
  6  5  1  0  0  0  0
  8  7  2  0  0  0  0
  9  8  1  0  0  0  0
 10 15  1  0  0  0  0
 10  9  1  6  0  0  0
 10 11  1  0  0  0  0
 11 14  1  1  0  0  0
 11 12  1  0  0  0  0
 12 13  1  1  0  0  0
 15 16  1  0  0  0  0
 16 12  1  0  0  0  0
 16 17  1  6  0  0  0
 17 18  1  0  0  0  0
 18 19  1  0  0  0  0
 19 21  1  0  0  0  0
 19 20  1  0  0  0  0
 22 19  2  0  0  0  0
M  END
>  <CHROM.1>
-177.89663631,80.66851904,168.11475739,-175.84262621,37.25997179,21.63077522
-56.91253000,-37.53847778,2.82289365,0.26688996,2.60943477

>  <Name>
lig.pdb

>  <RI>
0

>  <Rbt.Current_Directory>
/home/itssahil/PROJECTS/Mol_Feturizer/New_Systems/rnas/5btp

>  <Rbt.Executable>
rbdock ($Id: //depot/dev/client3/rdock/2013.1/src/exe/rbdock.cxx#4 $)

>  <Rbt.Library>
libRbt.so (2013.1, Build901 2013/11/27)

>  <Rbt.Parameter_File>
/export/apps/rDock/src/rDock_2013.1_src/data/scripts/dock_solv.prm

>  <Rbt.Receptor>
prm/pocket_docking_6.prm

>  <SCORE>
-13.8812

>  <SCORE.INTER>
-13.2787

>  <SCORE.INTER.CONST>
1

>  <SCORE.INTER.POLAR>
0

>  <SCORE.INTER.ROT>
5

>  <SCORE.INTER.SOLV>
19.7523

>  <SCORE.INTER.VDW>
-22.3699

>  <SCORE.INTER.norm>
-0.603576

>  <SCORE.INTRA>
-0.602514

>  <SCORE.INTRA.DIHEDRAL>
-0.432877

>  <SCORE.INTRA.DIHEDRAL.0>
4.21161

>  <SCORE.INTRA.POLAR>
0

>  <SCORE.INTRA.POLAR.0>
0

>  <SCORE.INTRA.REPUL>
0

>  <SCORE.INTRA.REPUL.0>
0

>  <SCORE.INTRA.SOLV>
0.302322

>  <SCORE.INTRA.SOLV.lig_0>
-41.4168

>  <SCORE.INTRA.VDW>
-0.537237

>  <SCORE.INTRA.VDW.0>
-1.62533

>  <SCORE.INTRA.norm>
-0.027387

>  <SCORE.RESTR>
0

>  <SCORE.RESTR.CAVITY>
0

>  <SCORE.RESTR.norm>
0

>  <SCORE.SYSTEM>
0

>  <SCORE.SYSTEM.CONST>
0

>  <SCORE.SYSTEM.DIHEDRAL>
0

>  <SCORE.SYSTEM.SOLV>
0

>  <SCORE.SYSTEM.norm>
0

>  <SCORE.heavy>
22

>  <SCORE.norm>
-0.630963

>  <RMSD>
4.704

$$$$
lig.pdb
 OpenBabel11021811523D
libRbt.so/2013.1/901 2013/11/27
 22 23  0  0  0  0  0  0  0  0999 V2000
   17.6453  -58.7319  -39.0555 O   0  0  0  0  0  0  0  0  0  0  0  0
   17.5316  -57.5169  -39.0114 C   0  0  0  0  0  0  0  0  0  0  0  0
   16.6437  -56.8662  -39.7631 N   0  0  0  0  0  0  0  0  0  0  0  0
   18.4159  -56.7293  -38.1064 C   0  0  0  0  0  0  0  0  0  0  0  0
   18.4353  -55.2594  -38.0425 C   0  0  0  0  0  0  0  0  0  0  0  0
   17.6072  -54.3709  -38.8475 N   0  0  0  0  0  0  0  0  0  0  0  0
   19.3348  -57.0977  -37.1866 N   0  0  0  0  0  0  0  0  0  0  0  0
   19.8580  -55.9640  -36.6249 C   0  0  0  0  0  0  0  0  0  0  0  0
   19.3123  -54.8423  -37.1435 N   0  0  0  0  0  0  0  0  0  0  0  0
   19.6235  -53.4390  -36.7846 C   0  0  1  0  0  0  0  0  0  0  0  0
   19.2265  -53.1567  -35.3449 C   0  0  1  0  0  0  0  0  0  0  0  0
   20.2538  -52.1467  -34.9020 C   0  0  2  0  0  0  0  0  0  0  0  0
   19.8345  -50.8389  -35.2969 O   0  0  0  0  0  0  0  0  0  0  0  0
   17.9168  -52.5917  -35.2725 O   0  0  0  0  0  0  0  0  0  0  0  0
   21.0292  -53.1802  -36.8790 O   0  0  0  0  0  0  0  0  0  0  0  0
   21.4900  -52.5300  -35.6921 C   0  0  2  0  0  0  0  0  0  0  0  0
   22.3589  -53.4741  -34.8757 C   0  0  0  0  0  0  0  0  0  0  0  0
   22.9742  -52.7268  -33.8277 O   0  0  0  0  0  0  0  0  0  0  0  0
   24.1560  -53.3528  -32.9291 P   0  0  0  0  0  0  0  0  0  0  0  0
   25.2520  -53.6991  -33.9101 O   0  0  0  0  0  0  0  0  0  0  0  0
   23.4989  -54.5504  -32.2848 O   0  0  0  0  0  0  0  0  0  0  0  0
   24.5040  -52.2318  -31.9781 O   0  0  0  0  0  0  0  0  0  0  0  0
  1  2  2  0  0  0  0
  2  4  1  0  0  0  0
  2  3  1  0  0  0  0
  4  7  1  0  0  0  0
  5  9  1  0  0  0  0
  5  4  2  0  0  0  0
  6  5  1  0  0  0  0
  8  7  2  0  0  0  0
  9  8  1  0  0  0  0
 10 15  1  0  0  0  0
 10  9  1  1  0  0  0
 10 11  1  0  0  0  0
 11 14  1  6  0  0  0
 11 12  1  0  0  0  0
 12 13  1  6  0  0  0
 15 16  1  0  0  0  0
 16 12  1  0  0  0  0
 16 17  1  1  0  0  0
 17 18  1  0  0  0  0
 18 19  1  0  0  0  0
 19 21  1  0  0  0  0
 19 20  1  0  0  0  0
 22 19  2  0  0  0  0
M  END
>  <CHROM.1>
175.39091271,115.15316621,-72.24156679,-169.21427254,59.38259673,20.61556613
-54.21835102,-35.81808475,-2.51697673,-0.58054838,0.33872555

>  <Name>
lig.pdb

>  <RI>
0

>  <Rbt.Current_Directory>
/home/itssahil/PROJECTS/Mol_Feturizer/New_Systems/rnas/5btp

>  <Rbt.Executable>
rbdock ($Id: //depot/dev/client3/rdock/2013.1/src/exe/rbdock.cxx#4 $)

>  <Rbt.Library>
libRbt.so (2013.1, Build901 2013/11/27)

>  <Rbt.Parameter_File>
/export/apps/rDock/src/rDock_2013.1_src/data/scripts/dock_solv.prm

>  <Rbt.Receptor>
prm/pocket_docking_8.prm

>  <SCORE>
-6.18488

>  <SCORE.INTER>
-5.42527

>  <SCORE.INTER.CONST>
1

>  <SCORE.INTER.POLAR>
0

>  <SCORE.INTER.ROT>
5

>  <SCORE.INTER.SOLV>
17.9985

>  <SCORE.INTER.VDW>
-16.5497

>  <SCORE.INTER.norm>
-0.246603

>  <SCORE.INTRA>
-0.759611

>  <SCORE.INTRA.DIHEDRAL>
-0.628264

>  <SCORE.INTRA.DIHEDRAL.0>
4.21161

>  <SCORE.INTRA.POLAR>
0

>  <SCORE.INTRA.POLAR.0>
0

>  <SCORE.INTRA.REPUL>
0

>  <SCORE.INTRA.REPUL.0>
0

>  <SCORE.INTRA.SOLV>
-0.166902

>  <SCORE.INTRA.SOLV.lig_0>
-41.4168

>  <SCORE.INTRA.VDW>
-0.362028

>  <SCORE.INTRA.VDW.0>
-1.62533

>  <SCORE.INTRA.norm>
-0.0345278

>  <SCORE.RESTR>
0

>  <SCORE.RESTR.CAVITY>
0

>  <SCORE.RESTR.norm>
0

>  <SCORE.SYSTEM>
0

>  <SCORE.SYSTEM.CONST>
0

>  <SCORE.SYSTEM.DIHEDRAL>
0

>  <SCORE.SYSTEM.SOLV>
0

>  <SCORE.SYSTEM.norm>
0

>  <SCORE.heavy>
22

>  <SCORE.norm>
-0.281131

>  <RMSD>
4.886

$$$$
lig.pdb
 OpenBabel11021811523D
libRbt.so/2013.1/901 2013/11/27
 22 23  0  0  0  0  0  0  0  0999 V2000
   17.0112  -55.6620  -39.4015 O   0  0  0  0  0  0  0  0  0  0  0  0
   17.1365  -56.8515  -39.1558 C   0  0  0  0  0  0  0  0  0  0  0  0
   16.2116  -57.7436  -39.5100 N   0  0  0  0  0  0  0  0  0  0  0  0
   18.3461  -57.3271  -38.4266 C   0  0  0  0  0  0  0  0  0  0  0  0
   19.3691  -56.4383  -37.8534 C   0  0  0  0  0  0  0  0  0  0  0  0
   19.3515  -54.9828  -37.9184 N   0  0  0  0  0  0  0  0  0  0  0  0
   18.7895  -58.5640  -38.1108 N   0  0  0  0  0  0  0  0  0  0  0  0
   19.9634  -58.4351  -37.4181 C   0  0  0  0  0  0  0  0  0  0  0  0
   20.3195  -57.1418  -37.2591 N   0  0  0  0  0  0  0  0  0  0  0  0
   21.5178  -56.6153  -36.5651 C   0  0  1  0  0  0  0  0  0  0  0  0
   22.3091  -55.7020  -37.4869 C   0  0  1  0  0  0  0  0  0  0  0  0
   22.8967  -54.6892  -36.5378 C   0  0  2  0  0  0  0  0  0  0  0  0
   24.1052  -55.2081  -35.9787 O   0  0  0  0  0  0  0  0  0  0  0  0
   23.3515  -56.4176  -38.1511 O   0  0  0  0  0  0  0  0  0  0  0  0
   21.1518  -55.8280  -35.4257 O   0  0  0  0  0  0  0  0  0  0  0  0
   21.8516  -54.5815  -35.4445 C   0  0  2  0  0  0  0  0  0  0  0  0
   20.8925  -53.4415  -35.7503 C   0  0  0  0  0  0  0  0  0  0  0  0
   21.6057  -52.2110  -35.6394 O   0  0  0  0  0  0  0  0  0  0  0  0
   20.8687  -50.7907  -35.8284 P   0  0  0  0  0  0  0  0  0  0  0  0
   20.2765  -50.8390  -37.2178 O   0  0  0  0  0  0  0  0  0  0  0  0
   21.9943  -49.7965  -35.6680 O   0  0  0  0  0  0  0  0  0  0  0  0
   19.8460  -50.7763  -34.7166 O   0  0  0  0  0  0  0  0  0  0  0  0
  1  2  2  0  0  0  0
  2  4  1  0  0  0  0
  2  3  1  0  0  0  0
  4  7  1  0  0  0  0
  5  9  1  0  0  0  0
  5  4  2  0  0  0  0
  6  5  1  0  0  0  0
  8  7  2  0  0  0  0
  9  8  1  0  0  0  0
 10 15  1  0  0  0  0
 10  9  1  6  0  0  0
 10 11  1  0  0  0  0
 11 14  1  1  0  0  0
 11 12  1  0  0  0  0
 12 13  1  1  0  0  0
 15 16  1  0  0  0  0
 16 12  1  0  0  0  0
 16 17  1  6  0  0  0
 17 18  1  0  0  0  0
 18 19  1  0  0  0  0
 19 21  1  0  0  0  0
 19 20  1  0  0  0  0
 22 19  2  0  0  0  0
M  END
>  <CHROM.1>
6.12988907,-54.97967397,-67.88847780,-176.90706595,-58.50416610,20.49552489
-54.65636466,-36.95669734,2.00216201,0.36203675,-2.88031168

>  <Name>
lig.pdb

>  <RI>
0

>  <Rbt.Current_Directory>
/home/itssahil/PROJECTS/Mol_Feturizer/New_Systems/rnas/5btp

>  <Rbt.Executable>
rbdock ($Id: //depot/dev/client3/rdock/2013.1/src/exe/rbdock.cxx#4 $)

>  <Rbt.Library>
libRbt.so (2013.1, Build901 2013/11/27)

>  <Rbt.Parameter_File>
/export/apps/rDock/src/rDock_2013.1_src/data/scripts/dock_solv.prm

>  <Rbt.Receptor>
prm/pocket_docking_8.prm

>  <SCORE>
-12.4111

>  <SCORE.INTER>
-11.5457

>  <SCORE.INTER.CONST>
1

>  <SCORE.INTER.POLAR>
0

>  <SCORE.INTER.ROT>
5

>  <SCORE.INTER.SOLV>
15.398

>  <SCORE.INTER.VDW>
-19.7632

>  <SCORE.INTER.norm>
-0.524805

>  <SCORE.INTRA>
-0.865349

>  <SCORE.INTRA.DIHEDRAL>
-1.38152

>  <SCORE.INTRA.DIHEDRAL.0>
4.21161

>  <SCORE.INTRA.POLAR>
0

>  <SCORE.INTRA.POLAR.0>
0

>  <SCORE.INTRA.REPUL>
0

>  <SCORE.INTRA.REPUL.0>
0

>  <SCORE.INTRA.SOLV>
1.16474

>  <SCORE.INTRA.SOLV.lig_0>
-41.4168

>  <SCORE.INTRA.VDW>
-0.756959

>  <SCORE.INTRA.VDW.0>
-1.62533

>  <SCORE.INTRA.norm>
-0.039334

>  <SCORE.RESTR>
0

>  <SCORE.RESTR.CAVITY>
0

>  <SCORE.RESTR.norm>
0

>  <SCORE.SYSTEM>
0

>  <SCORE.SYSTEM.CONST>
0

>  <SCORE.SYSTEM.DIHEDRAL>
0

>  <SCORE.SYSTEM.SOLV>
0

>  <SCORE.SYSTEM.norm>
0

>  <SCORE.heavy>
22

>  <SCORE.norm>
-0.564139

>  <RMSD>
5.298

$$$$
lig.pdb
 OpenBabel11021811523D
libRbt.so/2013.1/901 2013/11/27
 22 23  0  0  0  0  0  0  0  0999 V2000
   23.1132  -59.7271  -36.8858 O   0  0  0  0  0  0  0  0  0  0  0  0
   21.9625  -60.1084  -37.0327 C   0  0  0  0  0  0  0  0  0  0  0  0
   21.6296  -61.3950  -36.9289 N   0  0  0  0  0  0  0  0  0  0  0  0
   20.8960  -59.1176  -37.3523 C   0  0  0  0  0  0  0  0  0  0  0  0
   21.1341  -57.6780  -37.5413 C   0  0  0  0  0  0  0  0  0  0  0  0
   22.4297  -57.0188  -37.4403 N   0  0  0  0  0  0  0  0  0  0  0  0
   19.5651  -59.2461  -37.5482 N   0  0  0  0  0  0  0  0  0  0  0  0
   19.0508  -58.0080  -37.8259 C   0  0  0  0  0  0  0  0  0  0  0  0
   20.0036  -57.0504  -37.8228 N   0  0  0  0  0  0  0  0  0  0  0  0
   19.8275  -55.6023  -38.0816 C   0  0  1  0  0  0  0  0  0  0  0  0
   18.3514  -55.2406  -38.1034 C   0  0  1  0  0  0  0  0  0  0  0  0
   18.3388  -53.8354  -37.5585 C   0  0  2  0  0  0  0  0  0  0  0  0
   18.6027  -52.9132  -38.6178 O   0  0  0  0  0  0  0  0  0  0  0  0
   17.8361  -55.2572  -39.4353 O   0  0  0  0  0  0  0  0  0  0  0  0
   20.4258  -54.8149  -37.0453 O   0  0  0  0  0  0  0  0  0  0  0  0
   19.5042  -53.8220  -36.5884 C   0  0  2  0  0  0  0  0  0  0  0  0
   19.0195  -54.1561  -35.1861 C   0  0  0  0  0  0  0  0  0  0  0  0
   20.0556  -53.8290  -34.2617 O   0  0  0  0  0  0  0  0  0  0  0  0
   19.8136  -53.8893  -32.6699 P   0  0  0  0  0  0  0  0  0  0  0  0
   18.5702  -53.0642  -32.4316 O   0  0  0  0  0  0  0  0  0  0  0  0
   21.0776  -53.2831  -32.1079 O   0  0  0  0  0  0  0  0  0  0  0  0
   19.6420  -55.3654  -32.3975 O   0  0  0  0  0  0  0  0  0  0  0  0
  1  2  2  0  0  0  0
  2  4  1  0  0  0  0
  2  3  1  0  0  0  0
  4  7  1  0  0  0  0
  5  9  1  0  0  0  0
  5  4  2  0  0  0  0
  6  5  1  0  0  0  0
  8  7  2  0  0  0  0
  9  8  1  0  0  0  0
 10 15  1  0  0  0  0
 10  9  1  1  0  0  0
 10 11  1  0  0  0  0
 11 14  1  6  0  0  0
 11 12  1  0  0  0  0
 12 13  1  6  0  0  0
 15 16  1  0  0  0  0
 16 12  1  0  0  0  0
 16 17  1  1  0  0  0
 17 18  1  0  0  0  0
 18 19  1  0  0  0  0
 19 21  1  0  0  0  0
 19 20  1  0  0  0  0
 22 19  2  0  0  0  0
M  END
>  <CHROM.1>
1.55689883,-169.22499437,-166.45054068,172.48605604,-52.13562623,20.01292045
-55.89196768,-36.12762165,-1.12222414,-1.02644307,1.02542624

>  <Name>
lig.pdb

>  <RI>
0

>  <Rbt.Current_Directory>
/home/itssahil/PROJECTS/Mol_Feturizer/New_Systems/rnas/5btp

>  <Rbt.Executable>
rbdock ($Id: //depot/dev/client3/rdock/2013.1/src/exe/rbdock.cxx#4 $)

>  <Rbt.Library>
libRbt.so (2013.1, Build901 2013/11/27)

>  <Rbt.Parameter_File>
/export/apps/rDock/src/rDock_2013.1_src/data/scripts/dock_solv.prm

>  <Rbt.Receptor>
prm/pocket_docking_7.prm

>  <SCORE>
-7.18222

>  <SCORE.INTER>
-6.93149

>  <SCORE.INTER.CONST>
1

>  <SCORE.INTER.POLAR>
0

>  <SCORE.INTER.ROT>
5

>  <SCORE.INTER.SOLV>
17.3981

>  <SCORE.INTER.VDW>
-17.3537

>  <SCORE.INTER.norm>
-0.315068

>  <SCORE.INTRA>
-0.250733

>  <SCORE.INTRA.DIHEDRAL>
-0.781435

>  <SCORE.INTRA.DIHEDRAL.0>
4.21161

>  <SCORE.INTRA.POLAR>
0

>  <SCORE.INTRA.POLAR.0>
0

>  <SCORE.INTRA.REPUL>
0

>  <SCORE.INTRA.REPUL.0>
0

>  <SCORE.INTRA.SOLV>
-0.22295

>  <SCORE.INTRA.SOLV.lig_0>
-41.4168

>  <SCORE.INTRA.VDW>
0.25146

>  <SCORE.INTRA.VDW.0>
-1.62533

>  <SCORE.INTRA.norm>
-0.011397

>  <SCORE.RESTR>
0

>  <SCORE.RESTR.CAVITY>
0

>  <SCORE.RESTR.norm>
0

>  <SCORE.SYSTEM>
0

>  <SCORE.SYSTEM.CONST>
0

>  <SCORE.SYSTEM.DIHEDRAL>
0

>  <SCORE.SYSTEM.SOLV>
0

>  <SCORE.SYSTEM.norm>
0

>  <SCORE.heavy>
22

>  <SCORE.norm>
-0.326465

>  <RMSD>
5.357

$$$$
lig.pdb
 OpenBabel11021811523D
libRbt.so/2013.1/901 2013/11/27
 22 23  0  0  0  0  0  0  0  0999 V2000
   18.0646  -58.4449  -38.7711 O   0  0  0  0  0  0  0  0  0  0  0  0
   18.7108  -57.6381  -38.1211 C   0  0  0  0  0  0  0  0  0  0  0  0
   19.6295  -58.0235  -37.2355 N   0  0  0  0  0  0  0  0  0  0  0  0
   18.4621  -56.1801  -38.3046 C   0  0  0  0  0  0  0  0  0  0  0  0
   19.0466  -55.1283  -37.4578 C   0  0  0  0  0  0  0  0  0  0  0  0
   19.9382  -55.3560  -36.3281 N   0  0  0  0  0  0  0  0  0  0  0  0
   17.7254  -55.4896  -39.2027 N   0  0  0  0  0  0  0  0  0  0  0  0
   17.8509  -54.1548  -38.9250 C   0  0  0  0  0  0  0  0  0  0  0  0
   18.6551  -53.9309  -37.8629 N   0  0  0  0  0  0  0  0  0  0  0  0
   19.0265  -52.6236  -37.2729 C   0  0  1  0  0  0  0  0  0  0  0  0
   18.0798  -52.2620  -36.1403 C   0  0  1  0  0  0  0  0  0  0  0  0
   18.9628  -51.4895  -35.1941 C   0  0  2  0  0  0  0  0  0  0  0  0
   19.0227  -50.1235  -35.6093 O   0  0  0  0  0  0  0  0  0  0  0  0
   17.0125  -51.4344  -36.6048 O   0  0  0  0  0  0  0  0  0  0  0  0
   20.3422  -52.6660  -36.7079 O   0  0  0  0  0  0  0  0  0  0  0  0
   20.3263  -52.1251  -35.3846 C   0  0  2  0  0  0  0  0  0  0  0  0
   20.5348  -53.2294  -34.3598 C   0  0  0  0  0  0  0  0  0  0  0  0
   21.9342  -53.3569  -34.1137 O   0  0  0  0  0  0  0  0  0  0  0  0
   22.7322  -52.2839  -33.2151 P   0  0  0  0  0  0  0  0  0  0  0  0
   24.1669  -52.7586  -33.2206 O   0  0  0  0  0  0  0  0  0  0  0  0
   22.0499  -52.3869  -31.8716 O   0  0  0  0  0  0  0  0  0  0  0  0
   22.5059  -50.9798  -33.9435 O   0  0  0  0  0  0  0  0  0  0  0  0
  1  2  2  0  0  0  0
  2  4  1  0  0  0  0
  2  3  1  0  0  0  0
  4  7  1  0  0  0  0
  5  9  1  0  0  0  0
  5  4  2  0  0  0  0
  6  5  1  0  0  0  0
  8  7  2  0  0  0  0
  9  8  1  0  0  0  0
 10 15  1  0  0  0  0
 10  9  1  1  0  0  0
 10 11  1  0  0  0  0
 11 14  1  6  0  0  0
 11 12  1  0  0  0  0
 12 13  1  6  0  0  0
 15 16  1  0  0  0  0
 16 12  1  0  0  0  0
 16 17  1  1  0  0  0
 17 18  1  0  0  0  0
 18 19  1  0  0  0  0
 19 21  1  0  0  0  0
 19 20  1  0  0  0  0
 22 19  2  0  0  0  0
M  END
>  <CHROM.1>
171.58932935,-86.95447709,-152.35924513,75.34046373,-179.03197272,19.98983866
-53.58053471,-35.93248320,-2.30443318,-0.68265417,0.33550088

>  <Name>
lig.pdb

>  <RI>
0

>  <Rbt.Current_Directory>
/home/itssahil/PROJECTS/Mol_Feturizer/New_Systems/rnas/5btp

>  <Rbt.Executable>
rbdock ($Id: //depot/dev/client3/rdock/2013.1/src/exe/rbdock.cxx#4 $)

>  <Rbt.Library>
libRbt.so (2013.1, Build901 2013/11/27)

>  <Rbt.Parameter_File>
/export/apps/rDock/src/rDock_2013.1_src/data/scripts/dock_solv.prm

>  <Rbt.Receptor>
prm/pocket_docking_8.prm

>  <SCORE>
-6.84113

>  <SCORE.INTER>
-8.40519

>  <SCORE.INTER.CONST>
1

>  <SCORE.INTER.POLAR>
0

>  <SCORE.INTER.ROT>
5

>  <SCORE.INTER.SOLV>
14.6187

>  <SCORE.INTER.VDW>
-17.4097

>  <SCORE.INTER.norm>
-0.382054

>  <SCORE.INTRA>
1.56406

>  <SCORE.INTRA.DIHEDRAL>
1.82567

>  <SCORE.INTRA.DIHEDRAL.0>
4.21161

>  <SCORE.INTRA.POLAR>
0

>  <SCORE.INTRA.POLAR.0>
0

>  <SCORE.INTRA.REPUL>
0

>  <SCORE.INTRA.REPUL.0>
0

>  <SCORE.INTRA.SOLV>
2.5635

>  <SCORE.INTRA.SOLV.lig_0>
-41.4168

>  <SCORE.INTRA.VDW>
-0.630521

>  <SCORE.INTRA.VDW.0>
-1.62533

>  <SCORE.INTRA.norm>
0.0710937

>  <SCORE.RESTR>
0

>  <SCORE.RESTR.CAVITY>
0

>  <SCORE.RESTR.norm>
0

>  <SCORE.SYSTEM>
0

>  <SCORE.SYSTEM.CONST>
0

>  <SCORE.SYSTEM.DIHEDRAL>
0

>  <SCORE.SYSTEM.SOLV>
0

>  <SCORE.SYSTEM.norm>
0

>  <SCORE.heavy>
22

>  <SCORE.norm>
-0.31096

>  <RMSD>
5.675

$$$$
lig.pdb
 OpenBabel11021811523D
libRbt.so/2013.1/901 2013/11/27
 22 23  0  0  0  0  0  0  0  0999 V2000
   19.3711  -50.8572  -37.2197 O   0  0  0  0  0  0  0  0  0  0  0  0
   18.8800  -51.2928  -38.2493 C   0  0  0  0  0  0  0  0  0  0  0  0
   18.5060  -50.4890  -39.2446 N   0  0  0  0  0  0  0  0  0  0  0  0
   18.6748  -52.7612  -38.4008 C   0  0  0  0  0  0  0  0  0  0  0  0
   19.0363  -53.7567  -37.3794 C   0  0  0  0  0  0  0  0  0  0  0  0
   19.6442  -53.4565  -36.0896 N   0  0  0  0  0  0  0  0  0  0  0  0
   18.1491  -53.5076  -39.3973 N   0  0  0  0  0  0  0  0  0  0  0  0
   18.1908  -54.8221  -39.0165 C   0  0  0  0  0  0  0  0  0  0  0  0
   18.7303  -54.9776  -37.7879 N   0  0  0  0  0  0  0  0  0  0  0  0
   18.9364  -56.2442  -37.0474 C   0  0  1  0  0  0  0  0  0  0  0  0
   18.9944  -57.4200  -38.0086 C   0  0  1  0  0  0  0  0  0  0  0  0
   19.9535  -58.3648  -37.3309 C   0  0  2  0  0  0  0  0  0  0  0  0
   19.2449  -59.1544  -36.3735 O   0  0  0  0  0  0  0  0  0  0  0  0
   17.7131  -58.0352  -38.1487 O   0  0  0  0  0  0  0  0  0  0  0  0
   20.1818  -56.2331  -36.3397 O   0  0  0  0  0  0  0  0  0  0  0  0
   20.9059  -57.4379  -36.6006 C   0  0  2  0  0  0  0  0  0  0  0  0
   22.1198  -57.1473  -37.4695 C   0  0  0  0  0  0  0  0  0  0  0  0
   22.8677  -56.0958  -36.8611 O   0  0  0  0  0  0  0  0  0  0  0  0
   24.2303  -55.5422  -37.5189 P   0  0  0  0  0  0  0  0  0  0  0  0
   23.8796  -55.2527  -38.9600 O   0  0  0  0  0  0  0  0  0  0  0  0
   25.1922  -56.6917  -37.3334 O   0  0  0  0  0  0  0  0  0  0  0  0
   24.5426  -54.3142  -36.6961 O   0  0  0  0  0  0  0  0  0  0  0  0
  1  2  2  0  0  0  0
  2  4  1  0  0  0  0
  2  3  1  0  0  0  0
  4  7  1  0  0  0  0
  5  9  1  0  0  0  0
  5  4  2  0  0  0  0
  6  5  1  0  0  0  0
  8  7  2  0  0  0  0
  9  8  1  0  0  0  0
 10 15  1  0  0  0  0
 10  9  1  6  0  0  0
 10 11  1  0  0  0  0
 11 14  1  1  0  0  0
 11 12  1  0  0  0  0
 12 13  1  1  0  0  0
 15 16  1  0  0  0  0
 16 12  1  0  0  0  0
 16 17  1  6  0  0  0
 17 18  1  0  0  0  0
 18 19  1  0  0  0  0
 19 21  1  0  0  0  0
 19 20  1  0  0  0  0
 22 19  2  0  0  0  0
M  END
>  <CHROM.1>
-0.40291261,-157.16633642,169.68557596,179.58391323,50.62273308,20.66267188
-55.24721931,-37.58267936,-2.44949265,0.08027023,2.99033615

>  <Name>
lig.pdb

>  <RI>
0

>  <Rbt.Current_Directory>
/home/itssahil/PROJECTS/Mol_Feturizer/New_Systems/rnas/5btp

>  <Rbt.Executable>
rbdock ($Id: //depot/dev/client3/rdock/2013.1/src/exe/rbdock.cxx#4 $)

>  <Rbt.Library>
libRbt.so (2013.1, Build901 2013/11/27)

>  <Rbt.Parameter_File>
/export/apps/rDock/src/rDock_2013.1_src/data/scripts/dock_solv.prm

>  <Rbt.Receptor>
prm/pocket_docking_8.prm

>  <SCORE>
-11.3106

>  <SCORE.INTER>
-10.7157

>  <SCORE.INTER.CONST>
1

>  <SCORE.INTER.POLAR>
0

>  <SCORE.INTER.ROT>
5

>  <SCORE.INTER.SOLV>
16.4523

>  <SCORE.INTER.VDW>
-19.5613

>  <SCORE.INTER.norm>
-0.487079

>  <SCORE.INTRA>
-0.594851

>  <SCORE.INTRA.DIHEDRAL>
-1.26253

>  <SCORE.INTRA.DIHEDRAL.0>
4.21161

>  <SCORE.INTRA.POLAR>
0

>  <SCORE.INTRA.POLAR.0>
0

>  <SCORE.INTRA.REPUL>
0

>  <SCORE.INTRA.REPUL.0>
0

>  <SCORE.INTRA.SOLV>
-0.118452

>  <SCORE.INTRA.SOLV.lig_0>
-41.4168

>  <SCORE.INTRA.VDW>
0.0956386

>  <SCORE.INTRA.VDW.0>
-1.62533

>  <SCORE.INTRA.norm>
-0.0270387

>  <SCORE.RESTR>
0

>  <SCORE.RESTR.CAVITY>
0

>  <SCORE.RESTR.norm>
0

>  <SCORE.SYSTEM>
0

>  <SCORE.SYSTEM.CONST>
0

>  <SCORE.SYSTEM.DIHEDRAL>
0

>  <SCORE.SYSTEM.SOLV>
0

>  <SCORE.SYSTEM.norm>
0

>  <SCORE.heavy>
22

>  <SCORE.norm>
-0.514117

>  <RMSD>
5.726

$$$$
lig.pdb
 OpenBabel11021811523D
libRbt.so/2013.1/901 2013/11/27
 22 23  0  0  0  0  0  0  0  0999 V2000
   24.6231  -53.6981  -37.4499 O   0  0  0  0  0  0  0  0  0  0  0  0
   23.9481  -54.7125  -37.5306 C   0  0  0  0  0  0  0  0  0  0  0  0
   24.4630  -55.8677  -37.9516 N   0  0  0  0  0  0  0  0  0  0  0  0
   22.5041  -54.6644  -37.1652 C   0  0  0  0  0  0  0  0  0  0  0  0
   21.5791  -55.8010  -37.2975 C   0  0  0  0  0  0  0  0  0  0  0  0
   21.9342  -57.1207  -37.8030 N   0  0  0  0  0  0  0  0  0  0  0  0
   21.7272  -53.6824  -36.6568 N   0  0  0  0  0  0  0  0  0  0  0  0
   20.4598  -54.1760  -36.4997 C   0  0  0  0  0  0  0  0  0  0  0  0
   20.3658  -55.4662  -36.8886 N   0  0  0  0  0  0  0  0  0  0  0  0
   19.1627  -56.3303  -36.8630 C   0  0  1  0  0  0  0  0  0  0  0  0
   18.8419  -56.8386  -38.2590 C   0  0  1  0  0  0  0  0  0  0  0  0
   18.2486  -58.1990  -37.9964 C   0  0  2  0  0  0  0  0  0  0  0  0
   16.8568  -58.0612  -37.7031 O   0  0  0  0  0  0  0  0  0  0  0  0
   17.8838  -55.9997  -38.9056 O   0  0  0  0  0  0  0  0  0  0  0  0
   19.3739  -57.4875  -36.0455 O   0  0  0  0  0  0  0  0  0  0  0  0
   18.9736  -58.6659  -36.7490 C   0  0  2  0  0  0  0  0  0  0  0  0
   20.1916  -59.4921  -37.1321 C   0  0  0  0  0  0  0  0  0  0  0  0
   20.6567  -60.1746  -35.9690 O   0  0  0  0  0  0  0  0  0  0  0  0
   21.3196  -59.3791  -34.7347 P   0  0  0  0  0  0  0  0  0  0  0  0
   20.1529  -58.7841  -33.9807 O   0  0  0  0  0  0  0  0  0  0  0  0
   22.2014  -58.3605  -35.4174 O   0  0  0  0  0  0  0  0  0  0  0  0
   22.0621  -60.4576  -33.9811 O   0  0  0  0  0  0  0  0  0  0  0  0
  1  2  2  0  0  0  0
  2  4  1  0  0  0  0
  2  3  1  0  0  0  0
  4  7  1  0  0  0  0
  5  9  1  0  0  0  0
  5  4  2  0  0  0  0
  6  5  1  0  0  0  0
  8  7  2  0  0  0  0
  9  8  1  0  0  0  0
 10 15  1  0  0  0  0
 10  9  1  6  0  0  0
 10 11  1  0  0  0  0
 11 14  1  1  0  0  0
 11 12  1  0  0  0  0
 12 13  1  1  0  0  0
 15 16  1  0  0  0  0
 16 12  1  0  0  0  0
 16 17  1  6  0  0  0
 17 18  1  0  0  0  0
 18 19  1  0  0  0  0
 19 21  1  0  0  0  0
 19 20  1  0  0  0  0
 22 19  2  0  0  0  0
M  END
>  <CHROM.1>
176.29464285,-58.90827080,-166.20465572,-68.49183359,78.18864406,20.79890031
-57.17773031,-36.62098319,-0.96294878,0.31266546,2.61268127

>  <Name>
lig.pdb

>  <RI>
0

>  <Rbt.Current_Directory>
/home/itssahil/PROJECTS/Mol_Feturizer/New_Systems/rnas/5btp

>  <Rbt.Executable>
rbdock ($Id: //depot/dev/client3/rdock/2013.1/src/exe/rbdock.cxx#4 $)

>  <Rbt.Library>
libRbt.so (2013.1, Build901 2013/11/27)

>  <Rbt.Parameter_File>
/export/apps/rDock/src/rDock_2013.1_src/data/scripts/dock_solv.prm

>  <Rbt.Receptor>
prm/pocket_docking_8.prm

>  <SCORE>
-6.98236

>  <SCORE.INTER>
-7.16168

>  <SCORE.INTER.CONST>
1

>  <SCORE.INTER.POLAR>
0

>  <SCORE.INTER.ROT>
5

>  <SCORE.INTER.SOLV>
13.2006

>  <SCORE.INTER.VDW>
-16.108

>  <SCORE.INTER.norm>
-0.325531

>  <SCORE.INTRA>
0.179318

>  <SCORE.INTRA.DIHEDRAL>
-0.244369

>  <SCORE.INTRA.DIHEDRAL.0>
4.21161

>  <SCORE.INTRA.POLAR>
0

>  <SCORE.INTRA.POLAR.0>
0

>  <SCORE.INTRA.REPUL>
0

>  <SCORE.INTRA.REPUL.0>
0

>  <SCORE.INTRA.SOLV>
3.32592

>  <SCORE.INTRA.SOLV.lig_0>
-41.4168

>  <SCORE.INTRA.VDW>
-1.36146

>  <SCORE.INTRA.VDW.0>
-1.62533

>  <SCORE.INTRA.norm>
0.00815082

>  <SCORE.RESTR>
0

>  <SCORE.RESTR.CAVITY>
0

>  <SCORE.RESTR.norm>
0

>  <SCORE.SYSTEM>
0

>  <SCORE.SYSTEM.CONST>
0

>  <SCORE.SYSTEM.DIHEDRAL>
0

>  <SCORE.SYSTEM.SOLV>
0

>  <SCORE.SYSTEM.norm>
0

>  <SCORE.heavy>
22

>  <SCORE.norm>
-0.31738

>  <RMSD>
5.782

$$$$
lig.pdb
 OpenBabel11021811523D
libRbt.so/2013.1/901 2013/11/27
 22 23  0  0  0  0  0  0  0  0999 V2000
   23.4634  -61.2330  -34.4617 O   0  0  0  0  0  0  0  0  0  0  0  0
   22.8943  -60.4385  -33.7296 C   0  0  0  0  0  0  0  0  0  0  0  0
   23.3354  -60.1757  -32.4995 N   0  0  0  0  0  0  0  0  0  0  0  0
   21.6631  -59.7496  -34.2098 C   0  0  0  0  0  0  0  0  0  0  0  0
   21.0337  -59.9961  -35.5167 C   0  0  0  0  0  0  0  0  0  0  0  0
   21.5187  -60.9339  -36.5210 N   0  0  0  0  0  0  0  0  0  0  0  0
   20.8616  -58.8206  -33.6434 N   0  0  0  0  0  0  0  0  0  0  0  0
   19.8507  -58.5336  -34.5211 C   0  0  0  0  0  0  0  0  0  0  0  0
   19.9520  -59.2479  -35.6631 N   0  0  0  0  0  0  0  0  0  0  0  0
   19.0460  -59.2086  -36.8346 C   0  0  1  0  0  0  0  0  0  0  0  0
   17.7189  -58.5692  -36.4606 C   0  0  1  0  0  0  0  0  0  0  0  0
   17.3039  -57.8796  -37.7350 C   0  0  2  0  0  0  0  0  0  0  0  0
   16.6381  -58.8153  -38.5856 O   0  0  0  0  0  0  0  0  0  0  0  0
   16.7540  -59.5579  -36.0986 O   0  0  0  0  0  0  0  0  0  0  0  0
   19.5992  -58.4140  -37.8903 O   0  0  0  0  0  0  0  0  0  0  0  0
   18.6235  -57.4855  -38.3695 C   0  0  2  0  0  0  0  0  0  0  0  0
   18.9963  -56.0689  -37.9605 C   0  0  0  0  0  0  0  0  0  0  0  0
   20.3630  -55.8462  -38.3036 O   0  0  0  0  0  0  0  0  0  0  0  0
   21.5555  -56.1861  -37.2749 P   0  0  0  0  0  0  0  0  0  0  0  0
   21.9235  -57.6231  -37.5634 O   0  0  0  0  0  0  0  0  0  0  0  0
   20.9153  -55.9689  -35.9243 O   0  0  0  0  0  0  0  0  0  0  0  0
   22.6270  -55.1849  -37.6377 O   0  0  0  0  0  0  0  0  0  0  0  0
  1  2  2  0  0  0  0
  2  4  1  0  0  0  0
  2  3  1  0  0  0  0
  4  7  1  0  0  0  0
  5  9  1  0  0  0  0
  5  4  2  0  0  0  0
  6  5  1  0  0  0  0
  8  7  2  0  0  0  0
  9  8  1  0  0  0  0
 10 15  1  0  0  0  0
 10  9  1  1  0  0  0
 10 11  1  0  0  0  0
 11 14  1  6  0  0  0
 11 12  1  0  0  0  0
 12 13  1  6  0  0  0
 15 16  1  0  0  0  0
 16 12  1  0  0  0  0
 16 17  1  1  0  0  0
 17 18  1  0  0  0  0
 18 19  1  0  0  0  0
 19 21  1  0  0  0  0
 19 20  1  0  0  0  0
 22 19  2  0  0  0  0
M  END
>  <CHROM.1>
2.40367934,162.55256257,166.49539475,-89.41394815,89.68199275,20.36375731
-58.27765801,-36.36177127,0.84253717,0.35494741,2.51280267

>  <Name>
lig.pdb

>  <RI>
0

>  <Rbt.Current_Directory>
/home/itssahil/PROJECTS/Mol_Feturizer/New_Systems/rnas/5btp

>  <Rbt.Executable>
rbdock ($Id: //depot/dev/client3/rdock/2013.1/src/exe/rbdock.cxx#4 $)

>  <Rbt.Library>
libRbt.so (2013.1, Build901 2013/11/27)

>  <Rbt.Parameter_File>
/export/apps/rDock/src/rDock_2013.1_src/data/scripts/dock_solv.prm

>  <Rbt.Receptor>
prm/pocket_docking_3.prm

>  <SCORE>
-7.43354

>  <SCORE.INTER>
-9.30639

>  <SCORE.INTER.CONST>
1

>  <SCORE.INTER.POLAR>
0

>  <SCORE.INTER.ROT>
5

>  <SCORE.INTER.SOLV>
13.3135

>  <SCORE.INTER.VDW>
-17.5754

>  <SCORE.INTER.norm>
-0.423018

>  <SCORE.INTRA>
1.87286

>  <SCORE.INTRA.DIHEDRAL>
3.53447

>  <SCORE.INTRA.DIHEDRAL.0>
4.21161

>  <SCORE.INTRA.POLAR>
0

>  <SCORE.INTRA.POLAR.0>
0

>  <SCORE.INTRA.REPUL>
0

>  <SCORE.INTRA.REPUL.0>
0

>  <SCORE.INTRA.SOLV>
2.18038

>  <SCORE.INTRA.SOLV.lig_0>
-41.4168

>  <SCORE.INTRA.VDW>
-0.984569

>  <SCORE.INTRA.VDW.0>
-1.62533

>  <SCORE.INTRA.norm>
0.0851298

>  <SCORE.RESTR>
0

>  <SCORE.RESTR.CAVITY>
0

>  <SCORE.RESTR.norm>
0

>  <SCORE.SYSTEM>
0

>  <SCORE.SYSTEM.CONST>
0

>  <SCORE.SYSTEM.DIHEDRAL>
0

>  <SCORE.SYSTEM.SOLV>
0

>  <SCORE.SYSTEM.norm>
0

>  <SCORE.heavy>
22

>  <SCORE.norm>
-0.337888

>  <RMSD>
5.793

$$$$
lig.pdb
 OpenBabel11021811523D
libRbt.so/2013.1/901 2013/11/27
 22 23  0  0  0  0  0  0  0  0999 V2000
   18.3133  -50.0776  -39.0581 O   0  0  0  0  0  0  0  0  0  0  0  0
   18.7656  -50.8104  -38.1923 C   0  0  0  0  0  0  0  0  0  0  0  0
   19.3669  -50.3265  -37.1055 N   0  0  0  0  0  0  0  0  0  0  0  0
   18.6610  -52.2884  -38.3532 C   0  0  0  0  0  0  0  0  0  0  0  0
   19.1778  -53.2648  -37.3814 C   0  0  0  0  0  0  0  0  0  0  0  0
   19.8627  -52.9337  -36.1386 N   0  0  0  0  0  0  0  0  0  0  0  0
   18.1152  -53.0614  -39.3180 N   0  0  0  0  0  0  0  0  0  0  0  0
   18.2870  -54.3731  -38.9651 C   0  0  0  0  0  0  0  0  0  0  0  0
   18.9336  -54.5009  -37.7860 N   0  0  0  0  0  0  0  0  0  0  0  0
   19.2940  -55.7563  -37.0867 C   0  0  1  0  0  0  0  0  0  0  0  0
   19.7496  -56.8094  -38.0833 C   0  0  1  0  0  0  0  0  0  0  0  0
   20.7763  -57.5913  -37.3046 C   0  0  2  0  0  0  0  0  0  0  0  0
   20.1186  -58.5877  -36.5193 O   0  0  0  0  0  0  0  0  0  0  0  0
   18.6679  -57.6603  -38.4651 O   0  0  0  0  0  0  0  0  0  0  0  0
   20.3858  -55.5500  -36.1826 O   0  0  0  0  0  0  0  0  0  0  0  0
   21.3841  -56.5540  -36.3804 C   0  0  2  0  0  0  0  0  0  0  0  0
   22.6237  -55.9480  -37.0200 C   0  0  0  0  0  0  0  0  0  0  0  0
   23.6117  -56.9695  -37.1438 O   0  0  0  0  0  0  0  0  0  0  0  0
   25.0658  -56.6634  -37.7665 P   0  0  0  0  0  0  0  0  0  0  0  0
   25.6714  -55.6228  -36.8533 O   0  0  0  0  0  0  0  0  0  0  0  0
   24.7454  -56.1601  -39.1540 O   0  0  0  0  0  0  0  0  0  0  0  0
   25.7556  -58.0068  -37.7223 O   0  0  0  0  0  0  0  0  0  0  0  0
  1  2  2  0  0  0  0
  2  4  1  0  0  0  0
  2  3  1  0  0  0  0
  4  7  1  0  0  0  0
  5  9  1  0  0  0  0
  5  4  2  0  0  0  0
  6  5  1  0  0  0  0
  8  7  2  0  0  0  0
  9  8  1  0  0  0  0
 10 15  1  0  0  0  0
 10  9  1  6  0  0  0
 10 11  1  0  0  0  0
 11 14  1  1  0  0  0
 11 12  1  0  0  0  0
 12 13  1  1  0  0  0
 15 16  1  0  0  0  0
 16 12  1  0  0  0  0
 16 17  1  6  0  0  0
 17 18  1  0  0  0  0
 18 19  1  0  0  0  0
 19 21  1  0  0  0  0
 19 20  1  0  0  0  0
 22 19  2  0  0  0  0
M  END
>  <CHROM.1>
179.53522552,-141.02547258,-65.23794379,-179.10422114,60.68058091,21.12214851
-55.15114547,-37.63713742,-2.43606457,0.01335534,3.03170079

>  <Name>
lig.pdb

>  <RI>
0

>  <Rbt.Current_Directory>
/home/itssahil/PROJECTS/Mol_Feturizer/New_Systems/rnas/5btp

>  <Rbt.Executable>
rbdock ($Id: //depot/dev/client3/rdock/2013.1/src/exe/rbdock.cxx#4 $)

>  <Rbt.Library>
libRbt.so (2013.1, Build901 2013/11/27)

>  <Rbt.Parameter_File>
/export/apps/rDock/src/rDock_2013.1_src/data/scripts/dock_solv.prm

>  <Rbt.Receptor>
prm/pocket_docking_7.prm

>  <SCORE>
-8.71282

>  <SCORE.INTER>
-8.23313

>  <SCORE.INTER.CONST>
1

>  <SCORE.INTER.POLAR>
0

>  <SCORE.INTER.ROT>
5

>  <SCORE.INTER.SOLV>
14.4757

>  <SCORE.INTER.VDW>
-17.2473

>  <SCORE.INTER.norm>
-0.374233

>  <SCORE.INTRA>
-0.479689

>  <SCORE.INTRA.DIHEDRAL>
-1.67785

>  <SCORE.INTRA.DIHEDRAL.0>
4.21161

>  <SCORE.INTRA.POLAR>
0

>  <SCORE.INTRA.POLAR.0>
0

>  <SCORE.INTRA.REPUL>
0

>  <SCORE.INTRA.REPUL.0>
0

>  <SCORE.INTRA.SOLV>
0.491501

>  <SCORE.INTRA.SOLV.lig_0>
-41.4168

>  <SCORE.INTRA.VDW>
0.113484

>  <SCORE.INTRA.VDW.0>
-1.62533

>  <SCORE.INTRA.norm>
-0.021804

>  <SCORE.RESTR>
0

>  <SCORE.RESTR.CAVITY>
0

>  <SCORE.RESTR.norm>
0

>  <SCORE.SYSTEM>
0

>  <SCORE.SYSTEM.CONST>
0

>  <SCORE.SYSTEM.DIHEDRAL>
0

>  <SCORE.SYSTEM.SOLV>
0

>  <SCORE.SYSTEM.norm>
0

>  <SCORE.heavy>
22

>  <SCORE.norm>
-0.396037

>  <RMSD>
5.840

$$$$
lig.pdb
 OpenBabel11021811523D
libRbt.so/2013.1/901 2013/11/27
 22 23  0  0  0  0  0  0  0  0999 V2000
   21.3743  -62.0249  -31.7202 O   0  0  0  0  0  0  0  0  0  0  0  0
   21.5833  -60.8342  -31.5477 C   0  0  0  0  0  0  0  0  0  0  0  0
   22.1123  -60.3702  -30.4156 N   0  0  0  0  0  0  0  0  0  0  0  0
   21.2263  -59.8633  -32.6205 C   0  0  0  0  0  0  0  0  0  0  0  0
   20.6697  -60.2434  -33.9284 C   0  0  0  0  0  0  0  0  0  0  0  0
   20.3945  -61.6071  -34.3618 N   0  0  0  0  0  0  0  0  0  0  0  0
   21.2930  -58.5151  -32.6853 N   0  0  0  0  0  0  0  0  0  0  0  0
   20.8254  -58.1208  -33.9103 C   0  0  0  0  0  0  0  0  0  0  0  0
   20.4446  -59.1708  -34.6701 N   0  0  0  0  0  0  0  0  0  0  0  0
   19.8891  -59.1358  -36.0431 C   0  0  1  0  0  0  0  0  0  0  0  0
   18.7588  -58.1240  -36.1350 C   0  0  1  0  0  0  0  0  0  0  0  0
   18.8732  -57.6156  -37.5493 C   0  0  2  0  0  0  0  0  0  0  0  0
   18.1801  -58.5024  -38.4298 O   0  0  0  0  0  0  0  0  0  0  0  0
   17.4899  -58.7489  -35.9372 O   0  0  0  0  0  0  0  0  0  0  0  0
   20.8812  -58.7275  -36.9924 O   0  0  0  0  0  0  0  0  0  0  0  0
   20.3603  -57.6965  -37.8348 C   0  0  2  0  0  0  0  0  0  0  0  0
   21.0258  -56.3668  -37.5156 C   0  0  0  0  0  0  0  0  0  0  0  0
   22.4144  -56.4726  -37.8247 O   0  0  0  0  0  0  0  0  0  0  0  0
   23.4318  -55.2522  -37.5571 P   0  0  0  0  0  0  0  0  0  0  0  0
   24.3099  -55.7173  -36.4185 O   0  0  0  0  0  0  0  0  0  0  0  0
   22.5104  -54.1092  -37.2030 O   0  0  0  0  0  0  0  0  0  0  0  0
   24.1523  -55.1013  -38.8764 O   0  0  0  0  0  0  0  0  0  0  0  0
  1  2  2  0  0  0  0
  2  4  1  0  0  0  0
  2  3  1  0  0  0  0
  4  7  1  0  0  0  0
  5  9  1  0  0  0  0
  5  4  2  0  0  0  0
  6  5  1  0  0  0  0
  8  7  2  0  0  0  0
  9  8  1  0  0  0  0
 10 15  1  0  0  0  0
 10  9  1  1  0  0  0
 10 11  1  0  0  0  0
 11 14  1  6  0  0  0
 11 12  1  0  0  0  0
 12 13  1  6  0  0  0
 15 16  1  0  0  0  0
 16 12  1  0  0  0  0
 16 17  1  1  0  0  0
 17 18  1  0  0  0  0
 18 19  1  0  0  0  0
 19 21  1  0  0  0  0
 19 20  1  0  0  0  0
 22 19  2  0  0  0  0
M  END
>  <CHROM.1>
-2.34755953,130.84045509,-178.70183915,-177.87301187,110.60508672,21.16941638
-58.05502959,-35.66658528,-1.83824336,-0.48904427,-0.94196081

>  <Name>
lig.pdb

>  <RI>
0

>  <Rbt.Current_Directory>
/home/itssahil/PROJECTS/Mol_Feturizer/New_Systems/rnas/5btp

>  <Rbt.Executable>
rbdock ($Id: //depot/dev/client3/rdock/2013.1/src/exe/rbdock.cxx#4 $)

>  <Rbt.Library>
libRbt.so (2013.1, Build901 2013/11/27)

>  <Rbt.Parameter_File>
/export/apps/rDock/src/rDock_2013.1_src/data/scripts/dock_solv.prm

>  <Rbt.Receptor>
prm/pocket_docking_7.prm

>  <SCORE>
-7.6458

>  <SCORE.INTER>
-7.97835

>  <SCORE.INTER.CONST>
1

>  <SCORE.INTER.POLAR>
0

>  <SCORE.INTER.ROT>
5

>  <SCORE.INTER.SOLV>
14.309

>  <SCORE.INTER.VDW>
-17.0219

>  <SCORE.INTER.norm>
-0.362652

>  <SCORE.INTRA>
0.332551

>  <SCORE.INTRA.DIHEDRAL>
0.508274

>  <SCORE.INTRA.DIHEDRAL.0>
4.21161

>  <SCORE.INTRA.POLAR>
0

>  <SCORE.INTRA.POLAR.0>
0

>  <SCORE.INTRA.REPUL>
0

>  <SCORE.INTRA.REPUL.0>
0

>  <SCORE.INTRA.SOLV>
-0.524161

>  <SCORE.INTRA.SOLV.lig_0>
-41.4168

>  <SCORE.INTRA.VDW>
0.340494

>  <SCORE.INTRA.VDW.0>
-1.62533

>  <SCORE.INTRA.norm>
0.0151159

>  <SCORE.RESTR>
0

>  <SCORE.RESTR.CAVITY>
0

>  <SCORE.RESTR.norm>
0

>  <SCORE.SYSTEM>
0

>  <SCORE.SYSTEM.CONST>
0

>  <SCORE.SYSTEM.DIHEDRAL>
0

>  <SCORE.SYSTEM.SOLV>
0

>  <SCORE.SYSTEM.norm>
0

>  <SCORE.heavy>
22

>  <SCORE.norm>
-0.347536

>  <RMSD>
5.893

$$$$
lig.pdb
 OpenBabel11021811523D
libRbt.so/2013.1/901 2013/11/27
 22 23  0  0  0  0  0  0  0  0999 V2000
   20.5298  -61.3871  -34.5737 O   0  0  0  0  0  0  0  0  0  0  0  0
   20.7791  -60.9072  -33.4789 C   0  0  0  0  0  0  0  0  0  0  0  0
   20.7742  -61.6464  -32.3697 N   0  0  0  0  0  0  0  0  0  0  0  0
   21.0836  -59.4525  -33.3671 C   0  0  0  0  0  0  0  0  0  0  0  0
   21.0946  -58.5199  -34.5051 C   0  0  0  0  0  0  0  0  0  0  0  0
   20.8178  -58.8786  -35.8899 N   0  0  0  0  0  0  0  0  0  0  0  0
   21.3887  -58.6662  -32.3112 N   0  0  0  0  0  0  0  0  0  0  0  0
   21.5677  -57.3873  -32.7663 C   0  0  0  0  0  0  0  0  0  0  0  0
   21.3891  -57.2943  -34.1020 N   0  0  0  0  0  0  0  0  0  0  0  0
   21.4963  -56.0797  -34.9436 C   0  0  1  0  0  0  0  0  0  0  0  0
   22.5229  -56.2840  -36.0456 C   0  0  1  0  0  0  0  0  0  0  0  0
   21.9701  -55.4605  -37.1806 C   0  0  2  0  0  0  0  0  0  0  0  0
   22.3783  -54.1002  -37.0225 O   0  0  0  0  0  0  0  0  0  0  0  0
   23.8040  -55.7879  -35.6553 O   0  0  0  0  0  0  0  0  0  0  0  0
   20.2529  -55.7884  -35.5925 O   0  0  0  0  0  0  0  0  0  0  0  0
   20.4691  -55.5529  -36.9859 C   0  0  2  0  0  0  0  0  0  0  0  0
   19.9060  -56.7007  -37.8095 C   0  0  0  0  0  0  0  0  0  0  0  0
   18.5656  -56.9437  -37.3859 O   0  0  0  0  0  0  0  0  0  0  0  0
   17.6973  -58.1569  -37.9942 P   0  0  0  0  0  0  0  0  0  0  0  0
   16.6210  -58.4213  -36.9669 O   0  0  0  0  0  0  0  0  0  0  0  0
   18.7105  -59.2685  -38.1314 O   0  0  0  0  0  0  0  0  0  0  0  0
   17.1854  -57.5998  -39.3019 O   0  0  0  0  0  0  0  0  0  0  0  0
  1  2  2  0  0  0  0
  2  4  1  0  0  0  0
  2  3  1  0  0  0  0
  4  7  1  0  0  0  0
  5  9  1  0  0  0  0
  5  4  2  0  0  0  0
  6  5  1  0  0  0  0
  8  7  2  0  0  0  0
  9  8  1  0  0  0  0
 10 15  1  0  0  0  0
 10  9  1  6  0  0  0
 10 11  1  0  0  0  0
 11 14  1  1  0  0  0
 11 12  1  0  0  0  0
 12 13  1  1  0  0  0
 15 16  1  0  0  0  0
 16 12  1  0  0  0  0
 16 17  1  6  0  0  0
 17 18  1  0  0  0  0
 18 19  1  0  0  0  0
 19 21  1  0  0  0  0
 19 20  1  0  0  0  0
 22 19  2  0  0  0  0
M  END
>  <CHROM.1>
0.64441805,-57.09463532,167.52598260,-176.35399579,158.37068431,20.29481883
-57.73523634,-35.86573795,0.83280878,0.66460969,2.45195503

>  <Name>
lig.pdb

>  <RI>
0

>  <Rbt.Current_Directory>
/home/itssahil/PROJECTS/Mol_Feturizer/New_Systems/rnas/5btp

>  <Rbt.Executable>
rbdock ($Id: //depot/dev/client3/rdock/2013.1/src/exe/rbdock.cxx#4 $)

>  <Rbt.Library>
libRbt.so (2013.1, Build901 2013/11/27)

>  <Rbt.Parameter_File>
/export/apps/rDock/src/rDock_2013.1_src/data/scripts/dock_solv.prm

>  <Rbt.Receptor>
prm/pocket_docking_4.prm

>  <SCORE>
-6.98495

>  <SCORE.INTER>
-6.6677

>  <SCORE.INTER.CONST>
1

>  <SCORE.INTER.POLAR>
0

>  <SCORE.INTER.ROT>
5

>  <SCORE.INTER.SOLV>
12.1779

>  <SCORE.INTER.VDW>
-15.4378

>  <SCORE.INTER.norm>
-0.303077

>  <SCORE.INTRA>
-0.317243

>  <SCORE.INTRA.DIHEDRAL>
-0.487721

>  <SCORE.INTRA.DIHEDRAL.0>
4.21161

>  <SCORE.INTRA.POLAR>
0

>  <SCORE.INTRA.POLAR.0>
0

>  <SCORE.INTRA.REPUL>
0

>  <SCORE.INTRA.REPUL.0>
0

>  <SCORE.INTRA.SOLV>
1.80951

>  <SCORE.INTRA.SOLV.lig_0>
-41.4168

>  <SCORE.INTRA.VDW>
-0.978138

>  <SCORE.INTRA.VDW.0>
-1.62533

>  <SCORE.INTRA.norm>
-0.0144201

>  <SCORE.RESTR>
0

>  <SCORE.RESTR.CAVITY>
0

>  <SCORE.RESTR.norm>
0

>  <SCORE.SYSTEM>
0

>  <SCORE.SYSTEM.CONST>
0

>  <SCORE.SYSTEM.DIHEDRAL>
0

>  <SCORE.SYSTEM.SOLV>
0

>  <SCORE.SYSTEM.norm>
0

>  <SCORE.heavy>
22

>  <SCORE.norm>
-0.317498

>  <RMSD>
5.896

$$$$
lig.pdb
 OpenBabel11021811523D
libRbt.so/2013.1/901 2013/11/27
 22 23  0  0  0  0  0  0  0  0999 V2000
   23.3655  -61.2764  -34.3536 O   0  0  0  0  0  0  0  0  0  0  0  0
   22.8093  -60.4396  -33.6597 C   0  0  0  0  0  0  0  0  0  0  0  0
   23.2167  -60.1718  -32.4191 N   0  0  0  0  0  0  0  0  0  0  0  0
   21.6320  -59.7027  -34.2002 C   0  0  0  0  0  0  0  0  0  0  0  0
   21.0604  -59.9241  -35.5378 C   0  0  0  0  0  0  0  0  0  0  0  0
   21.5585  -60.8800  -36.5183 N   0  0  0  0  0  0  0  0  0  0  0  0
   20.8400  -58.7429  -33.6731 N   0  0  0  0  0  0  0  0  0  0  0  0
   19.8870  -58.4161  -34.6002 C   0  0  0  0  0  0  0  0  0  0  0  0
   20.0179  -59.1337  -35.7372 N   0  0  0  0  0  0  0  0  0  0  0  0
   19.1746  -59.0586  -36.9530 C   0  0  1  0  0  0  0  0  0  0  0  0
   17.8009  -58.5031  -36.6152 C   0  0  1  0  0  0  0  0  0  0  0  0
   17.4223  -57.7516  -37.8657 C   0  0  2  0  0  0  0  0  0  0  0  0
   16.8476  -58.6587  -38.8086 O   0  0  0  0  0  0  0  0  0  0  0  0
   16.8657  -59.5542  -36.3697 O   0  0  0  0  0  0  0  0  0  0  0  0
   19.7453  -58.1743  -37.9248 O   0  0  0  0  0  0  0  0  0  0  0  0
   18.7538  -57.2603  -38.3995 C   0  0  2  0  0  0  0  0  0  0  0  0
   19.0373  -55.8581  -37.8833 C   0  0  0  0  0  0  0  0  0  0  0  0
   19.3101  -55.9395  -36.4854 O   0  0  0  0  0  0  0  0  0  0  0  0
   19.7253  -54.6379  -35.6315 P   0  0  0  0  0  0  0  0  0  0  0  0
   20.8609  -54.0085  -36.4046 O   0  0  0  0  0  0  0  0  0  0  0  0
   20.1299  -55.2182  -34.2970 O   0  0  0  0  0  0  0  0  0  0  0  0
   18.4581  -53.8157  -35.6080 O   0  0  0  0  0  0  0  0  0  0  0  0
  1  2  2  0  0  0  0
  2  4  1  0  0  0  0
  2  3  1  0  0  0  0
  4  7  1  0  0  0  0
  5  9  1  0  0  0  0
  5  4  2  0  0  0  0
  6  5  1  0  0  0  0
  8  7  2  0  0  0  0
  9  8  1  0  0  0  0
 10 15  1  0  0  0  0
 10  9  1  1  0  0  0
 10 11  1  0  0  0  0
 11 14  1  6  0  0  0
 11 12  1  0  0  0  0
 12 13  1  6  0  0  0
 15 16  1  0  0  0  0
 16 12  1  0  0  0  0
 16 17  1  1  0  0  0
 17 18  1  0  0  0  0
 18 19  1  0  0  0  0
 19 21  1  0  0  0  0
 19 20  1  0  0  0  0
 22 19  2  0  0  0  0
M  END
>  <CHROM.1>
0.84947151,156.52691609,70.07227794,176.91200239,-51.13862291,19.88392165
-57.79083468,-35.92217242,-0.72988353,-0.74334600,0.12789295

>  <Name>
lig.pdb

>  <RI>
0

>  <Rbt.Current_Directory>
/home/itssahil/PROJECTS/Mol_Feturizer/New_Systems/rnas/5btp

>  <Rbt.Executable>
rbdock ($Id: //depot/dev/client3/rdock/2013.1/src/exe/rbdock.cxx#4 $)

>  <Rbt.Library>
libRbt.so (2013.1, Build901 2013/11/27)

>  <Rbt.Parameter_File>
/export/apps/rDock/src/rDock_2013.1_src/data/scripts/dock_solv.prm

>  <Rbt.Receptor>
prm/pocket_docking_4.prm

>  <SCORE>
-8.16057

>  <SCORE.INTER>
-7.01823

>  <SCORE.INTER.CONST>
1

>  <SCORE.INTER.POLAR>
0

>  <SCORE.INTER.ROT>
5

>  <SCORE.INTER.SOLV>
12.3925

>  <SCORE.INTER.VDW>
-15.743

>  <SCORE.INTER.norm>
-0.319011

>  <SCORE.INTRA>
-1.14234

>  <SCORE.INTRA.DIHEDRAL>
-1.27432

>  <SCORE.INTRA.DIHEDRAL.0>
4.21161

>  <SCORE.INTRA.POLAR>
0

>  <SCORE.INTRA.POLAR.0>
0

>  <SCORE.INTRA.REPUL>
0

>  <SCORE.INTRA.REPUL.0>
0

>  <SCORE.INTRA.SOLV>
0.680811

>  <SCORE.INTRA.SOLV.lig_0>
-41.4168

>  <SCORE.INTRA.VDW>
-0.845585

>  <SCORE.INTRA.VDW.0>
-1.62533

>  <SCORE.INTRA.norm>
-0.0519245

>  <SCORE.RESTR>
0

>  <SCORE.RESTR.CAVITY>
0

>  <SCORE.RESTR.norm>
0

>  <SCORE.SYSTEM>
0

>  <SCORE.SYSTEM.CONST>
0

>  <SCORE.SYSTEM.DIHEDRAL>
0

>  <SCORE.SYSTEM.SOLV>
0

>  <SCORE.SYSTEM.norm>
0

>  <SCORE.heavy>
22

>  <SCORE.norm>
-0.370935

>  <RMSD>
5.897

$$$$
lig.pdb
 OpenBabel11021811523D
libRbt.so/2013.1/901 2013/11/27
 22 23  0  0  0  0  0  0  0  0999 V2000
   23.1951  -60.2854  -32.4942 O   0  0  0  0  0  0  0  0  0  0  0  0
   22.8073  -60.5186  -33.6283 C   0  0  0  0  0  0  0  0  0  0  0  0
   23.3914  -61.4389  -34.3956 N   0  0  0  0  0  0  0  0  0  0  0  0
   21.6596  -59.7477  -34.1848 C   0  0  0  0  0  0  0  0  0  0  0  0
   21.1157  -59.9358  -35.5389 C   0  0  0  0  0  0  0  0  0  0  0  0
   21.6164  -60.8874  -36.5223 N   0  0  0  0  0  0  0  0  0  0  0  0
   20.8762  -58.7789  -33.6615 N   0  0  0  0  0  0  0  0  0  0  0  0
   19.9531  -58.4170  -34.6056 C   0  0  0  0  0  0  0  0  0  0  0  0
   20.0957  -59.1197  -35.7504 N   0  0  0  0  0  0  0  0  0  0  0  0
   19.2837  -59.0074  -36.9845 C   0  0  1  0  0  0  0  0  0  0  0  0
   17.8951  -58.4799  -36.6625 C   0  0  1  0  0  0  0  0  0  0  0  0
   17.5406  -57.6855  -37.8933 C   0  0  2  0  0  0  0  0  0  0  0  0
   17.0015  -58.5620  -38.8849 O   0  0  0  0  0  0  0  0  0  0  0  0
   16.9662  -59.5497  -36.4821 O   0  0  0  0  0  0  0  0  0  0  0  0
   19.8691  -58.0805  -37.9066 O   0  0  0  0  0  0  0  0  0  0  0  0
   18.8797  -57.1598  -38.3726 C   0  0  2  0  0  0  0  0  0  0  0  0
   19.1331  -55.7753  -37.7963 C   0  0  0  0  0  0  0  0  0  0  0  0
   19.3757  -55.9077  -36.3967 O   0  0  0  0  0  0  0  0  0  0  0  0
   19.6855  -54.6259  -35.4711 P   0  0  0  0  0  0  0  0  0  0  0  0
   20.0898  -55.1985  -34.1323 O   0  0  0  0  0  0  0  0  0  0  0  0
   18.3685  -53.8866  -35.4574 O   0  0  0  0  0  0  0  0  0  0  0  0
   20.8005  -53.9224  -36.2088 O   0  0  0  0  0  0  0  0  0  0  0  0
  1  2  2  0  0  0  0
  2  4  1  0  0  0  0
  2  3  1  0  0  0  0
  4  7  1  0  0  0  0
  5  9  1  0  0  0  0
  5  4  2  0  0  0  0
  6  5  1  0  0  0  0
  8  7  2  0  0  0  0
  9  8  1  0  0  0  0
 10 15  1  0  0  0  0
 10  9  1  1  0  0  0
 10 11  1  0  0  0  0
 11 14  1  6  0  0  0
 11 12  1  0  0  0  0
 12 13  1  6  0  0  0
 15 16  1  0  0  0  0
 16 12  1  0  0  0  0
 16 17  1  1  0  0  0
 17 18  1  0  0  0  0
 18 19  1  0  0  0  0
 19 21  1  0  0  0  0
 19 20  1  0  0  0  0
 22 19  2  0  0  0  0
M  END
>  <CHROM.1>
179.49754616,154.22865168,70.31445559,179.86394318,-171.49202627,19.92619285
-57.77596005,-35.87827922,-0.71064177,-0.77815570,0.19081476

>  <Name>
lig.pdb

>  <RI>
0

>  <Rbt.Current_Directory>
/home/itssahil/PROJECTS/Mol_Feturizer/New_Systems/rnas/5btp

>  <Rbt.Executable>
rbdock ($Id: //depot/dev/client3/rdock/2013.1/src/exe/rbdock.cxx#4 $)

>  <Rbt.Library>
libRbt.so (2013.1, Build901 2013/11/27)

>  <Rbt.Parameter_File>
/export/apps/rDock/src/rDock_2013.1_src/data/scripts/dock_solv.prm

>  <Rbt.Receptor>
prm/pocket_docking_4.prm

>  <SCORE>
-8.21442

>  <SCORE.INTER>
-7.24678

>  <SCORE.INTER.CONST>
1

>  <SCORE.INTER.POLAR>
0

>  <SCORE.INTER.ROT>
5

>  <SCORE.INTER.SOLV>
11.5992

>  <SCORE.INTER.VDW>
-15.6309

>  <SCORE.INTER.norm>
-0.329399

>  <SCORE.INTRA>
-0.96764

>  <SCORE.INTRA.DIHEDRAL>
-1.31641

>  <SCORE.INTRA.DIHEDRAL.0>
4.21161

>  <SCORE.INTRA.POLAR>
0

>  <SCORE.INTRA.POLAR.0>
0

>  <SCORE.INTRA.REPUL>
0

>  <SCORE.INTRA.REPUL.0>
0

>  <SCORE.INTRA.SOLV>
0.99171

>  <SCORE.INTRA.SOLV.lig_0>
-41.4168

>  <SCORE.INTRA.VDW>
-0.805291

>  <SCORE.INTRA.VDW.0>
-1.62533

>  <SCORE.INTRA.norm>
-0.0439836

>  <SCORE.RESTR>
0

>  <SCORE.RESTR.CAVITY>
0

>  <SCORE.RESTR.norm>
0

>  <SCORE.SYSTEM>
0

>  <SCORE.SYSTEM.CONST>
0

>  <SCORE.SYSTEM.DIHEDRAL>
0

>  <SCORE.SYSTEM.SOLV>
0

>  <SCORE.SYSTEM.norm>
0

>  <SCORE.heavy>
22

>  <SCORE.norm>
-0.373383

>  <RMSD>
5.901

$$$$
lig.pdb
 OpenBabel11021811523D
libRbt.so/2013.1/901 2013/11/27
 22 23  0  0  0  0  0  0  0  0999 V2000
   23.6001  -62.6572  -34.0454 O   0  0  0  0  0  0  0  0  0  0  0  0
   23.2083  -62.2364  -35.1226 C   0  0  0  0  0  0  0  0  0  0  0  0
   23.7523  -62.6342  -36.2727 N   0  0  0  0  0  0  0  0  0  0  0  0
   22.1018  -61.2388  -35.1626 C   0  0  0  0  0  0  0  0  0  0  0  0
   21.5551  -60.6590  -36.3995 C   0  0  0  0  0  0  0  0  0  0  0  0
   22.0131  -60.9679  -37.7479 N   0  0  0  0  0  0  0  0  0  0  0  0
   21.3642  -60.6598  -34.1895 N   0  0  0  0  0  0  0  0  0  0  0  0
   20.4638  -59.8138  -34.7795 C   0  0  0  0  0  0  0  0  0  0  0  0
   20.5769  -59.8109  -36.1256 N   0  0  0  0  0  0  0  0  0  0  0  0
   19.7766  -59.0281  -37.0960 C   0  0  1  0  0  0  0  0  0  0  0  0
   18.8837  -58.0343  -36.3714 C   0  0  1  0  0  0  0  0  0  0  0  0
   18.8141  -56.8767  -37.3341 C   0  0  2  0  0  0  0  0  0  0  0  0
   17.7912  -57.1242  -38.3008 O   0  0  0  0  0  0  0  0  0  0  0  0
   17.5794  -58.5749  -36.1558 O   0  0  0  0  0  0  0  0  0  0  0  0
   20.6204  -58.2620  -37.9639 O   0  0  0  0  0  0  0  0  0  0  0  0
   20.1645  -56.9083  -38.0231 C   0  0  2  0  0  0  0  0  0  0  0  0
   21.1395  -55.9903  -37.3021 C   0  0  0  0  0  0  0  0  0  0  0  0
   22.3044  -55.8449  -38.1127 O   0  0  0  0  0  0  0  0  0  0  0  0
   23.5341  -54.9079  -37.6591 P   0  0  0  0  0  0  0  0  0  0  0  0
   22.9065  -53.5757  -37.3199 O   0  0  0  0  0  0  0  0  0  0  0  0
   24.4167  -54.8838  -38.8844 O   0  0  0  0  0  0  0  0  0  0  0  0
   24.1146  -55.6418  -36.4731 O   0  0  0  0  0  0  0  0  0  0  0  0
  1  2  2  0  0  0  0
  2  4  1  0  0  0  0
  2  3  1  0  0  0  0
  4  7  1  0  0  0  0
  5  9  1  0  0  0  0
  5  4  2  0  0  0  0
  6  5  1  0  0  0  0
  8  7  2  0  0  0  0
  9  8  1  0  0  0  0
 10 15  1  0  0  0  0
 10  9  1  1  0  0  0
 10 11  1  0  0  0  0
 11 14  1  6  0  0  0
 11 12  1  0  0  0  0
 12 13  1  6  0  0  0
 15 16  1  0  0  0  0
 16 12  1  0  0  0  0
 16 17  1  1  0  0  0
 17 18  1  0  0  0  0
 18 19  1  0  0  0  0
 19 21  1  0  0  0  0
 19 20  1  0  0  0  0
 22 19  2  0  0  0  0
M  END
>  <CHROM.1>
179.65870770,-172.31503682,-169.01334256,178.72541407,-51.55230502,21.52801075
-58.17113942,-36.76803845,-1.64574571,-0.07683279,-0.37144812

>  <Name>
lig.pdb

>  <RI>
0

>  <Rbt.Current_Directory>
/home/itssahil/PROJECTS/Mol_Feturizer/New_Systems/rnas/5btp

>  <Rbt.Executable>
rbdock ($Id: //depot/dev/client3/rdock/2013.1/src/exe/rbdock.cxx#4 $)

>  <Rbt.Library>
libRbt.so (2013.1, Build901 2013/11/27)

>  <Rbt.Parameter_File>
/export/apps/rDock/src/rDock_2013.1_src/data/scripts/dock_solv.prm

>  <Rbt.Receptor>
prm/pocket_docking_6.prm

>  <SCORE>
-9.53388

>  <SCORE.INTER>
-9.2092

>  <SCORE.INTER.CONST>
1

>  <SCORE.INTER.POLAR>
0

>  <SCORE.INTER.ROT>
5

>  <SCORE.INTER.SOLV>
12.6533

>  <SCORE.INTER.VDW>
-17.2906

>  <SCORE.INTER.norm>
-0.4186

>  <SCORE.INTRA>
-0.32468

>  <SCORE.INTRA.DIHEDRAL>
-1.25146

>  <SCORE.INTRA.DIHEDRAL.0>
4.21161

>  <SCORE.INTRA.POLAR>
0

>  <SCORE.INTRA.POLAR.0>
0

>  <SCORE.INTRA.REPUL>
0

>  <SCORE.INTRA.REPUL.0>
0

>  <SCORE.INTRA.SOLV>
0.0294699

>  <SCORE.INTRA.SOLV.lig_0>
-41.4168

>  <SCORE.INTRA.VDW>
0.286314

>  <SCORE.INTRA.VDW.0>
-1.62533

>  <SCORE.INTRA.norm>
-0.0147582

>  <SCORE.RESTR>
0

>  <SCORE.RESTR.CAVITY>
0

>  <SCORE.RESTR.norm>
0

>  <SCORE.SYSTEM>
0

>  <SCORE.SYSTEM.CONST>
0

>  <SCORE.SYSTEM.DIHEDRAL>
0

>  <SCORE.SYSTEM.SOLV>
0

>  <SCORE.SYSTEM.norm>
0

>  <SCORE.heavy>
22

>  <SCORE.norm>
-0.433358

>  <RMSD>
5.903

$$$$
lig.pdb
 OpenBabel11021811523D
libRbt.so/2013.1/901 2013/11/27
 22 23  0  0  0  0  0  0  0  0999 V2000
   21.3213  -62.1416  -31.6701 O   0  0  0  0  0  0  0  0  0  0  0  0
   21.5584  -60.9565  -31.4956 C   0  0  0  0  0  0  0  0  0  0  0  0
   22.0909  -60.5060  -30.3596 N   0  0  0  0  0  0  0  0  0  0  0  0
   21.2331  -59.9767  -32.5704 C   0  0  0  0  0  0  0  0  0  0  0  0
   20.6756  -60.3425  -33.8820 C   0  0  0  0  0  0  0  0  0  0  0  0
   20.3689  -61.6987  -34.3176 N   0  0  0  0  0  0  0  0  0  0  0  0
   21.3343  -58.6306  -32.6344 N   0  0  0  0  0  0  0  0  0  0  0  0
   20.8848  -58.2245  -33.8623 C   0  0  0  0  0  0  0  0  0  0  0  0
   20.4825  -59.2645  -34.6248 N   0  0  0  0  0  0  0  0  0  0  0  0
   19.9371  -59.2153  -36.0015 C   0  0  1  0  0  0  0  0  0  0  0  0
   18.7932  -58.2181  -36.0861 C   0  0  1  0  0  0  0  0  0  0  0  0
   18.9111  -57.6856  -37.4911 C   0  0  2  0  0  0  0  0  0  0  0  0
   18.2374  -58.5678  -38.3911 O   0  0  0  0  0  0  0  0  0  0  0  0
   17.5319  -58.8641  -35.9082 O   0  0  0  0  0  0  0  0  0  0  0  0
   20.9304  -58.7779  -36.9363 O   0  0  0  0  0  0  0  0  0  0  0  0
   20.4013  -57.7409  -37.7662 C   0  0  2  0  0  0  0  0  0  0  0  0
   21.0453  -56.4072  -37.4206 C   0  0  0  0  0  0  0  0  0  0  0  0
   22.3690  -56.3951  -37.9526 O   0  0  0  0  0  0  0  0  0  0  0  0
   23.4181  -55.2326  -37.5734 P   0  0  0  0  0  0  0  0  0  0  0  0
   22.5667  -54.0240  -37.2603 O   0  0  0  0  0  0  0  0  0  0  0  0
   24.2488  -55.0982  -38.8277 O   0  0  0  0  0  0  0  0  0  0  0  0
   24.1543  -55.8001  -36.3825 O   0  0  0  0  0  0  0  0  0  0  0  0
  1  2  2  0  0  0  0
  2  4  1  0  0  0  0
  2  3  1  0  0  0  0
  4  7  1  0  0  0  0
  5  9  1  0  0  0  0
  5  4  2  0  0  0  0
  6  5  1  0  0  0  0
  8  7  2  0  0  0  0
  9  8  1  0  0  0  0
 10 15  1  0  0  0  0
 10  9  1  1  0  0  0
 10 11  1  0  0  0  0
 11 14  1  6  0  0  0
 11 12  1  0  0  0  0
 12 13  1  6  0  0  0
 15 16  1  0  0  0  0
 16 12  1  0  0  0  0
 16 17  1  1  0  0  0
 17 18  1  0  0  0  0
 18 19  1  0  0  0  0
 19 21  1  0  0  0  0
 19 20  1  0  0  0  0
 22 19  2  0  0  0  0
M  END
>  <CHROM.1>
-2.30435188,128.40476998,-167.70514691,-170.12095848,-27.79367548,21.18087528
-58.11388453,-35.63632360,-1.84120068,-0.50133171,-0.93645721

>  <Name>
lig.pdb

>  <RI>
0

>  <Rbt.Current_Directory>
/home/itssahil/PROJECTS/Mol_Feturizer/New_Systems/rnas/5btp

>  <Rbt.Executable>
rbdock ($Id: //depot/dev/client3/rdock/2013.1/src/exe/rbdock.cxx#4 $)

>  <Rbt.Library>
libRbt.so (2013.1, Build901 2013/11/27)

>  <Rbt.Parameter_File>
/export/apps/rDock/src/rDock_2013.1_src/data/scripts/dock_solv.prm

>  <Rbt.Receptor>
prm/pocket_docking_8.prm

>  <SCORE>
-8.70531

>  <SCORE.INTER>
-8.59067

>  <SCORE.INTER.CONST>
1

>  <SCORE.INTER.POLAR>
0

>  <SCORE.INTER.ROT>
5

>  <SCORE.INTER.SOLV>
12.6647

>  <SCORE.INTER.VDW>
-16.882

>  <SCORE.INTER.norm>
-0.390485

>  <SCORE.INTRA>
-0.114648

>  <SCORE.INTRA.DIHEDRAL>
0.549598

>  <SCORE.INTRA.DIHEDRAL.0>
4.21161

>  <SCORE.INTRA.POLAR>
0

>  <SCORE.INTRA.POLAR.0>
0

>  <SCORE.INTRA.REPUL>
0

>  <SCORE.INTRA.REPUL.0>
0

>  <SCORE.INTRA.SOLV>
-0.440865

>  <SCORE.INTRA.SOLV.lig_0>
-41.4168

>  <SCORE.INTRA.VDW>
-0.169014

>  <SCORE.INTRA.VDW.0>
-1.62533

>  <SCORE.INTRA.norm>
-0.00521126

>  <SCORE.RESTR>
0

>  <SCORE.RESTR.CAVITY>
0

>  <SCORE.RESTR.norm>
0

>  <SCORE.SYSTEM>
0

>  <SCORE.SYSTEM.CONST>
0

>  <SCORE.SYSTEM.DIHEDRAL>
0

>  <SCORE.SYSTEM.SOLV>
0

>  <SCORE.SYSTEM.norm>
0

>  <SCORE.heavy>
22

>  <SCORE.norm>
-0.395696

>  <RMSD>
5.924

$$$$
lig.pdb
 OpenBabel11021811523D
libRbt.so/2013.1/901 2013/11/27
 22 23  0  0  0  0  0  0  0  0999 V2000
   22.3791  -58.2982  -32.2267 O   0  0  0  0  0  0  0  0  0  0  0  0
   22.6923  -59.3902  -32.6744 C   0  0  0  0  0  0  0  0  0  0  0  0
   23.5642  -60.1820  -32.0501 N   0  0  0  0  0  0  0  0  0  0  0  0
   22.1006  -59.8531  -33.9615 C   0  0  0  0  0  0  0  0  0  0  0  0
   21.1482  -59.0690  -34.7634 C   0  0  0  0  0  0  0  0  0  0  0  0
   20.6474  -57.7449  -34.4183 N   0  0  0  0  0  0  0  0  0  0  0  0
   22.2607  -60.9864  -34.6801 N   0  0  0  0  0  0  0  0  0  0  0  0
   21.4817  -60.8964  -35.8024 C   0  0  0  0  0  0  0  0  0  0  0  0
   20.8028  -59.7298  -35.8567 N   0  0  0  0  0  0  0  0  0  0  0  0
   19.8693  -59.2782  -36.9149 C   0  0  1  0  0  0  0  0  0  0  0  0
   18.6463  -58.6177  -36.3001 C   0  0  1  0  0  0  0  0  0  0  0  0
   18.2777  -57.5711  -37.3201 C   0  0  2  0  0  0  0  0  0  0  0  0
   17.4714  -58.1651  -38.3395 O   0  0  0  0  0  0  0  0  0  0  0  0
   17.5781  -59.5530  -36.1457 O   0  0  0  0  0  0  0  0  0  0  0  0
   20.4814  -58.2975  -37.7608 O   0  0  0  0  0  0  0  0  0  0  0  0
   19.6138  -57.1718  -37.9156 C   0  0  2  0  0  0  0  0  0  0  0  0
   20.1749  -55.9667  -37.1766 C   0  0  0  0  0  0  0  0  0  0  0  0
   21.5150  -55.7527  -37.6164 O   0  0  0  0  0  0  0  0  0  0  0  0
   22.4889  -54.7075  -36.8713 P   0  0  0  0  0  0  0  0  0  0  0  0
   22.9272  -55.4128  -35.6088 O   0  0  0  0  0  0  0  0  0  0  0  0
   21.5944  -53.5134  -36.6363 O   0  0  0  0  0  0  0  0  0  0  0  0
   23.5957  -54.4836  -37.8749 O   0  0  0  0  0  0  0  0  0  0  0  0
  1  2  2  0  0  0  0
  2  4  1  0  0  0  0
  2  3  1  0  0  0  0
  4  7  1  0  0  0  0
  5  9  1  0  0  0  0
  5  4  2  0  0  0  0
  6  5  1  0  0  0  0
  8  7  2  0  0  0  0
  9  8  1  0  0  0  0
 10 15  1  0  0  0  0
 10  9  1  1  0  0  0
 10 11  1  0  0  0  0
 11 14  1  6  0  0  0
 11 12  1  0  0  0  0
 12 13  1  6  0  0  0
 15 16  1  0  0  0  0
 16 12  1  0  0  0  0
 16 17  1  1  0  0  0
 17 18  1  0  0  0  0
 18 19  1  0  0  0  0
 19 21  1  0  0  0  0
 19 20  1  0  0  0  0
 22 19  2  0  0  0  0
M  END
>  <CHROM.1>
0.50543479,-42.37521818,170.88360216,-169.99960632,76.63435948,21.04796592
-57.67284798,-35.96654439,-1.53686662,-0.61535328,-0.59136109

>  <Name>
lig.pdb

>  <RI>
0

>  <Rbt.Current_Directory>
/home/itssahil/PROJECTS/Mol_Feturizer/New_Systems/rnas/5btp

>  <Rbt.Executable>
rbdock ($Id: //depot/dev/client3/rdock/2013.1/src/exe/rbdock.cxx#4 $)

>  <Rbt.Library>
libRbt.so (2013.1, Build901 2013/11/27)

>  <Rbt.Parameter_File>
/export/apps/rDock/src/rDock_2013.1_src/data/scripts/dock_solv.prm

>  <Rbt.Receptor>
prm/pocket_docking_4.prm

>  <SCORE>
-5.99666

>  <SCORE.INTER>
-5.54794

>  <SCORE.INTER.CONST>
1

>  <SCORE.INTER.POLAR>
0

>  <SCORE.INTER.ROT>
5

>  <SCORE.INTER.SOLV>
10.5567

>  <SCORE.INTER.VDW>
-14.1509

>  <SCORE.INTER.norm>
-0.252179

>  <SCORE.INTRA>
-0.448723

>  <SCORE.INTRA.DIHEDRAL>
-0.572344

>  <SCORE.INTRA.DIHEDRAL.0>
4.21161

>  <SCORE.INTRA.POLAR>
0

>  <SCORE.INTRA.POLAR.0>
0

>  <SCORE.INTRA.REPUL>
0

>  <SCORE.INTRA.REPUL.0>
0

>  <SCORE.INTRA.SOLV>
1.20955

>  <SCORE.INTRA.SOLV.lig_0>
-41.4168

>  <SCORE.INTRA.VDW>
-0.767325

>  <SCORE.INTRA.VDW.0>
-1.62533

>  <SCORE.INTRA.norm>
-0.0203965

>  <SCORE.RESTR>
0

>  <SCORE.RESTR.CAVITY>
0

>  <SCORE.RESTR.norm>
0

>  <SCORE.SYSTEM>
0

>  <SCORE.SYSTEM.CONST>
0

>  <SCORE.SYSTEM.DIHEDRAL>
0

>  <SCORE.SYSTEM.SOLV>
0

>  <SCORE.SYSTEM.norm>
0

>  <SCORE.heavy>
22

>  <SCORE.norm>
-0.272575

>  <RMSD>
5.932

$$$$
lig.pdb
 OpenBabel11021811523D
libRbt.so/2013.1/901 2013/11/27
 22 23  0  0  0  0  0  0  0  0999 V2000
   18.5652  -49.9873  -39.1246 O   0  0  0  0  0  0  0  0  0  0  0  0
   18.9177  -50.7646  -38.2512 C   0  0  0  0  0  0  0  0  0  0  0  0
   19.4787  -50.3416  -37.1185 N   0  0  0  0  0  0  0  0  0  0  0  0
   18.7338  -52.2295  -38.4543 C   0  0  0  0  0  0  0  0  0  0  0  0
   19.0786  -53.2528  -37.4549 C   0  0  0  0  0  0  0  0  0  0  0  0
   19.6472  -52.9871  -36.1399 N   0  0  0  0  0  0  0  0  0  0  0  0
   18.2444  -52.9496  -39.4879 N   0  0  0  0  0  0  0  0  0  0  0  0
   18.2908  -54.2749  -39.1475 C   0  0  0  0  0  0  0  0  0  0  0  0
   18.7981  -54.4635  -37.9097 N   0  0  0  0  0  0  0  0  0  0  0  0
   18.9983  -55.7505  -37.2038 C   0  0  1  0  0  0  0  0  0  0  0  0
   19.0870  -56.8959  -38.1989 C   0  0  1  0  0  0  0  0  0  0  0  0
   20.0388  -57.8537  -37.5292 C   0  0  2  0  0  0  0  0  0  0  0  0
   19.3160  -58.6776  -36.6122 O   0  0  0  0  0  0  0  0  0  0  0  0
   17.8142  -57.5161  -38.3859 O   0  0  0  0  0  0  0  0  0  0  0  0
   20.2279  -55.7518  -36.4688 O   0  0  0  0  0  0  0  0  0  0  0  0
   20.9674  -56.9425  -36.7502 C   0  0  2  0  0  0  0  0  0  0  0  0
   22.1975  -56.6162  -37.5829 C   0  0  0  0  0  0  0  0  0  0  0  0
   23.0531  -55.7747  -36.8116 O   0  0  0  0  0  0  0  0  0  0  0  0
   24.4258  -55.1879  -37.4175 P   0  0  0  0  0  0  0  0  0  0  0  0
   25.0758  -54.4495  -36.2704 O   0  0  0  0  0  0  0  0  0  0  0  0
   23.9513  -54.2958  -38.5400 O   0  0  0  0  0  0  0  0  0  0  0  0
   25.1698  -56.4254  -37.8617 O   0  0  0  0  0  0  0  0  0  0  0  0
  1  2  2  0  0  0  0
  2  4  1  0  0  0  0
  2  3  1  0  0  0  0
  4  7  1  0  0  0  0
  5  9  1  0  0  0  0
  5  4  2  0  0  0  0
  6  5  1  0  0  0  0
  8  7  2  0  0  0  0
  9  8  1  0  0  0  0
 10 15  1  0  0  0  0
 10  9  1  6  0  0  0
 10 11  1  0  0  0  0
 11 14  1  1  0  0  0
 11 12  1  0  0  0  0
 12 13  1  1  0  0  0
 15 16  1  0  0  0  0
 16 12  1  0  0  0  0
 16 17  1  6  0  0  0
 17 18  1  0  0  0  0
 18 19  1  0  0  0  0
 19 21  1  0  0  0  0
 19 20  1  0  0  0  0
 22 19  2  0  0  0  0
M  END
>  <CHROM.1>
-177.84839733,-157.55013849,-179.21063105,-177.45553420,-175.78271039,20.76224839
-54.77944896,-37.64009604,-2.48085122,0.11836098,3.02463021

>  <Name>
lig.pdb

>  <RI>
0

>  <Rbt.Current_Directory>
/home/itssahil/PROJECTS/Mol_Feturizer/New_Systems/rnas/5btp

>  <Rbt.Executable>
rbdock ($Id: //depot/dev/client3/rdock/2013.1/src/exe/rbdock.cxx#4 $)

>  <Rbt.Library>
libRbt.so (2013.1, Build901 2013/11/27)

>  <Rbt.Parameter_File>
/export/apps/rDock/src/rDock_2013.1_src/data/scripts/dock_solv.prm

>  <Rbt.Receptor>
prm/pocket_docking_7.prm

>  <SCORE>
-11.5937

>  <SCORE.INTER>
-11.0225

>  <SCORE.INTER.CONST>
1

>  <SCORE.INTER.POLAR>
0

>  <SCORE.INTER.ROT>
5

>  <SCORE.INTER.SOLV>
15.2041

>  <SCORE.INTER.VDW>
-19.3497

>  <SCORE.INTER.norm>
-0.501025

>  <SCORE.INTRA>
-0.571183

>  <SCORE.INTRA.DIHEDRAL>
-1.70578

>  <SCORE.INTRA.DIHEDRAL.0>
4.21161

>  <SCORE.INTRA.POLAR>
0

>  <SCORE.INTRA.POLAR.0>
0

>  <SCORE.INTRA.REPUL>
0

>  <SCORE.INTRA.REPUL.0>
0

>  <SCORE.INTRA.SOLV>
0.301327

>  <SCORE.INTRA.SOLV.lig_0>
-41.4168

>  <SCORE.INTRA.VDW>
0.131045

>  <SCORE.INTRA.VDW.0>
-1.62533

>  <SCORE.INTRA.norm>
-0.0259628

>  <SCORE.RESTR>
0

>  <SCORE.RESTR.CAVITY>
0

>  <SCORE.RESTR.norm>
0

>  <SCORE.SYSTEM>
0

>  <SCORE.SYSTEM.CONST>
0

>  <SCORE.SYSTEM.DIHEDRAL>
0

>  <SCORE.SYSTEM.SOLV>
0

>  <SCORE.SYSTEM.norm>
0

>  <SCORE.heavy>
22

>  <SCORE.norm>
-0.526988

>  <RMSD>
5.935

$$$$
lig.pdb
 OpenBabel11021811523D
libRbt.so/2013.1/901 2013/11/27
 22 23  0  0  0  0  0  0  0  0999 V2000
   20.9796  -61.7082  -32.4580 O   0  0  0  0  0  0  0  0  0  0  0  0
   21.0660  -61.0461  -33.4804 C   0  0  0  0  0  0  0  0  0  0  0  0
   21.0166  -61.6082  -34.6881 N   0  0  0  0  0  0  0  0  0  0  0  0
   21.2471  -59.5698  -33.3859 C   0  0  0  0  0  0  0  0  0  0  0  0
   21.3221  -58.6696  -34.5473 C   0  0  0  0  0  0  0  0  0  0  0  0
   21.2361  -59.0852  -35.9412 N   0  0  0  0  0  0  0  0  0  0  0  0
   21.3678  -58.7345  -32.3304 N   0  0  0  0  0  0  0  0  0  0  0  0
   21.5039  -57.4582  -32.8068 C   0  0  0  0  0  0  0  0  0  0  0  0
   21.4762  -57.4147  -34.1567 N   0  0  0  0  0  0  0  0  0  0  0  0
   21.5911  -56.2182  -35.0228 C   0  0  1  0  0  0  0  0  0  0  0  0
   22.5933  -56.4626  -36.1389 C   0  0  1  0  0  0  0  0  0  0  0  0
   22.0356  -55.6497  -37.2791 C   0  0  2  0  0  0  0  0  0  0  0  0
   22.4724  -54.2948  -37.1541 O   0  0  0  0  0  0  0  0  0  0  0  0
   23.8905  -55.9841  -35.7810 O   0  0  0  0  0  0  0  0  0  0  0  0
   20.3418  -55.9150  -35.6547 O   0  0  0  0  0  0  0  0  0  0  0  0
   20.5370  -55.7095  -37.0559 C   0  0  2  0  0  0  0  0  0  0  0  0
   19.9373  -56.8613  -37.8476 C   0  0  0  0  0  0  0  0  0  0  0  0
   18.6006  -57.0707  -37.3952 O   0  0  0  0  0  0  0  0  0  0  0  0
   17.8266  -58.4570  -37.6693 P   0  0  0  0  0  0  0  0  0  0  0  0
   18.7177  -59.5259  -37.0804 O   0  0  0  0  0  0  0  0  0  0  0  0
   17.7203  -58.4982  -39.1754 O   0  0  0  0  0  0  0  0  0  0  0  0
   16.5133  -58.2738  -36.9453 O   0  0  0  0  0  0  0  0  0  0  0  0
  1  2  2  0  0  0  0
  2  4  1  0  0  0  0
  2  3  1  0  0  0  0
  4  7  1  0  0  0  0
  5  9  1  0  0  0  0
  5  4  2  0  0  0  0
  6  5  1  0  0  0  0
  8  7  2  0  0  0  0
  9  8  1  0  0  0  0
 10 15  1  0  0  0  0
 10  9  1  1  0  0  0
 10 11  1  0  0  0  0
 11 14  1  1  0  0  0
 11 12  1  0  0  0  0
 12 13  1  1  0  0  0
 15 16  1  0  0  0  0
 16 12  1  0  0  0  0
 16 17  1  6  0  0  0
 17 18  1  0  0  0  0
 18 19  1  0  0  0  0
 19 21  1  0  0  0  0
 19 20  1  0  0  0  0
 22 19  2  0  0  0  0
M  END
>  <CHROM.1>
-178.06401871,-47.65286929,167.50971056,-160.93752379,56.00326513,20.43064228
-57.92472123,-35.81316057,0.93134209,0.63313371,2.46110975

>  <Name>
lig.pdb

>  <RI>
0

>  <Rbt.Current_Directory>
/home/itssahil/PROJECTS/Mol_Feturizer/New_Systems/rnas/5btp

>  <Rbt.Executable>
rbdock ($Id: //depot/dev/client3/rdock/2013.1/src/exe/rbdock.cxx#4 $)

>  <Rbt.Library>
libRbt.so (2013.1, Build901 2013/11/27)

>  <Rbt.Parameter_File>
/export/apps/rDock/src/rDock_2013.1_src/data/scripts/dock_solv.prm

>  <Rbt.Receptor>
prm/pocket_docking_5.prm

>  <SCORE>
-5.61223

>  <SCORE.INTER>
-5.58273

>  <SCORE.INTER.CONST>
1

>  <SCORE.INTER.POLAR>
0

>  <SCORE.INTER.ROT>
5

>  <SCORE.INTER.SOLV>
11.7088

>  <SCORE.INTER.VDW>
-14.5581

>  <SCORE.INTER.norm>
-0.25376

>  <SCORE.INTRA>
-0.0294966

>  <SCORE.INTRA.DIHEDRAL>
0.451005

>  <SCORE.INTRA.DIHEDRAL.0>
4.21161

>  <SCORE.INTRA.POLAR>
0

>  <SCORE.INTRA.POLAR.0>
0

>  <SCORE.INTRA.REPUL>
0

>  <SCORE.INTRA.REPUL.0>
0

>  <SCORE.INTRA.SOLV>
2.0014

>  <SCORE.INTRA.SOLV.lig_0>
-41.4168

>  <SCORE.INTRA.VDW>
-1.2557

>  <SCORE.INTRA.VDW.0>
-1.62533

>  <SCORE.INTRA.norm>
-0.00134075

>  <SCORE.RESTR>
0

>  <SCORE.RESTR.CAVITY>
0

>  <SCORE.RESTR.norm>
0

>  <SCORE.SYSTEM>
0

>  <SCORE.SYSTEM.CONST>
0

>  <SCORE.SYSTEM.DIHEDRAL>
0

>  <SCORE.SYSTEM.SOLV>
0

>  <SCORE.SYSTEM.norm>
0

>  <SCORE.heavy>
22

>  <SCORE.norm>
-0.255101

>  <RMSD>
5.942

$$$$
lig.pdb
 OpenBabel11021811523D
libRbt.so/2013.1/901 2013/11/27
 22 23  0  0  0  0  0  0  0  0999 V2000
   23.3138  -60.1701  -32.6071 O   0  0  0  0  0  0  0  0  0  0  0  0
   22.9052  -60.4049  -33.7336 C   0  0  0  0  0  0  0  0  0  0  0  0
   23.5168  -61.2762  -34.5358 N   0  0  0  0  0  0  0  0  0  0  0  0
   21.6989  -59.6914  -34.2405 C   0  0  0  0  0  0  0  0  0  0  0  0
   21.0970  -59.9210  -35.5634 C   0  0  0  0  0  0  0  0  0  0  0  0
   21.5890  -60.8635  -36.5598 N   0  0  0  0  0  0  0  0  0  0  0  0
   20.9011  -58.7500  -33.6895 N   0  0  0  0  0  0  0  0  0  0  0  0
   19.9174  -58.4407  -34.5902 C   0  0  0  0  0  0  0  0  0  0  0  0
   20.0333  -59.1522  -35.7326 N   0  0  0  0  0  0  0  0  0  0  0  0
   19.1569  -59.0914  -36.9256 C   0  0  1  0  0  0  0  0  0  0  0  0
   17.7949  -58.5260  -36.5579 C   0  0  1  0  0  0  0  0  0  0  0  0
   17.3843  -57.7912  -37.8082 C   0  0  2  0  0  0  0  0  0  0  0  0
   16.7806  -58.7095  -38.7216 O   0  0  0  0  0  0  0  0  0  0  0  0
   16.8633  -59.5700  -36.2715 O   0  0  0  0  0  0  0  0  0  0  0  0
   19.7033  -58.2233  -37.9254 O   0  0  0  0  0  0  0  0  0  0  0  0
   18.7021  -57.3125  -38.3857 C   0  0  2  0  0  0  0  0  0  0  0  0
   19.0044  -55.9041  -37.8978 C   0  0  0  0  0  0  0  0  0  0  0  0
   19.2775  -55.9611  -36.4988 O   0  0  0  0  0  0  0  0  0  0  0  0
   19.6656  -54.6399  -35.6622 P   0  0  0  0  0  0  0  0  0  0  0  0
   19.9900  -55.1378  -34.2728 O   0  0  0  0  0  0  0  0  0  0  0  0
   18.4116  -53.8020  -35.7439 O   0  0  0  0  0  0  0  0  0  0  0  0
   20.8507  -54.0837  -36.4161 O   0  0  0  0  0  0  0  0  0  0  0  0
  1  2  2  0  0  0  0
  2  4  1  0  0  0  0
  2  3  1  0  0  0  0
  4  7  1  0  0  0  0
  5  9  1  0  0  0  0
  5  4  2  0  0  0  0
  6  5  1  0  0  0  0
  8  7  2  0  0  0  0
  9  8  1  0  0  0  0
 10 15  1  0  0  0  0
 10  9  1  1  0  0  0
 10 11  1  0  0  0  0
 11 14  1  6  0  0  0
 11 12  1  0  0  0  0
 12 13  1  6  0  0  0
 15 16  1  0  0  0  0
 16 12  1  0  0  0  0
 16 17  1  1  0  0  0
 17 18  1  0  0  0  0
 18 19  1  0  0  0  0
 19 21  1  0  0  0  0
 19 20  1  0  0  0  0
 22 19  2  0  0  0  0
M  END
>  <CHROM.1>
-178.23492239,158.25372774,68.40792609,178.85708421,-175.19348530,19.87914593
-57.79734181,-35.92930243,-0.71325786,-0.71778991,0.13359933

>  <Name>
lig.pdb

>  <RI>
0

>  <Rbt.Current_Directory>
/home/itssahil/PROJECTS/Mol_Feturizer/New_Systems/rnas/5btp

>  <Rbt.Executable>
rbdock ($Id: //depot/dev/client3/rdock/2013.1/src/exe/rbdock.cxx#4 $)

>  <Rbt.Library>
libRbt.so (2013.1, Build901 2013/11/27)

>  <Rbt.Parameter_File>
/export/apps/rDock/src/rDock_2013.1_src/data/scripts/dock_solv.prm

>  <Rbt.Receptor>
prm/pocket_docking_7.prm

>  <SCORE>
-8.22566

>  <SCORE.INTER>
-7.23179

>  <SCORE.INTER.CONST>
1

>  <SCORE.INTER.POLAR>
0

>  <SCORE.INTER.ROT>
5

>  <SCORE.INTER.SOLV>
11.9283

>  <SCORE.INTER.VDW>
-15.7306

>  <SCORE.INTER.norm>
-0.328718

>  <SCORE.INTRA>
-0.993865

>  <SCORE.INTRA.DIHEDRAL>
-1.5009

>  <SCORE.INTRA.DIHEDRAL.0>
4.21161

>  <SCORE.INTRA.POLAR>
0

>  <SCORE.INTRA.POLAR.0>
0

>  <SCORE.INTRA.REPUL>
0

>  <SCORE.INTRA.REPUL.0>
0

>  <SCORE.INTRA.SOLV>
0.968345

>  <SCORE.INTRA.SOLV.lig_0>
-41.4168

>  <SCORE.INTRA.VDW>
-0.727587

>  <SCORE.INTRA.VDW.0>
-1.62533

>  <SCORE.INTRA.norm>
-0.0451757

>  <SCORE.RESTR>
0

>  <SCORE.RESTR.CAVITY>
0

>  <SCORE.RESTR.norm>
0

>  <SCORE.SYSTEM>
0

>  <SCORE.SYSTEM.CONST>
0

>  <SCORE.SYSTEM.DIHEDRAL>
0

>  <SCORE.SYSTEM.SOLV>
0

>  <SCORE.SYSTEM.norm>
0

>  <SCORE.heavy>
22

>  <SCORE.norm>
-0.373894

>  <RMSD>
5.946

$$$$
lig.pdb
 OpenBabel11021811523D
libRbt.so/2013.1/901 2013/11/27
 22 23  0  0  0  0  0  0  0  0999 V2000
   22.1792  -59.4581  -30.9338 O   0  0  0  0  0  0  0  0  0  0  0  0
   21.6925  -59.9985  -31.9147 C   0  0  0  0  0  0  0  0  0  0  0  0
   21.6307  -61.3252  -32.0282 N   0  0  0  0  0  0  0  0  0  0  0  0
   21.1642  -59.1605  -33.0282 C   0  0  0  0  0  0  0  0  0  0  0  0
   20.5762  -59.7016  -34.2636 C   0  0  0  0  0  0  0  0  0  0  0  0
   20.4310  -61.1172  -34.5768 N   0  0  0  0  0  0  0  0  0  0  0  0
   21.0743  -57.8225  -33.1952 N   0  0  0  0  0  0  0  0  0  0  0  0
   20.4922  -57.5800  -34.4104 C   0  0  0  0  0  0  0  0  0  0  0  0
   20.1871  -58.7222  -35.0640 N   0  0  0  0  0  0  0  0  0  0  0  0
   19.5495  -58.8570  -36.3945 C   0  0  1  0  0  0  0  0  0  0  0  0
   18.1313  -58.3112  -36.3634 C   0  0  1  0  0  0  0  0  0  0  0  0
   17.9480  -57.7646  -37.7561 C   0  0  2  0  0  0  0  0  0  0  0  0
   17.5458  -58.8205  -38.6310 O   0  0  0  0  0  0  0  0  0  0  0  0
   17.1842  -59.3505  -36.1133 O   0  0  0  0  0  0  0  0  0  0  0  0
   20.2561  -58.1022  -37.3859 O   0  0  0  0  0  0  0  0  0  0  0  0
   19.3408  -57.3056  -38.1418 C   0  0  2  0  0  0  0  0  0  0  0  0
   19.5171  -55.8334  -37.8032 C   0  0  0  0  0  0  0  0  0  0  0  0
   19.4429  -55.6852  -36.3863 O   0  0  0  0  0  0  0  0  0  0  0  0
   19.6074  -54.2462  -35.6805 P   0  0  0  0  0  0  0  0  0  0  0  0
   20.9316  -53.7151  -36.1784 O   0  0  0  0  0  0  0  0  0  0  0  0
   19.5878  -54.5823  -34.2082 O   0  0  0  0  0  0  0  0  0  0  0  0
   18.4041  -53.4758  -36.1716 O   0  0  0  0  0  0  0  0  0  0  0  0
  1  2  2  0  0  0  0
  2  4  1  0  0  0  0
  2  3  1  0  0  0  0
  4  7  1  0  0  0  0
  5  9  1  0  0  0  0
  5  4  2  0  0  0  0
  6  5  1  0  0  0  0
  8  7  2  0  0  0  0
  9  8  1  0  0  0  0
 10 15  1  0  0  0  0
 10  9  1  1  0  0  0
 10 11  1  0  0  0  0
 11 14  1  6  0  0  0
 11 12  1  0  0  0  0
 12 13  1  6  0  0  0
 15 16  1  0  0  0  0
 16 12  1  0  0  0  0
 16 17  1  1  0  0  0
 17 18  1  0  0  0  0
 18 19  1  0  0  0  0
 19 21  1  0  0  0  0
 19 20  1  0  0  0  0
 22 19  2  0  0  0  0
M  END
>  <CHROM.1>
179.04236778,115.05783173,64.96556328,179.30013097,-55.05938833,19.81302473
-57.49799132,-35.36353209,-0.89603219,-1.02116722,-0.11059231

>  <Name>
lig.pdb

>  <RI>
0

>  <Rbt.Current_Directory>
/home/itssahil/PROJECTS/Mol_Feturizer/New_Systems/rnas/5btp

>  <Rbt.Executable>
rbdock ($Id: //depot/dev/client3/rdock/2013.1/src/exe/rbdock.cxx#4 $)

>  <Rbt.Library>
libRbt.so (2013.1, Build901 2013/11/27)

>  <Rbt.Parameter_File>
/export/apps/rDock/src/rDock_2013.1_src/data/scripts/dock_solv.prm

>  <Rbt.Receptor>
prm/pocket_docking_6.prm

>  <SCORE>
-8.53381

>  <SCORE.INTER>
-7.04247

>  <SCORE.INTER.CONST>
1

>  <SCORE.INTER.POLAR>
0

>  <SCORE.INTER.ROT>
5

>  <SCORE.INTER.SOLV>
13.0679

>  <SCORE.INTER.VDW>
-15.9843

>  <SCORE.INTER.norm>
-0.320112

>  <SCORE.INTRA>
-1.49134

>  <SCORE.INTRA.DIHEDRAL>
-1.6608

>  <SCORE.INTRA.DIHEDRAL.0>
4.21161

>  <SCORE.INTRA.POLAR>
0

>  <SCORE.INTRA.POLAR.0>
0

>  <SCORE.INTRA.REPUL>
0

>  <SCORE.INTRA.REPUL.0>
0

>  <SCORE.INTRA.SOLV>
1.11275

>  <SCORE.INTRA.SOLV.lig_0>
-41.4168

>  <SCORE.INTRA.VDW>
-1.21731

>  <SCORE.INTRA.VDW.0>
-1.62533

>  <SCORE.INTRA.norm>
-0.067788

>  <SCORE.RESTR>
0

>  <SCORE.RESTR.CAVITY>
0

>  <SCORE.RESTR.norm>
0

>  <SCORE.SYSTEM>
0

>  <SCORE.SYSTEM.CONST>
0

>  <SCORE.SYSTEM.DIHEDRAL>
0

>  <SCORE.SYSTEM.SOLV>
0

>  <SCORE.SYSTEM.norm>
0

>  <SCORE.heavy>
22

>  <SCORE.norm>
-0.3879

>  <RMSD>
5.960

$$$$
lig.pdb
 OpenBabel11021811523D
libRbt.so/2013.1/901 2013/11/27
 22 23  0  0  0  0  0  0  0  0999 V2000
   22.0290  -59.0241  -31.1610 O   0  0  0  0  0  0  0  0  0  0  0  0
   21.5445  -59.6051  -32.1195 C   0  0  0  0  0  0  0  0  0  0  0  0
   21.4691  -60.9349  -32.1707 N   0  0  0  0  0  0  0  0  0  0  0  0
   21.0346  -58.8151  -33.2758 C   0  0  0  0  0  0  0  0  0  0  0  0
   20.4230  -59.4066  -34.4763 C   0  0  0  0  0  0  0  0  0  0  0  0
   20.2336  -60.8325  -34.7088 N   0  0  0  0  0  0  0  0  0  0  0  0
   20.9836  -57.4865  -33.5173 N   0  0  0  0  0  0  0  0  0  0  0  0
   20.4015  -57.2949  -34.7416 C   0  0  0  0  0  0  0  0  0  0  0  0
   20.0584  -58.4622  -35.3286 N   0  0  0  0  0  0  0  0  0  0  0  0
   19.4087  -58.6520  -36.6465 C   0  0  1  0  0  0  0  0  0  0  0  0
   17.9396  -58.2689  -36.5764 C   0  0  1  0  0  0  0  0  0  0  0  0
   17.6637  -57.7301  -37.9568 C   0  0  2  0  0  0  0  0  0  0  0  0
   17.3615  -58.8140  -38.8376 O   0  0  0  0  0  0  0  0  0  0  0  0
   17.1206  -59.4107  -36.3204 O   0  0  0  0  0  0  0  0  0  0  0  0
   20.0031  -57.8112  -37.6423 O   0  0  0  0  0  0  0  0  0  0  0  0
   18.9870  -57.1133  -38.3664 C   0  0  2  0  0  0  0  0  0  0  0  0
   19.0056  -55.6347  -38.0108 C   0  0  0  0  0  0  0  0  0  0  0  0
   19.0604  -55.5139  -36.5904 O   0  0  0  0  0  0  0  0  0  0  0  0
   19.1341  -54.0746  -35.8702 P   0  0  0  0  0  0  0  0  0  0  0  0
   17.8553  -53.3732  -36.2656 O   0  0  0  0  0  0  0  0  0  0  0  0
   20.3843  -53.4619  -36.4557 O   0  0  0  0  0  0  0  0  0  0  0  0
   19.2249  -54.4216  -34.4026 O   0  0  0  0  0  0  0  0  0  0  0  0
  1  2  2  0  0  0  0
  2  4  1  0  0  0  0
  2  3  1  0  0  0  0
  4  7  1  0  0  0  0
  5  9  1  0  0  0  0
  5  4  2  0  0  0  0
  6  5  1  0  0  0  0
  8  7  2  0  0  0  0
  9  8  1  0  0  0  0
 10 15  1  0  0  0  0
 10  9  1  1  0  0  0
 10 11  1  0  0  0  0
 11 14  1  6  0  0  0
 11 12  1  0  0  0  0
 12 13  1  6  0  0  0
 15 16  1  0  0  0  0
 16 12  1  0  0  0  0
 16 17  1  1  0  0  0
 17 18  1  0  0  0  0
 18 19  1  0  0  0  0
 19 21  1  0  0  0  0
 19 20  1  0  0  0  0
 22 19  2  0  0  0  0
M  END
>  <CHROM.1>
-179.50500365,105.94428459,69.69901597,178.28190482,61.81011741,19.54404381
-57.28611551,-35.57985114,-0.77973637,-1.02217589,-0.02256665

>  <Name>
lig.pdb

>  <RI>
0

>  <Rbt.Current_Directory>
/home/itssahil/PROJECTS/Mol_Feturizer/New_Systems/rnas/5btp

>  <Rbt.Executable>
rbdock ($Id: //depot/dev/client3/rdock/2013.1/src/exe/rbdock.cxx#4 $)

>  <Rbt.Library>
libRbt.so (2013.1, Build901 2013/11/27)

>  <Rbt.Parameter_File>
/export/apps/rDock/src/rDock_2013.1_src/data/scripts/dock_solv.prm

>  <Rbt.Receptor>
prm/pocket_docking_5.prm

>  <SCORE>
-8.71255

>  <SCORE.INTER>
-7.44091

>  <SCORE.INTER.CONST>
1

>  <SCORE.INTER.POLAR>
0

>  <SCORE.INTER.ROT>
5

>  <SCORE.INTER.SOLV>
14.369

>  <SCORE.INTER.VDW>
-16.6836

>  <SCORE.INTER.norm>
-0.338223

>  <SCORE.INTRA>
-1.27164

>  <SCORE.INTRA.DIHEDRAL>
-1.44372

>  <SCORE.INTRA.DIHEDRAL.0>
4.21161

>  <SCORE.INTRA.POLAR>
0

>  <SCORE.INTRA.POLAR.0>
0

>  <SCORE.INTRA.REPUL>
0

>  <SCORE.INTRA.REPUL.0>
0

>  <SCORE.INTRA.SOLV>
1.45914

>  <SCORE.INTRA.SOLV.lig_0>
-41.4168

>  <SCORE.INTRA.VDW>
-1.27935

>  <SCORE.INTRA.VDW.0>
-1.62533

>  <SCORE.INTRA.norm>
-0.0578017

>  <SCORE.RESTR>
0

>  <SCORE.RESTR.CAVITY>
0

>  <SCORE.RESTR.norm>
0

>  <SCORE.SYSTEM>
0

>  <SCORE.SYSTEM.CONST>
0

>  <SCORE.SYSTEM.DIHEDRAL>
0

>  <SCORE.SYSTEM.SOLV>
0

>  <SCORE.SYSTEM.norm>
0

>  <SCORE.heavy>
22

>  <SCORE.norm>
-0.396025

>  <RMSD>
5.979

$$$$
lig.pdb
 OpenBabel11021811523D
libRbt.so/2013.1/901 2013/11/27
 22 23  0  0  0  0  0  0  0  0999 V2000
   21.8821  -59.0352  -31.0005 O   0  0  0  0  0  0  0  0  0  0  0  0
   21.4747  -59.6004  -32.0033 C   0  0  0  0  0  0  0  0  0  0  0  0
   21.4414  -60.9297  -32.0965 N   0  0  0  0  0  0  0  0  0  0  0  0
   21.0141  -58.7904  -33.1665 C   0  0  0  0  0  0  0  0  0  0  0  0
   20.4581  -59.3611  -34.4035 C   0  0  0  0  0  0  0  0  0  0  0  0
   20.2835  -60.7829  -34.6702 N   0  0  0  0  0  0  0  0  0  0  0  0
   20.9699  -57.4577  -33.3858 N   0  0  0  0  0  0  0  0  0  0  0  0
   20.4420  -57.2450  -34.6310 C   0  0  0  0  0  0  0  0  0  0  0  0
   20.1288  -58.4021  -35.2538 N   0  0  0  0  0  0  0  0  0  0  0  0
   19.5387  -58.5691  -36.6025 C   0  0  1  0  0  0  0  0  0  0  0  0
   18.0668  -58.1905  -36.5907 C   0  0  1  0  0  0  0  0  0  0  0  0
   17.8508  -57.6271  -37.9719 C   0  0  2  0  0  0  0  0  0  0  0  0
   17.5911  -58.6953  -38.8849 O   0  0  0  0  0  0  0  0  0  0  0  0
   17.2407  -59.3385  -36.3921 O   0  0  0  0  0  0  0  0  0  0  0  0
   20.1742  -57.7090  -37.5555 O   0  0  0  0  0  0  0  0  0  0  0  0
   19.1891  -57.0001  -38.3111 C   0  0  2  0  0  0  0  0  0  0  0  0
   19.1876  -55.5282  -37.9282 C   0  0  0  0  0  0  0  0  0  0  0  0
   19.0794  -55.4323  -36.5090 O   0  0  0  0  0  0  0  0  0  0  0  0
   19.1181  -54.0085  -35.7560 P   0  0  0  0  0  0  0  0  0  0  0  0
   20.4127  -53.3668  -36.1986 O   0  0  0  0  0  0  0  0  0  0  0  0
   19.0834  -54.3920  -34.2956 O   0  0  0  0  0  0  0  0  0  0  0  0
   17.8752  -53.3124  -36.2590 O   0  0  0  0  0  0  0  0  0  0  0  0
  1  2  2  0  0  0  0
  2  4  1  0  0  0  0
  2  3  1  0  0  0  0
  4  7  1  0  0  0  0
  5  9  1  0  0  0  0
  5  4  2  0  0  0  0
  6  5  1  0  0  0  0
  8  7  2  0  0  0  0
  9  8  1  0  0  0  0
 10 15  1  0  0  0  0
 10  9  1  1  0  0  0
 10 11  1  0  0  0  0
 11 14  1  6  0  0  0
 11 12  1  0  0  0  0
 12 13  1  6  0  0  0
 15 16  1  0  0  0  0
 16 12  1  0  0  0  0
 16 17  1  1  0  0  0
 17 18  1  0  0  0  0
 18 19  1  0  0  0  0
 19 21  1  0  0  0  0
 19 20  1  0  0  0  0
 22 19  2  0  0  0  0
M  END
>  <CHROM.1>
-177.61741036,105.94810030,65.47879219,177.09622870,-55.78335666,19.59321254
-57.22310170,-35.50599142,-0.74094335,-1.06979140,0.03663909

>  <Name>
lig.pdb

>  <RI>
0

>  <Rbt.Current_Directory>
/home/itssahil/PROJECTS/Mol_Feturizer/New_Systems/rnas/5btp

>  <Rbt.Executable>
rbdock ($Id: //depot/dev/client3/rdock/2013.1/src/exe/rbdock.cxx#4 $)

>  <Rbt.Library>
libRbt.so (2013.1, Build901 2013/11/27)

>  <Rbt.Parameter_File>
/export/apps/rDock/src/rDock_2013.1_src/data/scripts/dock_solv.prm

>  <Rbt.Receptor>
prm/pocket_docking_5.prm

>  <SCORE>
-8.68364

>  <SCORE.INTER>
-7.1769

>  <SCORE.INTER.CONST>
1

>  <SCORE.INTER.POLAR>
0

>  <SCORE.INTER.ROT>
5

>  <SCORE.INTER.SOLV>
14.2872

>  <SCORE.INTER.VDW>
-16.4803

>  <SCORE.INTER.norm>
-0.326223

>  <SCORE.INTRA>
-1.50674

>  <SCORE.INTRA.DIHEDRAL>
-1.59367

>  <SCORE.INTRA.DIHEDRAL.0>
4.21161

>  <SCORE.INTRA.POLAR>
0

>  <SCORE.INTRA.POLAR.0>
0

>  <SCORE.INTRA.REPUL>
0

>  <SCORE.INTRA.REPUL.0>
0

>  <SCORE.INTRA.SOLV>
1.20369

>  <SCORE.INTRA.SOLV.lig_0>
-41.4168

>  <SCORE.INTRA.VDW>
-1.31175

>  <SCORE.INTRA.VDW.0>
-1.62533

>  <SCORE.INTRA.norm>
-0.0684882

>  <SCORE.RESTR>
0

>  <SCORE.RESTR.CAVITY>
0

>  <SCORE.RESTR.norm>
0

>  <SCORE.SYSTEM>
0

>  <SCORE.SYSTEM.CONST>
0

>  <SCORE.SYSTEM.DIHEDRAL>
0

>  <SCORE.SYSTEM.SOLV>
0

>  <SCORE.SYSTEM.norm>
0

>  <SCORE.heavy>
22

>  <SCORE.norm>
-0.394711

>  <RMSD>
5.981

$$$$
lig.pdb
 OpenBabel11021811523D
libRbt.so/2013.1/901 2013/11/27
 22 23  0  0  0  0  0  0  0  0999 V2000
   21.4853  -60.9219  -32.0813 O   0  0  0  0  0  0  0  0  0  0  0  0
   21.5009  -59.7023  -32.0232 C   0  0  0  0  0  0  0  0  0  0  0  0
   21.9485  -59.0555  -30.9471 N   0  0  0  0  0  0  0  0  0  0  0  0
   20.9934  -58.9059  -33.1762 C   0  0  0  0  0  0  0  0  0  0  0  0
   20.4109  -59.4919  -34.3937 C   0  0  0  0  0  0  0  0  0  0  0  0
   20.2518  -60.9177  -34.6485 N   0  0  0  0  0  0  0  0  0  0  0  0
   20.9212  -57.5752  -33.4004 N   0  0  0  0  0  0  0  0  0  0  0  0
   20.3538  -57.3775  -34.6306 C   0  0  0  0  0  0  0  0  0  0  0  0
   20.0414  -58.5427  -35.2385 N   0  0  0  0  0  0  0  0  0  0  0  0
   19.4150  -58.7262  -36.5685 C   0  0  1  0  0  0  0  0  0  0  0  0
   17.9593  -58.2905  -36.5366 C   0  0  1  0  0  0  0  0  0  0  0  0
   17.7337  -57.7599  -37.9292 C   0  0  2  0  0  0  0  0  0  0  0  0
   17.4129  -58.8436  -38.8037 O   0  0  0  0  0  0  0  0  0  0  0  0
   17.0946  -59.3993  -36.2857 O   0  0  0  0  0  0  0  0  0  0  0  0
   20.0611  -57.9197  -37.5605 O   0  0  0  0  0  0  0  0  0  0  0  0
   19.0870  -57.1956  -38.3159 C   0  0  2  0  0  0  0  0  0  0  0  0
   19.1503  -55.7142  -37.9776 C   0  0  0  0  0  0  0  0  0  0  0  0
   19.1172  -55.5746  -36.5583 O   0  0  0  0  0  0  0  0  0  0  0  0
   19.1634  -54.1265  -35.8534 P   0  0  0  0  0  0  0  0  0  0  0  0
   19.1907  -54.4140  -34.3701 O   0  0  0  0  0  0  0  0  0  0  0  0
   17.8910  -53.4703  -36.3348 O   0  0  0  0  0  0  0  0  0  0  0  0
   20.4357  -53.5153  -36.3920 O   0  0  0  0  0  0  0  0  0  0  0  0
  1  2  2  0  0  0  0
  2  4  1  0  0  0  0
  2  3  1  0  0  0  0
  4  7  1  0  0  0  0
  5  9  1  0  0  0  0
  5  4  2  0  0  0  0
  6  5  1  0  0  0  0
  8  7  2  0  0  0  0
  9  8  1  0  0  0  0
 10 15  1  0  0  0  0
 10  9  1  1  0  0  0
 10 11  1  0  0  0  0
 11 14  1  6  0  0  0
 11 12  1  0  0  0  0
 12 13  1  6  0  0  0
 15 16  1  0  0  0  0
 16 12  1  0  0  0  0
 16 17  1  1  0  0  0
 17 18  1  0  0  0  0
 18 19  1  0  0  0  0
 19 21  1  0  0  0  0
 19 20  1  0  0  0  0
 22 19  2  0  0  0  0
M  END
>  <CHROM.1>
2.50363398,109.41480378,67.14215957,-179.78237603,-176.80087036,19.55600632
-57.35479505,-35.52581646,-0.79607592,-1.04045099,-0.03135538

>  <Name>
lig.pdb

>  <RI>
0

>  <Rbt.Current_Directory>
/home/itssahil/PROJECTS/Mol_Feturizer/New_Systems/rnas/5btp

>  <Rbt.Executable>
rbdock ($Id: //depot/dev/client3/rdock/2013.1/src/exe/rbdock.cxx#4 $)

>  <Rbt.Library>
libRbt.so (2013.1, Build901 2013/11/27)

>  <Rbt.Parameter_File>
/export/apps/rDock/src/rDock_2013.1_src/data/scripts/dock_solv.prm

>  <Rbt.Receptor>
prm/pocket_docking_8.prm

>  <SCORE>
-8.96321

>  <SCORE.INTER>
-7.4451

>  <SCORE.INTER.CONST>
1

>  <SCORE.INTER.POLAR>
0

>  <SCORE.INTER.ROT>
5

>  <SCORE.INTER.SOLV>
14.3825

>  <SCORE.INTER.VDW>
-16.6909

>  <SCORE.INTER.norm>
-0.338413

>  <SCORE.INTRA>
-1.51811

>  <SCORE.INTRA.DIHEDRAL>
-1.5739

>  <SCORE.INTRA.DIHEDRAL.0>
4.21161

>  <SCORE.INTRA.POLAR>
0

>  <SCORE.INTRA.POLAR.0>
0

>  <SCORE.INTRA.REPUL>
0

>  <SCORE.INTRA.REPUL.0>
0

>  <SCORE.INTRA.SOLV>
1.01062

>  <SCORE.INTRA.SOLV.lig_0>
-41.4168

>  <SCORE.INTRA.VDW>
-1.23647

>  <SCORE.INTRA.VDW.0>
-1.62533

>  <SCORE.INTRA.norm>
-0.0690051

>  <SCORE.RESTR>
0

>  <SCORE.RESTR.CAVITY>
0

>  <SCORE.RESTR.norm>
0

>  <SCORE.SYSTEM>
0

>  <SCORE.SYSTEM.CONST>
0

>  <SCORE.SYSTEM.DIHEDRAL>
0

>  <SCORE.SYSTEM.SOLV>
0

>  <SCORE.SYSTEM.norm>
0

>  <SCORE.heavy>
22

>  <SCORE.norm>
-0.407419

>  <RMSD>
5.984

$$$$
lig.pdb
 OpenBabel11021811523D
libRbt.so/2013.1/901 2013/11/27
 22 23  0  0  0  0  0  0  0  0999 V2000
   21.3575  -60.7026  -32.1686 O   0  0  0  0  0  0  0  0  0  0  0  0
   21.5060  -59.4906  -32.1592 C   0  0  0  0  0  0  0  0  0  0  0  0
   22.0485  -58.8569  -31.1196 N   0  0  0  0  0  0  0  0  0  0  0  0
   21.0576  -58.6870  -33.3316 C   0  0  0  0  0  0  0  0  0  0  0  0
   20.4315  -59.2574  -34.5347 C   0  0  0  0  0  0  0  0  0  0  0  0
   20.1663  -60.6732  -34.7547 N   0  0  0  0  0  0  0  0  0  0  0  0
   21.0843  -57.3604  -33.5881 N   0  0  0  0  0  0  0  0  0  0  0  0
   20.5315  -57.1510  -34.8230 C   0  0  0  0  0  0  0  0  0  0  0  0
   20.1325  -58.3042  -35.4025 N   0  0  0  0  0  0  0  0  0  0  0  0
   19.4924  -58.4729  -36.7280 C   0  0  1  0  0  0  0  0  0  0  0  0
   18.0072  -58.1608  -36.6461 C   0  0  1  0  0  0  0  0  0  0  0  0
   17.7069  -57.5825  -38.0052 C   0  0  2  0  0  0  0  0  0  0  0  0
   17.4551  -58.6445  -38.9276 O   0  0  0  0  0  0  0  0  0  0  0  0
   17.2417  -59.3480  -36.4356 O   0  0  0  0  0  0  0  0  0  0  0  0
   20.0476  -57.5680  -37.6897 O   0  0  0  0  0  0  0  0  0  0  0  0
   19.0005  -56.8902  -38.3884 C   0  0  2  0  0  0  0  0  0  0  0  0
   18.9509  -55.4271  -37.9762 C   0  0  0  0  0  0  0  0  0  0  0  0
   19.0062  -55.3583  -36.5523 O   0  0  0  0  0  0  0  0  0  0  0  0
   19.0194  -53.9457  -35.7776 P   0  0  0  0  0  0  0  0  0  0  0  0
   17.7226  -53.2742  -36.1660 O   0  0  0  0  0  0  0  0  0  0  0  0
   20.2555  -53.2686  -36.3205 O   0  0  0  0  0  0  0  0  0  0  0  0
   19.1016  -54.3449  -34.3229 O   0  0  0  0  0  0  0  0  0  0  0  0
  1  2  2  0  0  0  0
  2  4  1  0  0  0  0
  2  3  1  0  0  0  0
  4  7  1  0  0  0  0
  5  9  1  0  0  0  0
  5  4  2  0  0  0  0
  6  5  1  0  0  0  0
  8  7  2  0  0  0  0
  9  8  1  0  0  0  0
 10 15  1  0  0  0  0
 10  9  1  1  0  0  0
 10 11  1  0  0  0  0
 11 14  1  6  0  0  0
 11 12  1  0  0  0  0
 12 13  1  6  0  0  0
 15 16  1  0  0  0  0
 16 12  1  0  0  0  0
 16 17  1  1  0  0  0
 17 18  1  0  0  0  0
 18 19  1  0  0  0  0
 19 21  1  0  0  0  0
 19 20  1  0  0  0  0
 22 19  2  0  0  0  0
M  END
>  <CHROM.1>
0.00042988,99.41018881,69.96236992,178.09951635,60.65034581,19.53190413,-57.14524313
-35.59471821,-0.73336306,-1.04085963,0.04730121

>  <Name>
lig.pdb

>  <RI>
0

>  <Rbt.Current_Directory>
/home/itssahil/PROJECTS/Mol_Feturizer/New_Systems/rnas/5btp

>  <Rbt.Executable>
rbdock ($Id: //depot/dev/client3/rdock/2013.1/src/exe/rbdock.cxx#4 $)

>  <Rbt.Library>
libRbt.so (2013.1, Build901 2013/11/27)

>  <Rbt.Parameter_File>
/export/apps/rDock/src/rDock_2013.1_src/data/scripts/dock_solv.prm

>  <Rbt.Receptor>
prm/pocket_docking_5.prm

>  <SCORE>
-8.67559

>  <SCORE.INTER>
-7.23289

>  <SCORE.INTER.CONST>
1

>  <SCORE.INTER.POLAR>
0

>  <SCORE.INTER.ROT>
5

>  <SCORE.INTER.SOLV>
14.3178

>  <SCORE.INTER.VDW>
-16.5279

>  <SCORE.INTER.norm>
-0.328768

>  <SCORE.INTRA>
-1.4427

>  <SCORE.INTRA.DIHEDRAL>
-1.42709

>  <SCORE.INTRA.DIHEDRAL.0>
4.21161

>  <SCORE.INTRA.POLAR>
0

>  <SCORE.INTRA.POLAR.0>
0

>  <SCORE.INTRA.REPUL>
0

>  <SCORE.INTRA.REPUL.0>
0

>  <SCORE.INTRA.SOLV>
1.24515

>  <SCORE.INTRA.SOLV.lig_0>
-41.4168

>  <SCORE.INTRA.VDW>
-1.35173

>  <SCORE.INTRA.VDW.0>
-1.62533

>  <SCORE.INTRA.norm>
-0.0655772

>  <SCORE.RESTR>
0

>  <SCORE.RESTR.CAVITY>
0

>  <SCORE.RESTR.norm>
0

>  <SCORE.SYSTEM>
0

>  <SCORE.SYSTEM.CONST>
0

>  <SCORE.SYSTEM.DIHEDRAL>
0

>  <SCORE.SYSTEM.SOLV>
0

>  <SCORE.SYSTEM.norm>
0

>  <SCORE.heavy>
22

>  <SCORE.norm>
-0.394345

>  <RMSD>
5.989

$$$$
lig.pdb
 OpenBabel11021811523D
libRbt.so/2013.1/901 2013/11/27
 22 23  0  0  0  0  0  0  0  0999 V2000
   21.4981  -60.9859  -32.0055 O   0  0  0  0  0  0  0  0  0  0  0  0
   21.5350  -59.7663  -31.9561 C   0  0  0  0  0  0  0  0  0  0  0  0
   22.0104  -59.1200  -30.8916 N   0  0  0  0  0  0  0  0  0  0  0  0
   21.0228  -58.9692  -33.1065 C   0  0  0  0  0  0  0  0  0  0  0  0
   20.4316  -59.5542  -34.3203 C   0  0  0  0  0  0  0  0  0  0  0  0
   20.2674  -60.9798  -34.5734 N   0  0  0  0  0  0  0  0  0  0  0  0
   20.9527  -57.6384  -33.3309 N   0  0  0  0  0  0  0  0  0  0  0  0
   20.3785  -57.4399  -34.5578 C   0  0  0  0  0  0  0  0  0  0  0  0
   20.0595  -58.6045  -35.1633 N   0  0  0  0  0  0  0  0  0  0  0  0
   19.4249  -58.7870  -36.4896 C   0  0  1  0  0  0  0  0  0  0  0  0
   17.9867  -58.2963  -36.4640 C   0  0  1  0  0  0  0  0  0  0  0  0
   17.7794  -57.7815  -37.8654 C   0  0  2  0  0  0  0  0  0  0  0  0
   17.4167  -58.8672  -38.7210 O   0  0  0  0  0  0  0  0  0  0  0  0
   17.0812  -59.3672  -36.1936 O   0  0  0  0  0  0  0  0  0  0  0  0
   20.0996  -58.0226  -37.4957 O   0  0  0  0  0  0  0  0  0  0  0  0
   19.1524  -57.2753  -38.2627 C   0  0  2  0  0  0  0  0  0  0  0  0
   19.2720  -55.7918  -37.9500 C   0  0  0  0  0  0  0  0  0  0  0  0
   19.1233  -55.6150  -36.5422 O   0  0  0  0  0  0  0  0  0  0  0  0
   19.1678  -54.1523  -35.8681 P   0  0  0  0  0  0  0  0  0  0  0  0
   17.9390  -53.4437  -36.3893 O   0  0  0  0  0  0  0  0  0  0  0  0
   20.4728  -53.5824  -36.3714 O   0  0  0  0  0  0  0  0  0  0  0  0
   19.1337  -54.4481  -34.3870 O   0  0  0  0  0  0  0  0  0  0  0  0
  1  2  2  0  0  0  0
  2  4  1  0  0  0  0
  2  3  1  0  0  0  0
  4  7  1  0  0  0  0
  5  9  1  0  0  0  0
  5  4  2  0  0  0  0
  6  5  1  0  0  0  0
  8  7  2  0  0  0  0
  9  8  1  0  0  0  0
 10 15  1  0  0  0  0
 10  9  1  1  0  0  0
 10 11  1  0  0  0  0
 11 14  1  6  0  0  0
 11 12  1  0  0  0  0
 12 13  1  6  0  0  0
 15 16  1  0  0  0  0
 16 12  1  0  0  0  0
 16 17  1  1  0  0  0
 17 18  1  0  0  0  0
 18 19  1  0  0  0  0
 19 21  1  0  0  0  0
 19 20  1  0  0  0  0
 22 19  2  0  0  0  0
M  END
>  <CHROM.1>
1.44437451,111.66118842,61.90521469,-178.76554531,66.16148825,19.58054400
-57.40042162,-35.47963571,-0.80755426,-1.03842867,-0.04089421

>  <Name>
lig.pdb

>  <RI>
0

>  <Rbt.Current_Directory>
/home/itssahil/PROJECTS/Mol_Feturizer/New_Systems/rnas/5btp

>  <Rbt.Executable>
rbdock ($Id: //depot/dev/client3/rdock/2013.1/src/exe/rbdock.cxx#4 $)

>  <Rbt.Library>
libRbt.so (2013.1, Build901 2013/11/27)

>  <Rbt.Parameter_File>
/export/apps/rDock/src/rDock_2013.1_src/data/scripts/dock_solv.prm

>  <Rbt.Receptor>
prm/pocket_docking_6.prm

>  <SCORE>
-8.53702

>  <SCORE.INTER>
-7.02912

>  <SCORE.INTER.CONST>
1

>  <SCORE.INTER.POLAR>
0

>  <SCORE.INTER.ROT>
5

>  <SCORE.INTER.SOLV>
14.799

>  <SCORE.INTER.VDW>
-16.5524

>  <SCORE.INTER.norm>
-0.319505

>  <SCORE.INTRA>
-1.5079

>  <SCORE.INTRA.DIHEDRAL>
-1.7001

>  <SCORE.INTRA.DIHEDRAL.0>
4.21161

>  <SCORE.INTRA.POLAR>
0

>  <SCORE.INTRA.POLAR.0>
0

>  <SCORE.INTRA.REPUL>
0

>  <SCORE.INTRA.REPUL.0>
0

>  <SCORE.INTRA.SOLV>
1.05676

>  <SCORE.INTRA.SOLV.lig_0>
-41.4168

>  <SCORE.INTRA.VDW>
-1.18622

>  <SCORE.INTRA.VDW.0>
-1.62533

>  <SCORE.INTRA.norm>
-0.0685408

>  <SCORE.RESTR>
0

>  <SCORE.RESTR.CAVITY>
0

>  <SCORE.RESTR.norm>
0

>  <SCORE.SYSTEM>
0

>  <SCORE.SYSTEM.CONST>
0

>  <SCORE.SYSTEM.DIHEDRAL>
0

>  <SCORE.SYSTEM.SOLV>
0

>  <SCORE.SYSTEM.norm>
0

>  <SCORE.heavy>
22

>  <SCORE.norm>
-0.388046

>  <RMSD>
5.992

$$$$
lig.pdb
 OpenBabel11021811523D
libRbt.so/2013.1/901 2013/11/27
 22 23  0  0  0  0  0  0  0  0999 V2000
   21.3613  -60.6255  -32.1479 O   0  0  0  0  0  0  0  0  0  0  0  0
   21.5026  -59.4126  -32.1571 C   0  0  0  0  0  0  0  0  0  0  0  0
   22.0509  -58.7610  -31.1317 N   0  0  0  0  0  0  0  0  0  0  0  0
   21.0384  -58.6284  -33.3364 C   0  0  0  0  0  0  0  0  0  0  0  0
   20.4338  -59.2228  -34.5390 C   0  0  0  0  0  0  0  0  0  0  0  0
   20.2081  -60.6465  -34.7516 N   0  0  0  0  0  0  0  0  0  0  0  0
   21.0304  -57.3032  -33.6009 N   0  0  0  0  0  0  0  0  0  0  0  0
   20.4782  -57.1162  -34.8397 C   0  0  0  0  0  0  0  0  0  0  0  0
   20.1133  -58.2832  -35.4140 N   0  0  0  0  0  0  0  0  0  0  0  0
   19.4846  -58.4771  -36.7414 C   0  0  1  0  0  0  0  0  0  0  0  0
   17.9971  -58.1720  -36.6761 C   0  0  1  0  0  0  0  0  0  0  0  0
   17.7043  -57.6177  -38.0468 C   0  0  2  0  0  0  0  0  0  0  0  0
   17.4655  -58.6960  -38.9536 O   0  0  0  0  0  0  0  0  0  0  0  0
   17.2364  -59.3599  -36.4522 O   0  0  0  0  0  0  0  0  0  0  0  0
   20.0423  -57.5849  -37.7135 O   0  0  0  0  0  0  0  0  0  0  0  0
   18.9970  -56.9245  -38.4312 C   0  0  2  0  0  0  0  0  0  0  0  0
   18.9362  -55.4552  -38.0434 C   0  0  0  0  0  0  0  0  0  0  0  0
   18.9594  -55.3638  -36.6200 O   0  0  0  0  0  0  0  0  0  0  0  0
   18.9688  -53.9390  -35.8678 P   0  0  0  0  0  0  0  0  0  0  0  0
   17.6852  -53.2640  -36.2922 O   0  0  0  0  0  0  0  0  0  0  0  0
   20.2206  -53.2803  -36.3972 O   0  0  0  0  0  0  0  0  0  0  0  0
   19.0196  -54.3153  -34.4055 O   0  0  0  0  0  0  0  0  0  0  0  0
  1  2  2  0  0  0  0
  2  4  1  0  0  0  0
  2  3  1  0  0  0  0
  4  7  1  0  0  0  0
  5  9  1  0  0  0  0
  5  4  2  0  0  0  0
  6  5  1  0  0  0  0
  8  7  2  0  0  0  0
  9  8  1  0  0  0  0
 10 15  1  0  0  0  0
 10  9  1  1  0  0  0
 10 11  1  0  0  0  0
 11 14  1  6  0  0  0
 11 12  1  0  0  0  0
 12 13  1  6  0  0  0
 15 16  1  0  0  0  0
 16 12  1  0  0  0  0
 16 17  1  1  0  0  0
 17 18  1  0  0  0  0
 18 19  1  0  0  0  0
 19 21  1  0  0  0  0
 19 20  1  0  0  0  0
 22 19  2  0  0  0  0
M  END
>  <CHROM.1>
-1.53076758,100.78855730,69.09290554,177.45432265,60.88041336,19.51195109
-57.13209851,-35.63273381,-0.71196040,-1.04418449,0.05206019

>  <Name>
lig.pdb

>  <RI>
0

>  <Rbt.Current_Directory>
/home/itssahil/PROJECTS/Mol_Feturizer/New_Systems/rnas/5btp

>  <Rbt.Executable>
rbdock ($Id: //depot/dev/client3/rdock/2013.1/src/exe/rbdock.cxx#4 $)

>  <Rbt.Library>
libRbt.so (2013.1, Build901 2013/11/27)

>  <Rbt.Parameter_File>
/export/apps/rDock/src/rDock_2013.1_src/data/scripts/dock_solv.prm

>  <Rbt.Receptor>
prm/pocket_docking_4.prm

>  <SCORE>
-8.61941

>  <SCORE.INTER>
-7.15675

>  <SCORE.INTER.CONST>
1

>  <SCORE.INTER.POLAR>
0

>  <SCORE.INTER.ROT>
5

>  <SCORE.INTER.SOLV>
14.5554

>  <SCORE.INTER.VDW>
-16.5563

>  <SCORE.INTER.norm>
-0.325307

>  <SCORE.INTRA>
-1.46267

>  <SCORE.INTRA.DIHEDRAL>
-1.4612

>  <SCORE.INTRA.DIHEDRAL.0>
4.21161

>  <SCORE.INTRA.POLAR>
0

>  <SCORE.INTRA.POLAR.0>
0

>  <SCORE.INTRA.REPUL>
0

>  <SCORE.INTRA.REPUL.0>
0

>  <SCORE.INTRA.SOLV>
1.23063

>  <SCORE.INTRA.SOLV.lig_0>
-41.4168

>  <SCORE.INTRA.VDW>
-1.34738

>  <SCORE.INTRA.VDW.0>
-1.62533

>  <SCORE.INTRA.norm>
-0.0664848

>  <SCORE.RESTR>
0

>  <SCORE.RESTR.CAVITY>
0

>  <SCORE.RESTR.norm>
0

>  <SCORE.SYSTEM>
0

>  <SCORE.SYSTEM.CONST>
0

>  <SCORE.SYSTEM.DIHEDRAL>
0

>  <SCORE.SYSTEM.SOLV>
0

>  <SCORE.SYSTEM.norm>
0

>  <SCORE.heavy>
22

>  <SCORE.norm>
-0.391791

>  <RMSD>
6.006

$$$$
lig.pdb
 OpenBabel11021811523D
libRbt.so/2013.1/901 2013/11/27
 22 23  0  0  0  0  0  0  0  0999 V2000
   21.5619  -60.9273  -32.1047 O   0  0  0  0  0  0  0  0  0  0  0  0
   21.6321  -59.7087  -32.0702 C   0  0  0  0  0  0  0  0  0  0  0  0
   22.1712  -59.0647  -31.0351 N   0  0  0  0  0  0  0  0  0  0  0  0
   21.0888  -58.9097  -33.2049 C   0  0  0  0  0  0  0  0  0  0  0  0
   20.4803  -59.4932  -34.4108 C   0  0  0  0  0  0  0  0  0  0  0  0
   20.3264  -60.9187  -34.6704 N   0  0  0  0  0  0  0  0  0  0  0  0
   21.0001  -57.5783  -33.4189 N   0  0  0  0  0  0  0  0  0  0  0  0
   20.3998  -57.3780  -34.6330 C   0  0  0  0  0  0  0  0  0  0  0  0
   20.0816  -58.5420  -35.2400 N   0  0  0  0  0  0  0  0  0  0  0  0
   19.4230  -58.7227  -36.5548 C   0  0  1  0  0  0  0  0  0  0  0  0
   17.9757  -58.2631  -36.4934 C   0  0  1  0  0  0  0  0  0  0  0  0
   17.7280  -57.7367  -37.8838 C   0  0  2  0  0  0  0  0  0  0  0  0
   17.3703  -58.8199  -38.7446 O   0  0  0  0  0  0  0  0  0  0  0  0
   17.0988  -59.3560  -36.2169 O   0  0  0  0  0  0  0  0  0  0  0  0
   20.0601  -57.9326  -37.5656 O   0  0  0  0  0  0  0  0  0  0  0  0
   19.0814  -57.1969  -38.3037 C   0  0  2  0  0  0  0  0  0  0  0  0
   19.1763  -55.7148  -37.9758 C   0  0  0  0  0  0  0  0  0  0  0  0
   19.1006  -55.5612  -36.5595 O   0  0  0  0  0  0  0  0  0  0  0  0
   19.1486  -54.1074  -35.8666 P   0  0  0  0  0  0  0  0  0  0  0  0
   20.4332  -53.4817  -36.3585 O   0  0  0  0  0  0  0  0  0  0  0  0
   19.1412  -54.4306  -34.3912 O   0  0  0  0  0  0  0  0  0  0  0  0
   17.8949  -53.4354  -36.3753 O   0  0  0  0  0  0  0  0  0  0  0  0
  1  2  2  0  0  0  0
  2  4  1  0  0  0  0
  2  3  1  0  0  0  0
  4  7  1  0  0  0  0
  5  9  1  0  0  0  0
  5  4  2  0  0  0  0
  6  5  1  0  0  0  0
  8  7  2  0  0  0  0
  9  8  1  0  0  0  0
 10 15  1  0  0  0  0
 10  9  1  1  0  0  0
 10 11  1  0  0  0  0
 11 14  1  6  0  0  0
 11 12  1  0  0  0  0
 12 13  1  6  0  0  0
 15 16  1  0  0  0  0
 16 12  1  0  0  0  0
 16 17  1  1  0  0  0
 17 18  1  0  0  0  0
 18 19  1  0  0  0  0
 19 21  1  0  0  0  0
 19 20  1  0  0  0  0
 22 19  2  0  0  0  0
M  END
>  <CHROM.1>
-1.27929583,110.99480631,63.89902698,-179.08554786,-56.12273731,19.58515245
-57.34640702,-35.52804744,-0.78952770,-1.01577816,-0.02134783

>  <Name>
lig.pdb

>  <RI>
0

>  <Rbt.Current_Directory>
/home/itssahil/PROJECTS/Mol_Feturizer/New_Systems/rnas/5btp

>  <Rbt.Executable>
rbdock ($Id: //depot/dev/client3/rdock/2013.1/src/exe/rbdock.cxx#4 $)

>  <Rbt.Library>
libRbt.so (2013.1, Build901 2013/11/27)

>  <Rbt.Parameter_File>
/export/apps/rDock/src/rDock_2013.1_src/data/scripts/dock_solv.prm

>  <Rbt.Receptor>
prm/pocket_docking_7.prm

>  <SCORE>
-8.75224

>  <SCORE.INTER>
-7.11006

>  <SCORE.INTER.CONST>
1

>  <SCORE.INTER.POLAR>
0

>  <SCORE.INTER.ROT>
5

>  <SCORE.INTER.SOLV>
14.4507

>  <SCORE.INTER.VDW>
-16.4903

>  <SCORE.INTER.norm>
-0.323184

>  <SCORE.INTRA>
-1.64218

>  <SCORE.INTRA.DIHEDRAL>
-1.70335

>  <SCORE.INTRA.DIHEDRAL.0>
4.21161

>  <SCORE.INTRA.POLAR>
0

>  <SCORE.INTRA.POLAR.0>
0

>  <SCORE.INTRA.REPUL>
0

>  <SCORE.INTRA.REPUL.0>
0

>  <SCORE.INTRA.SOLV>
0.909043

>  <SCORE.INTRA.SOLV.lig_0>
-41.4168

>  <SCORE.INTRA.VDW>
-1.24503

>  <SCORE.INTRA.VDW.0>
-1.62533

>  <SCORE.INTRA.norm>
-0.0746445

>  <SCORE.RESTR>
0

>  <SCORE.RESTR.CAVITY>
0

>  <SCORE.RESTR.norm>
0

>  <SCORE.SYSTEM>
0

>  <SCORE.SYSTEM.CONST>
0

>  <SCORE.SYSTEM.DIHEDRAL>
0

>  <SCORE.SYSTEM.SOLV>
0

>  <SCORE.SYSTEM.norm>
0

>  <SCORE.heavy>
22

>  <SCORE.norm>
-0.397829

>  <RMSD>
6.012

$$$$
lig.pdb
 OpenBabel11021811523D
libRbt.so/2013.1/901 2013/11/27
 22 23  0  0  0  0  0  0  0  0999 V2000
   21.1773  -61.3646  -32.0684 O   0  0  0  0  0  0  0  0  0  0  0  0
   21.0193  -60.6765  -33.0647 C   0  0  0  0  0  0  0  0  0  0  0  0
   20.6677  -61.2062  -34.2363 N   0  0  0  0  0  0  0  0  0  0  0  0
   21.2379  -59.2046  -32.9825 C   0  0  0  0  0  0  0  0  0  0  0  0
   21.0491  -58.2762  -34.1083 C   0  0  0  0  0  0  0  0  0  0  0  0
   20.6310  -58.6560  -35.4514 N   0  0  0  0  0  0  0  0  0  0  0  0
   21.6158  -58.3970  -31.9670 N   0  0  0  0  0  0  0  0  0  0  0  0
   21.6532  -57.1102  -32.4333 C   0  0  0  0  0  0  0  0  0  0  0  0
   21.3084  -57.0327  -33.7371 N   0  0  0  0  0  0  0  0  0  0  0  0
   21.2320  -55.8159  -34.5788 C   0  0  1  0  0  0  0  0  0  0  0  0
   22.2870  -55.8572  -35.6720 C   0  0  1  0  0  0  0  0  0  0  0  0
   21.6222  -55.1293  -36.8122 C   0  0  2  0  0  0  0  0  0  0  0  0
   21.8122  -53.7221  -36.6519 O   0  0  0  0  0  0  0  0  0  0  0  0
   23.4719  -55.1677  -35.2715 O   0  0  0  0  0  0  0  0  0  0  0  0
   19.9639  -55.7215  -35.2381 O   0  0  0  0  0  0  0  0  0  0  0  0
   20.1523  -55.4544  -36.6299 C   0  0  2  0  0  0  0  0  0  0  0  0
   19.7818  -56.6756  -37.4572 C   0  0  0  0  0  0  0  0  0  0  0  0
   18.4853  -57.1150  -37.0558 O   0  0  0  0  0  0  0  0  0  0  0  0
   17.7982  -58.4178  -37.7088 P   0  0  0  0  0  0  0  0  0  0  0  0
   16.7485  -58.8484  -36.7107 O   0  0  0  0  0  0  0  0  0  0  0  0
   18.9533  -59.3807  -37.8488 O   0  0  0  0  0  0  0  0  0  0  0  0
   17.2402  -57.9020  -39.0146 O   0  0  0  0  0  0  0  0  0  0  0  0
  1  2  2  0  0  0  0
  2  4  1  0  0  0  0
  2  3  1  0  0  0  0
  4  7  1  0  0  0  0
  5  9  1  0  0  0  0
  5  4  2  0  0  0  0
  6  5  1  0  0  0  0
  8  7  2  0  0  0  0
  9  8  1  0  0  0  0
 10 15  1  0  0  0  0
 10  9  1  6  0  0  0
 10 11  1  0  0  0  0
 11 14  1  1  0  0  0
 11 12  1  0  0  0  0
 12 13  1  1  0  0  0
 15 16  1  0  0  0  0
 16 12  1  0  0  0  0
 16 17  1  6  0  0  0
 17 18  1  0  0  0  0
 18 19  1  0  0  0  0
 19 21  1  0  0  0  0
 19 20  1  0  0  0  0
 22 19  2  0  0  0  0
M  END
>  <CHROM.1>
-178.61801660,-66.13283253,168.21822304,-178.44083071,159.15294392,20.25346624
-57.62299088,-35.50899936,0.68975131,0.76420169,2.51765569

>  <Name>
lig.pdb

>  <RI>
0

>  <Rbt.Current_Directory>
/home/itssahil/PROJECTS/Mol_Feturizer/New_Systems/rnas/5btp

>  <Rbt.Executable>
rbdock ($Id: //depot/dev/client3/rdock/2013.1/src/exe/rbdock.cxx#4 $)

>  <Rbt.Library>
libRbt.so (2013.1, Build901 2013/11/27)

>  <Rbt.Parameter_File>
/export/apps/rDock/src/rDock_2013.1_src/data/scripts/dock_solv.prm

>  <Rbt.Receptor>
prm/pocket_docking_8.prm

>  <SCORE>
-6.53077

>  <SCORE.INTER>
-6.36489

>  <SCORE.INTER.CONST>
1

>  <SCORE.INTER.POLAR>
0

>  <SCORE.INTER.ROT>
5

>  <SCORE.INTER.SOLV>
12.158

>  <SCORE.INTER.VDW>
-15.2293

>  <SCORE.INTER.norm>
-0.289313

>  <SCORE.INTRA>
-0.165879

>  <SCORE.INTRA.DIHEDRAL>
-0.640349

>  <SCORE.INTRA.DIHEDRAL.0>
4.21161

>  <SCORE.INTRA.POLAR>
0

>  <SCORE.INTRA.POLAR.0>
0

>  <SCORE.INTRA.REPUL>
0

>  <SCORE.INTRA.REPUL.0>
0

>  <SCORE.INTRA.SOLV>
2.25381

>  <SCORE.INTRA.SOLV.lig_0>
-41.4168

>  <SCORE.INTRA.VDW>
-0.97261

>  <SCORE.INTRA.VDW.0>
-1.62533

>  <SCORE.INTRA.norm>
-0.00753997

>  <SCORE.RESTR>
0

>  <SCORE.RESTR.CAVITY>
0

>  <SCORE.RESTR.norm>
0

>  <SCORE.SYSTEM>
0

>  <SCORE.SYSTEM.CONST>
0

>  <SCORE.SYSTEM.DIHEDRAL>
0

>  <SCORE.SYSTEM.SOLV>
0

>  <SCORE.SYSTEM.norm>
0

>  <SCORE.heavy>
22

>  <SCORE.norm>
-0.296853

>  <RMSD>
6.014

$$$$
lig.pdb
 OpenBabel11021811523D
libRbt.so/2013.1/901 2013/11/27
 22 23  0  0  0  0  0  0  0  0999 V2000
   18.5611  -58.1967  -38.2659 O   0  0  0  0  0  0  0  0  0  0  0  0
   19.0110  -57.2519  -37.6365 C   0  0  0  0  0  0  0  0  0  0  0  0
   19.7993  -57.4255  -36.5757 N   0  0  0  0  0  0  0  0  0  0  0  0
   18.6627  -55.8627  -38.0486 C   0  0  0  0  0  0  0  0  0  0  0  0
   19.1338  -54.6522  -37.3575 C   0  0  0  0  0  0  0  0  0  0  0  0
   19.9944  -54.6354  -36.1818 N   0  0  0  0  0  0  0  0  0  0  0  0
   17.9131  -55.3761  -39.0623 N   0  0  0  0  0  0  0  0  0  0  0  0
   17.9284  -54.0090  -38.9895 C   0  0  0  0  0  0  0  0  0  0  0  0
   18.6712  -53.5644  -37.9525 N   0  0  0  0  0  0  0  0  0  0  0  0
   18.9213  -52.1578  -37.5601 C   0  0  1  0  0  0  0  0  0  0  0  0
   18.4092  -51.8981  -36.1529 C   0  0  1  0  0  0  0  0  0  0  0  0
   19.3758  -50.8692  -35.6250 C   0  0  2  0  0  0  0  0  0  0  0  0
   18.9575  -49.5676  -36.0409 O   0  0  0  0  0  0  0  0  0  0  0  0
   17.0849  -51.3636  -36.1766 O   0  0  0  0  0  0  0  0  0  0  0  0
   20.3237  -51.8664  -37.5447 O   0  0  0  0  0  0  0  0  0  0  0  0
   20.6772  -51.2170  -36.3212 C   0  0  2  0  0  0  0  0  0  0  0  0
   21.5032  -52.1487  -35.4478 C   0  0  0  0  0  0  0  0  0  0  0  0
   22.1057  -51.3770  -34.4103 O   0  0  0  0  0  0  0  0  0  0  0  0
   22.9781  -52.0682  -33.2453 P   0  0  0  0  0  0  0  0  0  0  0  0
   22.0092  -52.2824  -32.1056 O   0  0  0  0  0  0  0  0  0  0  0  0
   24.0493  -51.0412  -32.9642 O   0  0  0  0  0  0  0  0  0  0  0  0
   23.4737  -53.3424  -33.8881 O   0  0  0  0  0  0  0  0  0  0  0  0
  1  2  2  0  0  0  0
  2  4  1  0  0  0  0
  2  3  1  0  0  0  0
  4  7  1  0  0  0  0
  5  9  1  0  0  0  0
  5  4  2  0  0  0  0
  6  5  1  0  0  0  0
  8  7  2  0  0  0  0
  9  8  1  0  0  0  0
 10 15  1  0  0  0  0
 10  9  1  1  0  0  0
 10 11  1  0  0  0  0
 11 14  1  6  0  0  0
 11 12  1  0  0  0  0
 12 13  1  6  0  0  0
 15 16  1  0  0  0  0
 16 12  1  0  0  0  0
 16 17  1  1  0  0  0
 17 18  1  0  0  0  0
 18 19  1  0  0  0  0
 19 21  1  0  0  0  0
 19 20  1  0  0  0  0
 22 19  2  0  0  0  0
M  END
>  <CHROM.1>
179.31050156,-60.40784765,-76.78999830,176.07162581,-94.57612372,20.20674996
-53.14553393,-36.00971630,-2.38907641,-0.70507248,0.21982754

>  <Name>
lig.pdb

>  <RI>
0

>  <Rbt.Current_Directory>
/home/itssahil/PROJECTS/Mol_Feturizer/New_Systems/rnas/5btp

>  <Rbt.Executable>
rbdock ($Id: //depot/dev/client3/rdock/2013.1/src/exe/rbdock.cxx#4 $)

>  <Rbt.Library>
libRbt.so (2013.1, Build901 2013/11/27)

>  <Rbt.Parameter_File>
/export/apps/rDock/src/rDock_2013.1_src/data/scripts/dock_solv.prm

>  <Rbt.Receptor>
prm/pocket_docking_8.prm

>  <SCORE>
-9.74516

>  <SCORE.INTER>
-10.5363

>  <SCORE.INTER.CONST>
1

>  <SCORE.INTER.POLAR>
0

>  <SCORE.INTER.ROT>
5

>  <SCORE.INTER.SOLV>
14.2759

>  <SCORE.INTER.VDW>
-18.7161

>  <SCORE.INTER.norm>
-0.478921

>  <SCORE.INTRA>
0.791102

>  <SCORE.INTRA.DIHEDRAL>
0.727869

>  <SCORE.INTRA.DIHEDRAL.0>
4.21161

>  <SCORE.INTRA.POLAR>
0

>  <SCORE.INTRA.POLAR.0>
0

>  <SCORE.INTRA.REPUL>
0

>  <SCORE.INTRA.REPUL.0>
0

>  <SCORE.INTRA.SOLV>
1.48389

>  <SCORE.INTRA.SOLV.lig_0>
-41.4168

>  <SCORE.INTRA.VDW>
-0.314779

>  <SCORE.INTRA.VDW.0>
-1.62533

>  <SCORE.INTRA.norm>
0.0359592

>  <SCORE.RESTR>
0

>  <SCORE.RESTR.CAVITY>
0

>  <SCORE.RESTR.norm>
0

>  <SCORE.SYSTEM>
0

>  <SCORE.SYSTEM.CONST>
0

>  <SCORE.SYSTEM.DIHEDRAL>
0

>  <SCORE.SYSTEM.SOLV>
0

>  <SCORE.SYSTEM.norm>
0

>  <SCORE.heavy>
22

>  <SCORE.norm>
-0.442962

>  <RMSD>
6.021

$$$$
lig.pdb
 OpenBabel11021811523D
libRbt.so/2013.1/901 2013/11/27
 22 23  0  0  0  0  0  0  0  0999 V2000
   20.6737  -61.0323  -33.8511 O   0  0  0  0  0  0  0  0  0  0  0  0
   21.0707  -60.5116  -32.8204 C   0  0  0  0  0  0  0  0  0  0  0  0
   21.2934  -61.2218  -31.7146 N   0  0  0  0  0  0  0  0  0  0  0  0
   21.3010  -59.0396  -32.7831 C   0  0  0  0  0  0  0  0  0  0  0  0
   21.0566  -58.1351  -33.9176 C   0  0  0  0  0  0  0  0  0  0  0  0
   20.5648  -58.5419  -35.2275 N   0  0  0  0  0  0  0  0  0  0  0  0
   21.7371  -58.2122  -31.8077 N   0  0  0  0  0  0  0  0  0  0  0  0
   21.7560  -56.9363  -32.3040 C   0  0  0  0  0  0  0  0  0  0  0  0
   21.3419  -56.8854  -33.5888 N   0  0  0  0  0  0  0  0  0  0  0  0
   21.2266  -55.6870  -34.4522 C   0  0  1  0  0  0  0  0  0  0  0  0
   22.3000  -55.7002  -35.5281 C   0  0  1  0  0  0  0  0  0  0  0  0
   21.6229  -55.0208  -36.6907 C   0  0  2  0  0  0  0  0  0  0  0  0
   21.7491  -53.6041  -36.5515 O   0  0  0  0  0  0  0  0  0  0  0  0
   23.4473  -54.9533  -35.1210 O   0  0  0  0  0  0  0  0  0  0  0  0
   19.9664  -55.6588  -35.1327 O   0  0  0  0  0  0  0  0  0  0  0  0
   20.1658  -55.4066  -36.5258 C   0  0  2  0  0  0  0  0  0  0  0  0
   19.8620  -56.6562  -37.3378 C   0  0  0  0  0  0  0  0  0  0  0  0
   18.5599  -57.1184  -36.9827 O   0  0  0  0  0  0  0  0  0  0  0  0
   17.9311  -58.4491  -37.6382 P   0  0  0  0  0  0  0  0  0  0  0  0
   17.5033  -58.0364  -39.0275 O   0  0  0  0  0  0  0  0  0  0  0  0
   16.7871  -58.7809  -36.7097 O   0  0  0  0  0  0  0  0  0  0  0  0
   19.0790  -59.4309  -37.6069 O   0  0  0  0  0  0  0  0  0  0  0  0
  1  2  2  0  0  0  0
  2  4  1  0  0  0  0
  2  3  1  0  0  0  0
  4  7  1  0  0  0  0
  5  9  1  0  0  0  0
  5  4  2  0  0  0  0
  6  5  1  0  0  0  0
  8  7  2  0  0  0  0
  9  8  1  0  0  0  0
 10 15  1  0  0  0  0
 10  9  1  6  0  0  0
 10 11  1  0  0  0  0
 11 14  1  1  0  0  0
 11 12  1  0  0  0  0
 12 13  1  1  0  0  0
 15 16  1  0  0  0  0
 16 12  1  0  0  0  0
 16 17  1  6  0  0  0
 17 18  1  0  0  0  0
 18 19  1  0  0  0  0
 19 21  1  0  0  0  0
 19 20  1  0  0  0  0
 22 19  2  0  0  0  0
M  END
>  <CHROM.1>
1.20558489,-71.03272367,170.21034412,-178.76419734,-76.35757455,20.30480486
-57.53598079,-35.37447944,0.65267598,0.79959863,2.50392032

>  <Name>
lig.pdb

>  <RI>
0

>  <Rbt.Current_Directory>
/home/itssahil/PROJECTS/Mol_Feturizer/New_Systems/rnas/5btp

>  <Rbt.Executable>
rbdock ($Id: //depot/dev/client3/rdock/2013.1/src/exe/rbdock.cxx#4 $)

>  <Rbt.Library>
libRbt.so (2013.1, Build901 2013/11/27)

>  <Rbt.Parameter_File>
/export/apps/rDock/src/rDock_2013.1_src/data/scripts/dock_solv.prm

>  <Rbt.Receptor>
prm/pocket_docking_8.prm

>  <SCORE>
-6.53244

>  <SCORE.INTER>
-6.21208

>  <SCORE.INTER.CONST>
1

>  <SCORE.INTER.POLAR>
0

>  <SCORE.INTER.ROT>
5

>  <SCORE.INTER.SOLV>
11.6404

>  <SCORE.INTER.VDW>
-14.9549

>  <SCORE.INTER.norm>
-0.282367

>  <SCORE.INTRA>
-0.32035

>  <SCORE.INTRA.DIHEDRAL>
-1.02829

>  <SCORE.INTRA.DIHEDRAL.0>
4.21161

>  <SCORE.INTRA.POLAR>
0

>  <SCORE.INTRA.POLAR.0>
0

>  <SCORE.INTRA.REPUL>
0.000608921

>  <SCORE.INTRA.REPUL.0>
0

>  <SCORE.INTRA.SOLV>
2.4654

>  <SCORE.INTRA.SOLV.lig_0>
-41.4168

>  <SCORE.INTRA.VDW>
-1.04195

>  <SCORE.INTRA.VDW.0>
-1.62533

>  <SCORE.INTRA.norm>
-0.0145614

>  <SCORE.RESTR>
0

>  <SCORE.RESTR.CAVITY>
0

>  <SCORE.RESTR.norm>
0

>  <SCORE.SYSTEM>
0

>  <SCORE.SYSTEM.CONST>
0

>  <SCORE.SYSTEM.DIHEDRAL>
0

>  <SCORE.SYSTEM.SOLV>
0

>  <SCORE.SYSTEM.norm>
0

>  <SCORE.heavy>
22

>  <SCORE.norm>
-0.296929

>  <RMSD>
6.035

$$$$
lig.pdb
 OpenBabel11021811523D
libRbt.so/2013.1/901 2013/11/27
 22 23  0  0  0  0  0  0  0  0999 V2000
   18.6608  -58.2598  -38.2978 O   0  0  0  0  0  0  0  0  0  0  0  0
   19.1337  -57.3082  -37.6964 C   0  0  0  0  0  0  0  0  0  0  0  0
   19.9948  -57.4692  -36.6916 N   0  0  0  0  0  0  0  0  0  0  0  0
   18.7318  -55.9249  -38.0786 C   0  0  0  0  0  0  0  0  0  0  0  0
   19.1867  -54.7098  -37.3847 C   0  0  0  0  0  0  0  0  0  0  0  0
   20.0809  -54.6822  -36.2346 N   0  0  0  0  0  0  0  0  0  0  0  0
   17.9381  -55.4481  -39.0630 N   0  0  0  0  0  0  0  0  0  0  0  0
   17.9146  -54.0822  -38.9715 C   0  0  0  0  0  0  0  0  0  0  0  0
   18.6742  -53.6289  -37.9505 N   0  0  0  0  0  0  0  0  0  0  0  0
   18.8935  -52.2206  -37.5460 C   0  0  1  0  0  0  0  0  0  0  0  0
   18.3971  -51.9901  -36.1281 C   0  0  1  0  0  0  0  0  0  0  0  0
   19.3447  -50.9419  -35.6035 C   0  0  2  0  0  0  0  0  0  0  0  0
   18.8858  -49.6473  -35.9979 O   0  0  0  0  0  0  0  0  0  0  0  0
   17.0591  -51.4905  -36.1251 O   0  0  0  0  0  0  0  0  0  0  0  0
   20.2878  -51.8924  -37.5491 O   0  0  0  0  0  0  0  0  0  0  0  0
   20.6436  -51.2475  -36.3238 C   0  0  2  0  0  0  0  0  0  0  0  0
   21.5074  -52.1667  -35.4742 C   0  0  0  0  0  0  0  0  0  0  0  0
   22.0559  -51.4040  -34.4006 O   0  0  0  0  0  0  0  0  0  0  0  0
   22.9681  -52.0878  -33.2621 P   0  0  0  0  0  0  0  0  0  0  0  0
   23.4664  -53.3737  -33.8799 O   0  0  0  0  0  0  0  0  0  0  0  0
   22.0004  -52.2829  -32.1190 O   0  0  0  0  0  0  0  0  0  0  0  0
   24.0460  -51.0592  -33.0125 O   0  0  0  0  0  0  0  0  0  0  0  0
  1  2  2  0  0  0  0
  2  4  1  0  0  0  0
  2  3  1  0  0  0  0
  4  7  1  0  0  0  0
  5  9  1  0  0  0  0
  5  4  2  0  0  0  0
  6  5  1  0  0  0  0
  8  7  2  0  0  0  0
  9  8  1  0  0  0  0
 10 15  1  0  0  0  0
 10  9  1  1  0  0  0
 10 11  1  0  0  0  0
 11 14  1  6  0  0  0
 11 12  1  0  0  0  0
 12 13  1  6  0  0  0
 15 16  1  0  0  0  0
 16 12  1  0  0  0  0
 16 17  1  1  0  0  0
 17 18  1  0  0  0  0
 18 19  1  0  0  0  0
 19 21  1  0  0  0  0
 19 20  1  0  0  0  0
 22 19  2  0  0  0  0
M  END
>  <CHROM.1>
176.98271060,-61.24116846,-74.10859956,176.99479357,20.54784887,20.21836791
-53.19527127,-36.02010470,-2.35504960,-0.69097625,0.25479796

>  <Name>
lig.pdb

>  <RI>
0

>  <Rbt.Current_Directory>
/home/itssahil/PROJECTS/Mol_Feturizer/New_Systems/rnas/5btp

>  <Rbt.Executable>
rbdock ($Id: //depot/dev/client3/rdock/2013.1/src/exe/rbdock.cxx#4 $)

>  <Rbt.Library>
libRbt.so (2013.1, Build901 2013/11/27)

>  <Rbt.Parameter_File>
/export/apps/rDock/src/rDock_2013.1_src/data/scripts/dock_solv.prm

>  <Rbt.Receptor>
prm/pocket_docking_8.prm

>  <SCORE>
-9.20637

>  <SCORE.INTER>
-9.78641

>  <SCORE.INTER.CONST>
1

>  <SCORE.INTER.POLAR>
0

>  <SCORE.INTER.ROT>
5

>  <SCORE.INTER.SOLV>
15.8375

>  <SCORE.INTER.VDW>
-18.7368

>  <SCORE.INTER.norm>
-0.444837

>  <SCORE.INTRA>
0.580044

>  <SCORE.INTRA.DIHEDRAL>
0.743353

>  <SCORE.INTRA.DIHEDRAL.0>
4.21161

>  <SCORE.INTRA.POLAR>
0

>  <SCORE.INTRA.POLAR.0>
0

>  <SCORE.INTRA.REPUL>
0

>  <SCORE.INTRA.REPUL.0>
0

>  <SCORE.INTRA.SOLV>
1.21645

>  <SCORE.INTRA.SOLV.lig_0>
-41.4168

>  <SCORE.INTRA.VDW>
-0.39986

>  <SCORE.INTRA.VDW.0>
-1.62533

>  <SCORE.INTRA.norm>
0.0263656

>  <SCORE.RESTR>
0

>  <SCORE.RESTR.CAVITY>
0

>  <SCORE.RESTR.norm>
0

>  <SCORE.SYSTEM>
0

>  <SCORE.SYSTEM.CONST>
0

>  <SCORE.SYSTEM.DIHEDRAL>
0

>  <SCORE.SYSTEM.SOLV>
0

>  <SCORE.SYSTEM.norm>
0

>  <SCORE.heavy>
22

>  <SCORE.norm>
-0.418471

>  <RMSD>
6.056

$$$$
lig.pdb
 OpenBabel11021811523D
libRbt.so/2013.1/901 2013/11/27
 22 23  0  0  0  0  0  0  0  0999 V2000
   22.1474  -58.5308  -31.1746 O   0  0  0  0  0  0  0  0  0  0  0  0
   21.6607  -59.1573  -32.1029 C   0  0  0  0  0  0  0  0  0  0  0  0
   21.5905  -60.4883  -32.0926 N   0  0  0  0  0  0  0  0  0  0  0  0
   21.1418  -58.4233  -33.2917 C   0  0  0  0  0  0  0  0  0  0  0  0
   20.5621  -59.0739  -34.4773 C   0  0  0  0  0  0  0  0  0  0  0  0
   20.4170  -60.5120  -34.6618 N   0  0  0  0  0  0  0  0  0  0  0  0
   21.0552  -57.1059  -33.5802 N   0  0  0  0  0  0  0  0  0  0  0  0
   20.4824  -56.9743  -34.8168 C   0  0  0  0  0  0  0  0  0  0  0  0
   20.1804  -58.1709  -35.3662 N   0  0  0  0  0  0  0  0  0  0  0  0
   19.5523  -58.4254  -36.6836 C   0  0  1  0  0  0  0  0  0  0  0  0
   18.0603  -58.1414  -36.6264 C   0  0  1  0  0  0  0  0  0  0  0  0
   17.7563  -57.6448  -38.0166 C   0  0  2  0  0  0  0  0  0  0  0  0
   17.5329  -58.7608  -38.8808 O   0  0  0  0  0  0  0  0  0  0  0  0
   17.3190  -59.3317  -36.3552 O   0  0  0  0  0  0  0  0  0  0  0  0
   20.0941  -57.5625  -37.6905 O   0  0  0  0  0  0  0  0  0  0  0  0
   19.0372  -56.9467  -38.4305 C   0  0  2  0  0  0  0  0  0  0  0  0
   18.9539  -55.4647  -38.0992 C   0  0  0  0  0  0  0  0  0  0  0  0
   19.0084  -55.3165  -36.6814 O   0  0  0  0  0  0  0  0  0  0  0  0
   18.9777  -53.8639  -35.9849 P   0  0  0  0  0  0  0  0  0  0  0  0
   17.7049  -53.2186  -36.4818 O   0  0  0  0  0  0  0  0  0  0  0  0
   20.2425  -53.2134  -36.4932 O   0  0  0  0  0  0  0  0  0  0  0  0
   18.9776  -54.1835  -34.5084 O   0  0  0  0  0  0  0  0  0  0  0  0
  1  2  2  0  0  0  0
  2  4  1  0  0  0  0
  2  3  1  0  0  0  0
  4  7  1  0  0  0  0
  5  9  1  0  0  0  0
  5  4  2  0  0  0  0
  6  5  1  0  0  0  0
  8  7  2  0  0  0  0
  9  8  1  0  0  0  0
 10 15  1  0  0  0  0
 10  9  1  1  0  0  0
 10 11  1  0  0  0  0
 11 14  1  6  0  0  0
 11 12  1  0  0  0  0
 12 13  1  6  0  0  0
 15 16  1  0  0  0  0
 16 12  1  0  0  0  0
 16 17  1  1  0  0  0
 17 18  1  0  0  0  0
 18 19  1  0  0  0  0
 19 21  1  0  0  0  0
 19 20  1  0  0  0  0
 22 19  2  0  0  0  0
M  END
>  <CHROM.1>
178.65675431,103.47303453,70.37232277,178.58477209,56.88316929,19.58013255
-57.03588503,-35.63323339,-0.66757243,-1.03202553,0.05202621

>  <Name>
lig.pdb

>  <RI>
0

>  <Rbt.Current_Directory>
/home/itssahil/PROJECTS/Mol_Feturizer/New_Systems/rnas/5btp

>  <Rbt.Executable>
rbdock ($Id: //depot/dev/client3/rdock/2013.1/src/exe/rbdock.cxx#4 $)

>  <Rbt.Library>
libRbt.so (2013.1, Build901 2013/11/27)

>  <Rbt.Parameter_File>
/export/apps/rDock/src/rDock_2013.1_src/data/scripts/dock_solv.prm

>  <Rbt.Receptor>
prm/pocket_docking_4.prm

>  <SCORE>
-8.52016

>  <SCORE.INTER>
-7.2419

>  <SCORE.INTER.CONST>
1

>  <SCORE.INTER.POLAR>
0

>  <SCORE.INTER.ROT>
5

>  <SCORE.INTER.SOLV>
13.8864

>  <SCORE.INTER.VDW>
-16.3901

>  <SCORE.INTER.norm>
-0.329177

>  <SCORE.INTRA>
-1.27827

>  <SCORE.INTRA.DIHEDRAL>
-1.38723

>  <SCORE.INTRA.DIHEDRAL.0>
4.21161

>  <SCORE.INTRA.POLAR>
0

>  <SCORE.INTRA.POLAR.0>
0

>  <SCORE.INTRA.REPUL>
0

>  <SCORE.INTRA.REPUL.0>
0

>  <SCORE.INTRA.SOLV>
1.4523

>  <SCORE.INTRA.SOLV.lig_0>
-41.4168

>  <SCORE.INTRA.VDW>
-1.3108

>  <SCORE.INTRA.VDW.0>
-1.62533

>  <SCORE.INTRA.norm>
-0.0581031

>  <SCORE.RESTR>
0

>  <SCORE.RESTR.CAVITY>
0

>  <SCORE.RESTR.norm>
0

>  <SCORE.SYSTEM>
0

>  <SCORE.SYSTEM.CONST>
0

>  <SCORE.SYSTEM.DIHEDRAL>
0

>  <SCORE.SYSTEM.SOLV>
0

>  <SCORE.SYSTEM.norm>
0

>  <SCORE.heavy>
22

>  <SCORE.norm>
-0.38728

>  <RMSD>
6.083

$$$$
lig.pdb
 OpenBabel11021811523D
libRbt.so/2013.1/901 2013/11/27
 22 23  0  0  0  0  0  0  0  0999 V2000
   20.9443  -61.0144  -33.3300 O   0  0  0  0  0  0  0  0  0  0  0  0
   21.1649  -60.3547  -32.3264 C   0  0  0  0  0  0  0  0  0  0  0  0
   21.2191  -60.9119  -31.1168 N   0  0  0  0  0  0  0  0  0  0  0  0
   21.3656  -58.8826  -32.4450 C   0  0  0  0  0  0  0  0  0  0  0  0
   21.1940  -58.1223  -33.6930 C   0  0  0  0  0  0  0  0  0  0  0  0
   20.8126  -58.6909  -34.9792 N   0  0  0  0  0  0  0  0  0  0  0  0
   21.7099  -57.9366  -31.5435 N   0  0  0  0  0  0  0  0  0  0  0  0
   21.7446  -56.7267  -32.1834 C   0  0  0  0  0  0  0  0  0  0  0  0
   21.4306  -56.8358  -33.4927 N   0  0  0  0  0  0  0  0  0  0  0  0
   21.3615  -55.7488  -34.4970 C   0  0  1  0  0  0  0  0  0  0  0  0
   22.3916  -55.9693  -35.5925 C   0  0  1  0  0  0  0  0  0  0  0  0
   21.7177  -55.3945  -36.8120 C   0  0  2  0  0  0  0  0  0  0  0  0
   21.9402  -53.9837  -36.8566 O   0  0  0  0  0  0  0  0  0  0  0  0
   23.5989  -55.2582  -35.3157 O   0  0  0  0  0  0  0  0  0  0  0  0
   20.0816  -55.7188  -35.1397 O   0  0  0  0  0  0  0  0  0  0  0  0
   20.2457  -55.6559  -36.5585 C   0  0  2  0  0  0  0  0  0  0  0  0
   19.8322  -56.9728  -37.1972 C   0  0  0  0  0  0  0  0  0  0  0  0
   18.4457  -57.1840  -36.9361 O   0  0  0  0  0  0  0  0  0  0  0  0
   17.7341  -58.5938  -37.2557 P   0  0  0  0  0  0  0  0  0  0  0  0
   16.2693  -58.3686  -36.9605 O   0  0  0  0  0  0  0  0  0  0  0  0
   18.4192  -59.5467  -36.3050 O   0  0  0  0  0  0  0  0  0  0  0  0
   18.0465  -58.8206  -38.7163 O   0  0  0  0  0  0  0  0  0  0  0  0
  1  2  2  0  0  0  0
  2  4  1  0  0  0  0
  2  3  1  0  0  0  0
  4  7  1  0  0  0  0
  5  9  1  0  0  0  0
  5  4  2  0  0  0  0
  6  5  1  0  0  0  0
  8  7  2  0  0  0  0
  9  8  1  0  0  0  0
 10 15  1  0  0  0  0
 10  9  1  1  0  0  0
 10 11  1  0  0  0  0
 11 14  1  1  0  0  0
 11 12  1  0  0  0  0
 12 13  1  1  0  0  0
 15 16  1  0  0  0  0
 16 12  1  0  0  0  0
 16 17  1  6  0  0  0
 17 18  1  0  0  0  0
 18 19  1  0  0  0  0
 19 21  1  0  0  0  0
 19 20  1  0  0  0  0
 22 19  2  0  0  0  0
M  END
>  <CHROM.1>
5.94696031,-62.94625676,179.91511480,-169.72632324,-175.04566743,20.32018562
-57.62188492,-35.17965751,0.68350222,0.72690161,2.38611243

>  <Name>
lig.pdb

>  <RI>
0

>  <Rbt.Current_Directory>
/home/itssahil/PROJECTS/Mol_Feturizer/New_Systems/rnas/5btp

>  <Rbt.Executable>
rbdock ($Id: //depot/dev/client3/rdock/2013.1/src/exe/rbdock.cxx#4 $)

>  <Rbt.Library>
libRbt.so (2013.1, Build901 2013/11/27)

>  <Rbt.Parameter_File>
/export/apps/rDock/src/rDock_2013.1_src/data/scripts/dock_solv.prm

>  <Rbt.Receptor>
prm/pocket_docking_6.prm

>  <SCORE>
-6.29366

>  <SCORE.INTER>
-5.53085

>  <SCORE.INTER.CONST>
1

>  <SCORE.INTER.POLAR>
0

>  <SCORE.INTER.ROT>
5

>  <SCORE.INTER.SOLV>
12.2696

>  <SCORE.INTER.VDW>
-14.7105

>  <SCORE.INTER.norm>
-0.251402

>  <SCORE.INTRA>
-0.762809

>  <SCORE.INTRA.DIHEDRAL>
-1.1211

>  <SCORE.INTRA.DIHEDRAL.0>
4.21161

>  <SCORE.INTRA.POLAR>
0

>  <SCORE.INTRA.POLAR.0>
0

>  <SCORE.INTRA.REPUL>
0.00344823

>  <SCORE.INTRA.REPUL.0>
0

>  <SCORE.INTRA.SOLV>
1.87582

>  <SCORE.INTRA.SOLV.lig_0>
-41.4168

>  <SCORE.INTRA.VDW>
-1.15741

>  <SCORE.INTRA.VDW.0>
-1.62533

>  <SCORE.INTRA.norm>
-0.0346732

>  <SCORE.RESTR>
0

>  <SCORE.RESTR.CAVITY>
0

>  <SCORE.RESTR.norm>
0

>  <SCORE.SYSTEM>
0

>  <SCORE.SYSTEM.CONST>
0

>  <SCORE.SYSTEM.DIHEDRAL>
0

>  <SCORE.SYSTEM.SOLV>
0

>  <SCORE.SYSTEM.norm>
0

>  <SCORE.heavy>
22

>  <SCORE.norm>
-0.286076

>  <RMSD>
6.125

$$$$
lig.pdb
 OpenBabel11021811523D
libRbt.so/2013.1/901 2013/11/27
 22 23  0  0  0  0  0  0  0  0999 V2000
   24.0213  -60.2104  -35.4118 O   0  0  0  0  0  0  0  0  0  0  0  0
   23.4271  -59.5851  -34.5475 C   0  0  0  0  0  0  0  0  0  0  0  0
   24.0114  -59.2451  -33.3987 N   0  0  0  0  0  0  0  0  0  0  0  0
   22.0042  -59.1999  -34.7673 C   0  0  0  0  0  0  0  0  0  0  0  0
   21.2484  -59.4922  -35.9954 C   0  0  0  0  0  0  0  0  0  0  0  0
   21.7752  -60.1876  -37.1625 N   0  0  0  0  0  0  0  0  0  0  0  0
   21.1054  -58.5586  -33.9883 N   0  0  0  0  0  0  0  0  0  0  0  0
   19.9256  -58.4708  -34.6775 C   0  0  0  0  0  0  0  0  0  0  0  0
   20.0089  -59.0387  -35.9004 N   0  0  0  0  0  0  0  0  0  0  0  0
   18.9413  -59.1383  -36.9228 C   0  0  1  0  0  0  0  0  0  0  0  0
   17.6734  -58.4550  -36.4376 C   0  0  1  0  0  0  0  0  0  0  0  0
   17.0669  -57.9228  -37.7107 C   0  0  2  0  0  0  0  0  0  0  0  0
   16.2985  -58.9522  -38.3367 O   0  0  0  0  0  0  0  0  0  0  0  0
   16.7865  -59.3904  -35.8227 O   0  0  0  0  0  0  0  0  0  0  0  0
   19.3229  -58.4780  -38.1354 O   0  0  0  0  0  0  0  0  0  0  0  0
   18.2739  -57.6114  -38.5740 C   0  0  2  0  0  0  0  0  0  0  0  0
   18.6810  -56.1568  -38.3962 C   0  0  0  0  0  0  0  0  0  0  0  0
   18.9382  -55.9273  -37.0119 O   0  0  0  0  0  0  0  0  0  0  0  0
   19.4054  -54.4835  -36.4705 P   0  0  0  0  0  0  0  0  0  0  0  0
   19.0861  -54.4973  -34.9935 O   0  0  0  0  0  0  0  0  0  0  0  0
   18.5625  -53.5253  -37.2785 O   0  0  0  0  0  0  0  0  0  0  0  0
   20.8822  -54.4518  -36.7873 O   0  0  0  0  0  0  0  0  0  0  0  0
  1  2  2  0  0  0  0
  2  4  1  0  0  0  0
  2  3  1  0  0  0  0
  4  7  1  0  0  0  0
  5  9  1  0  0  0  0
  5  4  2  0  0  0  0
  6  5  1  0  0  0  0
  8  7  2  0  0  0  0
  9  8  1  0  0  0  0
 10 15  1  0  0  0  0
 10  9  1  1  0  0  0
 10 11  1  0  0  0  0
 11 14  1  6  0  0  0
 11 12  1  0  0  0  0
 12 13  1  6  0  0  0
 15 16  1  0  0  0  0
 16 12  1  0  0  0  0
 16 17  1  1  0  0  0
 17 18  1  0  0  0  0
 18 19  1  0  0  0  0
 19 21  1  0  0  0  0
 19 20  1  0  0  0  0
 22 19  2  0  0  0  0
M  END
>  <CHROM.1>
-1.73604287,-178.34198743,57.09808622,179.55363216,159.93485219,19.80809299
-57.60862744,-36.34792941,-0.62848891,-0.49842500,0.01149632

>  <Name>
lig.pdb

>  <RI>
0

>  <Rbt.Current_Directory>
/home/itssahil/PROJECTS/Mol_Feturizer/New_Systems/rnas/5btp

>  <Rbt.Executable>
rbdock ($Id: //depot/dev/client3/rdock/2013.1/src/exe/rbdock.cxx#4 $)

>  <Rbt.Library>
libRbt.so (2013.1, Build901 2013/11/27)

>  <Rbt.Parameter_File>
/export/apps/rDock/src/rDock_2013.1_src/data/scripts/dock_solv.prm

>  <Rbt.Receptor>
prm/pocket_docking_3.prm

>  <SCORE>
-6.61227

>  <SCORE.INTER>
-6.35056

>  <SCORE.INTER.CONST>
1

>  <SCORE.INTER.POLAR>
0

>  <SCORE.INTER.ROT>
5

>  <SCORE.INTER.SOLV>
13.1895

>  <SCORE.INTER.VDW>
-15.5635

>  <SCORE.INTER.norm>
-0.288662

>  <SCORE.INTRA>
-0.261715

>  <SCORE.INTRA.DIHEDRAL>
-1.14827

>  <SCORE.INTRA.DIHEDRAL.0>
4.21161

>  <SCORE.INTRA.POLAR>
0

>  <SCORE.INTRA.POLAR.0>
0

>  <SCORE.INTRA.REPUL>
0

>  <SCORE.INTRA.REPUL.0>
0

>  <SCORE.INTRA.SOLV>
0.576206

>  <SCORE.INTRA.SOLV.lig_0>
-41.4168

>  <SCORE.INTRA.VDW>
0.0243165

>  <SCORE.INTRA.VDW.0>
-1.62533

>  <SCORE.INTRA.norm>
-0.0118961

>  <SCORE.RESTR>
0

>  <SCORE.RESTR.CAVITY>
0

>  <SCORE.RESTR.norm>
0

>  <SCORE.SYSTEM>
0

>  <SCORE.SYSTEM.CONST>
0

>  <SCORE.SYSTEM.DIHEDRAL>
0

>  <SCORE.SYSTEM.SOLV>
0

>  <SCORE.SYSTEM.norm>
0

>  <SCORE.heavy>
22

>  <SCORE.norm>
-0.300558

>  <RMSD>
6.126

$$$$
lig.pdb
 OpenBabel11021811523D
libRbt.so/2013.1/901 2013/11/27
 22 23  0  0  0  0  0  0  0  0999 V2000
   21.7577  -60.2500  -32.0887 O   0  0  0  0  0  0  0  0  0  0  0  0
   21.7581  -59.0289  -32.0859 C   0  0  0  0  0  0  0  0  0  0  0  0
   22.2179  -58.3286  -31.0491 N   0  0  0  0  0  0  0  0  0  0  0  0
   21.2176  -58.2919  -33.2631 C   0  0  0  0  0  0  0  0  0  0  0  0
   20.6783  -58.9403  -34.4687 C   0  0  0  0  0  0  0  0  0  0  0  0
   20.5995  -60.3789  -34.6868 N   0  0  0  0  0  0  0  0  0  0  0  0
   21.0747  -56.9734  -33.5228 N   0  0  0  0  0  0  0  0  0  0  0  0
   20.5077  -56.8392  -34.7618 C   0  0  0  0  0  0  0  0  0  0  0  0
   20.2646  -58.0352  -35.3409 N   0  0  0  0  0  0  0  0  0  0  0  0
   19.6604  -58.2873  -36.6699 C   0  0  1  0  0  0  0  0  0  0  0  0
   18.1560  -58.0772  -36.6199 C   0  0  1  0  0  0  0  0  0  0  0  0
   17.8397  -57.5619  -38.0005 C   0  0  2  0  0  0  0  0  0  0  0  0
   17.6778  -58.6657  -38.8935 O   0  0  0  0  0  0  0  0  0  0  0  0
   17.4711  -59.3082  -36.3845 O   0  0  0  0  0  0  0  0  0  0  0  0
   20.1679  -57.3747  -37.6506 O   0  0  0  0  0  0  0  0  0  0  0  0
   19.0885  -56.7927  -38.3853 C   0  0  2  0  0  0  0  0  0  0  0  0
   18.9307  -55.3250  -38.0191 C   0  0  0  0  0  0  0  0  0  0  0  0
   18.9254  -55.2139  -36.5969 O   0  0  0  0  0  0  0  0  0  0  0  0
   18.8351  -53.7815  -35.8647 P   0  0  0  0  0  0  0  0  0  0  0  0
   17.5392  -53.1748  -36.3505 O   0  0  0  0  0  0  0  0  0  0  0  0
   20.0746  -53.0690  -36.3515 O   0  0  0  0  0  0  0  0  0  0  0  0
   18.8431  -54.1376  -34.3965 O   0  0  0  0  0  0  0  0  0  0  0  0
  1  2  2  0  0  0  0
  2  4  1  0  0  0  0
  2  3  1  0  0  0  0
  4  7  1  0  0  0  0
  5  9  1  0  0  0  0
  5  4  2  0  0  0  0
  6  5  1  0  0  0  0
  8  7  2  0  0  0  0
  9  8  1  0  0  0  0
 10 15  1  0  0  0  0
 10  9  1  1  0  0  0
 10 11  1  0  0  0  0
 11 14  1  6  0  0  0
 11 12  1  0  0  0  0
 12 13  1  6  0  0  0
 15 16  1  0  0  0  0
 16 12  1  0  0  0  0
 16 17  1  1  0  0  0
 17 18  1  0  0  0  0
 18 19  1  0  0  0  0
 19 21  1  0  0  0  0
 19 20  1  0  0  0  0
 22 19  2  0  0  0  0
M  END
>  <CHROM.1>
-0.56406383,103.23242335,68.63121855,177.43471967,59.22243826,19.60179309
-56.92876229,-35.58612100,-0.56749609,-1.03773015,0.16765364

>  <Name>
lig.pdb

>  <RI>
0

>  <Rbt.Current_Directory>
/home/itssahil/PROJECTS/Mol_Feturizer/New_Systems/rnas/5btp

>  <Rbt.Executable>
rbdock ($Id: //depot/dev/client3/rdock/2013.1/src/exe/rbdock.cxx#4 $)

>  <Rbt.Library>
libRbt.so (2013.1, Build901 2013/11/27)

>  <Rbt.Parameter_File>
/export/apps/rDock/src/rDock_2013.1_src/data/scripts/dock_solv.prm

>  <Rbt.Receptor>
prm/pocket_docking_4.prm

>  <SCORE>
-8.31438

>  <SCORE.INTER>
-6.82974

>  <SCORE.INTER.CONST>
1

>  <SCORE.INTER.POLAR>
0

>  <SCORE.INTER.ROT>
5

>  <SCORE.INTER.SOLV>
13.4797

>  <SCORE.INTER.VDW>
-15.9797

>  <SCORE.INTER.norm>
-0.310443

>  <SCORE.INTRA>
-1.48464

>  <SCORE.INTRA.DIHEDRAL>
-1.49679

>  <SCORE.INTRA.DIHEDRAL.0>
4.21161

>  <SCORE.INTRA.POLAR>
0

>  <SCORE.INTRA.POLAR.0>
0

>  <SCORE.INTRA.REPUL>
0

>  <SCORE.INTRA.REPUL.0>
0

>  <SCORE.INTRA.SOLV>
1.20269

>  <SCORE.INTRA.SOLV.lig_0>
-41.4168

>  <SCORE.INTRA.VDW>
-1.33759

>  <SCORE.INTRA.VDW.0>
-1.62533

>  <SCORE.INTRA.norm>
-0.0674835

>  <SCORE.RESTR>
0

>  <SCORE.RESTR.CAVITY>
0

>  <SCORE.RESTR.norm>
0

>  <SCORE.SYSTEM>
0

>  <SCORE.SYSTEM.CONST>
0

>  <SCORE.SYSTEM.DIHEDRAL>
0

>  <SCORE.SYSTEM.SOLV>
0

>  <SCORE.SYSTEM.norm>
0

>  <SCORE.heavy>
22

>  <SCORE.norm>
-0.377926

>  <RMSD>
6.141

$$$$
lig.pdb
 OpenBabel11021811523D
libRbt.so/2013.1/901 2013/11/27
 22 23  0  0  0  0  0  0  0  0999 V2000
   21.3276  -63.7063  -35.1199 O   0  0  0  0  0  0  0  0  0  0  0  0
   21.2131  -62.5787  -34.6655 C   0  0  0  0  0  0  0  0  0  0  0  0
   20.8398  -62.3636  -33.4041 N   0  0  0  0  0  0  0  0  0  0  0  0
   21.4811  -61.4034  -35.5420 C   0  0  0  0  0  0  0  0  0  0  0  0
   21.3955  -60.0035  -35.0974 C   0  0  0  0  0  0  0  0  0  0  0  0
   21.0362  -59.5674  -33.7543 N   0  0  0  0  0  0  0  0  0  0  0  0
   21.8475  -61.3013  -36.8387 N   0  0  0  0  0  0  0  0  0  0  0  0
   21.9692  -59.9728  -37.1468 C   0  0  0  0  0  0  0  0  0  0  0  0
   21.6949  -59.1793  -36.0885 N   0  0  0  0  0  0  0  0  0  0  0  0
   21.7237  -57.6988  -36.0402 C   0  0  1  0  0  0  0  0  0  0  0  0
   22.3843  -57.1377  -37.2886 C   0  0  1  0  0  0  0  0  0  0  0  0
   21.6553  -55.8358  -37.5018 C   0  0  2  0  0  0  0  0  0  0  0  0
   22.2573  -54.8180  -36.6994 O   0  0  0  0  0  0  0  0  0  0  0  0
   23.7747  -56.8940  -37.0711 O   0  0  0  0  0  0  0  0  0  0  0  0
   20.3985  -57.1564  -36.0002 O   0  0  0  0  0  0  0  0  0  0  0  0
   20.2618  -56.1209  -36.9763 C   0  0  2  0  0  0  0  0  0  0  0  0
   19.3602  -56.5805  -38.1117 C   0  0  0  0  0  0  0  0  0  0  0  0
   18.1661  -57.1203  -37.5481 O   0  0  0  0  0  0  0  0  0  0  0  0
   17.0709  -57.8735  -38.4588 P   0  0  0  0  0  0  0  0  0  0  0  0
   16.5782  -56.8232  -39.4271 O   0  0  0  0  0  0  0  0  0  0  0  0
   16.0383  -58.3224  -37.4521 O   0  0  0  0  0  0  0  0  0  0  0  0
   17.8586  -58.9910  -39.1013 O   0  0  0  0  0  0  0  0  0  0  0  0
  1  2  2  0  0  0  0
  2  4  1  0  0  0  0
  2  3  1  0  0  0  0
  4  7  1  0  0  0  0
  5  9  1  0  0  0  0
  5  4  2  0  0  0  0
  6  5  1  0  0  0  0
  8  7  2  0  0  0  0
  9  8  1  0  0  0  0
 10 15  1  0  0  0  0
 10  9  1  6  0  0  0
 10 11  1  0  0  0  0
 11 14  1  1  0  0  0
 11 12  1  0  0  0  0
 12 13  1  1  0  0  0
 15 16  1  0  0  0  0
 16 12  1  0  0  0  0
 16 17  1  6  0  0  0
 17 18  1  0  0  0  0
 18 19  1  0  0  0  0
 19 21  1  0  0  0  0
 19 20  1  0  0  0  0
 22 19  2  0  0  0  0
M  END
>  <CHROM.1>
-178.99106644,168.40570618,167.17419172,-172.02911254,-62.63657347,20.21742637
-58.59711957,-36.75655073,0.96099903,0.36747564,2.76563784

>  <Name>
lig.pdb

>  <RI>
0

>  <Rbt.Current_Directory>
/home/itssahil/PROJECTS/Mol_Feturizer/New_Systems/rnas/5btp

>  <Rbt.Executable>
rbdock ($Id: //depot/dev/client3/rdock/2013.1/src/exe/rbdock.cxx#4 $)

>  <Rbt.Library>
libRbt.so (2013.1, Build901 2013/11/27)

>  <Rbt.Parameter_File>
/export/apps/rDock/src/rDock_2013.1_src/data/scripts/dock_solv.prm

>  <Rbt.Receptor>
prm/pocket_docking_5.prm

>  <SCORE>
-8.81566

>  <SCORE.INTER>
-8.60025

>  <SCORE.INTER.CONST>
1

>  <SCORE.INTER.POLAR>
0

>  <SCORE.INTER.ROT>
5

>  <SCORE.INTER.SOLV>
13.4723

>  <SCORE.INTER.VDW>
-17.1576

>  <SCORE.INTER.norm>
-0.390921

>  <SCORE.INTRA>
-0.215404

>  <SCORE.INTRA.DIHEDRAL>
-0.893943

>  <SCORE.INTRA.DIHEDRAL.0>
4.21161

>  <SCORE.INTRA.POLAR>
0

>  <SCORE.INTRA.POLAR.0>
0

>  <SCORE.INTRA.REPUL>
0

>  <SCORE.INTRA.REPUL.0>
0

>  <SCORE.INTRA.SOLV>
0.116338

>  <SCORE.INTRA.SOLV.lig_0>
-41.4168

>  <SCORE.INTRA.VDW>
0.173398

>  <SCORE.INTRA.VDW.0>
-1.62533

>  <SCORE.INTRA.norm>
-0.0097911

>  <SCORE.RESTR>
0

>  <SCORE.RESTR.CAVITY>
0

>  <SCORE.RESTR.norm>
0

>  <SCORE.SYSTEM>
0

>  <SCORE.SYSTEM.CONST>
0

>  <SCORE.SYSTEM.DIHEDRAL>
0

>  <SCORE.SYSTEM.SOLV>
0

>  <SCORE.SYSTEM.norm>
0

>  <SCORE.heavy>
22

>  <SCORE.norm>
-0.400712

>  <RMSD>
6.144

$$$$
lig.pdb
 OpenBabel11021811523D
libRbt.so/2013.1/901 2013/11/27
 22 23  0  0  0  0  0  0  0  0999 V2000
   17.9735  -51.3680  -34.9997 O   0  0  0  0  0  0  0  0  0  0  0  0
   18.5646  -52.4318  -35.1001 C   0  0  0  0  0  0  0  0  0  0  0  0
   18.0726  -53.5602  -34.5887 N   0  0  0  0  0  0  0  0  0  0  0  0
   19.8803  -52.4776  -35.7987 C   0  0  0  0  0  0  0  0  0  0  0  0
   20.6724  -53.7025  -35.9913 C   0  0  0  0  0  0  0  0  0  0  0  0
   20.2933  -55.0313  -35.5290 N   0  0  0  0  0  0  0  0  0  0  0  0
   20.6268  -51.5216  -36.3945 N   0  0  0  0  0  0  0  0  0  0  0  0
   21.7573  -52.1100  -36.8951 C   0  0  0  0  0  0  0  0  0  0  0  0
   21.7883  -53.4383  -36.6516 N   0  0  0  0  0  0  0  0  0  0  0  0
   22.8442  -54.4019  -37.0410 C   0  0  1  0  0  0  0  0  0  0  0  0
   23.3988  -55.1088  -35.8151 C   0  0  1  0  0  0  0  0  0  0  0  0
   23.7526  -56.4755  -36.3431 C   0  0  2  0  0  0  0  0  0  0  0  0
   25.0530  -56.4337  -36.9343 O   0  0  0  0  0  0  0  0  0  0  0  0
   24.5686  -54.4514  -35.3261 O   0  0  0  0  0  0  0  0  0  0  0  0
   22.3221  -55.4226  -37.8999 O   0  0  0  0  0  0  0  0  0  0  0  0
   22.7221  -56.7122  -37.4299 C   0  0  2  0  0  0  0  0  0  0  0  0
   21.5270  -57.4614  -36.8612 C   0  0  0  0  0  0  0  0  0  0  0  0
   20.4826  -57.4471  -37.8328 O   0  0  0  0  0  0  0  0  0  0  0  0
   19.0928  -58.2242  -37.5866 P   0  0  0  0  0  0  0  0  0  0  0  0
   19.4433  -59.6913  -37.6783 O   0  0  0  0  0  0  0  0  0  0  0  0
   18.2167  -57.7242  -38.7106 O   0  0  0  0  0  0  0  0  0  0  0  0
   18.6769  -57.7693  -36.2073 O   0  0  0  0  0  0  0  0  0  0  0  0
  1  2  2  0  0  0  0
  2  4  1  0  0  0  0
  2  3  1  0  0  0  0
  4  7  1  0  0  0  0
  5  9  1  0  0  0  0
  5  4  2  0  0  0  0
  6  5  1  0  0  0  0
  8  7  2  0  0  0  0
  9  8  1  0  0  0  0
 10 15  1  0  0  0  0
 10  9  1  1  0  0  0
 10 11  1  0  0  0  0
 11 14  1  6  0  0  0
 11 12  1  0  0  0  0
 12 13  1  6  0  0  0
 15 16  1  0  0  0  0
 16 12  1  0  0  0  0
 16 17  1  1  0  0  0
 17 18  1  0  0  0  0
 18 19  1  0  0  0  0
 19 21  1  0  0  0  0
 19 20  1  0  0  0  0
 22 19  2  0  0  0  0
M  END
>  <CHROM.1>
-179.30578589,-57.76768889,169.33578204,176.61993363,-70.60635457,20.87804797
-55.39305114,-36.61633242,1.51261430,0.03425561,0.31862705

>  <Name>
lig.pdb

>  <RI>
0

>  <Rbt.Current_Directory>
/home/itssahil/PROJECTS/Mol_Feturizer/New_Systems/rnas/5btp

>  <Rbt.Executable>
rbdock ($Id: //depot/dev/client3/rdock/2013.1/src/exe/rbdock.cxx#4 $)

>  <Rbt.Library>
libRbt.so (2013.1, Build901 2013/11/27)

>  <Rbt.Parameter_File>
/export/apps/rDock/src/rDock_2013.1_src/data/scripts/dock_solv.prm

>  <Rbt.Receptor>
prm/pocket_docking_7.prm

>  <SCORE>
-6.46909

>  <SCORE.INTER>
-5.92583

>  <SCORE.INTER.CONST>
1

>  <SCORE.INTER.POLAR>
0

>  <SCORE.INTER.ROT>
5

>  <SCORE.INTER.SOLV>
11.7723

>  <SCORE.INTER.VDW>
-14.808

>  <SCORE.INTER.norm>
-0.269356

>  <SCORE.INTRA>
-0.543264

>  <SCORE.INTRA.DIHEDRAL>
-1.14854

>  <SCORE.INTRA.DIHEDRAL.0>
4.21161

>  <SCORE.INTRA.POLAR>
0

>  <SCORE.INTRA.POLAR.0>
0

>  <SCORE.INTRA.REPUL>
0

>  <SCORE.INTRA.REPUL.0>
0

>  <SCORE.INTRA.SOLV>
2.19014

>  <SCORE.INTRA.SOLV.lig_0>
-41.4168

>  <SCORE.INTRA.VDW>
-1.06406

>  <SCORE.INTRA.VDW.0>
-1.62533

>  <SCORE.INTRA.norm>
-0.0246938

>  <SCORE.RESTR>
0

>  <SCORE.RESTR.CAVITY>
0

>  <SCORE.RESTR.norm>
0

>  <SCORE.SYSTEM>
0

>  <SCORE.SYSTEM.CONST>
0

>  <SCORE.SYSTEM.DIHEDRAL>
0

>  <SCORE.SYSTEM.SOLV>
0

>  <SCORE.SYSTEM.norm>
0

>  <SCORE.heavy>
22

>  <SCORE.norm>
-0.29405

>  <RMSD>
6.254

$$$$
lig.pdb
 OpenBabel11021811523D
libRbt.so/2013.1/901 2013/11/27
 22 23  0  0  0  0  0  0  0  0999 V2000
   22.1736  -59.1164  -31.0210 O   0  0  0  0  0  0  0  0  0  0  0  0
   21.7465  -58.4959  -31.9821 C   0  0  0  0  0  0  0  0  0  0  0  0
   21.7630  -57.1637  -32.0224 N   0  0  0  0  0  0  0  0  0  0  0  0
   21.1751  -59.2391  -33.1407 C   0  0  0  0  0  0  0  0  0  0  0  0
   20.5920  -58.5969  -34.3291 C   0  0  0  0  0  0  0  0  0  0  0  0
   20.4851  -57.1593  -34.5418 N   0  0  0  0  0  0  0  0  0  0  0  0
   21.0549  -60.5592  -33.4040 N   0  0  0  0  0  0  0  0  0  0  0  0
   20.4575  -60.6999  -34.6278 C   0  0  0  0  0  0  0  0  0  0  0  0
   20.1743  -59.5068  -35.1945 N   0  0  0  0  0  0  0  0  0  0  0  0
   19.5339  -59.2616  -36.5078 C   0  0  1  0  0  0  0  0  0  0  0  0
   18.1783  -58.5993  -36.3242 C   0  0  1  0  0  0  0  0  0  0  0  0
   18.0594  -57.7261  -37.5470 C   0  0  2  0  0  0  0  0  0  0  0  0
   17.5572  -58.5018  -38.6370 O   0  0  0  0  0  0  0  0  0  0  0  0
   17.1292  -59.5683  -36.3068 O   0  0  0  0  0  0  0  0  0  0  0  0
   20.3192  -58.3700  -37.3080 O   0  0  0  0  0  0  0  0  0  0  0  0
   19.4938  -57.3310  -37.8400 C   0  0  2  0  0  0  0  0  0  0  0  0
   19.8166  -56.0044  -37.1700 C   0  0  0  0  0  0  0  0  0  0  0  0
   18.8797  -55.0300  -37.6260 O   0  0  0  0  0  0  0  0  0  0  0  0
   18.7140  -53.6095  -36.8839 P   0  0  0  0  0  0  0  0  0  0  0  0
   18.3185  -53.9524  -35.4663 O   0  0  0  0  0  0  0  0  0  0  0  0
   17.6281  -52.9296  -37.6837 O   0  0  0  0  0  0  0  0  0  0  0  0
   20.0833  -52.9847  -37.0137 O   0  0  0  0  0  0  0  0  0  0  0  0
  1  2  2  0  0  0  0
  2  4  1  0  0  0  0
  2  3  1  0  0  0  0
  4  7  1  0  0  0  0
  5  9  1  0  0  0  0
  5  4  2  0  0  0  0
  6  5  1  0  0  0  0
  8  7  2  0  0  0  0
  9  8  1  0  0  0  0
 10 15  1  0  0  0  0
 10  9  1  1  0  0  0
 10 11  1  0  0  0  0
 11 14  1  6  0  0  0
 11 12  1  0  0  0  0
 12 13  1  6  0  0  0
 15 16  1  0  0  0  0
 16 12  1  0  0  0  0
 16 17  1  1  0  0  0
 17 18  1  0  0  0  0
 18 19  1  0  0  0  0
 19 21  1  0  0  0  0
 19 20  1  0  0  0  0
 22 19  2  0  0  0  0
M  END
>  <CHROM.1>
177.85458850,-65.65439883,-56.67590849,166.05197456,-59.47443149,19.59485551
-57.17566745,-35.70741041,-0.83983639,-0.99923902,-0.04179230

>  <Name>
lig.pdb

>  <RI>
0

>  <Rbt.Current_Directory>
/home/itssahil/PROJECTS/Mol_Feturizer/New_Systems/rnas/5btp

>  <Rbt.Executable>
rbdock ($Id: //depot/dev/client3/rdock/2013.1/src/exe/rbdock.cxx#4 $)

>  <Rbt.Library>
libRbt.so (2013.1, Build901 2013/11/27)

>  <Rbt.Parameter_File>
/export/apps/rDock/src/rDock_2013.1_src/data/scripts/dock_solv.prm

>  <Rbt.Receptor>
prm/pocket_docking_7.prm

>  <SCORE>
-8.66694

>  <SCORE.INTER>
-8.38599

>  <SCORE.INTER.CONST>
1

>  <SCORE.INTER.POLAR>
0

>  <SCORE.INTER.ROT>
5

>  <SCORE.INTER.SOLV>
13.5269

>  <SCORE.INTER.VDW>
-17.0329

>  <SCORE.INTER.norm>
-0.381181

>  <SCORE.INTRA>
-0.280952

>  <SCORE.INTRA.DIHEDRAL>
-0.824256

>  <SCORE.INTRA.DIHEDRAL.0>
4.21161

>  <SCORE.INTRA.POLAR>
0

>  <SCORE.INTRA.POLAR.0>
0

>  <SCORE.INTRA.REPUL>
0

>  <SCORE.INTRA.REPUL.0>
0

>  <SCORE.INTRA.SOLV>
1.59181

>  <SCORE.INTRA.SOLV.lig_0>
-41.4168

>  <SCORE.INTRA.VDW>
-0.664729

>  <SCORE.INTRA.VDW.0>
-1.62533

>  <SCORE.INTRA.norm>
-0.0127706

>  <SCORE.RESTR>
0

>  <SCORE.RESTR.CAVITY>
0

>  <SCORE.RESTR.norm>
0

>  <SCORE.SYSTEM>
0

>  <SCORE.SYSTEM.CONST>
0

>  <SCORE.SYSTEM.DIHEDRAL>
0

>  <SCORE.SYSTEM.SOLV>
0

>  <SCORE.SYSTEM.norm>
0

>  <SCORE.heavy>
22

>  <SCORE.norm>
-0.393952

>  <RMSD>
6.264

$$$$
lig.pdb
 OpenBabel11021811523D
libRbt.so/2013.1/901 2013/11/27
 22 23  0  0  0  0  0  0  0  0999 V2000
   22.2780  -59.0605  -31.1267 O   0  0  0  0  0  0  0  0  0  0  0  0
   21.7934  -58.4480  -32.0654 C   0  0  0  0  0  0  0  0  0  0  0  0
   21.7372  -57.1164  -32.0818 N   0  0  0  0  0  0  0  0  0  0  0  0
   21.2329  -59.2015  -33.2226 C   0  0  0  0  0  0  0  0  0  0  0  0
   20.5977  -58.5712  -34.3906 C   0  0  0  0  0  0  0  0  0  0  0  0
   20.4221  -57.1374  -34.5816 N   0  0  0  0  0  0  0  0  0  0  0  0
   21.1669  -60.5222  -33.5015 N   0  0  0  0  0  0  0  0  0  0  0  0
   20.5519  -60.6742  -34.7153 C   0  0  0  0  0  0  0  0  0  0  0  0
   20.2041  -59.4880  -35.2600 N   0  0  0  0  0  0  0  0  0  0  0  0
   19.5271  -59.2553  -36.5571 C   0  0  1  0  0  0  0  0  0  0  0  0
   18.1697  -58.6066  -36.3410 C   0  0  1  0  0  0  0  0  0  0  0  0
   18.0097  -57.7401  -37.5638 C   0  0  2  0  0  0  0  0  0  0  0  0
   17.4875  -58.5258  -38.6371 O   0  0  0  0  0  0  0  0  0  0  0  0
   17.1319  -59.5866  -36.2922 O   0  0  0  0  0  0  0  0  0  0  0  0
   20.2817  -58.3590  -37.3812 O   0  0  0  0  0  0  0  0  0  0  0  0
   19.4316  -57.3311  -37.8957 C   0  0  2  0  0  0  0  0  0  0  0  0
   19.7575  -55.9982  -37.2398 C   0  0  0  0  0  0  0  0  0  0  0  0
   18.7617  -55.0518  -37.6241 O   0  0  0  0  0  0  0  0  0  0  0  0
   18.6053  -53.6391  -36.8652 P   0  0  0  0  0  0  0  0  0  0  0  0
   18.4247  -53.9957  -35.4079 O   0  0  0  0  0  0  0  0  0  0  0  0
   17.3813  -53.0360  -37.5126 O   0  0  0  0  0  0  0  0  0  0  0  0
   19.9023  -52.9294  -37.1757 O   0  0  0  0  0  0  0  0  0  0  0  0
  1  2  2  0  0  0  0
  2  4  1  0  0  0  0
  2  3  1  0  0  0  0
  4  7  1  0  0  0  0
  5  9  1  0  0  0  0
  5  4  2  0  0  0  0
  6  5  1  0  0  0  0
  8  7  2  0  0  0  0
  9  8  1  0  0  0  0
 10 15  1  0  0  0  0
 10  9  1  1  0  0  0
 10 11  1  0  0  0  0
 11 14  1  6  0  0  0
 11 12  1  0  0  0  0
 12 13  1  6  0  0  0
 15 16  1  0  0  0  0
 16 12  1  0  0  0  0
 16 17  1  1  0  0  0
 17 18  1  0  0  0  0
 18 19  1  0  0  0  0
 19 21  1  0  0  0  0
 19 20  1  0  0  0  0
 22 19  2  0  0  0  0
M  END
>  <CHROM.1>
178.50981250,-63.41327501,-53.92076179,166.23907806,-55.34889965,19.56580642
-57.17284902,-35.74151403,-0.79335461,-0.98539770,0.00177931

>  <Name>
lig.pdb

>  <RI>
0

>  <Rbt.Current_Directory>
/home/itssahil/PROJECTS/Mol_Feturizer/New_Systems/rnas/5btp

>  <Rbt.Executable>
rbdock ($Id: //depot/dev/client3/rdock/2013.1/src/exe/rbdock.cxx#4 $)

>  <Rbt.Library>
libRbt.so (2013.1, Build901 2013/11/27)

>  <Rbt.Parameter_File>
/export/apps/rDock/src/rDock_2013.1_src/data/scripts/dock_solv.prm

>  <Rbt.Receptor>
prm/pocket_docking_7.prm

>  <SCORE>
-8.65018

>  <SCORE.INTER>
-8.43886

>  <SCORE.INTER.CONST>
1

>  <SCORE.INTER.POLAR>
0

>  <SCORE.INTER.ROT>
5

>  <SCORE.INTER.SOLV>
13.681

>  <SCORE.INTER.VDW>
-17.1196

>  <SCORE.INTER.norm>
-0.383585

>  <SCORE.INTRA>
-0.211319

>  <SCORE.INTRA.DIHEDRAL>
-0.729351

>  <SCORE.INTRA.DIHEDRAL.0>
4.21161

>  <SCORE.INTRA.POLAR>
0

>  <SCORE.INTRA.POLAR.0>
0

>  <SCORE.INTRA.REPUL>
0

>  <SCORE.INTRA.REPUL.0>
0

>  <SCORE.INTRA.SOLV>
1.60372

>  <SCORE.INTRA.SOLV.lig_0>
-41.4168

>  <SCORE.INTRA.VDW>
-0.648505

>  <SCORE.INTRA.VDW.0>
-1.62533

>  <SCORE.INTRA.norm>
-0.00960539

>  <SCORE.RESTR>
0

>  <SCORE.RESTR.CAVITY>
0

>  <SCORE.RESTR.norm>
0

>  <SCORE.SYSTEM>
0

>  <SCORE.SYSTEM.CONST>
0

>  <SCORE.SYSTEM.DIHEDRAL>
0

>  <SCORE.SYSTEM.SOLV>
0

>  <SCORE.SYSTEM.norm>
0

>  <SCORE.heavy>
22

>  <SCORE.norm>
-0.39319

>  <RMSD>
6.278

$$$$
lig.pdb
 OpenBabel11021811523D
libRbt.so/2013.1/901 2013/11/27
 22 23  0  0  0  0  0  0  0  0999 V2000
   20.9861  -61.0703  -31.2314 O   0  0  0  0  0  0  0  0  0  0  0  0
   21.3512  -59.9175  -31.4009 C   0  0  0  0  0  0  0  0  0  0  0  0
   21.8402  -59.1811  -30.4031 N   0  0  0  0  0  0  0  0  0  0  0  0
   21.2367  -59.3025  -32.7536 C   0  0  0  0  0  0  0  0  0  0  0  0
   21.6893  -57.9422  -33.0848 C   0  0  0  0  0  0  0  0  0  0  0  0
   22.3030  -57.0083  -32.1497 N   0  0  0  0  0  0  0  0  0  0  0  0
   20.7526  -59.7686  -33.9261 N   0  0  0  0  0  0  0  0  0  0  0  0
   20.8967  -58.7874  -34.8701 C   0  0  0  0  0  0  0  0  0  0  0  0
   21.4672  -57.6736  -34.3614 N   0  0  0  0  0  0  0  0  0  0  0  0
   21.7826  -56.4150  -35.0765 C   0  0  1  0  0  0  0  0  0  0  0  0
   22.3212  -56.7124  -36.4663 C   0  0  1  0  0  0  0  0  0  0  0  0
   21.8260  -55.5435  -37.2789 C   0  0  2  0  0  0  0  0  0  0  0  0
   22.7337  -54.4489  -37.1376 O   0  0  0  0  0  0  0  0  0  0  0  0
   23.7490  -56.7453  -36.4697 O   0  0  0  0  0  0  0  0  0  0  0  0
   20.6088  -55.6138  -35.2561 O   0  0  0  0  0  0  0  0  0  0  0  0
   20.5103  -55.1844  -36.6162 C   0  0  2  0  0  0  0  0  0  0  0  0
   19.3629  -55.8983  -37.3139 C   0  0  0  0  0  0  0  0  0  0  0  0
   19.5801  -57.3047  -37.2137 O   0  0  0  0  0  0  0  0  0  0  0  0
   18.4563  -58.3648  -37.6710 P   0  0  0  0  0  0  0  0  0  0  0  0
   17.4841  -58.4272  -36.5158 O   0  0  0  0  0  0  0  0  0  0  0  0
   19.2483  -59.6330  -37.8844 O   0  0  0  0  0  0  0  0  0  0  0  0
   17.8883  -57.7520  -38.9295 O   0  0  0  0  0  0  0  0  0  0  0  0
  1  2  2  0  0  0  0
  2  4  1  0  0  0  0
  2  3  1  0  0  0  0
  4  7  1  0  0  0  0
  5  9  1  0  0  0  0
  5  4  2  0  0  0  0
  6  5  1  0  0  0  0
  8  7  2  0  0  0  0
  9  8  1  0  0  0  0
 10 15  1  0  0  0  0
 10  9  1  6  0  0  0
 10 11  1  0  0  0  0
 11 14  1  1  0  0  0
 11 12  1  0  0  0  0
 12 13  1  1  0  0  0
 15 16  1  0  0  0  0
 16 12  1  0  0  0  0
 16 17  1  6  0  0  0
 17 18  1  0  0  0  0
 18 19  1  0  0  0  0
 19 21  1  0  0  0  0
 19 20  1  0  0  0  0
 22 19  2  0  0  0  0
M  END
>  <CHROM.1>
-177.66064594,139.88764779,60.18854073,171.59975317,-80.29097344,20.65339327
-57.69345051,-35.40280975,1.15438396,0.69231595,2.21633487

>  <Name>
lig.pdb

>  <RI>
0

>  <Rbt.Current_Directory>
/home/itssahil/PROJECTS/Mol_Feturizer/New_Systems/rnas/5btp

>  <Rbt.Executable>
rbdock ($Id: //depot/dev/client3/rdock/2013.1/src/exe/rbdock.cxx#4 $)

>  <Rbt.Library>
libRbt.so (2013.1, Build901 2013/11/27)

>  <Rbt.Parameter_File>
/export/apps/rDock/src/rDock_2013.1_src/data/scripts/dock_solv.prm

>  <Rbt.Receptor>
prm/pocket_docking_4.prm

>  <SCORE>
-6.41846

>  <SCORE.INTER>
-5.73249

>  <SCORE.INTER.CONST>
1

>  <SCORE.INTER.POLAR>
0

>  <SCORE.INTER.ROT>
5

>  <SCORE.INTER.SOLV>
11.5106

>  <SCORE.INTER.VDW>
-14.5918

>  <SCORE.INTER.norm>
-0.260568

>  <SCORE.INTRA>
-0.685975

>  <SCORE.INTRA.DIHEDRAL>
-0.825337

>  <SCORE.INTRA.DIHEDRAL.0>
4.21161

>  <SCORE.INTRA.POLAR>
0

>  <SCORE.INTRA.POLAR.0>
0

>  <SCORE.INTRA.REPUL>
0

>  <SCORE.INTRA.REPUL.0>
0

>  <SCORE.INTRA.SOLV>
1.12353

>  <SCORE.INTRA.SOLV.lig_0>
-41.4168

>  <SCORE.INTRA.VDW>
-0.835069

>  <SCORE.INTRA.VDW.0>
-1.62533

>  <SCORE.INTRA.norm>
-0.0311807

>  <SCORE.RESTR>
0

>  <SCORE.RESTR.CAVITY>
0

>  <SCORE.RESTR.norm>
0

>  <SCORE.SYSTEM>
0

>  <SCORE.SYSTEM.CONST>
0

>  <SCORE.SYSTEM.DIHEDRAL>
0

>  <SCORE.SYSTEM.SOLV>
0

>  <SCORE.SYSTEM.norm>
0

>  <SCORE.heavy>
22

>  <SCORE.norm>
-0.291748

>  <RMSD>
6.281

$$$$
lig.pdb
 OpenBabel11021811523D
libRbt.so/2013.1/901 2013/11/27
 22 23  0  0  0  0  0  0  0  0999 V2000
   20.6679  -62.2229  -32.1784 O   0  0  0  0  0  0  0  0  0  0  0  0
   20.9478  -61.0343  -32.1850 C   0  0  0  0  0  0  0  0  0  0  0  0
   21.3202  -60.3937  -31.0769 N   0  0  0  0  0  0  0  0  0  0  0  0
   20.8590  -60.2662  -33.4591 C   0  0  0  0  0  0  0  0  0  0  0  0
   21.1732  -58.8344  -33.5854 C   0  0  0  0  0  0  0  0  0  0  0  0
   21.6066  -57.9686  -32.4965 N   0  0  0  0  0  0  0  0  0  0  0  0
   20.5165  -60.6265  -34.7157 N   0  0  0  0  0  0  0  0  0  0  0  0
   20.6124  -59.5225  -35.5198 C   0  0  0  0  0  0  0  0  0  0  0  0
   21.0124  -58.4291  -34.8348 N   0  0  0  0  0  0  0  0  0  0  0  0
   21.2297  -57.0627  -35.3647 C   0  0  1  0  0  0  0  0  0  0  0  0
   22.1633  -57.0983  -36.5634 C   0  0  1  0  0  0  0  0  0  0  0  0
   21.6618  -55.9620  -37.4174 C   0  0  2  0  0  0  0  0  0  0  0  0
   22.2476  -54.7377  -36.9699 O   0  0  0  0  0  0  0  0  0  0  0  0
   23.5157  -56.8600  -36.1709 O   0  0  0  0  0  0  0  0  0  0  0  0
   20.0015  -56.4831  -35.8204 O   0  0  0  0  0  0  0  0  0  0  0  0
   20.1734  -55.9332  -37.1288 C   0  0  2  0  0  0  0  0  0  0  0  0
   19.4267  -56.7701  -38.1560 C   0  0  0  0  0  0  0  0  0  0  0  0
   18.1062  -57.0059  -37.6706 O   0  0  0  0  0  0  0  0  0  0  0  0
   17.0375  -57.8620  -38.5197 P   0  0  0  0  0  0  0  0  0  0  0  0
   16.4889  -56.8968  -39.5450 O   0  0  0  0  0  0  0  0  0  0  0  0
   16.0356  -58.2927  -37.4748 O   0  0  0  0  0  0  0  0  0  0  0  0
   17.8686  -58.9814  -39.1015 O   0  0  0  0  0  0  0  0  0  0  0  0
  1  2  2  0  0  0  0
  2  4  1  0  0  0  0
  2  3  1  0  0  0  0
  4  7  1  0  0  0  0
  5  9  1  0  0  0  0
  5  4  2  0  0  0  0
  6  5  1  0  0  0  0
  8  7  2  0  0  0  0
  9  8  1  0  0  0  0
 10 15  1  0  0  0  0
 10  9  1  6  0  0  0
 10 11  1  0  0  0  0
 11 14  1  1  0  0  0
 11 12  1  0  0  0  0
 12 13  1  1  0  0  0
 15 16  1  0  0  0  0
 16 12  1  0  0  0  0
 16 17  1  6  0  0  0
 17 18  1  0  0  0  0
 18 19  1  0  0  0  0
 19 21  1  0  0  0  0
 19 20  1  0  0  0  0
 22 19  2  0  0  0  0
M  END
>  <CHROM.1>
-179.90071192,127.17740077,165.25183074,179.79246025,-80.51439909,19.97986626
-58.09139704,-35.96204954,0.98041949,0.52119715,2.35584779

>  <Name>
lig.pdb

>  <RI>
0

>  <Rbt.Current_Directory>
/home/itssahil/PROJECTS/Mol_Feturizer/New_Systems/rnas/5btp

>  <Rbt.Executable>
rbdock ($Id: //depot/dev/client3/rdock/2013.1/src/exe/rbdock.cxx#4 $)

>  <Rbt.Library>
libRbt.so (2013.1, Build901 2013/11/27)

>  <Rbt.Parameter_File>
/export/apps/rDock/src/rDock_2013.1_src/data/scripts/dock_solv.prm

>  <Rbt.Receptor>
prm/pocket_docking_5.prm

>  <SCORE>
-8.42625

>  <SCORE.INTER>
-7.96887

>  <SCORE.INTER.CONST>
1

>  <SCORE.INTER.POLAR>
0

>  <SCORE.INTER.ROT>
5

>  <SCORE.INTER.SOLV>
13.8499

>  <SCORE.INTER.VDW>
-16.8625

>  <SCORE.INTER.norm>
-0.362221

>  <SCORE.INTRA>
-0.457379

>  <SCORE.INTRA.DIHEDRAL>
-0.415415

>  <SCORE.INTRA.DIHEDRAL.0>
4.21161

>  <SCORE.INTRA.POLAR>
0

>  <SCORE.INTRA.POLAR.0>
0

>  <SCORE.INTRA.REPUL>
0

>  <SCORE.INTRA.REPUL.0>
0

>  <SCORE.INTRA.SOLV>
0.0182253

>  <SCORE.INTRA.SOLV.lig_0>
-41.4168

>  <SCORE.INTRA.VDW>
-0.258784

>  <SCORE.INTRA.VDW.0>
-1.62533

>  <SCORE.INTRA.norm>
-0.0207899

>  <SCORE.RESTR>
0

>  <SCORE.RESTR.CAVITY>
0

>  <SCORE.RESTR.norm>
0

>  <SCORE.SYSTEM>
0

>  <SCORE.SYSTEM.CONST>
0

>  <SCORE.SYSTEM.DIHEDRAL>
0

>  <SCORE.SYSTEM.SOLV>
0

>  <SCORE.SYSTEM.norm>
0

>  <SCORE.heavy>
22

>  <SCORE.norm>
-0.383011

>  <RMSD>
6.291

$$$$
lig.pdb
 OpenBabel11021811523D
libRbt.so/2013.1/901 2013/11/27
 22 23  0  0  0  0  0  0  0  0999 V2000
   19.8801  -60.4924  -35.0525 O   0  0  0  0  0  0  0  0  0  0  0  0
   20.0932  -59.2912  -35.1054 C   0  0  0  0  0  0  0  0  0  0  0  0
   20.7871  -58.6580  -34.1597 N   0  0  0  0  0  0  0  0  0  0  0  0
   19.5538  -58.4996  -36.2472 C   0  0  0  0  0  0  0  0  0  0  0  0
   19.8222  -57.0689  -36.4618 C   0  0  0  0  0  0  0  0  0  0  0  0
   20.6399  -56.2272  -35.5980 N   0  0  0  0  0  0  0  0  0  0  0  0
   18.7671  -58.8339  -37.2939 N   0  0  0  0  0  0  0  0  0  0  0  0
   18.5778  -57.7167  -38.0624 C   0  0  0  0  0  0  0  0  0  0  0  0
   19.2193  -56.6397  -37.5588 N   0  0  0  0  0  0  0  0  0  0  0  0
   19.2479  -55.2663  -38.1137 C   0  0  1  0  0  0  0  0  0  0  0  0
   17.8497  -54.8234  -38.5122 C   0  0  1  0  0  0  0  0  0  0  0  0
   17.8779  -53.3388  -38.2533 C   0  0  2  0  0  0  0  0  0  0  0  0
   18.4361  -52.6701  -39.3861 O   0  0  0  0  0  0  0  0  0  0  0  0
   17.6029  -55.0777  -39.8957 O   0  0  0  0  0  0  0  0  0  0  0  0
   19.7129  -54.3243  -37.1398 O   0  0  0  0  0  0  0  0  0  0  0  0
   18.8286  -53.2026  -37.0799 C   0  0  2  0  0  0  0  0  0  0  0  0
   18.0496  -53.2130  -35.7736 C   0  0  0  0  0  0  0  0  0  0  0  0
   17.0782  -52.1693  -35.8203 O   0  0  0  0  0  0  0  0  0  0  0  0
   15.8667  -52.0988  -34.7606 P   0  0  0  0  0  0  0  0  0  0  0  0
   14.9725  -53.2657  -35.1101 O   0  0  0  0  0  0  0  0  0  0  0  0
   15.2538  -50.7450  -35.0304 O   0  0  0  0  0  0  0  0  0  0  0  0
   16.5617  -52.2260  -33.4252 O   0  0  0  0  0  0  0  0  0  0  0  0
  1  2  2  0  0  0  0
  2  4  1  0  0  0  0
  2  3  1  0  0  0  0
  4  7  1  0  0  0  0
  5  9  1  0  0  0  0
  5  4  2  0  0  0  0
  6  5  1  0  0  0  0
  8  7  2  0  0  0  0
  9  8  1  0  0  0  0
 10 15  1  0  0  0  0
 10  9  1  1  0  0  0
 10 11  1  0  0  0  0
 11 14  1  6  0  0  0
 11 12  1  0  0  0  0
 12 13  1  6  0  0  0
 15 16  1  0  0  0  0
 16 12  1  0  0  0  0
 16 17  1  1  0  0  0
 17 18  1  0  0  0  0
 18 19  1  0  0  0  0
 19 21  1  0  0  0  0
 19 20  1  0  0  0  0
 22 19  2  0  0  0  0
M  END
>  <CHROM.1>
-175.74158728,-134.05817292,-56.28356858,165.94661259,-69.39453376,18.19121230
-54.98677250,-36.42703950,0.26974713,-1.05700032,1.97179437

>  <Name>
lig.pdb

>  <RI>
0

>  <Rbt.Current_Directory>
/home/itssahil/PROJECTS/Mol_Feturizer/New_Systems/rnas/5btp

>  <Rbt.Executable>
rbdock ($Id: //depot/dev/client3/rdock/2013.1/src/exe/rbdock.cxx#4 $)

>  <Rbt.Library>
libRbt.so (2013.1, Build901 2013/11/27)

>  <Rbt.Parameter_File>
/export/apps/rDock/src/rDock_2013.1_src/data/scripts/dock_solv.prm

>  <Rbt.Receptor>
prm/pocket_docking_7.prm

>  <SCORE>
-9.21605

>  <SCORE.INTER>
-9.56322

>  <SCORE.INTER.CONST>
1

>  <SCORE.INTER.POLAR>
0

>  <SCORE.INTER.ROT>
5

>  <SCORE.INTER.SOLV>
16.7136

>  <SCORE.INTER.VDW>
-18.88

>  <SCORE.INTER.norm>
-0.434692

>  <SCORE.INTRA>
0.347175

>  <SCORE.INTRA.DIHEDRAL>
-0.606081

>  <SCORE.INTRA.DIHEDRAL.0>
4.21161

>  <SCORE.INTRA.POLAR>
0

>  <SCORE.INTRA.POLAR.0>
0

>  <SCORE.INTRA.REPUL>
0

>  <SCORE.INTRA.REPUL.0>
0

>  <SCORE.INTRA.SOLV>
0.956981

>  <SCORE.INTRA.SOLV.lig_0>
-41.4168

>  <SCORE.INTRA.VDW>
0.171725

>  <SCORE.INTRA.VDW.0>
-1.62533

>  <SCORE.INTRA.norm>
0.0157807

>  <SCORE.RESTR>
0

>  <SCORE.RESTR.CAVITY>
0

>  <SCORE.RESTR.norm>
0

>  <SCORE.SYSTEM>
0

>  <SCORE.SYSTEM.CONST>
0

>  <SCORE.SYSTEM.DIHEDRAL>
0

>  <SCORE.SYSTEM.SOLV>
0

>  <SCORE.SYSTEM.norm>
0

>  <SCORE.heavy>
22

>  <SCORE.norm>
-0.418911

>  <RMSD>
6.370

$$$$
lig.pdb
 OpenBabel11021811523D
libRbt.so/2013.1/901 2013/11/27
 22 23  0  0  0  0  0  0  0  0999 V2000
   21.0961  -60.8870  -35.9529 O   0  0  0  0  0  0  0  0  0  0  0  0
   21.4337  -59.8602  -36.5210 C   0  0  0  0  0  0  0  0  0  0  0  0
   22.7155  -59.5664  -36.7392 N   0  0  0  0  0  0  0  0  0  0  0  0
   20.3921  -58.8949  -36.9733 C   0  0  0  0  0  0  0  0  0  0  0  0
   20.6770  -57.5286  -37.4388 C   0  0  0  0  0  0  0  0  0  0  0  0
   22.0012  -56.9260  -37.5199 N   0  0  0  0  0  0  0  0  0  0  0  0
   19.0487  -58.9925  -37.0831 N   0  0  0  0  0  0  0  0  0  0  0  0
   18.5702  -57.8036  -37.5648 C   0  0  0  0  0  0  0  0  0  0  0  0
   19.5591  -56.9095  -37.7829 N   0  0  0  0  0  0  0  0  0  0  0  0
   19.4273  -55.5275  -38.3003 C   0  0  1  0  0  0  0  0  0  0  0  0
   17.9622  -55.1507  -38.4462 C   0  0  1  0  0  0  0  0  0  0  0  0
   17.9626  -53.6711  -38.1588 C   0  0  2  0  0  0  0  0  0  0  0  0
   18.2878  -52.9560  -39.3526 O   0  0  0  0  0  0  0  0  0  0  0  0
   17.4968  -55.3946  -39.7742 O   0  0  0  0  0  0  0  0  0  0  0  0
   20.0050  -54.5790  -37.3956 O   0  0  0  0  0  0  0  0  0  0  0  0
   19.0909  -53.5055  -37.1594 C   0  0  2  0  0  0  0  0  0  0  0  0
   18.5462  -53.5774  -35.7413 C   0  0  0  0  0  0  0  0  0  0  0  0
   17.8204  -52.3782  -35.4763 O   0  0  0  0  0  0  0  0  0  0  0  0
   16.2162  -52.3809  -35.3259 P   0  0  0  0  0  0  0  0  0  0  0  0
   15.6930  -52.6440  -36.7190 O   0  0  0  0  0  0  0  0  0  0  0  0
   15.9187  -50.9956  -34.8028 O   0  0  0  0  0  0  0  0  0  0  0  0
   15.9585  -53.4992  -34.3434 O   0  0  0  0  0  0  0  0  0  0  0  0
  1  2  2  0  0  0  0
  2  4  1  0  0  0  0
  2  3  1  0  0  0  0
  4  7  1  0  0  0  0
  5  9  1  0  0  0  0
  5  4  2  0  0  0  0
  6  5  1  0  0  0  0
  8  7  2  0  0  0  0
  9  8  1  0  0  0  0
 10 15  1  0  0  0  0
 10  9  1  1  0  0  0
 10 11  1  0  0  0  0
 11 14  1  6  0  0  0
 11 12  1  0  0  0  0
 12 13  1  6  0  0  0
 15 16  1  0  0  0  0
 16 12  1  0  0  0  0
 16 17  1  1  0  0  0
 17 18  1  0  0  0  0
 18 19  1  0  0  0  0
 19 21  1  0  0  0  0
 19 20  1  0  0  0  0
 22 19  2  0  0  0  0
M  END
>  <CHROM.1>
168.27927185,-174.46300218,-72.19270645,110.15488093,-70.36829977,18.68091790
-55.33307651,-36.91150611,0.21026260,-0.97926013,1.98255128

>  <Name>
lig.pdb

>  <RI>
0

>  <Rbt.Current_Directory>
/home/itssahil/PROJECTS/Mol_Feturizer/New_Systems/rnas/5btp

>  <Rbt.Executable>
rbdock ($Id: //depot/dev/client3/rdock/2013.1/src/exe/rbdock.cxx#4 $)

>  <Rbt.Library>
libRbt.so (2013.1, Build901 2013/11/27)

>  <Rbt.Parameter_File>
/export/apps/rDock/src/rDock_2013.1_src/data/scripts/dock_solv.prm

>  <Rbt.Receptor>
prm/pocket_docking_8.prm

>  <SCORE>
-5.4788

>  <SCORE.INTER>
-8.88795

>  <SCORE.INTER.CONST>
1

>  <SCORE.INTER.POLAR>
0

>  <SCORE.INTER.ROT>
5

>  <SCORE.INTER.SOLV>
19.3149

>  <SCORE.INTER.VDW>
-19.2969

>  <SCORE.INTER.norm>
-0.403998

>  <SCORE.INTRA>
3.40915

>  <SCORE.INTRA.DIHEDRAL>
6.10647

>  <SCORE.INTRA.DIHEDRAL.0>
4.21161

>  <SCORE.INTRA.POLAR>
0

>  <SCORE.INTRA.POLAR.0>
0

>  <SCORE.INTRA.REPUL>
0

>  <SCORE.INTRA.REPUL.0>
0

>  <SCORE.INTRA.SOLV>
1.05518

>  <SCORE.INTRA.SOLV.lig_0>
-41.4168

>  <SCORE.INTRA.VDW>
-0.171672

>  <SCORE.INTRA.VDW.0>
-1.62533

>  <SCORE.INTRA.norm>
0.154962

>  <SCORE.RESTR>
0

>  <SCORE.RESTR.CAVITY>
0

>  <SCORE.RESTR.norm>
0

>  <SCORE.SYSTEM>
0

>  <SCORE.SYSTEM.CONST>
0

>  <SCORE.SYSTEM.DIHEDRAL>
0

>  <SCORE.SYSTEM.SOLV>
0

>  <SCORE.SYSTEM.norm>
0

>  <SCORE.heavy>
22

>  <SCORE.norm>
-0.249036

>  <RMSD>
6.399

$$$$
lig.pdb
 OpenBabel11021811523D
libRbt.so/2013.1/901 2013/11/27
 22 23  0  0  0  0  0  0  0  0999 V2000
   21.6086  -56.5220  -32.6319 O   0  0  0  0  0  0  0  0  0  0  0  0
   21.6887  -57.7341  -32.5072 C   0  0  0  0  0  0  0  0  0  0  0  0
   22.3000  -58.2944  -31.4636 N   0  0  0  0  0  0  0  0  0  0  0  0
   21.1032  -58.6199  -33.5529 C   0  0  0  0  0  0  0  0  0  0  0  0
   20.4046  -58.1332  -34.7530 C   0  0  0  0  0  0  0  0  0  0  0  0
   20.1820  -56.7325  -35.0872 N   0  0  0  0  0  0  0  0  0  0  0  0
   21.0625  -59.9640  -33.6871 N   0  0  0  0  0  0  0  0  0  0  0  0
   20.4038  -60.2593  -34.8504 C   0  0  0  0  0  0  0  0  0  0  0  0
   20.0018  -59.1466  -35.5025 N   0  0  0  0  0  0  0  0  0  0  0  0
   19.2673  -59.0700  -36.7869 C   0  0  1  0  0  0  0  0  0  0  0  0
   17.8803  -58.4862  -36.5734 C   0  0  1  0  0  0  0  0  0  0  0  0
   17.6244  -57.7421  -37.8589 C   0  0  2  0  0  0  0  0  0  0  0  0
   17.1156  -58.6491  -38.8390 O   0  0  0  0  0  0  0  0  0  0  0  0
   16.9080  -59.5178  -36.3992 O   0  0  0  0  0  0  0  0  0  0  0  0
   19.9355  -58.2068  -37.7145 O   0  0  0  0  0  0  0  0  0  0  0  0
   19.0057  -57.2806  -38.2812 C   0  0  2  0  0  0  0  0  0  0  0  0
   19.2701  -55.8780  -37.7560 C   0  0  0  0  0  0  0  0  0  0  0  0
   18.3454  -54.9842  -38.3733 O   0  0  0  0  0  0  0  0  0  0  0  0
   18.3611  -53.4048  -38.0554 P   0  0  0  0  0  0  0  0  0  0  0  0
   19.5838  -53.1911  -37.1936 O   0  0  0  0  0  0  0  0  0  0  0  0
   17.0503  -53.1866  -37.3375 O   0  0  0  0  0  0  0  0  0  0  0  0
   18.4473  -52.7728  -39.4249 O   0  0  0  0  0  0  0  0  0  0  0  0
  1  2  2  0  0  0  0
  2  4  1  0  0  0  0
  2  3  1  0  0  0  0
  4  7  1  0  0  0  0
  5  9  1  0  0  0  0
  5  4  2  0  0  0  0
  6  5  1  0  0  0  0
  8  7  2  0  0  0  0
  9  8  1  0  0  0  0
 10 15  1  0  0  0  0
 10  9  1  1  0  0  0
 10 11  1  0  0  0  0
 11 14  1  6  0  0  0
 11 12  1  0  0  0  0
 12 13  1  6  0  0  0
 15 16  1  0  0  0  0
 16 12  1  0  0  0  0
 16 17  1  1  0  0  0
 17 18  1  0  0  0  0
 18 19  1  0  0  0  0
 19 21  1  0  0  0  0
 19 20  1  0  0  0  0
 22 19  2  0  0  0  0
M  END
>  <CHROM.1>
-0.61584145,-65.74717542,-64.23083648,-179.13226864,6.61556529,19.31919074
-56.87669970,-36.30756828,-0.85777130,-0.93570655,-0.18180533

>  <Name>
lig.pdb

>  <RI>
0

>  <Rbt.Current_Directory>
/home/itssahil/PROJECTS/Mol_Feturizer/New_Systems/rnas/5btp

>  <Rbt.Executable>
rbdock ($Id: //depot/dev/client3/rdock/2013.1/src/exe/rbdock.cxx#4 $)

>  <Rbt.Library>
libRbt.so (2013.1, Build901 2013/11/27)

>  <Rbt.Parameter_File>
/export/apps/rDock/src/rDock_2013.1_src/data/scripts/dock_solv.prm

>  <Rbt.Receptor>
prm/pocket_docking_6.prm

>  <SCORE>
-9.98987

>  <SCORE.INTER>
-10.6604

>  <SCORE.INTER.CONST>
1

>  <SCORE.INTER.POLAR>
0

>  <SCORE.INTER.ROT>
5

>  <SCORE.INTER.SOLV>
17.5115

>  <SCORE.INTER.VDW>
-19.8774

>  <SCORE.INTER.norm>
-0.484563

>  <SCORE.INTRA>
0.670509

>  <SCORE.INTRA.DIHEDRAL>
0.604798

>  <SCORE.INTRA.DIHEDRAL.0>
4.21161

>  <SCORE.INTRA.POLAR>
0

>  <SCORE.INTRA.POLAR.0>
0

>  <SCORE.INTRA.REPUL>
0

>  <SCORE.INTRA.REPUL.0>
0

>  <SCORE.INTRA.SOLV>
1.0616

>  <SCORE.INTRA.SOLV.lig_0>
-41.4168

>  <SCORE.INTRA.VDW>
-0.162691

>  <SCORE.INTRA.VDW.0>
-1.62533

>  <SCORE.INTRA.norm>
0.0304777

>  <SCORE.RESTR>
0

>  <SCORE.RESTR.CAVITY>
0

>  <SCORE.RESTR.norm>
0

>  <SCORE.SYSTEM>
0

>  <SCORE.SYSTEM.CONST>
0

>  <SCORE.SYSTEM.DIHEDRAL>
0

>  <SCORE.SYSTEM.SOLV>
0

>  <SCORE.SYSTEM.norm>
0

>  <SCORE.heavy>
22

>  <SCORE.norm>
-0.454085

>  <RMSD>
6.416

$$$$
lig.pdb
 OpenBabel11021811523D
libRbt.so/2013.1/901 2013/11/27
 22 23  0  0  0  0  0  0  0  0999 V2000
   21.6946  -60.2967  -32.6929 O   0  0  0  0  0  0  0  0  0  0  0  0
   21.7774  -59.5469  -31.7327 C   0  0  0  0  0  0  0  0  0  0  0  0
   21.9638  -60.0069  -30.4956 N   0  0  0  0  0  0  0  0  0  0  0  0
   21.6526  -58.0759  -31.9372 C   0  0  0  0  0  0  0  0  0  0  0  0
   21.4603  -57.4364  -33.2482 C   0  0  0  0  0  0  0  0  0  0  0  0
   21.3698  -58.1383  -34.5219 N   0  0  0  0  0  0  0  0  0  0  0  0
   21.6669  -57.0341  -31.0765 N   0  0  0  0  0  0  0  0  0  0  0  0
   21.5016  -55.8810  -31.7960 C   0  0  0  0  0  0  0  0  0  0  0  0
   21.3752  -56.1221  -33.1191 N   0  0  0  0  0  0  0  0  0  0  0  0
   21.1797  -55.1299  -34.2018 C   0  0  1  0  0  0  0  0  0  0  0  0
   22.2620  -55.2747  -35.2590 C   0  0  1  0  0  0  0  0  0  0  0  0
   21.5479  -54.8909  -36.5297 C   0  0  2  0  0  0  0  0  0  0  0  0
   21.5668  -53.4693  -36.6739 O   0  0  0  0  0  0  0  0  0  0  0  0
   23.3462  -54.3781  -35.0131 O   0  0  0  0  0  0  0  0  0  0  0  0
   19.9279  -55.3312  -34.8684 O   0  0  0  0  0  0  0  0  0  0  0  0
   20.1220  -55.3448  -36.2847 C   0  0  2  0  0  0  0  0  0  0  0  0
   19.9204  -56.7493  -36.8322 C   0  0  0  0  0  0  0  0  0  0  0  0
   18.5693  -57.1376  -36.5895 O   0  0  0  0  0  0  0  0  0  0  0  0
   18.0252  -58.5966  -37.0035 P   0  0  0  0  0  0  0  0  0  0  0  0
   16.5579  -58.5840  -36.6424 O   0  0  0  0  0  0  0  0  0  0  0  0
   18.8638  -59.5271  -36.1597 O   0  0  0  0  0  0  0  0  0  0  0  0
   18.2999  -58.6646  -38.4875 O   0  0  0  0  0  0  0  0  0  0  0  0
  1  2  2  0  0  0  0
  2  4  1  0  0  0  0
  2  3  1  0  0  0  0
  4  7  1  0  0  0  0
  5  9  1  0  0  0  0
  5  4  2  0  0  0  0
  6  5  1  0  0  0  0
  8  7  2  0  0  0  0
  9  8  1  0  0  0  0
 10 15  1  0  0  0  0
 10  9  1  1  0  0  0
 10 11  1  0  0  0  0
 11 14  1  1  0  0  0
 11 12  1  0  0  0  0
 12 13  1  1  0  0  0
 15 16  1  0  0  0  0
 16 12  1  0  0  0  0
 16 17  1  1  0  0  0
 17 18  1  0  0  0  0
 18 19  1  0  0  0  0
 19 21  1  0  0  0  0
 19 20  1  0  0  0  0
 22 19  2  0  0  0  0
M  END
>  <CHROM.1>
-1.39617384,-55.86926592,-179.71683015,-178.04520426,-177.42374435,20.46365414
-57.15983194,-34.82292610,0.53340003,0.84334757,2.44107444

>  <Name>
lig.pdb

>  <RI>
0

>  <Rbt.Current_Directory>
/home/itssahil/PROJECTS/Mol_Feturizer/New_Systems/rnas/5btp

>  <Rbt.Executable>
rbdock ($Id: //depot/dev/client3/rdock/2013.1/src/exe/rbdock.cxx#4 $)

>  <Rbt.Library>
libRbt.so (2013.1, Build901 2013/11/27)

>  <Rbt.Parameter_File>
/export/apps/rDock/src/rDock_2013.1_src/data/scripts/dock_solv.prm

>  <Rbt.Receptor>
prm/pocket_docking_5.prm

>  <SCORE>
-5.9474

>  <SCORE.INTER>
-4.7531

>  <SCORE.INTER.CONST>
1

>  <SCORE.INTER.POLAR>
0

>  <SCORE.INTER.ROT>
5

>  <SCORE.INTER.SOLV>
11.5108

>  <SCORE.INTER.VDW>
-13.939

>  <SCORE.INTER.norm>
-0.21605

>  <SCORE.INTRA>
-1.1943

>  <SCORE.INTRA.DIHEDRAL>
-1.75441

>  <SCORE.INTRA.DIHEDRAL.0>
4.21161

>  <SCORE.INTRA.POLAR>
0

>  <SCORE.INTRA.POLAR.0>
0

>  <SCORE.INTRA.REPUL>
0

>  <SCORE.INTRA.REPUL.0>
0

>  <SCORE.INTRA.SOLV>
1.48589

>  <SCORE.INTRA.SOLV.lig_0>
-41.4168

>  <SCORE.INTRA.VDW>
-1.06004

>  <SCORE.INTRA.VDW.0>
-1.62533

>  <SCORE.INTRA.norm>
-0.0542861

>  <SCORE.RESTR>
0

>  <SCORE.RESTR.CAVITY>
0

>  <SCORE.RESTR.norm>
0

>  <SCORE.SYSTEM>
0

>  <SCORE.SYSTEM.CONST>
0

>  <SCORE.SYSTEM.DIHEDRAL>
0

>  <SCORE.SYSTEM.SOLV>
0

>  <SCORE.SYSTEM.norm>
0

>  <SCORE.heavy>
22

>  <SCORE.norm>
-0.270336

>  <RMSD>
6.430

$$$$
lig.pdb
 OpenBabel11021811523D
libRbt.so/2013.1/901 2013/11/27
 22 23  0  0  0  0  0  0  0  0999 V2000
   21.0983  -61.0029  -31.1425 O   0  0  0  0  0  0  0  0  0  0  0  0
   21.3264  -59.8145  -31.3058 C   0  0  0  0  0  0  0  0  0  0  0  0
   21.7279  -59.0317  -30.3044 N   0  0  0  0  0  0  0  0  0  0  0  0
   21.1391  -59.2097  -32.6550 C   0  0  0  0  0  0  0  0  0  0  0  0
   21.3846  -57.7931  -32.9678 C   0  0  0  0  0  0  0  0  0  0  0  0
   21.8362  -56.7869  -32.0154 N   0  0  0  0  0  0  0  0  0  0  0  0
   20.7480  -59.7313  -33.8387 N   0  0  0  0  0  0  0  0  0  0  0  0
   20.7549  -58.7297  -34.7722 C   0  0  0  0  0  0  0  0  0  0  0  0
   21.1424  -57.5477  -34.2454 N   0  0  0  0  0  0  0  0  0  0  0  0
   21.2732  -56.2483  -34.9450 C   0  0  1  0  0  0  0  0  0  0  0  0
   22.3179  -56.3383  -36.0452 C   0  0  1  0  0  0  0  0  0  0  0  0
   21.7913  -55.3891  -37.0909 C   0  0  2  0  0  0  0  0  0  0  0  0
   22.2061  -54.0584  -36.7759 O   0  0  0  0  0  0  0  0  0  0  0  0
   23.5953  -55.9000  -35.5804 O   0  0  0  0  0  0  0  0  0  0  0  0
   20.0437  -55.8757  -35.5785 O   0  0  0  0  0  0  0  0  0  0  0  0
   20.2865  -55.4890  -36.9333 C   0  0  2  0  0  0  0  0  0  0  0  0
   19.7302  -56.5334  -37.8888 C   0  0  0  0  0  0  0  0  0  0  0  0
   18.4271  -56.9039  -37.4418 O   0  0  0  0  0  0  0  0  0  0  0  0
   17.6366  -58.1486  -38.0912 P   0  0  0  0  0  0  0  0  0  0  0  0
   17.0926  -57.6264  -39.4007 O   0  0  0  0  0  0  0  0  0  0  0  0
   16.5783  -58.4586  -37.0592 O   0  0  0  0  0  0  0  0  0  0  0  0
   18.7070  -59.2044  -38.2393 O   0  0  0  0  0  0  0  0  0  0  0  0
  1  2  2  0  0  0  0
  2  4  1  0  0  0  0
  2  3  1  0  0  0  0
  4  7  1  0  0  0  0
  5  9  1  0  0  0  0
  5  4  2  0  0  0  0
  6  5  1  0  0  0  0
  8  7  2  0  0  0  0
  9  8  1  0  0  0  0
 10 15  1  0  0  0  0
 10  9  1  6  0  0  0
 10 11  1  0  0  0  0
 11 14  1  1  0  0  0
 11 12  1  0  0  0  0
 12 13  1  1  0  0  0
 15 16  1  0  0  0  0
 16 12  1  0  0  0  0
 16 17  1  6  0  0  0
 17 18  1  0  0  0  0
 18 19  1  0  0  0  0
 19 21  1  0  0  0  0
 19 20  1  0  0  0  0
 22 19  2  0  0  0  0
M  END
>  <CHROM.1>
-179.91464016,117.99695996,162.04636575,-170.63176136,-78.24967454,20.28247610
-57.55206974,-35.44439366,0.93754213,0.68146591,2.25001766

>  <Name>
lig.pdb

>  <RI>
0

>  <Rbt.Current_Directory>
/home/itssahil/PROJECTS/Mol_Feturizer/New_Systems/rnas/5btp

>  <Rbt.Executable>
rbdock ($Id: //depot/dev/client3/rdock/2013.1/src/exe/rbdock.cxx#4 $)

>  <Rbt.Library>
libRbt.so (2013.1, Build901 2013/11/27)

>  <Rbt.Parameter_File>
/export/apps/rDock/src/rDock_2013.1_src/data/scripts/dock_solv.prm

>  <Rbt.Receptor>
prm/pocket_docking_6.prm

>  <SCORE>
-7.47808

>  <SCORE.INTER>
-7.28464

>  <SCORE.INTER.CONST>
1

>  <SCORE.INTER.POLAR>
0

>  <SCORE.INTER.ROT>
5

>  <SCORE.INTER.SOLV>
13.3044

>  <SCORE.INTER.VDW>
-16.2246

>  <SCORE.INTER.norm>
-0.33112

>  <SCORE.INTRA>
-0.193431

>  <SCORE.INTRA.DIHEDRAL>
0.225876

>  <SCORE.INTRA.DIHEDRAL.0>
4.21161

>  <SCORE.INTRA.POLAR>
0

>  <SCORE.INTRA.POLAR.0>
0

>  <SCORE.INTRA.REPUL>
0

>  <SCORE.INTRA.REPUL.0>
0

>  <SCORE.INTRA.SOLV>
0.347283

>  <SCORE.INTRA.SOLV.lig_0>
-41.4168

>  <SCORE.INTRA.VDW>
-0.48001

>  <SCORE.INTRA.VDW.0>
-1.62533

>  <SCORE.INTRA.norm>
-0.00879231

>  <SCORE.RESTR>
0

>  <SCORE.RESTR.CAVITY>
0

>  <SCORE.RESTR.norm>
0

>  <SCORE.SYSTEM>
0

>  <SCORE.SYSTEM.CONST>
0

>  <SCORE.SYSTEM.DIHEDRAL>
0

>  <SCORE.SYSTEM.SOLV>
0

>  <SCORE.SYSTEM.norm>
0

>  <SCORE.heavy>
22

>  <SCORE.norm>
-0.339913

>  <RMSD>
6.432

$$$$
lig.pdb
 OpenBabel11021811523D
libRbt.so/2013.1/901 2013/11/27
 22 23  0  0  0  0  0  0  0  0999 V2000
   20.4422  -61.9658  -32.8494 O   0  0  0  0  0  0  0  0  0  0  0  0
   20.9374  -61.1260  -32.1142 C   0  0  0  0  0  0  0  0  0  0  0  0
   21.2758  -61.4056  -30.8555 N   0  0  0  0  0  0  0  0  0  0  0  0
   21.1595  -59.7433  -32.6238 C   0  0  0  0  0  0  0  0  0  0  0  0
   20.7754  -59.2857  -33.9684 C   0  0  0  0  0  0  0  0  0  0  0  0
   20.1346  -60.1082  -34.9863 N   0  0  0  0  0  0  0  0  0  0  0  0
   21.7022  -58.6423  -32.0585 N   0  0  0  0  0  0  0  0  0  0  0  0
   21.6525  -57.6227  -32.9709 C   0  0  0  0  0  0  0  0  0  0  0  0
   21.0884  -58.0107  -34.1353 N   0  0  0  0  0  0  0  0  0  0  0  0
   20.8624  -57.1875  -35.3462 C   0  0  1  0  0  0  0  0  0  0  0  0
   21.4181  -57.8858  -36.5765 C   0  0  1  0  0  0  0  0  0  0  0  0
   20.4766  -57.4478  -37.6690 C   0  0  2  0  0  0  0  0  0  0  0  0
   20.8940  -56.1780  -38.1743 O   0  0  0  0  0  0  0  0  0  0  0  0
   22.7458  -57.4448  -36.8641 O   0  0  0  0  0  0  0  0  0  0  0  0
   19.4637  -56.9910  -35.5848 O   0  0  0  0  0  0  0  0  0  0  0  0
   19.1522  -57.2832  -36.9492 C   0  0  2  0  0  0  0  0  0  0  0  0
   18.3442  -58.5683  -37.0432 C   0  0  0  0  0  0  0  0  0  0  0  0
   17.9470  -58.7520  -38.4010 O   0  0  0  0  0  0  0  0  0  0  0  0
   16.7795  -57.8617  -39.0645 P   0  0  0  0  0  0  0  0  0  0  0  0
   16.6330  -58.3940  -40.4712 O   0  0  0  0  0  0  0  0  0  0  0  0
   17.3324  -56.4584  -38.9867 O   0  0  0  0  0  0  0  0  0  0  0  0
   15.5887  -58.1250  -38.1728 O   0  0  0  0  0  0  0  0  0  0  0  0
  1  2  2  0  0  0  0
  2  4  1  0  0  0  0
  2  3  1  0  0  0  0
  4  7  1  0  0  0  0
  5  9  1  0  0  0  0
  5  4  2  0  0  0  0
  6  5  1  0  0  0  0
  8  7  2  0  0  0  0
  9  8  1  0  0  0  0
 10 15  1  0  0  0  0
 10  9  1  1  0  0  0
 10 11  1  0  0  0  0
 11 14  1  6  0  0  0
 11 12  1  0  0  0  0
 12 13  1  1  0  0  0
 15 16  1  0  0  0  0
 16 12  1  0  0  0  0
 16 17  1  1  0  0  0
 17 18  1  0  0  0  0
 18 19  1  0  0  0  0
 19 21  1  0  0  0  0
 19 20  1  0  0  0  0
 22 19  2  0  0  0  0
M  END
>  <CHROM.1>
2.23864830,-51.51592896,-68.21157654,-74.12066563,-178.01077975,19.61680831
-58.41021795,-36.02440764,0.94465548,0.53039566,2.26122594

>  <Name>
lig.pdb

>  <RI>
0

>  <Rbt.Current_Directory>
/home/itssahil/PROJECTS/Mol_Feturizer/New_Systems/rnas/5btp

>  <Rbt.Executable>
rbdock ($Id: //depot/dev/client3/rdock/2013.1/src/exe/rbdock.cxx#4 $)

>  <Rbt.Library>
libRbt.so (2013.1, Build901 2013/11/27)

>  <Rbt.Parameter_File>
/export/apps/rDock/src/rDock_2013.1_src/data/scripts/dock_solv.prm

>  <Rbt.Receptor>
prm/pocket_docking_4.prm

>  <SCORE>
-11.1255

>  <SCORE.INTER>
-10.9852

>  <SCORE.INTER.CONST>
1

>  <SCORE.INTER.POLAR>
0

>  <SCORE.INTER.ROT>
5

>  <SCORE.INTER.SOLV>
15.974

>  <SCORE.INTER.VDW>
-19.5814

>  <SCORE.INTER.norm>
-0.499326

>  <SCORE.INTRA>
-0.145101

>  <SCORE.INTRA.DIHEDRAL>
-0.579201

>  <SCORE.INTRA.DIHEDRAL.0>
4.21161

>  <SCORE.INTRA.POLAR>
0

>  <SCORE.INTRA.POLAR.0>
0

>  <SCORE.INTRA.REPUL>
0

>  <SCORE.INTRA.REPUL.0>
0

>  <SCORE.INTRA.SOLV>
1.88033

>  <SCORE.INTRA.SOLV.lig_0>
-41.4168

>  <SCORE.INTRA.VDW>
-0.795667

>  <SCORE.INTRA.VDW.0>
-1.62533

>  <SCORE.INTRA.norm>
-0.0065955

>  <SCORE.RESTR>
0.00477957

>  <SCORE.RESTR.CAVITY>
0.00477957

>  <SCORE.RESTR.norm>
0.000217253

>  <SCORE.SYSTEM>
0

>  <SCORE.SYSTEM.CONST>
0

>  <SCORE.SYSTEM.DIHEDRAL>
0

>  <SCORE.SYSTEM.SOLV>
0

>  <SCORE.SYSTEM.norm>
0

>  <SCORE.heavy>
22

>  <SCORE.norm>
-0.505704

>  <RMSD>
6.442

$$$$
lig.pdb
 OpenBabel11021811523D
libRbt.so/2013.1/901 2013/11/27
 22 23  0  0  0  0  0  0  0  0999 V2000
   24.1167  -60.2978  -34.4350 O   0  0  0  0  0  0  0  0  0  0  0  0
   24.1534  -59.0897  -34.2612 C   0  0  0  0  0  0  0  0  0  0  0  0
   24.9918  -58.5302  -33.3889 N   0  0  0  0  0  0  0  0  0  0  0  0
   23.2287  -58.2091  -35.0296 C   0  0  0  0  0  0  0  0  0  0  0  0
   22.2581  -58.6951  -36.0228 C   0  0  0  0  0  0  0  0  0  0  0  0
   22.0651  -60.0896  -36.3986 N   0  0  0  0  0  0  0  0  0  0  0  0
   23.0331  -56.8719  -35.0248 N   0  0  0  0  0  0  0  0  0  0  0  0
   22.0448  -56.5797  -35.9261 C   0  0  0  0  0  0  0  0  0  0  0  0
   21.5701  -57.6877  -36.5358 N   0  0  0  0  0  0  0  0  0  0  0  0
   20.5033  -57.7660  -37.5608 C   0  0  1  0  0  0  0  0  0  0  0  0
   19.1424  -57.9233  -36.9026 C   0  0  1  0  0  0  0  0  0  0  0  0
   18.2219  -57.1972  -37.8497 C   0  0  2  0  0  0  0  0  0  0  0  0
   17.8369  -58.0787  -38.9065 O   0  0  0  0  0  0  0  0  0  0  0  0
   18.7698  -59.2991  -36.8111 O   0  0  0  0  0  0  0  0  0  0  0  0
   20.4443  -56.5648  -38.3390 O   0  0  0  0  0  0  0  0  0  0  0  0
   19.0960  -56.0958  -38.4174 C   0  0  2  0  0  0  0  0  0  0  0  0
   18.9303  -54.8245  -37.5992 C   0  0  0  0  0  0  0  0  0  0  0  0
   19.3573  -55.0895  -36.2641 O   0  0  0  0  0  0  0  0  0  0  0  0
   19.2705  -53.9649  -35.1136 P   0  0  0  0  0  0  0  0  0  0  0  0
   17.7990  -53.6438  -34.9905 O   0  0  0  0  0  0  0  0  0  0  0  0
   20.1068  -52.8380  -35.6721 O   0  0  0  0  0  0  0  0  0  0  0  0
   19.8598  -54.6539  -33.9052 O   0  0  0  0  0  0  0  0  0  0  0  0
  1  2  2  0  0  0  0
  2  4  1  0  0  0  0
  2  3  1  0  0  0  0
  4  7  1  0  0  0  0
  5  9  1  0  0  0  0
  5  4  2  0  0  0  0
  6  5  1  0  0  0  0
  8  7  2  0  0  0  0
  9  8  1  0  0  0  0
 10 15  1  0  0  0  0
 10  9  1  1  0  0  0
 10 11  1  0  0  0  0
 11 14  1  6  0  0  0
 11 12  1  0  0  0  0
 12 13  1  6  0  0  0
 15 16  1  0  0  0  0
 16 12  1  0  0  0  0
 16 17  1  1  0  0  0
 17 18  1  0  0  0  0
 18 19  1  0  0  0  0
 19 21  1  0  0  0  0
 19 20  1  0  0  0  0
 22 19  2  0  0  0  0
M  END
>  <CHROM.1>
-0.81902986,90.58847363,61.81610243,-178.00534666,61.73773964,20.60956647
-56.77819760,-36.10117585,-0.47871251,-0.62969245,0.52054678

>  <Name>
lig.pdb

>  <RI>
0

>  <Rbt.Current_Directory>
/home/itssahil/PROJECTS/Mol_Feturizer/New_Systems/rnas/5btp

>  <Rbt.Executable>
rbdock ($Id: //depot/dev/client3/rdock/2013.1/src/exe/rbdock.cxx#4 $)

>  <Rbt.Library>
libRbt.so (2013.1, Build901 2013/11/27)

>  <Rbt.Parameter_File>
/export/apps/rDock/src/rDock_2013.1_src/data/scripts/dock_solv.prm

>  <Rbt.Receptor>
prm/pocket_docking_7.prm

>  <SCORE>
-6.54785

>  <SCORE.INTER>
-4.94035

>  <SCORE.INTER.CONST>
1

>  <SCORE.INTER.POLAR>
0

>  <SCORE.INTER.ROT>
5

>  <SCORE.INTER.SOLV>
9.14999

>  <SCORE.INTER.VDW>
-13.2769

>  <SCORE.INTER.norm>
-0.224561

>  <SCORE.INTRA>
-1.6075

>  <SCORE.INTRA.DIHEDRAL>
-1.74772

>  <SCORE.INTRA.DIHEDRAL.0>
4.21161

>  <SCORE.INTRA.POLAR>
0

>  <SCORE.INTRA.POLAR.0>
0

>  <SCORE.INTRA.REPUL>
0

>  <SCORE.INTRA.REPUL.0>
0

>  <SCORE.INTRA.SOLV>
1.13329

>  <SCORE.INTRA.SOLV.lig_0>
-41.4168

>  <SCORE.INTRA.VDW>
-1.30029

>  <SCORE.INTRA.VDW.0>
-1.62533

>  <SCORE.INTRA.norm>
-0.0730683

>  <SCORE.RESTR>
0

>  <SCORE.RESTR.CAVITY>
0

>  <SCORE.RESTR.norm>
0

>  <SCORE.SYSTEM>
0

>  <SCORE.SYSTEM.CONST>
0

>  <SCORE.SYSTEM.DIHEDRAL>
0

>  <SCORE.SYSTEM.SOLV>
0

>  <SCORE.SYSTEM.norm>
0

>  <SCORE.heavy>
22

>  <SCORE.norm>
-0.29763

>  <RMSD>
6.460

$$$$
lig.pdb
 OpenBabel11021811523D
libRbt.so/2013.1/901 2013/11/27
 22 23  0  0  0  0  0  0  0  0999 V2000
   19.8786  -60.4382  -35.0708 O   0  0  0  0  0  0  0  0  0  0  0  0
   20.0594  -59.2322  -35.0076 C   0  0  0  0  0  0  0  0  0  0  0  0
   20.6581  -58.6651  -33.9604 N   0  0  0  0  0  0  0  0  0  0  0  0
   19.5877  -58.3600  -36.1202 C   0  0  0  0  0  0  0  0  0  0  0  0
   19.8687  -56.9190  -36.2176 C   0  0  0  0  0  0  0  0  0  0  0  0
   20.6351  -56.1437  -35.2508 N   0  0  0  0  0  0  0  0  0  0  0  0
   18.8630  -58.6163  -37.2317 N   0  0  0  0  0  0  0  0  0  0  0  0
   18.7192  -57.4471  -37.9293 C   0  0  0  0  0  0  0  0  0  0  0  0
   19.3308  -56.4111  -37.3148 N   0  0  0  0  0  0  0  0  0  0  0  0
   19.3923  -55.0022  -37.7691 C   0  0  1  0  0  0  0  0  0  0  0  0
   18.0506  -54.5655  -38.3340 C   0  0  1  0  0  0  0  0  0  0  0  0
   17.9929  -53.1022  -37.9774 C   0  0  2  0  0  0  0  0  0  0  0  0
   18.6833  -52.3437  -38.9725 O   0  0  0  0  0  0  0  0  0  0  0  0
   18.0104  -54.7290  -39.7522 O   0  0  0  0  0  0  0  0  0  0  0  0
   19.6836  -54.1194  -36.6793 O   0  0  0  0  0  0  0  0  0  0  0  0
   18.7632  -53.0255  -36.6735 C   0  0  2  0  0  0  0  0  0  0  0  0
   17.8082  -53.1445  -35.4958 C   0  0  0  0  0  0  0  0  0  0  0  0
   16.8591  -52.0825  -35.5766 O   0  0  0  0  0  0  0  0  0  0  0  0
   15.5997  -52.0010  -34.5751 P   0  0  0  0  0  0  0  0  0  0  0  0
   16.1904  -52.1408  -33.1913 O   0  0  0  0  0  0  0  0  0  0  0  0
   14.7437  -53.1687  -35.0052 O   0  0  0  0  0  0  0  0  0  0  0  0
   15.0094  -50.6409  -34.8648 O   0  0  0  0  0  0  0  0  0  0  0  0
  1  2  2  0  0  0  0
  2  4  1  0  0  0  0
  2  3  1  0  0  0  0
  4  7  1  0  0  0  0
  5  9  1  0  0  0  0
  5  4  2  0  0  0  0
  6  5  1  0  0  0  0
  8  7  2  0  0  0  0
  9  8  1  0  0  0  0
 10 15  1  0  0  0  0
 10  9  1  1  0  0  0
 10 11  1  0  0  0  0
 11 14  1  6  0  0  0
 11 12  1  0  0  0  0
 12 13  1  6  0  0  0
 15 16  1  0  0  0  0
 16 12  1  0  0  0  0
 16 17  1  1  0  0  0
 17 18  1  0  0  0  0
 18 19  1  0  0  0  0
 19 21  1  0  0  0  0
 19 20  1  0  0  0  0
 22 19  2  0  0  0  0
M  END
>  <CHROM.1>
-173.55018965,-139.22585037,-59.14136172,173.15761943,51.19533594,18.16055834
-54.82894535,-36.20713796,0.40758721,-0.99475199,2.15916267

>  <Name>
lig.pdb

>  <RI>
0

>  <Rbt.Current_Directory>
/home/itssahil/PROJECTS/Mol_Feturizer/New_Systems/rnas/5btp

>  <Rbt.Executable>
rbdock ($Id: //depot/dev/client3/rdock/2013.1/src/exe/rbdock.cxx#4 $)

>  <Rbt.Library>
libRbt.so (2013.1, Build901 2013/11/27)

>  <Rbt.Parameter_File>
/export/apps/rDock/src/rDock_2013.1_src/data/scripts/dock_solv.prm

>  <Rbt.Receptor>
prm/pocket_docking_8.prm

>  <SCORE>
-10.0377

>  <SCORE.INTER>
-9.80904

>  <SCORE.INTER.CONST>
1

>  <SCORE.INTER.POLAR>
0

>  <SCORE.INTER.ROT>
5

>  <SCORE.INTER.SOLV>
15.6414

>  <SCORE.INTER.VDW>
-18.6865

>  <SCORE.INTER.norm>
-0.445865

>  <SCORE.INTRA>
-0.228711

>  <SCORE.INTRA.DIHEDRAL>
-1.28746

>  <SCORE.INTRA.DIHEDRAL.0>
4.21161

>  <SCORE.INTRA.POLAR>
0

>  <SCORE.INTRA.POLAR.0>
0

>  <SCORE.INTRA.REPUL>
0

>  <SCORE.INTRA.REPUL.0>
0

>  <SCORE.INTRA.SOLV>
0.582274

>  <SCORE.INTRA.SOLV.lig_0>
-41.4168

>  <SCORE.INTRA.VDW>
0.123881

>  <SCORE.INTRA.VDW.0>
-1.62533

>  <SCORE.INTRA.norm>
-0.0103959

>  <SCORE.RESTR>
0

>  <SCORE.RESTR.CAVITY>
0

>  <SCORE.RESTR.norm>
0

>  <SCORE.SYSTEM>
0

>  <SCORE.SYSTEM.CONST>
0

>  <SCORE.SYSTEM.DIHEDRAL>
0

>  <SCORE.SYSTEM.SOLV>
0

>  <SCORE.SYSTEM.norm>
0

>  <SCORE.heavy>
22

>  <SCORE.norm>
-0.456261

>  <RMSD>
6.508

$$$$
lig.pdb
 OpenBabel11021811523D
libRbt.so/2013.1/901 2013/11/27
 22 23  0  0  0  0  0  0  0  0999 V2000
   20.2200  -51.0973  -36.8845 O   0  0  0  0  0  0  0  0  0  0  0  0
   19.8838  -52.2499  -37.1071 C   0  0  0  0  0  0  0  0  0  0  0  0
   18.7935  -52.5394  -37.8171 N   0  0  0  0  0  0  0  0  0  0  0  0
   20.7000  -53.3711  -36.5613 C   0  0  0  0  0  0  0  0  0  0  0  0
   20.3771  -54.7949  -36.7444 C   0  0  0  0  0  0  0  0  0  0  0  0
   19.2246  -55.3096  -37.4725 N   0  0  0  0  0  0  0  0  0  0  0  0
   21.8414  -53.3966  -35.8381 N   0  0  0  0  0  0  0  0  0  0  0  0
   22.1733  -54.7045  -35.6063 C   0  0  0  0  0  0  0  0  0  0  0  0
   21.2838  -55.5591  -36.1570 N   0  0  0  0  0  0  0  0  0  0  0  0
   21.3128  -57.0398  -36.1177 C   0  0  1  0  0  0  0  0  0  0  0  0
   20.5290  -57.5565  -34.9225 C   0  0  1  0  0  0  0  0  0  0  0  0
   19.9661  -58.8613  -35.4247 C   0  0  2  0  0  0  0  0  0  0  0  0
   20.9406  -59.8935  -35.2595 O   0  0  0  0  0  0  0  0  0  0  0  0
   21.3870  -57.7879  -33.8043 O   0  0  0  0  0  0  0  0  0  0  0  0
   20.6971  -57.6005  -37.2833 O   0  0  0  0  0  0  0  0  0  0  0  0
   19.7576  -58.6097  -36.9054 C   0  0  2  0  0  0  0  0  0  0  0  0
   18.3366  -58.1300  -37.1579 C   0  0  0  0  0  0  0  0  0  0  0  0
   18.0803  -58.1994  -38.5596 O   0  0  0  0  0  0  0  0  0  0  0  0
   16.6745  -57.7191  -39.1832 P   0  0  0  0  0  0  0  0  0  0  0  0
   16.8006  -56.2198  -39.3235 O   0  0  0  0  0  0  0  0  0  0  0  0
   15.6701  -58.1629  -38.1462 O   0  0  0  0  0  0  0  0  0  0  0  0
   16.6016  -58.4626  -40.4962 O   0  0  0  0  0  0  0  0  0  0  0  0
  1  2  2  0  0  0  0
  2  4  1  0  0  0  0
  2  3  1  0  0  0  0
  4  7  1  0  0  0  0
  5  9  1  0  0  0  0
  5  4  2  0  0  0  0
  6  5  1  0  0  0  0
  8  7  2  0  0  0  0
  9  8  1  0  0  0  0
 10 15  1  0  0  0  0
 10  9  1  6  0  0  0
 10 11  1  0  0  0  0
 11 14  1  1  0  0  0
 11 12  1  0  0  0  0
 12 13  1  6  0  0  0
 15 16  1  0  0  0  0
 16 12  1  0  0  0  0
 16 17  1  1  0  0  0
 17 18  1  0  0  0  0
 18 19  1  0  0  0  0
 19 21  1  0  0  0  0
 19 20  1  0  0  0  0
 22 19  2  0  0  0  0
M  END
>  <CHROM.1>
178.81724535,-88.53666647,-166.80600704,-178.09619453,82.50771530,19.38287967
-56.39432759,-37.10436989,0.65653226,-0.71102946,-0.17651889

>  <Name>
lig.pdb

>  <RI>
0

>  <Rbt.Current_Directory>
/home/itssahil/PROJECTS/Mol_Feturizer/New_Systems/rnas/5btp

>  <Rbt.Executable>
rbdock ($Id: //depot/dev/client3/rdock/2013.1/src/exe/rbdock.cxx#4 $)

>  <Rbt.Library>
libRbt.so (2013.1, Build901 2013/11/27)

>  <Rbt.Parameter_File>
/export/apps/rDock/src/rDock_2013.1_src/data/scripts/dock_solv.prm

>  <Rbt.Receptor>
prm/pocket_docking_7.prm

>  <SCORE>
-9.1734

>  <SCORE.INTER>
-9.14333

>  <SCORE.INTER.CONST>
1

>  <SCORE.INTER.POLAR>
0

>  <SCORE.INTER.ROT>
5

>  <SCORE.INTER.SOLV>
15.6104

>  <SCORE.INTER.VDW>
-18.2324

>  <SCORE.INTER.norm>
-0.415606

>  <SCORE.INTRA>
-0.0300749

>  <SCORE.INTRA.DIHEDRAL>
-0.442927

>  <SCORE.INTRA.DIHEDRAL.0>
4.21161

>  <SCORE.INTRA.POLAR>
0

>  <SCORE.INTRA.POLAR.0>
0

>  <SCORE.INTRA.REPUL>
0.00105527

>  <SCORE.INTRA.REPUL.0>
0

>  <SCORE.INTRA.SOLV>
1.66757

>  <SCORE.INTRA.SOLV.lig_0>
-41.4168

>  <SCORE.INTRA.VDW>
-0.647675

>  <SCORE.INTRA.VDW.0>
-1.62533

>  <SCORE.INTRA.norm>
-0.00136704

>  <SCORE.RESTR>
0

>  <SCORE.RESTR.CAVITY>
0

>  <SCORE.RESTR.norm>
0

>  <SCORE.SYSTEM>
0

>  <SCORE.SYSTEM.CONST>
0

>  <SCORE.SYSTEM.DIHEDRAL>
0

>  <SCORE.SYSTEM.SOLV>
0

>  <SCORE.SYSTEM.norm>
0

>  <SCORE.heavy>
22

>  <SCORE.norm>
-0.416973

>  <RMSD>
6.558

$$$$
lig.pdb
 OpenBabel11021811523D
libRbt.so/2013.1/901 2013/11/27
 22 23  0  0  0  0  0  0  0  0999 V2000
   21.5142  -61.4064  -32.0414 O   0  0  0  0  0  0  0  0  0  0  0  0
   21.5637  -60.1941  -31.9030 C   0  0  0  0  0  0  0  0  0  0  0  0
   22.0268  -59.6325  -30.7863 N   0  0  0  0  0  0  0  0  0  0  0  0
   21.0813  -59.3095  -33.0011 C   0  0  0  0  0  0  0  0  0  0  0  0
   20.5488  -59.7976  -34.2830 C   0  0  0  0  0  0  0  0  0  0  0  0
   20.4216  -61.1986  -34.6627 N   0  0  0  0  0  0  0  0  0  0  0  0
   20.9945  -57.9657  -33.1142 N   0  0  0  0  0  0  0  0  0  0  0  0
   20.4645  -57.6718  -34.3419 C   0  0  0  0  0  0  0  0  0  0  0  0
   20.1915  -58.7851  -35.0565 N   0  0  0  0  0  0  0  0  0  0  0  0
   19.6122  -58.8633  -36.4179 C   0  0  1  0  0  0  0  0  0  0  0  0
   18.1698  -58.3845  -36.4115 C   0  0  1  0  0  0  0  0  0  0  0  0
   18.0143  -57.7591  -37.7740 C   0  0  2  0  0  0  0  0  0  0  0  0
   17.6960  -58.7739  -38.7284 O   0  0  0  0  0  0  0  0  0  0  0  0
   17.2639  -59.4789  -36.2653 O   0  0  0  0  0  0  0  0  0  0  0  0
   20.3199  -58.0161  -37.3308 O   0  0  0  0  0  0  0  0  0  0  0  0
   19.3976  -57.2146  -38.0729 C   0  0  2  0  0  0  0  0  0  0  0  0
   19.4912  -55.7606  -37.6370 C   0  0  0  0  0  0  0  0  0  0  0  0
   18.5635  -54.9988  -38.4078 O   0  0  0  0  0  0  0  0  0  0  0  0
   18.3766  -53.4153  -38.1760 P   0  0  0  0  0  0  0  0  0  0  0  0
   18.3640  -52.8156  -39.5630 O   0  0  0  0  0  0  0  0  0  0  0  0
   19.5860  -53.0446  -37.3508 O   0  0  0  0  0  0  0  0  0  0  0  0
   17.0572  -53.3216  -37.4460 O   0  0  0  0  0  0  0  0  0  0  0  0
  1  2  2  0  0  0  0
  2  4  1  0  0  0  0
  2  3  1  0  0  0  0
  4  7  1  0  0  0  0
  5  9  1  0  0  0  0
  5  4  2  0  0  0  0
  6  5  1  0  0  0  0
  8  7  2  0  0  0  0
  9  8  1  0  0  0  0
 10 15  1  0  0  0  0
 10  9  1  1  0  0  0
 10 11  1  0  0  0  0
 11 14  1  6  0  0  0
 11 12  1  0  0  0  0
 12 13  1  6  0  0  0
 15 16  1  0  0  0  0
 16 12  1  0  0  0  0
 16 17  1  1  0  0  0
 17 18  1  0  0  0  0
 18 19  1  0  0  0  0
 19 21  1  0  0  0  0
 19 20  1  0  0  0  0
 22 19  2  0  0  0  0
M  END
>  <CHROM.1>
-0.76589536,112.29721618,-63.10394690,178.49122709,134.56720575,19.45831626
-57.31167583,-36.07433273,-0.93765836,-1.00682529,-0.17708992

>  <Name>
lig.pdb

>  <RI>
0

>  <Rbt.Current_Directory>
/home/itssahil/PROJECTS/Mol_Feturizer/New_Systems/rnas/5btp

>  <Rbt.Executable>
rbdock ($Id: //depot/dev/client3/rdock/2013.1/src/exe/rbdock.cxx#4 $)

>  <Rbt.Library>
libRbt.so (2013.1, Build901 2013/11/27)

>  <Rbt.Parameter_File>
/export/apps/rDock/src/rDock_2013.1_src/data/scripts/dock_solv.prm

>  <Rbt.Receptor>
prm/pocket_docking_5.prm

>  <SCORE>
-9.37343

>  <SCORE.INTER>
-9.7386

>  <SCORE.INTER.CONST>
1

>  <SCORE.INTER.POLAR>
0

>  <SCORE.INTER.ROT>
5

>  <SCORE.INTER.SOLV>
17.6726

>  <SCORE.INTER.VDW>
-19.3166

>  <SCORE.INTER.norm>
-0.442664

>  <SCORE.INTRA>
0.365165

>  <SCORE.INTRA.DIHEDRAL>
0.325287

>  <SCORE.INTRA.DIHEDRAL.0>
4.21161

>  <SCORE.INTRA.POLAR>
0

>  <SCORE.INTRA.POLAR.0>
0

>  <SCORE.INTRA.REPUL>
0

>  <SCORE.INTRA.REPUL.0>
0

>  <SCORE.INTRA.SOLV>
-0.194853

>  <SCORE.INTRA.SOLV.lig_0>
-41.4168

>  <SCORE.INTRA.VDW>
0.299947

>  <SCORE.INTRA.VDW.0>
-1.62533

>  <SCORE.INTRA.norm>
0.0165984

>  <SCORE.RESTR>
0

>  <SCORE.RESTR.CAVITY>
0

>  <SCORE.RESTR.norm>
0

>  <SCORE.SYSTEM>
0

>  <SCORE.SYSTEM.CONST>
0

>  <SCORE.SYSTEM.DIHEDRAL>
0

>  <SCORE.SYSTEM.SOLV>
0

>  <SCORE.SYSTEM.norm>
0

>  <SCORE.heavy>
22

>  <SCORE.norm>
-0.426065

>  <RMSD>
6.581

$$$$
lig.pdb
 OpenBabel11021811523D
libRbt.so/2013.1/901 2013/11/27
 22 23  0  0  0  0  0  0  0  0999 V2000
   22.1759  -60.1864  -33.9721 O   0  0  0  0  0  0  0  0  0  0  0  0
   21.7574  -59.8114  -35.0562 C   0  0  0  0  0  0  0  0  0  0  0  0
   21.5496  -60.6614  -36.0617 N   0  0  0  0  0  0  0  0  0  0  0  0
   21.4827  -58.3631  -35.2760 C   0  0  0  0  0  0  0  0  0  0  0  0
   20.9279  -57.8059  -36.5197 C   0  0  0  0  0  0  0  0  0  0  0  0
   20.5752  -58.5780  -37.7040 N   0  0  0  0  0  0  0  0  0  0  0  0
   21.6358  -57.2785  -34.4846 N   0  0  0  0  0  0  0  0  0  0  0  0
   21.2172  -56.1766  -35.1812 C   0  0  0  0  0  0  0  0  0  0  0  0
   20.7850  -56.4940  -36.4210 N   0  0  0  0  0  0  0  0  0  0  0  0
   20.2588  -55.5734  -37.4557 C   0  0  1  0  0  0  0  0  0  0  0  0
   18.7867  -55.8485  -37.7147 C   0  0  1  0  0  0  0  0  0  0  0  0
   18.2424  -54.4855  -38.0577 C   0  0  2  0  0  0  0  0  0  0  0  0
   18.4599  -54.2231  -39.4454 O   0  0  0  0  0  0  0  0  0  0  0  0
   18.6149  -56.7395  -38.8177 O   0  0  0  0  0  0  0  0  0  0  0  0
   20.3506  -54.2090  -37.0293 O   0  0  0  0  0  0  0  0  0  0  0  0
   19.1015  -53.5447  -37.2353 C   0  0  2  0  0  0  0  0  0  0  0  0
   18.4298  -53.2567  -35.9015 C   0  0  0  0  0  0  0  0  0  0  0  0
   17.0702  -52.9030  -36.1492 O   0  0  0  0  0  0  0  0  0  0  0  0
   16.0395  -52.6246  -34.9425 P   0  0  0  0  0  0  0  0  0  0  0  0
   16.4625  -53.5686  -33.8409 O   0  0  0  0  0  0  0  0  0  0  0  0
   14.6979  -52.9485  -35.5560 O   0  0  0  0  0  0  0  0  0  0  0  0
   16.2567  -51.1633  -34.6266 O   0  0  0  0  0  0  0  0  0  0  0  0
  1  2  2  0  0  0  0
  2  4  1  0  0  0  0
  2  3  1  0  0  0  0
  4  7  1  0  0  0  0
  5  9  1  0  0  0  0
  5  4  2  0  0  0  0
  6  5  1  0  0  0  0
  8  7  2  0  0  0  0
  9  8  1  0  0  0  0
 10 15  1  0  0  0  0
 10  9  1  1  0  0  0
 10 11  1  0  0  0  0
 11 14  1  6  0  0  0
 11 12  1  0  0  0  0
 12 13  1  6  0  0  0
 15 16  1  0  0  0  0
 16 12  1  0  0  0  0
 16 17  1  1  0  0  0
 17 18  1  0  0  0  0
 18 19  1  0  0  0  0
 19 21  1  0  0  0  0
 19 20  1  0  0  0  0
 22 19  2  0  0  0  0
M  END
>  <CHROM.1>
-177.47119377,66.44759039,-48.67789701,176.05832200,-33.90654110,19.04073362
-55.48267746,-36.17553849,0.09471793,-0.88850132,1.71734283

>  <Name>
lig.pdb

>  <RI>
0

>  <Rbt.Current_Directory>
/home/itssahil/PROJECTS/Mol_Feturizer/New_Systems/rnas/5btp

>  <Rbt.Executable>
rbdock ($Id: //depot/dev/client3/rdock/2013.1/src/exe/rbdock.cxx#4 $)

>  <Rbt.Library>
libRbt.so (2013.1, Build901 2013/11/27)

>  <Rbt.Parameter_File>
/export/apps/rDock/src/rDock_2013.1_src/data/scripts/dock_solv.prm

>  <Rbt.Receptor>
prm/pocket_docking_7.prm

>  <SCORE>
-7.1986

>  <SCORE.INTER>
-7.55748

>  <SCORE.INTER.CONST>
1

>  <SCORE.INTER.POLAR>
0

>  <SCORE.INTER.ROT>
5

>  <SCORE.INTER.SOLV>
12.9713

>  <SCORE.INTER.VDW>
-16.2954

>  <SCORE.INTER.norm>
-0.343522

>  <SCORE.INTRA>
0.358877

>  <SCORE.INTRA.DIHEDRAL>
-0.293159

>  <SCORE.INTRA.DIHEDRAL.0>
4.21161

>  <SCORE.INTRA.POLAR>
0

>  <SCORE.INTRA.POLAR.0>
0

>  <SCORE.INTRA.REPUL>
0

>  <SCORE.INTRA.REPUL.0>
0

>  <SCORE.INTRA.SOLV>
0.732738

>  <SCORE.INTRA.SOLV.lig_0>
-41.4168

>  <SCORE.INTRA.VDW>
0.139088

>  <SCORE.INTRA.VDW.0>
-1.62533

>  <SCORE.INTRA.norm>
0.0163126

>  <SCORE.RESTR>
0

>  <SCORE.RESTR.CAVITY>
0

>  <SCORE.RESTR.norm>
0

>  <SCORE.SYSTEM>
0

>  <SCORE.SYSTEM.CONST>
0

>  <SCORE.SYSTEM.DIHEDRAL>
0

>  <SCORE.SYSTEM.SOLV>
0

>  <SCORE.SYSTEM.norm>
0

>  <SCORE.heavy>
22

>  <SCORE.norm>
-0.327209

>  <RMSD>
6.598

$$$$
lig.pdb
 OpenBabel11021811523D
libRbt.so/2013.1/901 2013/11/27
 22 23  0  0  0  0  0  0  0  0999 V2000
   22.9819  -60.3023  -32.1096 O   0  0  0  0  0  0  0  0  0  0  0  0
   22.6107  -60.5918  -33.2363 C   0  0  0  0  0  0  0  0  0  0  0  0
   23.1542  -61.6000  -33.9182 N   0  0  0  0  0  0  0  0  0  0  0  0
   21.5312  -59.7922  -33.8817 C   0  0  0  0  0  0  0  0  0  0  0  0
   21.0317  -60.0258  -35.2458 C   0  0  0  0  0  0  0  0  0  0  0  0
   21.5165  -61.0565  -36.1546 N   0  0  0  0  0  0  0  0  0  0  0  0
   20.7835  -58.7547  -33.4449 N   0  0  0  0  0  0  0  0  0  0  0  0
   19.9204  -58.3965  -34.4455 C   0  0  0  0  0  0  0  0  0  0  0  0
   20.0685  -59.1688  -35.5440 N   0  0  0  0  0  0  0  0  0  0  0  0
   19.3136  -59.0817  -36.8158 C   0  0  1  0  0  0  0  0  0  0  0  0
   17.9151  -58.5402  -36.5694 C   0  0  1  0  0  0  0  0  0  0  0  0
   17.6210  -57.7733  -37.8332 C   0  0  2  0  0  0  0  0  0  0  0  0
   17.1221  -58.6703  -38.8274 O   0  0  0  0  0  0  0  0  0  0  0  0
   16.9728  -59.6010  -36.4063 O   0  0  0  0  0  0  0  0  0  0  0  0
   19.9455  -58.1796  -37.7318 O   0  0  0  0  0  0  0  0  0  0  0  0
   18.9835  -57.2654  -38.2635 C   0  0  2  0  0  0  0  0  0  0  0  0
   19.2186  -55.8689  -37.7087 C   0  0  0  0  0  0  0  0  0  0  0  0
   18.3746  -54.9577  -38.4104 O   0  0  0  0  0  0  0  0  0  0  0  0
   18.3569  -53.3854  -38.0590 P   0  0  0  0  0  0  0  0  0  0  0  0
   17.0659  -53.1675  -37.3046 O   0  0  0  0  0  0  0  0  0  0  0  0
   18.3991  -52.7298  -39.4190 O   0  0  0  0  0  0  0  0  0  0  0  0
   19.6032  -53.1989  -37.2257 O   0  0  0  0  0  0  0  0  0  0  0  0
  1  2  2  0  0  0  0
  2  4  1  0  0  0  0
  2  3  1  0  0  0  0
  4  7  1  0  0  0  0
  5  9  1  0  0  0  0
  5  4  2  0  0  0  0
  6  5  1  0  0  0  0
  8  7  2  0  0  0  0
  9  8  1  0  0  0  0
 10 15  1  0  0  0  0
 10  9  1  1  0  0  0
 10 11  1  0  0  0  0
 11 14  1  6  0  0  0
 11 12  1  0  0  0  0
 12 13  1  6  0  0  0
 15 16  1  0  0  0  0
 16 12  1  0  0  0  0
 16 17  1  1  0  0  0
 17 18  1  0  0  0  0
 18 19  1  0  0  0  0
 19 21  1  0  0  0  0
 19 20  1  0  0  0  0
 22 19  2  0  0  0  0
M  END
>  <CHROM.1>
178.22986711,150.83909973,-71.26639488,179.21374500,-105.25664367,19.52676707
-57.47605774,-36.46332148,-0.94396504,-0.75890846,-0.12302485

>  <Name>
lig.pdb

>  <RI>
0

>  <Rbt.Current_Directory>
/home/itssahil/PROJECTS/Mol_Feturizer/New_Systems/rnas/5btp

>  <Rbt.Executable>
rbdock ($Id: //depot/dev/client3/rdock/2013.1/src/exe/rbdock.cxx#4 $)

>  <Rbt.Library>
libRbt.so (2013.1, Build901 2013/11/27)

>  <Rbt.Parameter_File>
/export/apps/rDock/src/rDock_2013.1_src/data/scripts/dock_solv.prm

>  <Rbt.Receptor>
prm/pocket_docking_6.prm

>  <SCORE>
-9.33393

>  <SCORE.INTER>
-10.4428

>  <SCORE.INTER.CONST>
1

>  <SCORE.INTER.POLAR>
0

>  <SCORE.INTER.ROT>
5

>  <SCORE.INTER.SOLV>
15.1026

>  <SCORE.INTER.VDW>
-18.9294

>  <SCORE.INTER.norm>
-0.474675

>  <SCORE.INTRA>
1.10891

>  <SCORE.INTRA.DIHEDRAL>
0.72239

>  <SCORE.INTRA.DIHEDRAL.0>
4.21161

>  <SCORE.INTRA.POLAR>
0

>  <SCORE.INTRA.POLAR.0>
0

>  <SCORE.INTRA.REPUL>
0

>  <SCORE.INTRA.REPUL.0>
0

>  <SCORE.INTRA.SOLV>
0.15062

>  <SCORE.INTRA.SOLV.lig_0>
-41.4168

>  <SCORE.INTRA.VDW>
0.672408

>  <SCORE.INTRA.VDW.0>
-1.62533

>  <SCORE.INTRA.norm>
0.0504051

>  <SCORE.RESTR>
0

>  <SCORE.RESTR.CAVITY>
0

>  <SCORE.RESTR.norm>
0

>  <SCORE.SYSTEM>
0

>  <SCORE.SYSTEM.CONST>
0

>  <SCORE.SYSTEM.DIHEDRAL>
0

>  <SCORE.SYSTEM.SOLV>
0

>  <SCORE.SYSTEM.norm>
0

>  <SCORE.heavy>
22

>  <SCORE.norm>
-0.42427

>  <RMSD>
6.609

$$$$
lig.pdb
 OpenBabel11021811523D
libRbt.so/2013.1/901 2013/11/27
 22 23  0  0  0  0  0  0  0  0999 V2000
   15.4464  -50.5897  -32.6102 O   0  0  0  0  0  0  0  0  0  0  0  0
   14.7830  -51.0925  -33.5037 C   0  0  0  0  0  0  0  0  0  0  0  0
   13.4507  -51.1070  -33.4670 N   0  0  0  0  0  0  0  0  0  0  0  0
   15.4731  -51.7236  -34.6642 C   0  0  0  0  0  0  0  0  0  0  0  0
   16.9162  -52.0057  -34.7150 C   0  0  0  0  0  0  0  0  0  0  0  0
   17.8697  -51.7087  -33.6539 N   0  0  0  0  0  0  0  0  0  0  0  0
   15.0210  -52.1743  -35.8553 N   0  0  0  0  0  0  0  0  0  0  0  0
   16.0848  -52.6764  -36.5558 C   0  0  0  0  0  0  0  0  0  0  0  0
   17.2409  -52.5757  -35.8642 N   0  0  0  0  0  0  0  0  0  0  0  0
   18.5899  -53.0115  -36.2945 C   0  0  1  0  0  0  0  0  0  0  0  0
   19.0138  -54.2589  -35.5367 C   0  0  1  0  0  0  0  0  0  0  0  0
   19.8604  -54.9955  -36.5430 C   0  0  2  0  0  0  0  0  0  0  0  0
   21.1961  -54.4893  -36.5005 O   0  0  0  0  0  0  0  0  0  0  0  0
   19.7933  -53.9242  -34.3878 O   0  0  0  0  0  0  0  0  0  0  0  0
   18.6039  -53.3540  -37.6854 O   0  0  0  0  0  0  0  0  0  0  0  0
   19.2324  -54.6244  -37.8724 C   0  0  2  0  0  0  0  0  0  0  0  0
   18.2026  -55.6696  -38.2726 C   0  0  0  0  0  0  0  0  0  0  0  0
   18.8015  -56.9592  -38.1567 O   0  0  0  0  0  0  0  0  0  0  0  0
   17.9173  -58.3053  -38.2021 P   0  0  0  0  0  0  0  0  0  0  0  0
   17.2001  -58.2578  -39.5313 O   0  0  0  0  0  0  0  0  0  0  0  0
   17.0109  -58.1605  -37.0026 O   0  0  0  0  0  0  0  0  0  0  0  0
   18.9473  -59.4048  -38.0901 O   0  0  0  0  0  0  0  0  0  0  0  0
  1  2  2  0  0  0  0
  2  4  1  0  0  0  0
  2  3  1  0  0  0  0
  4  7  1  0  0  0  0
  5  9  1  0  0  0  0
  5  4  2  0  0  0  0
  6  5  1  0  0  0  0
  8  7  2  0  0  0  0
  9  8  1  0  0  0  0
 10 15  1  0  0  0  0
 10  9  1  1  0  0  0
 10 11  1  0  0  0  0
 11 14  1  1  0  0  0
 11 12  1  0  0  0  0
 12 13  1  6  0  0  0
 15 16  1  0  0  0  0
 16 12  1  0  0  0  0
 16 17  1  1  0  0  0
 17 18  1  0  0  0  0
 18 19  1  0  0  0  0
 19 21  1  0  0  0  0
 19 20  1  0  0  0  0
 22 19  2  0  0  0  0
M  END
>  <CHROM.1>
11.39051592,72.70555997,-49.86752616,166.98606458,58.16410923,17.65037163
-54.47554028,-36.29764449,1.91304306,0.04775599,0.55933212

>  <Name>
lig.pdb

>  <RI>
0

>  <Rbt.Current_Directory>
/home/itssahil/PROJECTS/Mol_Feturizer/New_Systems/rnas/5btp

>  <Rbt.Executable>
rbdock ($Id: //depot/dev/client3/rdock/2013.1/src/exe/rbdock.cxx#4 $)

>  <Rbt.Library>
libRbt.so (2013.1, Build901 2013/11/27)

>  <Rbt.Parameter_File>
/export/apps/rDock/src/rDock_2013.1_src/data/scripts/dock_solv.prm

>  <Rbt.Receptor>
prm/blind_docking_80.prm

>  <SCORE>
-8.78275

>  <SCORE.INTER>
-8.63541

>  <SCORE.INTER.CONST>
1

>  <SCORE.INTER.POLAR>
0

>  <SCORE.INTER.ROT>
5

>  <SCORE.INTER.SOLV>
19.101

>  <SCORE.INTER.VDW>
-19.0573

>  <SCORE.INTER.norm>
-0.392518

>  <SCORE.INTRA>
-0.147348

>  <SCORE.INTRA.DIHEDRAL>
-0.180808

>  <SCORE.INTRA.DIHEDRAL.0>
4.21161

>  <SCORE.INTRA.POLAR>
0

>  <SCORE.INTRA.POLAR.0>
0

>  <SCORE.INTRA.REPUL>
0

>  <SCORE.INTRA.REPUL.0>
0

>  <SCORE.INTRA.SOLV>
0.307695

>  <SCORE.INTRA.SOLV.lig_0>
-41.4168

>  <SCORE.INTRA.VDW>
-0.210791

>  <SCORE.INTRA.VDW.0>
-1.62533

>  <SCORE.INTRA.norm>
-0.00669763

>  <SCORE.RESTR>
0

>  <SCORE.RESTR.CAVITY>
0

>  <SCORE.RESTR.norm>
0

>  <SCORE.SYSTEM>
0

>  <SCORE.SYSTEM.CONST>
0

>  <SCORE.SYSTEM.DIHEDRAL>
0

>  <SCORE.SYSTEM.SOLV>
0

>  <SCORE.SYSTEM.norm>
0

>  <SCORE.heavy>
22

>  <SCORE.norm>
-0.399216

>  <RMSD>
6.611

$$$$
lig.pdb
 OpenBabel11021811523D
libRbt.so/2013.1/901 2013/11/27
 22 23  0  0  0  0  0  0  0  0999 V2000
   18.5227  -51.5786  -39.2822 O   0  0  0  0  0  0  0  0  0  0  0  0
   18.8268  -52.3565  -38.3915 C   0  0  0  0  0  0  0  0  0  0  0  0
   19.4600  -51.9518  -37.2905 N   0  0  0  0  0  0  0  0  0  0  0  0
   18.4990  -53.8031  -38.5366 C   0  0  0  0  0  0  0  0  0  0  0  0
   19.1601  -54.8807  -37.7838 C   0  0  0  0  0  0  0  0  0  0  0  0
   20.2213  -54.6935  -36.8029 N   0  0  0  0  0  0  0  0  0  0  0  0
   17.5988  -54.4589  -39.3020 N   0  0  0  0  0  0  0  0  0  0  0  0
   17.7068  -55.7982  -39.0392 C   0  0  0  0  0  0  0  0  0  0  0  0
   18.6566  -56.0589  -38.1147 N   0  0  0  0  0  0  0  0  0  0  0  0
   19.0539  -57.3816  -37.5783 C   0  0  1  0  0  0  0  0  0  0  0  0
   19.0327  -57.3685  -36.0587 C   0  0  1  0  0  0  0  0  0  0  0  0
   18.6363  -58.7810  -35.7131 C   0  0  2  0  0  0  0  0  0  0  0  0
   19.7981  -59.6130  -35.7115 O   0  0  0  0  0  0  0  0  0  0  0  0
   20.3258  -57.0757  -35.5275 O   0  0  0  0  0  0  0  0  0  0  0  0
   18.1387  -58.4034  -37.9909 O   0  0  0  0  0  0  0  0  0  0  0  0
   17.7377  -59.1876  -36.8648 C   0  0  2  0  0  0  0  0  0  0  0  0
   16.2840  -58.9073  -36.5163 C   0  0  0  0  0  0  0  0  0  0  0  0
   15.4556  -59.6212  -37.4324 O   0  0  0  0  0  0  0  0  0  0  0  0
   13.9364  -59.1693  -37.7218 P   0  0  0  0  0  0  0  0  0  0  0  0
   13.3287  -60.3145  -38.4982 O   0  0  0  0  0  0  0  0  0  0  0  0
   14.1032  -57.8980  -38.5200 O   0  0  0  0  0  0  0  0  0  0  0  0
   13.3582  -58.9792  -36.3391 O   0  0  0  0  0  0  0  0  0  0  0  0
  1  2  2  0  0  0  0
  2  4  1  0  0  0  0
  2  3  1  0  0  0  0
  4  7  1  0  0  0  0
  5  9  1  0  0  0  0
  5  4  2  0  0  0  0
  6  5  1  0  0  0  0
  8  7  2  0  0  0  0
  9  8  1  0  0  0  0
 10 15  1  0  0  0  0
 10  9  1  6  0  0  0
 10 11  1  0  0  0  0
 11 14  1  1  0  0  0
 11 12  1  0  0  0  0
 12 13  1  6  0  0  0
 15 16  1  0  0  0  0
 16 12  1  0  0  0  0
 16 17  1  1  0  0  0
 17 18  1  0  0  0  0
 18 19  1  0  0  0  0
 19 21  1  0  0  0  0
 19 20  1  0  0  0  0
 22 19  2  0  0  0  0
M  END
>  <CHROM.1>
159.64489060,51.68130750,-164.23901709,-157.38619569,-168.63419839,17.35720347
-56.96380206,-37.50115098,0.85854242,-0.36377875,-0.39418770

>  <Name>
lig.pdb

>  <RI>
0

>  <Rbt.Current_Directory>
/home/itssahil/PROJECTS/Mol_Feturizer/New_Systems/rnas/5btp

>  <Rbt.Executable>
rbdock ($Id: //depot/dev/client3/rdock/2013.1/src/exe/rbdock.cxx#4 $)

>  <Rbt.Library>
libRbt.so (2013.1, Build901 2013/11/27)

>  <Rbt.Parameter_File>
/export/apps/rDock/src/rDock_2013.1_src/data/scripts/dock_solv.prm

>  <Rbt.Receptor>
prm/pocket_docking_7.prm

>  <SCORE>
-18.8286

>  <SCORE.INTER>
-20.4134

>  <SCORE.INTER.CONST>
1

>  <SCORE.INTER.POLAR>
0

>  <SCORE.INTER.ROT>
5

>  <SCORE.INTER.SOLV>
23.3682

>  <SCORE.INTER.VDW>
-28.3317

>  <SCORE.INTER.norm>
-0.927882

>  <SCORE.INTRA>
1.57515

>  <SCORE.INTRA.DIHEDRAL>
2.86016

>  <SCORE.INTRA.DIHEDRAL.0>
4.21161

>  <SCORE.INTRA.POLAR>
0

>  <SCORE.INTRA.POLAR.0>
0

>  <SCORE.INTRA.REPUL>
0

>  <SCORE.INTRA.REPUL.0>
0

>  <SCORE.INTRA.SOLV>
0.749074

>  <SCORE.INTRA.SOLV.lig_0>
-41.4168

>  <SCORE.INTRA.VDW>
-0.229472

>  <SCORE.INTRA.VDW.0>
-1.62533

>  <SCORE.INTRA.norm>
0.0715975

>  <SCORE.RESTR>
0.00966197

>  <SCORE.RESTR.CAVITY>
0.00966197

>  <SCORE.RESTR.norm>
0.00043918

>  <SCORE.SYSTEM>
0

>  <SCORE.SYSTEM.CONST>
0

>  <SCORE.SYSTEM.DIHEDRAL>
0

>  <SCORE.SYSTEM.SOLV>
0

>  <SCORE.SYSTEM.norm>
0

>  <SCORE.heavy>
22

>  <SCORE.norm>
-0.855845

>  <RMSD>
6.647

$$$$
lig.pdb
 OpenBabel11021811523D
libRbt.so/2013.1/901 2013/11/27
 22 23  0  0  0  0  0  0  0  0999 V2000
   19.2533  -51.2211  -36.0308 O   0  0  0  0  0  0  0  0  0  0  0  0
   18.8444  -52.2245  -36.5940 C   0  0  0  0  0  0  0  0  0  0  0  0
   17.7131  -52.2232  -37.2989 N   0  0  0  0  0  0  0  0  0  0  0  0
   19.6165  -53.4945  -36.4835 C   0  0  0  0  0  0  0  0  0  0  0  0
   19.3160  -54.7144  -37.2493 C   0  0  0  0  0  0  0  0  0  0  0  0
   18.2310  -54.8585  -38.2111 N   0  0  0  0  0  0  0  0  0  0  0  0
   20.6931  -53.8425  -35.7446 N   0  0  0  0  0  0  0  0  0  0  0  0
   21.0098  -55.1427  -36.0337 C   0  0  0  0  0  0  0  0  0  0  0  0
   20.1733  -55.6770  -36.9501 N   0  0  0  0  0  0  0  0  0  0  0  0
   20.2050  -57.0491  -37.5082 C   0  0  1  0  0  0  0  0  0  0  0  0
   19.9835  -58.0762  -36.4101 C   0  0  1  0  0  0  0  0  0  0  0  0
   19.2534  -59.1843  -37.1249 C   0  0  2  0  0  0  0  0  0  0  0  0
   20.2010  -60.0411  -37.7653 O   0  0  0  0  0  0  0  0  0  0  0  0
   21.2261  -58.5568  -35.8954 O   0  0  0  0  0  0  0  0  0  0  0  0
   19.1574  -57.2424  -38.4659 O   0  0  0  0  0  0  0  0  0  0  0  0
   18.4517  -58.4534  -38.1843 C   0  0  2  0  0  0  0  0  0  0  0  0
   17.0575  -58.1433  -37.6617 C   0  0  0  0  0  0  0  0  0  0  0  0
   16.1351  -59.0382  -38.2810 O   0  0  0  0  0  0  0  0  0  0  0  0
   14.5516  -58.7407  -38.2918 P   0  0  0  0  0  0  0  0  0  0  0  0
   14.1608  -58.6486  -36.8350 O   0  0  0  0  0  0  0  0  0  0  0  0
   13.9826  -59.9400  -39.0122 O   0  0  0  0  0  0  0  0  0  0  0  0
   14.4455  -57.4370  -39.0478 O   0  0  0  0  0  0  0  0  0  0  0  0
  1  2  2  0  0  0  0
  2  4  1  0  0  0  0
  2  3  1  0  0  0  0
  4  7  1  0  0  0  0
  5  9  1  0  0  0  0
  5  4  2  0  0  0  0
  6  5  1  0  0  0  0
  8  7  2  0  0  0  0
  9  8  1  0  0  0  0
 10 15  1  0  0  0  0
 10  9  1  1  0  0  0
 10 11  1  0  0  0  0
 11 14  1  6  0  0  0
 11 12  1  0  0  0  0
 12 13  1  6  0  0  0
 15 16  1  0  0  0  0
 16 12  1  0  0  0  0
 16 17  1  1  0  0  0
 17 18  1  0  0  0  0
 18 19  1  0  0  0  0
 19 21  1  0  0  0  0
 19 20  1  0  0  0  0
 22 19  2  0  0  0  0
M  END
>  <CHROM.1>
-172.02821514,-117.86918744,-105.25515774,-162.43943333,-58.94980545,18.06547265
-56.75528613,-37.40226088,0.87132793,-0.24589474,0.11491620

>  <Name>
lig.pdb

>  <RI>
0

>  <Rbt.Current_Directory>
/home/itssahil/PROJECTS/Mol_Feturizer/New_Systems/rnas/5btp

>  <Rbt.Executable>
rbdock ($Id: //depot/dev/client3/rdock/2013.1/src/exe/rbdock.cxx#4 $)

>  <Rbt.Library>
libRbt.so (2013.1, Build901 2013/11/27)

>  <Rbt.Parameter_File>
/export/apps/rDock/src/rDock_2013.1_src/data/scripts/dock_solv.prm

>  <Rbt.Receptor>
prm/pocket_docking_8.prm

>  <SCORE>
-9.66191

>  <SCORE.INTER>
-12.1295

>  <SCORE.INTER.CONST>
1

>  <SCORE.INTER.POLAR>
0

>  <SCORE.INTER.ROT>
5

>  <SCORE.INTER.SOLV>
18.553

>  <SCORE.INTER.VDW>
-21.204

>  <SCORE.INTER.norm>
-0.55134

>  <SCORE.INTRA>
2.45406

>  <SCORE.INTRA.DIHEDRAL>
4.35878

>  <SCORE.INTRA.DIHEDRAL.0>
4.21161

>  <SCORE.INTRA.POLAR>
0

>  <SCORE.INTRA.POLAR.0>
0

>  <SCORE.INTRA.REPUL>
0

>  <SCORE.INTRA.REPUL.0>
0

>  <SCORE.INTRA.SOLV>
0.826133

>  <SCORE.INTRA.SOLV.lig_0>
-41.4168

>  <SCORE.INTRA.VDW>
-0.138396

>  <SCORE.INTRA.VDW.0>
-1.62533

>  <SCORE.INTRA.norm>
0.111548

>  <SCORE.RESTR>
0.0135193

>  <SCORE.RESTR.CAVITY>
0.0135193

>  <SCORE.RESTR.norm>
0.000614513

>  <SCORE.SYSTEM>
0

>  <SCORE.SYSTEM.CONST>
0

>  <SCORE.SYSTEM.DIHEDRAL>
0

>  <SCORE.SYSTEM.SOLV>
0

>  <SCORE.SYSTEM.norm>
0

>  <SCORE.heavy>
22

>  <SCORE.norm>
-0.439178

>  <RMSD>
6.651

$$$$
lig.pdb
 OpenBabel11021811523D
libRbt.so/2013.1/901 2013/11/27
 22 23  0  0  0  0  0  0  0  0999 V2000
   24.3444  -57.7922  -35.6346 O   0  0  0  0  0  0  0  0  0  0  0  0
   23.4400  -58.6044  -35.7497 C   0  0  0  0  0  0  0  0  0  0  0  0
   23.5177  -59.8234  -35.2158 N   0  0  0  0  0  0  0  0  0  0  0  0
   22.2175  -58.2378  -36.5193 C   0  0  0  0  0  0  0  0  0  0  0  0
   20.9926  -59.0517  -36.5632 C   0  0  0  0  0  0  0  0  0  0  0  0
   20.8002  -60.3208  -35.8735 N   0  0  0  0  0  0  0  0  0  0  0  0
   21.9171  -57.1728  -37.2951 N   0  0  0  0  0  0  0  0  0  0  0  0
   20.6396  -57.3289  -37.7621 C   0  0  0  0  0  0  0  0  0  0  0  0
   20.0732  -58.4721  -37.3181 N   0  0  0  0  0  0  0  0  0  0  0  0
   18.7104  -58.9753  -37.6090 C   0  0  1  0  0  0  0  0  0  0  0  0
   17.6985  -58.3506  -36.6625 C   0  0  1  0  0  0  0  0  0  0  0  0
   16.4542  -58.2601  -37.5084 C   0  0  2  0  0  0  0  0  0  0  0  0
   15.7584  -59.5075  -37.4639 O   0  0  0  0  0  0  0  0  0  0  0  0
   17.4648  -59.1897  -35.5306 O   0  0  0  0  0  0  0  0  0  0  0  0
   18.3008  -58.6228  -38.9356 O   0  0  0  0  0  0  0  0  0  0  0  0
   16.9939  -58.0439  -38.9089 C   0  0  2  0  0  0  0  0  0  0  0  0
   17.0686  -56.5561  -39.2151 C   0  0  0  0  0  0  0  0  0  0  0  0
   17.9788  -55.9526  -38.2973 O   0  0  0  0  0  0  0  0  0  0  0  0
   18.3529  -54.3881  -38.3884 P   0  0  0  0  0  0  0  0  0  0  0  0
   17.1342  -53.6633  -37.8661 O   0  0  0  0  0  0  0  0  0  0  0  0
   18.6126  -54.1831  -39.8620 O   0  0  0  0  0  0  0  0  0  0  0  0
   19.5735  -54.2680  -37.5062 O   0  0  0  0  0  0  0  0  0  0  0  0
  1  2  2  0  0  0  0
  2  4  1  0  0  0  0
  2  3  1  0  0  0  0
  4  7  1  0  0  0  0
  5  9  1  0  0  0  0
  5  4  2  0  0  0  0
  6  5  1  0  0  0  0
  8  7  2  0  0  0  0
  9  8  1  0  0  0  0
 10 15  1  0  0  0  0
 10  9  1  1  0  0  0
 10 11  1  0  0  0  0
 11 14  1  1  0  0  0
 11 12  1  0  0  0  0
 12 13  1  6  0  0  0
 15 16  1  0  0  0  0
 16 12  1  0  0  0  0
 16 17  1  1  0  0  0
 17 18  1  0  0  0  0
 18 19  1  0  0  0  0
 19 21  1  0  0  0  0
 19 20  1  0  0  0  0
 22 19  2  0  0  0  0
M  END
>  <CHROM.1>
-170.82520170,95.84938140,62.24883857,176.83900095,74.16747466,19.33078075
-57.34286146,-37.43107807,-0.62231336,-0.25478992,-0.32944181

>  <Name>
lig.pdb

>  <RI>
0

>  <Rbt.Current_Directory>
/home/itssahil/PROJECTS/Mol_Feturizer/New_Systems/rnas/5btp

>  <Rbt.Executable>
rbdock ($Id: //depot/dev/client3/rdock/2013.1/src/exe/rbdock.cxx#4 $)

>  <Rbt.Library>
libRbt.so (2013.1, Build901 2013/11/27)

>  <Rbt.Parameter_File>
/export/apps/rDock/src/rDock_2013.1_src/data/scripts/dock_solv.prm

>  <Rbt.Receptor>
prm/pocket_docking_3.prm

>  <SCORE>
-11.5985

>  <SCORE.INTER>
-11.3083

>  <SCORE.INTER.CONST>
1

>  <SCORE.INTER.POLAR>
0

>  <SCORE.INTER.ROT>
5

>  <SCORE.INTER.SOLV>
17.5821

>  <SCORE.INTER.VDW>
-20.3329

>  <SCORE.INTER.norm>
-0.514015

>  <SCORE.INTRA>
-1.04072

>  <SCORE.INTRA.DIHEDRAL>
-1.11088

>  <SCORE.INTRA.DIHEDRAL.0>
4.21161

>  <SCORE.INTRA.POLAR>
0

>  <SCORE.INTRA.POLAR.0>
0

>  <SCORE.INTRA.REPUL>
0

>  <SCORE.INTRA.REPUL.0>
0

>  <SCORE.INTRA.SOLV>
1.45778

>  <SCORE.INTRA.SOLV.lig_0>
-41.4168

>  <SCORE.INTRA.VDW>
-1.21417

>  <SCORE.INTRA.VDW.0>
-1.62533

>  <SCORE.INTRA.norm>
-0.0473054

>  <SCORE.RESTR>
0.750534

>  <SCORE.RESTR.CAVITY>
0.750534

>  <SCORE.RESTR.norm>
0.0341152

>  <SCORE.SYSTEM>
0

>  <SCORE.SYSTEM.CONST>
0

>  <SCORE.SYSTEM.DIHEDRAL>
0

>  <SCORE.SYSTEM.SOLV>
0

>  <SCORE.SYSTEM.norm>
0

>  <SCORE.heavy>
22

>  <SCORE.norm>
-0.527206

>  <RMSD>
6.660

$$$$
lig.pdb
 OpenBabel11021811523D
libRbt.so/2013.1/901 2013/11/27
 22 23  0  0  0  0  0  0  0  0999 V2000
   24.1581  -62.2129  -34.8746 O   0  0  0  0  0  0  0  0  0  0  0  0
   23.2963  -62.3786  -35.7238 C   0  0  0  0  0  0  0  0  0  0  0  0
   23.0249  -63.5839  -36.2240 N   0  0  0  0  0  0  0  0  0  0  0  0
   22.5318  -61.2048  -36.2326 C   0  0  0  0  0  0  0  0  0  0  0  0
   22.6806  -59.8344  -35.7178 C   0  0  0  0  0  0  0  0  0  0  0  0
   23.5819  -59.4312  -34.6462 N   0  0  0  0  0  0  0  0  0  0  0  0
   21.6023  -61.0776  -37.2053 N   0  0  0  0  0  0  0  0  0  0  0  0
   21.2262  -59.7627  -37.2701 C   0  0  0  0  0  0  0  0  0  0  0  0
   21.8811  -59.0024  -36.3657 N   0  0  0  0  0  0  0  0  0  0  0  0
   21.7407  -57.5445  -36.1428 C   0  0  1  0  0  0  0  0  0  0  0  0
   22.3063  -56.7685  -37.3209 C   0  0  1  0  0  0  0  0  0  0  0  0
   21.4283  -55.5445  -37.3733 C   0  0  2  0  0  0  0  0  0  0  0  0
   21.9259  -54.5640  -36.4605 O   0  0  0  0  0  0  0  0  0  0  0  0
   23.6637  -56.3914  -37.0860 O   0  0  0  0  0  0  0  0  0  0  0  0
   20.3630  -57.1687  -36.0296 O   0  0  0  0  0  0  0  0  0  0  0  0
   20.0879  -56.0494  -36.8754 C   0  0  2  0  0  0  0  0  0  0  0  0
   19.2218  -56.4754  -38.0507 C   0  0  0  0  0  0  0  0  0  0  0  0
   18.0529  -57.1144  -37.5402 O   0  0  0  0  0  0  0  0  0  0  0  0
   17.0033  -57.8524  -38.5147 P   0  0  0  0  0  0  0  0  0  0  0  0
   15.8903  -58.3223  -37.6070 O   0  0  0  0  0  0  0  0  0  0  0  0
   17.8229  -58.9674  -39.1198 O   0  0  0  0  0  0  0  0  0  0  0  0
   16.5993  -56.7648  -39.4823 O   0  0  0  0  0  0  0  0  0  0  0  0
  1  2  2  0  0  0  0
  2  4  1  0  0  0  0
  2  3  1  0  0  0  0
  4  7  1  0  0  0  0
  5  9  1  0  0  0  0
  5  4  2  0  0  0  0
  6  5  1  0  0  0  0
  8  7  2  0  0  0  0
  9  8  1  0  0  0  0
 10 15  1  0  0  0  0
 10  9  1  6  0  0  0
 10 11  1  0  0  0  0
 11 14  1  1  0  0  0
 11 12  1  0  0  0  0
 12 13  1  1  0  0  0
 15 16  1  0  0  0  0
 16 12  1  0  0  0  0
 16 17  1  6  0  0  0
 17 18  1  0  0  0  0
 18 19  1  0  0  0  0
 19 21  1  0  0  0  0
 19 20  1  0  0  0  0
 22 19  2  0  0  0  0
M  END
>  <CHROM.1>
-4.05167101,110.72282149,171.98661895,-172.32384782,-176.97320415,20.61729225
-58.44308406,-37.02069497,0.59000506,0.38413545,3.07981685

>  <Name>
lig.pdb

>  <RI>
0

>  <Rbt.Current_Directory>
/home/itssahil/PROJECTS/Mol_Feturizer/New_Systems/rnas/5btp

>  <Rbt.Executable>
rbdock ($Id: //depot/dev/client3/rdock/2013.1/src/exe/rbdock.cxx#4 $)

>  <Rbt.Library>
libRbt.so (2013.1, Build901 2013/11/27)

>  <Rbt.Parameter_File>
/export/apps/rDock/src/rDock_2013.1_src/data/scripts/dock_solv.prm

>  <Rbt.Receptor>
prm/pocket_docking_5.prm

>  <SCORE>
-9.71652

>  <SCORE.INTER>
-8.37706

>  <SCORE.INTER.CONST>
1

>  <SCORE.INTER.POLAR>
0

>  <SCORE.INTER.ROT>
5

>  <SCORE.INTER.SOLV>
11.7376

>  <SCORE.INTER.VDW>
-16.4306

>  <SCORE.INTER.norm>
-0.380776

>  <SCORE.INTRA>
-1.35141

>  <SCORE.INTRA.DIHEDRAL>
-1.1963

>  <SCORE.INTRA.DIHEDRAL.0>
4.21161

>  <SCORE.INTRA.POLAR>
0

>  <SCORE.INTRA.POLAR.0>
0

>  <SCORE.INTRA.REPUL>
0

>  <SCORE.INTRA.REPUL.0>
0

>  <SCORE.INTRA.SOLV>
-0.192326

>  <SCORE.INTRA.SOLV.lig_0>
-41.4168

>  <SCORE.INTRA.VDW>
-0.6571

>  <SCORE.INTRA.VDW.0>
-1.62533

>  <SCORE.INTRA.norm>
-0.0614278

>  <SCORE.RESTR>
0.0119532

>  <SCORE.RESTR.CAVITY>
0.0119532

>  <SCORE.RESTR.norm>
0.000543328

>  <SCORE.SYSTEM>
0

>  <SCORE.SYSTEM.CONST>
0

>  <SCORE.SYSTEM.DIHEDRAL>
0

>  <SCORE.SYSTEM.SOLV>
0

>  <SCORE.SYSTEM.norm>
0

>  <SCORE.heavy>
22

>  <SCORE.norm>
-0.44166

>  <RMSD>
6.679

$$$$
lig.pdb
 OpenBabel11021811523D
libRbt.so/2013.1/901 2013/11/27
 22 23  0  0  0  0  0  0  0  0999 V2000
   18.4952  -51.4612  -39.0797 O   0  0  0  0  0  0  0  0  0  0  0  0
   18.8668  -52.2806  -38.2541 C   0  0  0  0  0  0  0  0  0  0  0  0
   19.5742  -51.9264  -37.1813 N   0  0  0  0  0  0  0  0  0  0  0  0
   18.5385  -53.7211  -38.4502 C   0  0  0  0  0  0  0  0  0  0  0  0
   19.1917  -54.8241  -37.7279 C   0  0  0  0  0  0  0  0  0  0  0  0
   20.2444  -54.6713  -36.7321 N   0  0  0  0  0  0  0  0  0  0  0  0
   17.6444  -54.3497  -39.2450 N   0  0  0  0  0  0  0  0  0  0  0  0
   17.7485  -55.6971  -39.0259 C   0  0  0  0  0  0  0  0  0  0  0  0
   18.6898  -55.9899  -38.1023 N   0  0  0  0  0  0  0  0  0  0  0  0
   19.0807  -57.3303  -37.6068 C   0  0  1  0  0  0  0  0  0  0  0  0
   19.0442  -57.3683  -36.0878 C   0  0  1  0  0  0  0  0  0  0  0  0
   18.6433  -58.7913  -35.7941 C   0  0  2  0  0  0  0  0  0  0  0  0
   19.8044  -59.6241  -35.8087 O   0  0  0  0  0  0  0  0  0  0  0  0
   20.3320  -57.0949  -35.5341 O   0  0  0  0  0  0  0  0  0  0  0  0
   18.1690  -58.3367  -38.0627 O   0  0  0  0  0  0  0  0  0  0  0  0
   17.7561  -59.1580  -36.9678 C   0  0  2  0  0  0  0  0  0  0  0  0
   16.2992  -58.8881  -36.6248 C   0  0  0  0  0  0  0  0  0  0  0  0
   15.4818  -59.4847  -37.6303 O   0  0  0  0  0  0  0  0  0  0  0  0
   13.9110  -59.1464  -37.7485 P   0  0  0  0  0  0  0  0  0  0  0  0
   13.4366  -58.9870  -36.3227 O   0  0  0  0  0  0  0  0  0  0  0  0
   13.3519  -60.3577  -38.4566 O   0  0  0  0  0  0  0  0  0  0  0  0
   13.8875  -57.8711  -38.5581 O   0  0  0  0  0  0  0  0  0  0  0  0
  1  2  2  0  0  0  0
  2  4  1  0  0  0  0
  2  3  1  0  0  0  0
  4  7  1  0  0  0  0
  5  9  1  0  0  0  0
  5  4  2  0  0  0  0
  6  5  1  0  0  0  0
  8  7  2  0  0  0  0
  9  8  1  0  0  0  0
 10 15  1  0  0  0  0
 10  9  1  6  0  0  0
 10 11  1  0  0  0  0
 11 14  1  1  0  0  0
 11 12  1  0  0  0  0
 12 13  1  6  0  0  0
 15 16  1  0  0  0  0
 16 12  1  0  0  0  0
 16 17  1  1  0  0  0
 17 18  1  0  0  0  0
 18 19  1  0  0  0  0
 19 21  1  0  0  0  0
 19 20  1  0  0  0  0
 22 19  2  0  0  0  0
M  END
>  <CHROM.1>
164.36872926,51.76235678,-168.59182747,-167.44882408,-36.19458476,17.36931525
-56.92376843,-37.50383640,0.85549463,-0.35460044,-0.36187219

>  <Name>
lig.pdb

>  <RI>
0

>  <Rbt.Current_Directory>
/home/itssahil/PROJECTS/Mol_Feturizer/New_Systems/rnas/5btp

>  <Rbt.Executable>
rbdock ($Id: //depot/dev/client3/rdock/2013.1/src/exe/rbdock.cxx#4 $)

>  <Rbt.Library>
libRbt.so (2013.1, Build901 2013/11/27)

>  <Rbt.Parameter_File>
/export/apps/rDock/src/rDock_2013.1_src/data/scripts/dock_solv.prm

>  <Rbt.Receptor>
prm/pocket_docking_7.prm

>  <SCORE>
-19.3129

>  <SCORE.INTER>
-20.0852

>  <SCORE.INTER.CONST>
1

>  <SCORE.INTER.POLAR>
0

>  <SCORE.INTER.ROT>
5

>  <SCORE.INTER.SOLV>
22.5051

>  <SCORE.INTER.VDW>
-27.8252

>  <SCORE.INTER.norm>
-0.912963

>  <SCORE.INTRA>
0.741233

>  <SCORE.INTRA.DIHEDRAL>
1.04376

>  <SCORE.INTRA.DIHEDRAL.0>
4.21161

>  <SCORE.INTRA.POLAR>
0

>  <SCORE.INTRA.POLAR.0>
0

>  <SCORE.INTRA.REPUL>
0

>  <SCORE.INTRA.REPUL.0>
0

>  <SCORE.INTRA.SOLV>
0.673601

>  <SCORE.INTRA.SOLV.lig_0>
-41.4168

>  <SCORE.INTRA.VDW>
-0.117447

>  <SCORE.INTRA.VDW.0>
-1.62533

>  <SCORE.INTRA.norm>
0.0336924

>  <SCORE.RESTR>
0.0310656

>  <SCORE.RESTR.CAVITY>
0.0310656

>  <SCORE.RESTR.norm>
0.00141207

>  <SCORE.SYSTEM>
0

>  <SCORE.SYSTEM.CONST>
0

>  <SCORE.SYSTEM.DIHEDRAL>
0

>  <SCORE.SYSTEM.SOLV>
0

>  <SCORE.SYSTEM.norm>
0

>  <SCORE.heavy>
22

>  <SCORE.norm>
-0.877859

>  <RMSD>
6.695

$$$$
lig.pdb
 OpenBabel11021811523D
libRbt.so/2013.1/901 2013/11/27
 22 23  0  0  0  0  0  0  0  0999 V2000
   23.6809  -60.8291  -32.6266 O   0  0  0  0  0  0  0  0  0  0  0  0
   22.8335  -61.2891  -33.3759 C   0  0  0  0  0  0  0  0  0  0  0  0
   22.6400  -62.6024  -33.4963 N   0  0  0  0  0  0  0  0  0  0  0  0
   21.9978  -60.3654  -34.1943 C   0  0  0  0  0  0  0  0  0  0  0  0
   22.2132  -58.9125  -34.2808 C   0  0  0  0  0  0  0  0  0  0  0  0
   23.2583  -58.1737  -33.5843 N   0  0  0  0  0  0  0  0  0  0  0  0
   20.9366  -60.5762  -35.0040 N   0  0  0  0  0  0  0  0  0  0  0  0
   20.5490  -59.3712  -35.5256 C   0  0  0  0  0  0  0  0  0  0  0  0
   21.3244  -58.3555  -35.0876 N   0  0  0  0  0  0  0  0  0  0  0  0
   21.2109  -56.9197  -35.4350 C   0  0  1  0  0  0  0  0  0  0  0  0
   22.0487  -56.6006  -36.6622 C   0  0  1  0  0  0  0  0  0  0  0  0
   21.2617  -55.5048  -37.3342 C   0  0  2  0  0  0  0  0  0  0  0  0
   21.6028  -54.2473  -36.7475 O   0  0  0  0  0  0  0  0  0  0  0  0
   23.3428  -56.1225  -36.2930 O   0  0  0  0  0  0  0  0  0  0  0  0
   19.8601  -56.5713  -35.7605 O   0  0  0  0  0  0  0  0  0  0  0  0
   19.8237  -55.8390  -36.9878 C   0  0  2  0  0  0  0  0  0  0  0  0
   19.2048  -56.6849  -38.0898 C   0  0  0  0  0  0  0  0  0  0  0  0
   17.8836  -57.0466  -37.6915 O   0  0  0  0  0  0  0  0  0  0  0  0
   16.9118  -57.8876  -38.6632 P   0  0  0  0  0  0  0  0  0  0  0  0
   17.7687  -59.0131  -39.1949 O   0  0  0  0  0  0  0  0  0  0  0  0
   16.5059  -56.8718  -39.7046 O   0  0  0  0  0  0  0  0  0  0  0  0
   15.7988  -58.3340  -37.7445 O   0  0  0  0  0  0  0  0  0  0  0  0
  1  2  2  0  0  0  0
  2  4  1  0  0  0  0
  2  3  1  0  0  0  0
  4  7  1  0  0  0  0
  5  9  1  0  0  0  0
  5  4  2  0  0  0  0
  6  5  1  0  0  0  0
  8  7  2  0  0  0  0
  9  8  1  0  0  0  0
 10 15  1  0  0  0  0
 10  9  1  6  0  0  0
 10 11  1  0  0  0  0
 11 14  1  1  0  0  0
 11 12  1  0  0  0  0
 12 13  1  1  0  0  0
 15 16  1  0  0  0  0
 16 12  1  0  0  0  0
 16 17  1  6  0  0  0
 17 18  1  0  0  0  0
 18 19  1  0  0  0  0
 19 21  1  0  0  0  0
 19 20  1  0  0  0  0
 22 19  2  0  0  0  0
M  END
>  <CHROM.1>
6.95787087,89.94691564,176.49650318,176.92921057,46.21751283,20.29957205
-58.03159823,-36.27816495,0.60919436,0.54832132,2.74364385

>  <Name>
lig.pdb

>  <RI>
0

>  <Rbt.Current_Directory>
/home/itssahil/PROJECTS/Mol_Feturizer/New_Systems/rnas/5btp

>  <Rbt.Executable>
rbdock ($Id: //depot/dev/client3/rdock/2013.1/src/exe/rbdock.cxx#4 $)

>  <Rbt.Library>
libRbt.so (2013.1, Build901 2013/11/27)

>  <Rbt.Parameter_File>
/export/apps/rDock/src/rDock_2013.1_src/data/scripts/dock_solv.prm

>  <Rbt.Receptor>
prm/pocket_docking_3.prm

>  <SCORE>
-6.18302

>  <SCORE.INTER>
-5.19682

>  <SCORE.INTER.CONST>
1

>  <SCORE.INTER.POLAR>
0

>  <SCORE.INTER.ROT>
5

>  <SCORE.INTER.SOLV>
10.6075

>  <SCORE.INTER.VDW>
-13.9337

>  <SCORE.INTER.norm>
-0.236219

>  <SCORE.INTRA>
-1.30683

>  <SCORE.INTRA.DIHEDRAL>
-1.22667

>  <SCORE.INTRA.DIHEDRAL.0>
4.21161

>  <SCORE.INTRA.POLAR>
0

>  <SCORE.INTRA.POLAR.0>
0

>  <SCORE.INTRA.REPUL>
0

>  <SCORE.INTRA.REPUL.0>
0

>  <SCORE.INTRA.SOLV>
-0.189489

>  <SCORE.INTRA.SOLV.lig_0>
-41.4168

>  <SCORE.INTRA.VDW>
-0.598752

>  <SCORE.INTRA.VDW.0>
-1.62533

>  <SCORE.INTRA.norm>
-0.0594015

>  <SCORE.RESTR>
0.320627

>  <SCORE.RESTR.CAVITY>
0.320627

>  <SCORE.RESTR.norm>
0.0145739

>  <SCORE.SYSTEM>
0

>  <SCORE.SYSTEM.CONST>
0

>  <SCORE.SYSTEM.DIHEDRAL>
0

>  <SCORE.SYSTEM.SOLV>
0

>  <SCORE.SYSTEM.norm>
0

>  <SCORE.heavy>
22

>  <SCORE.norm>
-0.281046

>  <RMSD>
6.696

$$$$
lig.pdb
 OpenBabel11021811523D
libRbt.so/2013.1/901 2013/11/27
 22 23  0  0  0  0  0  0  0  0999 V2000
   22.8839  -62.5517  -34.6294 O   0  0  0  0  0  0  0  0  0  0  0  0
   22.3481  -61.4857  -34.3691 C   0  0  0  0  0  0  0  0  0  0  0  0
   22.3116  -61.0020  -33.1276 N   0  0  0  0  0  0  0  0  0  0  0  0
   21.7009  -60.7036  -35.4603 C   0  0  0  0  0  0  0  0  0  0  0  0
   21.0122  -59.4189  -35.2607 C   0  0  0  0  0  0  0  0  0  0  0  0
   20.8600  -58.7350  -33.9831 N   0  0  0  0  0  0  0  0  0  0  0  0
   21.5864  -60.9204  -36.7893 N   0  0  0  0  0  0  0  0  0  0  0  0
   20.8960  -59.8725  -37.3369 C   0  0  0  0  0  0  0  0  0  0  0  0
   20.5448  -58.9558  -36.4090 N   0  0  0  0  0  0  0  0  0  0  0  0
   19.7969  -57.6953  -36.6247 C   0  0  1  0  0  0  0  0  0  0  0  0
   20.1780  -57.0709  -37.9569 C   0  0  1  0  0  0  0  0  0  0  0  0
   18.9015  -56.3988  -38.3937 C   0  0  2  0  0  0  0  0  0  0  0  0
   18.8143  -55.1072  -37.7886 O   0  0  0  0  0  0  0  0  0  0  0  0
   21.2145  -56.1018  -37.7945 O   0  0  0  0  0  0  0  0  0  0  0  0
   18.3852  -57.9331  -36.6739 O   0  0  0  0  0  0  0  0  0  0  0  0
   17.8181  -57.2897  -37.8176 C   0  0  2  0  0  0  0  0  0  0  0  0
   17.3906  -58.3236  -38.8478 C   0  0  0  0  0  0  0  0  0  0  0  0
   16.3467  -59.1159  -38.2842 O   0  0  0  0  0  0  0  0  0  0  0  0
   14.8072  -58.6440  -38.3411 P   0  0  0  0  0  0  0  0  0  0  0  0
   14.8215  -57.3572  -39.1332 O   0  0  0  0  0  0  0  0  0  0  0  0
   14.4474  -58.4718  -36.8844 O   0  0  0  0  0  0  0  0  0  0  0  0
   14.1140  -59.7934  -39.0345 O   0  0  0  0  0  0  0  0  0  0  0  0
  1  2  2  0  0  0  0
  2  4  1  0  0  0  0
  2  3  1  0  0  0  0
  4  7  1  0  0  0  0
  5  9  1  0  0  0  0
  5  4  2  0  0  0  0
  6  5  1  0  0  0  0
  8  7  2  0  0  0  0
  9  8  1  0  0  0  0
 10 15  1  0  0  0  0
 10  9  1  6  0  0  0
 10 11  1  0  0  0  0
 11 14  1  1  0  0  0
 11 12  1  0  0  0  0
 12 13  1  1  0  0  0
 15 16  1  0  0  0  0
 16 12  1  0  0  0  0
 16 17  1  6  0  0  0
 17 18  1  0  0  0  0
 18 19  1  0  0  0  0
 19 21  1  0  0  0  0
 19 20  1  0  0  0  0
 22 19  2  0  0  0  0
M  END
>  <CHROM.1>
179.17024239,143.97508040,-178.36753145,84.92931000,3.20686275,18.79660958
-58.72584487,-36.99109379,0.47770925,0.32371990,2.72929124

>  <Name>
lig.pdb

>  <RI>
0

>  <Rbt.Current_Directory>
/home/itssahil/PROJECTS/Mol_Feturizer/New_Systems/rnas/5btp

>  <Rbt.Executable>
rbdock ($Id: //depot/dev/client3/rdock/2013.1/src/exe/rbdock.cxx#4 $)

>  <Rbt.Library>
libRbt.so (2013.1, Build901 2013/11/27)

>  <Rbt.Parameter_File>
/export/apps/rDock/src/rDock_2013.1_src/data/scripts/dock_solv.prm

>  <Rbt.Receptor>
prm/pocket_docking_8.prm

>  <SCORE>
-8.37679

>  <SCORE.INTER>
-10.2808

>  <SCORE.INTER.CONST>
1

>  <SCORE.INTER.POLAR>
0

>  <SCORE.INTER.ROT>
5

>  <SCORE.INTER.SOLV>
16.6661

>  <SCORE.INTER.VDW>
-19.3425

>  <SCORE.INTER.norm>
-0.467307

>  <SCORE.INTRA>
1.8856

>  <SCORE.INTRA.DIHEDRAL>
3.24775

>  <SCORE.INTRA.DIHEDRAL.0>
4.21161

>  <SCORE.INTRA.POLAR>
0

>  <SCORE.INTRA.POLAR.0>
0

>  <SCORE.INTRA.REPUL>
0

>  <SCORE.INTRA.REPUL.0>
0

>  <SCORE.INTRA.SOLV>
0.297298

>  <SCORE.INTRA.SOLV.lig_0>
-41.4168

>  <SCORE.INTRA.VDW>
0.113073

>  <SCORE.INTRA.VDW.0>
-1.62533

>  <SCORE.INTRA.norm>
0.085709

>  <SCORE.RESTR>
0.0183713

>  <SCORE.RESTR.CAVITY>
0.0183713

>  <SCORE.RESTR.norm>
0.000835061

>  <SCORE.SYSTEM>
0

>  <SCORE.SYSTEM.CONST>
0

>  <SCORE.SYSTEM.DIHEDRAL>
0

>  <SCORE.SYSTEM.SOLV>
0

>  <SCORE.SYSTEM.norm>
0

>  <SCORE.heavy>
22

>  <SCORE.norm>
-0.380763

>  <RMSD>
6.704

$$$$
lig.pdb
 OpenBabel11021811523D
libRbt.so/2013.1/901 2013/11/27
 22 23  0  0  0  0  0  0  0  0999 V2000
   18.4695  -51.6156  -38.7353 O   0  0  0  0  0  0  0  0  0  0  0  0
   18.4142  -51.8654  -37.5413 C   0  0  0  0  0  0  0  0  0  0  0  0
   18.0454  -50.9478  -36.6476 N   0  0  0  0  0  0  0  0  0  0  0  0
   18.7820  -53.2265  -37.0583 C   0  0  0  0  0  0  0  0  0  0  0  0
   18.8572  -54.4174  -37.9191 C   0  0  0  0  0  0  0  0  0  0  0  0
   18.5820  -54.4405  -39.3498 N   0  0  0  0  0  0  0  0  0  0  0  0
   19.1227  -53.6967  -35.8380 N   0  0  0  0  0  0  0  0  0  0  0  0
   19.3764  -55.0375  -35.9503 C   0  0  0  0  0  0  0  0  0  0  0  0
   19.2160  -55.4799  -37.2166 N   0  0  0  0  0  0  0  0  0  0  0  0
   19.4030  -56.8608  -37.7196 C   0  0  1  0  0  0  0  0  0  0  0  0
   19.4575  -57.8462  -36.5638 C   0  0  1  0  0  0  0  0  0  0  0  0
   18.8390  -59.0898  -37.1491 C   0  0  2  0  0  0  0  0  0  0  0  0
   19.8374  -59.8292  -37.8552 O   0  0  0  0  0  0  0  0  0  0  0  0
   20.8058  -58.1050  -36.1700 O   0  0  0  0  0  0  0  0  0  0  0  0
   18.3055  -57.2629  -38.5478 O   0  0  0  0  0  0  0  0  0  0  0  0
   17.8291  -58.5484  -38.1423 C   0  0  2  0  0  0  0  0  0  0  0  0
   16.4646  -58.4222  -37.4823 C   0  0  0  0  0  0  0  0  0  0  0  0
   15.5276  -59.1904  -38.2352 O   0  0  0  0  0  0  0  0  0  0  0  0
   13.9446  -59.1054  -37.9471 P   0  0  0  0  0  0  0  0  0  0  0  0
   13.3778  -60.3959  -38.4918 O   0  0  0  0  0  0  0  0  0  0  0  0
   13.5232  -57.8719  -38.7100 O   0  0  0  0  0  0  0  0  0  0  0  0
   13.8687  -58.9784  -36.4436 O   0  0  0  0  0  0  0  0  0  0  0  0
  1  2  2  0  0  0  0
  2  4  1  0  0  0  0
  2  3  1  0  0  0  0
  4  7  1  0  0  0  0
  5  9  1  0  0  0  0
  5  4  2  0  0  0  0
  6  5  1  0  0  0  0
  8  7  2  0  0  0  0
  9  8  1  0  0  0  0
 10 15  1  0  0  0  0
 10  9  1  1  0  0  0
 10 11  1  0  0  0  0
 11 14  1  6  0  0  0
 11 12  1  0  0  0  0
 12 13  1  6  0  0  0
 15 16  1  0  0  0  0
 16 12  1  0  0  0  0
 16 17  1  1  0  0  0
 17 18  1  0  0  0  0
 18 19  1  0  0  0  0
 19 21  1  0  0  0  0
 19 20  1  0  0  0  0
 22 19  2  0  0  0  0
M  END
>  <CHROM.1>
-17.68293390,-165.22344622,-122.78050285,-170.72113849,-157.56852282,17.44986744
-56.71520200,-37.57831631,0.96133175,-0.18059048,-0.02686290

>  <Name>
lig.pdb

>  <RI>
0

>  <Rbt.Current_Directory>
/home/itssahil/PROJECTS/Mol_Feturizer/New_Systems/rnas/5btp

>  <Rbt.Executable>
rbdock ($Id: //depot/dev/client3/rdock/2013.1/src/exe/rbdock.cxx#4 $)

>  <Rbt.Library>
libRbt.so (2013.1, Build901 2013/11/27)

>  <Rbt.Parameter_File>
/export/apps/rDock/src/rDock_2013.1_src/data/scripts/dock_solv.prm

>  <Rbt.Receptor>
prm/pocket_docking_5.prm

>  <SCORE>
-12.8733

>  <SCORE.INTER>
-16.0517

>  <SCORE.INTER.CONST>
1

>  <SCORE.INTER.POLAR>
0

>  <SCORE.INTER.ROT>
5

>  <SCORE.INTER.SOLV>
21.514

>  <SCORE.INTER.VDW>
-24.8058

>  <SCORE.INTER.norm>
-0.729622

>  <SCORE.INTRA>
3.17668

>  <SCORE.INTRA.DIHEDRAL>
5.63155

>  <SCORE.INTRA.DIHEDRAL.0>
4.21161

>  <SCORE.INTRA.POLAR>
0

>  <SCORE.INTRA.POLAR.0>
0

>  <SCORE.INTRA.REPUL>
0

>  <SCORE.INTRA.REPUL.0>
0

>  <SCORE.INTRA.SOLV>
-0.111962

>  <SCORE.INTRA.SOLV.lig_0>
-41.4168

>  <SCORE.INTRA.VDW>
0.416889

>  <SCORE.INTRA.VDW.0>
-1.62533

>  <SCORE.INTRA.norm>
0.144395

>  <SCORE.RESTR>
0.00167796

>  <SCORE.RESTR.CAVITY>
0.00167796

>  <SCORE.RESTR.norm>
7.62711e-05

>  <SCORE.SYSTEM>
0

>  <SCORE.SYSTEM.CONST>
0

>  <SCORE.SYSTEM.DIHEDRAL>
0

>  <SCORE.SYSTEM.SOLV>
0

>  <SCORE.SYSTEM.norm>
0

>  <SCORE.heavy>
22

>  <SCORE.norm>
-0.585151

>  <RMSD>
6.708

$$$$
lig.pdb
 OpenBabel11021811523D
libRbt.so/2013.1/901 2013/11/27
 22 23  0  0  0  0  0  0  0  0999 V2000
   21.6613  -58.9148  -30.5527 O   0  0  0  0  0  0  0  0  0  0  0  0
   21.4008  -59.8921  -31.2370 C   0  0  0  0  0  0  0  0  0  0  0  0
   21.4499  -61.1292  -30.7432 N   0  0  0  0  0  0  0  0  0  0  0  0
   21.0313  -59.7081  -32.6691 C   0  0  0  0  0  0  0  0  0  0  0  0
   20.9467  -58.4015  -33.3402 C   0  0  0  0  0  0  0  0  0  0  0  0
   21.2037  -57.1132  -32.7097 N   0  0  0  0  0  0  0  0  0  0  0  0
   20.7175  -60.5865  -33.6469 N   0  0  0  0  0  0  0  0  0  0  0  0
   20.4667  -59.8809  -34.7931 C   0  0  0  0  0  0  0  0  0  0  0  0
   20.6056  -58.5497  -34.6102 N   0  0  0  0  0  0  0  0  0  0  0  0
   20.4194  -57.4772  -35.6152 C   0  0  1  0  0  0  0  0  0  0  0  0
   21.2110  -57.7848  -36.8757 C   0  0  1  0  0  0  0  0  0  0  0  0
   20.3592  -57.1859  -37.9654 C   0  0  2  0  0  0  0  0  0  0  0  0
   20.6586  -55.7943  -38.0909 O   0  0  0  0  0  0  0  0  0  0  0  0
   22.4914  -57.1528  -36.8476 O   0  0  0  0  0  0  0  0  0  0  0  0
   19.0467  -57.3710  -36.0105 O   0  0  0  0  0  0  0  0  0  0  0  0
   18.9468  -57.3427  -37.4364 C   0  0  2  0  0  0  0  0  0  0  0  0
   18.3386  -58.6389  -37.9494 C   0  0  0  0  0  0  0  0  0  0  0  0
   16.9268  -58.4630  -38.0550 O   0  0  0  0  0  0  0  0  0  0  0  0
   16.2701  -57.6366  -39.2723 P   0  0  0  0  0  0  0  0  0  0  0  0
   16.9123  -56.2701  -39.2090 O   0  0  0  0  0  0  0  0  0  0  0  0
   14.7973  -57.6461  -38.9377 O   0  0  0  0  0  0  0  0  0  0  0  0
   16.6495  -58.4462  -40.4900 O   0  0  0  0  0  0  0  0  0  0  0  0
  1  2  2  0  0  0  0
  2  4  1  0  0  0  0
  2  3  1  0  0  0  0
  4  7  1  0  0  0  0
  5  9  1  0  0  0  0
  5  4  2  0  0  0  0
  6  5  1  0  0  0  0
  8  7  2  0  0  0  0
  9  8  1  0  0  0  0
 10 15  1  0  0  0  0
 10  9  1  1  0  0  0
 10 11  1  0  0  0  0
 11 14  1  1  0  0  0
 11 12  1  0  0  0  0
 12 13  1  1  0  0  0
 15 16  1  0  0  0  0
 16 12  1  0  0  0  0
 16 17  1  6  0  0  0
 17 18  1  0  0  0  0
 18 19  1  0  0  0  0
 19 21  1  0  0  0  0
 19 20  1  0  0  0  0
 22 19  2  0  0  0  0
M  END
>  <CHROM.1>
-0.35160030,129.26719618,-150.39134934,76.83885285,-57.09157763,19.40034259
-58.16284194,-36.07709009,0.94448417,0.42417641,2.11994758

>  <Name>
lig.pdb

>  <RI>
0

>  <Rbt.Current_Directory>
/home/itssahil/PROJECTS/Mol_Feturizer/New_Systems/rnas/5btp

>  <Rbt.Executable>
rbdock ($Id: //depot/dev/client3/rdock/2013.1/src/exe/rbdock.cxx#4 $)

>  <Rbt.Library>
libRbt.so (2013.1, Build901 2013/11/27)

>  <Rbt.Parameter_File>
/export/apps/rDock/src/rDock_2013.1_src/data/scripts/dock_solv.prm

>  <Rbt.Receptor>
prm/pocket_docking_7.prm

>  <SCORE>
-9.70144

>  <SCORE.INTER>
-10.5005

>  <SCORE.INTER.CONST>
1

>  <SCORE.INTER.POLAR>
0

>  <SCORE.INTER.ROT>
5

>  <SCORE.INTER.SOLV>
18.4519

>  <SCORE.INTER.VDW>
-20.0843

>  <SCORE.INTER.norm>
-0.477294

>  <SCORE.INTRA>
0.765598

>  <SCORE.INTRA.DIHEDRAL>
2.08062

>  <SCORE.INTRA.DIHEDRAL.0>
4.21161

>  <SCORE.INTRA.POLAR>
0

>  <SCORE.INTRA.POLAR.0>
0

>  <SCORE.INTRA.REPUL>
0

>  <SCORE.INTRA.REPUL.0>
0

>  <SCORE.INTRA.SOLV>
0.369193

>  <SCORE.INTRA.SOLV.lig_0>
-41.4168

>  <SCORE.INTRA.VDW>
-0.459307

>  <SCORE.INTRA.VDW.0>
-1.62533

>  <SCORE.INTRA.norm>
0.0347999

>  <SCORE.RESTR>
0.0334332

>  <SCORE.RESTR.CAVITY>
0.0334332

>  <SCORE.RESTR.norm>
0.00151969

>  <SCORE.SYSTEM>
0

>  <SCORE.SYSTEM.CONST>
0

>  <SCORE.SYSTEM.DIHEDRAL>
0

>  <SCORE.SYSTEM.SOLV>
0

>  <SCORE.SYSTEM.norm>
0

>  <SCORE.heavy>
22

>  <SCORE.norm>
-0.440975

>  <RMSD>
6.719

$$$$
lig.pdb
 OpenBabel11021811523D
libRbt.so/2013.1/901 2013/11/27
 22 23  0  0  0  0  0  0  0  0999 V2000
   18.3838  -51.1042  -38.3927 O   0  0  0  0  0  0  0  0  0  0  0  0
   18.8515  -52.0221  -37.7373 C   0  0  0  0  0  0  0  0  0  0  0  0
   19.6303  -51.8038  -36.6777 N   0  0  0  0  0  0  0  0  0  0  0  0
   18.5621  -53.4293  -38.1339 C   0  0  0  0  0  0  0  0  0  0  0  0
   19.2028  -54.6076  -37.5289 C   0  0  0  0  0  0  0  0  0  0  0  0
   20.2041  -54.5710  -36.4710 N   0  0  0  0  0  0  0  0  0  0  0  0
   17.7192  -53.9616  -39.0463 N   0  0  0  0  0  0  0  0  0  0  0  0
   17.8402  -55.3245  -38.9984 C   0  0  0  0  0  0  0  0  0  0  0  0
   18.7427  -55.7218  -38.0751 N   0  0  0  0  0  0  0  0  0  0  0  0
   19.1370  -57.1096  -37.7383 C   0  0  1  0  0  0  0  0  0  0  0  0
   19.1432  -57.3111  -36.2319 C   0  0  1  0  0  0  0  0  0  0  0  0
   18.7396  -58.7555  -36.0815 C   0  0  2  0  0  0  0  0  0  0  0  0
   19.8933  -59.5874  -36.2195 O   0  0  0  0  0  0  0  0  0  0  0  0
   20.4484  -57.1052  -35.6896 O   0  0  0  0  0  0  0  0  0  0  0  0
   18.2048  -58.0566  -38.2733 O   0  0  0  0  0  0  0  0  0  0  0  0
   17.8166  -58.9893  -37.2617 C   0  0  2  0  0  0  0  0  0  0  0  0
   16.3722  -58.7509  -36.8494 C   0  0  0  0  0  0  0  0  0  0  0  0
   15.5208  -59.3469  -37.8267 O   0  0  0  0  0  0  0  0  0  0  0  0
   13.9306  -59.0879  -37.8281 P   0  0  0  0  0  0  0  0  0  0  0  0
   13.7384  -57.8381  -38.6555 O   0  0  0  0  0  0  0  0  0  0  0  0
   13.6099  -58.9169  -36.3622 O   0  0  0  0  0  0  0  0  0  0  0  0
   13.3721  -60.3425  -38.4578 O   0  0  0  0  0  0  0  0  0  0  0  0
  1  2  2  0  0  0  0
  2  4  1  0  0  0  0
  2  3  1  0  0  0  0
  4  7  1  0  0  0  0
  5  9  1  0  0  0  0
  5  4  2  0  0  0  0
  6  5  1  0  0  0  0
  8  7  2  0  0  0  0
  9  8  1  0  0  0  0
 10 15  1  0  0  0  0
 10  9  1  1  0  0  0
 10 11  1  0  0  0  0
 11 14  1  6  0  0  0
 11 12  1  0  0  0  0
 12 13  1  6  0  0  0
 15 16  1  0  0  0  0
 16 12  1  0  0  0  0
 16 17  1  1  0  0  0
 17 18  1  0  0  0  0
 18 19  1  0  0  0  0
 19 21  1  0  0  0  0
 19 20  1  0  0  0  0
 22 19  2  0  0  0  0
M  END
>  <CHROM.1>
171.94237267,46.97786005,-163.04557690,-170.26177510,87.92190853,17.40730515
-56.76899126,-37.49453838,0.87921606,-0.32013192,-0.24124694

>  <Name>
lig.pdb

>  <RI>
0

>  <Rbt.Current_Directory>
/home/itssahil/PROJECTS/Mol_Feturizer/New_Systems/rnas/5btp

>  <Rbt.Executable>
rbdock ($Id: //depot/dev/client3/rdock/2013.1/src/exe/rbdock.cxx#4 $)

>  <Rbt.Library>
libRbt.so (2013.1, Build901 2013/11/27)

>  <Rbt.Parameter_File>
/export/apps/rDock/src/rDock_2013.1_src/data/scripts/dock_solv.prm

>  <Rbt.Receptor>
prm/pocket_docking_5.prm

>  <SCORE>
-19.0797

>  <SCORE.INTER>
-20.1155

>  <SCORE.INTER.CONST>
1

>  <SCORE.INTER.POLAR>
0

>  <SCORE.INTER.ROT>
5

>  <SCORE.INTER.SOLV>
20.5566

>  <SCORE.INTER.VDW>
-27.1959

>  <SCORE.INTER.norm>
-0.914343

>  <SCORE.INTRA>
1.02319

>  <SCORE.INTRA.DIHEDRAL>
0.910041

>  <SCORE.INTRA.DIHEDRAL.0>
4.21161

>  <SCORE.INTRA.POLAR>
0

>  <SCORE.INTRA.POLAR.0>
0

>  <SCORE.INTRA.REPUL>
0

>  <SCORE.INTRA.REPUL.0>
0

>  <SCORE.INTRA.SOLV>
0.530032

>  <SCORE.INTRA.SOLV.lig_0>
-41.4168

>  <SCORE.INTRA.VDW>
0.303158

>  <SCORE.INTRA.VDW.0>
-1.62533

>  <SCORE.INTRA.norm>
0.0465088

>  <SCORE.RESTR>
0.0126947

>  <SCORE.RESTR.CAVITY>
0.0126947

>  <SCORE.RESTR.norm>
0.000577033

>  <SCORE.SYSTEM>
0

>  <SCORE.SYSTEM.CONST>
0

>  <SCORE.SYSTEM.DIHEDRAL>
0

>  <SCORE.SYSTEM.SOLV>
0

>  <SCORE.SYSTEM.norm>
0

>  <SCORE.heavy>
22

>  <SCORE.norm>
-0.867257

>  <RMSD>
6.726

$$$$
lig.pdb
 OpenBabel11021811523D
libRbt.so/2013.1/901 2013/11/27
 22 23  0  0  0  0  0  0  0  0999 V2000
   18.3872  -51.0864  -38.3552 O   0  0  0  0  0  0  0  0  0  0  0  0
   18.8489  -52.0105  -37.7042 C   0  0  0  0  0  0  0  0  0  0  0  0
   19.6206  -51.8023  -36.6375 N   0  0  0  0  0  0  0  0  0  0  0  0
   18.5599  -53.4139  -38.1145 C   0  0  0  0  0  0  0  0  0  0  0  0
   19.2016  -54.5978  -37.5217 C   0  0  0  0  0  0  0  0  0  0  0  0
   20.2038  -54.5711  -36.4643 N   0  0  0  0  0  0  0  0  0  0  0  0
   17.7165  -53.9375  -39.0314 N   0  0  0  0  0  0  0  0  0  0  0  0
   17.8382  -55.3008  -38.9971 C   0  0  0  0  0  0  0  0  0  0  0  0
   18.7417  -55.7067  -38.0785 N   0  0  0  0  0  0  0  0  0  0  0  0
   19.1370  -57.0976  -37.7558 C   0  0  1  0  0  0  0  0  0  0  0  0
   19.1477  -57.3131  -36.2514 C   0  0  1  0  0  0  0  0  0  0  0  0
   18.7446  -58.7588  -36.1132 C   0  0  2  0  0  0  0  0  0  0  0  0
   19.8978  -59.5894  -36.2623 O   0  0  0  0  0  0  0  0  0  0  0  0
   20.4544  -57.1121  -35.7110 O   0  0  0  0  0  0  0  0  0  0  0  0
   18.2033  -58.0396  -38.2968 O   0  0  0  0  0  0  0  0  0  0  0  0
   17.8181  -58.9816  -37.2928 C   0  0  2  0  0  0  0  0  0  0  0  0
   16.3749  -58.7472  -36.8740 C   0  0  0  0  0  0  0  0  0  0  0  0
   15.5205  -59.2894  -37.8796 O   0  0  0  0  0  0  0  0  0  0  0  0
   13.9247  -59.0721  -37.8351 P   0  0  0  0  0  0  0  0  0  0  0  0
   13.6772  -57.8218  -38.6469 O   0  0  0  0  0  0  0  0  0  0  0  0
   13.6404  -58.9201  -36.3596 O   0  0  0  0  0  0  0  0  0  0  0  0
   13.3817  -60.3363  -38.4590 O   0  0  0  0  0  0  0  0  0  0  0  0
  1  2  2  0  0  0  0
  2  4  1  0  0  0  0
  2  3  1  0  0  0  0
  4  7  1  0  0  0  0
  5  9  1  0  0  0  0
  5  4  2  0  0  0  0
  6  5  1  0  0  0  0
  8  7  2  0  0  0  0
  9  8  1  0  0  0  0
 10 15  1  0  0  0  0
 10  9  1  1  0  0  0
 10 11  1  0  0  0  0
 11 14  1  6  0  0  0
 11 12  1  0  0  0  0
 12 13  1  6  0  0  0
 15 16  1  0  0  0  0
 16 12  1  0  0  0  0
 16 17  1  1  0  0  0
 17 18  1  0  0  0  0
 18 19  1  0  0  0  0
 19 21  1  0  0  0  0
 19 20  1  0  0  0  0
 22 19  2  0  0  0  0
M  END
>  <CHROM.1>
171.47385447,46.84497690,-165.22128687,-173.18819843,91.87913264,17.40598060
-56.75782215,-37.49999532,0.87980756,-0.31505491,-0.23154679

>  <Name>
lig.pdb

>  <RI>
0

>  <Rbt.Current_Directory>
/home/itssahil/PROJECTS/Mol_Feturizer/New_Systems/rnas/5btp

>  <Rbt.Executable>
rbdock ($Id: //depot/dev/client3/rdock/2013.1/src/exe/rbdock.cxx#4 $)

>  <Rbt.Library>
libRbt.so (2013.1, Build901 2013/11/27)

>  <Rbt.Parameter_File>
/export/apps/rDock/src/rDock_2013.1_src/data/scripts/dock_solv.prm

>  <Rbt.Receptor>
prm/pocket_docking_5.prm

>  <SCORE>
-19.0447

>  <SCORE.INTER>
-20.0641

>  <SCORE.INTER.CONST>
1

>  <SCORE.INTER.POLAR>
0

>  <SCORE.INTER.ROT>
5

>  <SCORE.INTER.SOLV>
20.4539

>  <SCORE.INTER.VDW>
-27.1274

>  <SCORE.INTER.norm>
-0.912004

>  <SCORE.INTRA>
1.0188

>  <SCORE.INTRA.DIHEDRAL>
0.734159

>  <SCORE.INTRA.DIHEDRAL.0>
4.21161

>  <SCORE.INTRA.POLAR>
0

>  <SCORE.INTRA.POLAR.0>
0

>  <SCORE.INTRA.REPUL>
0

>  <SCORE.INTRA.REPUL.0>
0

>  <SCORE.INTRA.SOLV>
0.529033

>  <SCORE.INTRA.SOLV.lig_0>
-41.4168

>  <SCORE.INTRA.VDW>
0.387205

>  <SCORE.INTRA.VDW.0>
-1.62533

>  <SCORE.INTRA.norm>
0.0463091

>  <SCORE.RESTR>
0.000617592

>  <SCORE.RESTR.CAVITY>
0.000617592

>  <SCORE.RESTR.norm>
2.80724e-05

>  <SCORE.SYSTEM>
0

>  <SCORE.SYSTEM.CONST>
0

>  <SCORE.SYSTEM.DIHEDRAL>
0

>  <SCORE.SYSTEM.SOLV>
0

>  <SCORE.SYSTEM.norm>
0

>  <SCORE.heavy>
22

>  <SCORE.norm>
-0.865666

>  <RMSD>
6.732

$$$$
lig.pdb
 OpenBabel11021811523D
libRbt.so/2013.1/901 2013/11/27
 22 23  0  0  0  0  0  0  0  0999 V2000
   21.3690  -56.9637  -32.4010 O   0  0  0  0  0  0  0  0  0  0  0  0
   21.6052  -57.9119  -33.1332 C   0  0  0  0  0  0  0  0  0  0  0  0
   22.0824  -59.0633  -32.6605 N   0  0  0  0  0  0  0  0  0  0  0  0
   21.3711  -57.7834  -34.5995 C   0  0  0  0  0  0  0  0  0  0  0  0
   20.8036  -56.5892  -35.2449 C   0  0  0  0  0  0  0  0  0  0  0  0
   20.3884  -55.3757  -34.5533 N   0  0  0  0  0  0  0  0  0  0  0  0
   21.5981  -58.6235  -35.6333 N   0  0  0  0  0  0  0  0  0  0  0  0
   21.2051  -57.9999  -36.7871 C   0  0  0  0  0  0  0  0  0  0  0  0
   20.7209  -56.7605  -36.5545 N   0  0  0  0  0  0  0  0  0  0  0  0
   20.2069  -55.7916  -37.5505 C   0  0  1  0  0  0  0  0  0  0  0  0
   18.7219  -56.0101  -37.7891 C   0  0  1  0  0  0  0  0  0  0  0  0
   18.2173  -54.6199  -38.0802 C   0  0  2  0  0  0  0  0  0  0  0  0
   18.4180  -54.3222  -39.4634 O   0  0  0  0  0  0  0  0  0  0  0  0
   18.5001  -56.8605  -38.9149 O   0  0  0  0  0  0  0  0  0  0  0  0
   20.3521  -54.4447  -37.0850 O   0  0  0  0  0  0  0  0  0  0  0  0
   19.1224  -53.7337  -37.2467 C   0  0  2  0  0  0  0  0  0  0  0  0
   18.4854  -53.4649  -35.8920 C   0  0  0  0  0  0  0  0  0  0  0  0
   17.1569  -52.9907  -36.1053 O   0  0  0  0  0  0  0  0  0  0  0  0
   16.1672  -52.6766  -34.8733 P   0  0  0  0  0  0  0  0  0  0  0  0
   16.6204  -53.5960  -33.7630 O   0  0  0  0  0  0  0  0  0  0  0  0
   14.8048  -53.0072  -35.4353 O   0  0  0  0  0  0  0  0  0  0  0  0
   16.4022  -51.2094  -34.6007 O   0  0  0  0  0  0  0  0  0  0  0  0
  1  2  2  0  0  0  0
  2  4  1  0  0  0  0
  2  3  1  0  0  0  0
  4  7  1  0  0  0  0
  5  9  1  0  0  0  0
  5  4  2  0  0  0  0
  6  5  1  0  0  0  0
  8  7  2  0  0  0  0
  9  8  1  0  0  0  0
 10 15  1  0  0  0  0
 10  9  1  1  0  0  0
 10 11  1  0  0  0  0
 11 14  1  6  0  0  0
 11 12  1  0  0  0  0
 12 13  1  6  0  0  0
 15 16  1  0  0  0  0
 16 12  1  0  0  0  0
 16 17  1  1  0  0  0
 17 18  1  0  0  0  0
 18 19  1  0  0  0  0
 19 21  1  0  0  0  0
 19 20  1  0  0  0  0
 22 19  2  0  0  0  0
M  END
>  <CHROM.1>
-2.99419972,-91.82619504,-51.73973695,176.91373891,-28.06790100,19.02353353
-55.20286743,-35.79462228,0.10924052,-0.79918375,1.52998910

>  <Name>
lig.pdb

>  <RI>
0

>  <Rbt.Current_Directory>
/home/itssahil/PROJECTS/Mol_Feturizer/New_Systems/rnas/5btp

>  <Rbt.Executable>
rbdock ($Id: //depot/dev/client3/rdock/2013.1/src/exe/rbdock.cxx#4 $)

>  <Rbt.Library>
libRbt.so (2013.1, Build901 2013/11/27)

>  <Rbt.Parameter_File>
/export/apps/rDock/src/rDock_2013.1_src/data/scripts/dock_solv.prm

>  <Rbt.Receptor>
prm/pocket_docking_8.prm

>  <SCORE>
-7.32657

>  <SCORE.INTER>
-7.72017

>  <SCORE.INTER.CONST>
1

>  <SCORE.INTER.POLAR>
0

>  <SCORE.INTER.ROT>
5

>  <SCORE.INTER.SOLV>
12.4368

>  <SCORE.INTER.VDW>
-16.2257

>  <SCORE.INTER.norm>
-0.350917

>  <SCORE.INTRA>
0.393606

>  <SCORE.INTRA.DIHEDRAL>
-0.163829

>  <SCORE.INTRA.DIHEDRAL.0>
4.21161

>  <SCORE.INTRA.POLAR>
0

>  <SCORE.INTRA.POLAR.0>
0

>  <SCORE.INTRA.REPUL>
0

>  <SCORE.INTRA.REPUL.0>
0

>  <SCORE.INTRA.SOLV>
1.10458

>  <SCORE.INTRA.SOLV.lig_0>
-41.4168

>  <SCORE.INTRA.VDW>
-0.0767681

>  <SCORE.INTRA.VDW.0>
-1.62533

>  <SCORE.INTRA.norm>
0.0178912

>  <SCORE.RESTR>
0

>  <SCORE.RESTR.CAVITY>
0

>  <SCORE.RESTR.norm>
0

>  <SCORE.SYSTEM>
0

>  <SCORE.SYSTEM.CONST>
0

>  <SCORE.SYSTEM.DIHEDRAL>
0

>  <SCORE.SYSTEM.SOLV>
0

>  <SCORE.SYSTEM.norm>
0

>  <SCORE.heavy>
22

>  <SCORE.norm>
-0.333026

>  <RMSD>
6.737

$$$$
lig.pdb
 OpenBabel11021811523D
libRbt.so/2013.1/901 2013/11/27
 22 23  0  0  0  0  0  0  0  0999 V2000
   18.3694  -51.1508  -38.3594 O   0  0  0  0  0  0  0  0  0  0  0  0
   18.9070  -52.0608  -37.7479 C   0  0  0  0  0  0  0  0  0  0  0  0
   19.7686  -51.8294  -36.7574 N   0  0  0  0  0  0  0  0  0  0  0  0
   18.6100  -53.4726  -38.1217 C   0  0  0  0  0  0  0  0  0  0  0  0
   19.2431  -54.6445  -37.4966 C   0  0  0  0  0  0  0  0  0  0  0  0
   20.2434  -54.5962  -36.4382 N   0  0  0  0  0  0  0  0  0  0  0  0
   17.7651  -54.0149  -39.0263 N   0  0  0  0  0  0  0  0  0  0  0  0
   17.8781  -55.3775  -38.9559 C   0  0  0  0  0  0  0  0  0  0  0  0
   18.7773  -55.7647  -38.0251 N   0  0  0  0  0  0  0  0  0  0  0  0
   19.1631  -57.1491  -37.6651 C   0  0  1  0  0  0  0  0  0  0  0  0
   19.1486  -57.3311  -36.1563 C   0  0  1  0  0  0  0  0  0  0  0  0
   18.7390  -58.7723  -35.9926 C   0  0  2  0  0  0  0  0  0  0  0  0
   19.8921  -59.6090  -36.1043 O   0  0  0  0  0  0  0  0  0  0  0  0
   20.4469  -57.1215  -35.5992 O   0  0  0  0  0  0  0  0  0  0  0  0
   18.2356  -58.1006  -38.2003 O   0  0  0  0  0  0  0  0  0  0  0  0
   17.8313  -59.0190  -37.1820 C   0  0  2  0  0  0  0  0  0  0  0  0
   16.3822  -58.7716  -36.7923 C   0  0  0  0  0  0  0  0  0  0  0  0
   15.5423  -59.4078  -37.7540 O   0  0  0  0  0  0  0  0  0  0  0  0
   13.9500  -59.1631  -37.7742 P   0  0  0  0  0  0  0  0  0  0  0  0
   13.3779  -60.3674  -38.4854 O   0  0  0  0  0  0  0  0  0  0  0  0
   13.8120  -57.8678  -38.5386 O   0  0  0  0  0  0  0  0  0  0  0  0
   13.5903  -59.0770  -36.3094 O   0  0  0  0  0  0  0  0  0  0  0  0
  1  2  2  0  0  0  0
  2  4  1  0  0  0  0
  2  3  1  0  0  0  0
  4  7  1  0  0  0  0
  5  9  1  0  0  0  0
  5  4  2  0  0  0  0
  6  5  1  0  0  0  0
  8  7  2  0  0  0  0
  9  8  1  0  0  0  0
 10 15  1  0  0  0  0
 10  9  1  1  0  0  0
 10 11  1  0  0  0  0
 11 14  1  6  0  0  0
 11 12  1  0  0  0  0
 12 13  1  6  0  0  0
 15 16  1  0  0  0  0
 16 12  1  0  0  0  0
 16 17  1  1  0  0  0
 17 18  1  0  0  0  0
 18 19  1  0  0  0  0
 19 21  1  0  0  0  0
 19 20  1  0  0  0  0
 22 19  2  0  0  0  0
M  END
>  <CHROM.1>
177.14597163,47.72543788,-161.54448477,-170.64042738,-157.40088189,17.43361995
-56.81333500,-37.44513201,0.87430845,-0.32906342,-0.25792551

>  <Name>
lig.pdb

>  <RI>
0

>  <Rbt.Current_Directory>
/home/itssahil/PROJECTS/Mol_Feturizer/New_Systems/rnas/5btp

>  <Rbt.Executable>
rbdock ($Id: //depot/dev/client3/rdock/2013.1/src/exe/rbdock.cxx#4 $)

>  <Rbt.Library>
libRbt.so (2013.1, Build901 2013/11/27)

>  <Rbt.Parameter_File>
/export/apps/rDock/src/rDock_2013.1_src/data/scripts/dock_solv.prm

>  <Rbt.Receptor>
prm/pocket_docking_6.prm

>  <SCORE>
-18.9649

>  <SCORE.INTER>
-19.7937

>  <SCORE.INTER.CONST>
1

>  <SCORE.INTER.POLAR>
0

>  <SCORE.INTER.ROT>
5

>  <SCORE.INTER.SOLV>
20.683

>  <SCORE.INTER.VDW>
-27.0235

>  <SCORE.INTER.norm>
-0.899714

>  <SCORE.INTRA>
0.828857

>  <SCORE.INTRA.DIHEDRAL>
0.522017

>  <SCORE.INTRA.DIHEDRAL.0>
4.21161

>  <SCORE.INTRA.POLAR>
0

>  <SCORE.INTRA.POLAR.0>
0

>  <SCORE.INTRA.REPUL>
0

>  <SCORE.INTRA.REPUL.0>
0

>  <SCORE.INTRA.SOLV>
0.780023

>  <SCORE.INTRA.SOLV.lig_0>
-41.4168

>  <SCORE.INTRA.VDW>
0.177837

>  <SCORE.INTRA.VDW.0>
-1.62533

>  <SCORE.INTRA.norm>
0.0376753

>  <SCORE.RESTR>
0

>  <SCORE.RESTR.CAVITY>
0

>  <SCORE.RESTR.norm>
0

>  <SCORE.SYSTEM>
0

>  <SCORE.SYSTEM.CONST>
0

>  <SCORE.SYSTEM.DIHEDRAL>
0

>  <SCORE.SYSTEM.SOLV>
0

>  <SCORE.SYSTEM.norm>
0

>  <SCORE.heavy>
22

>  <SCORE.norm>
-0.862039

>  <RMSD>
6.740

$$$$
lig.pdb
 OpenBabel11021811523D
libRbt.so/2013.1/901 2013/11/27
 22 23  0  0  0  0  0  0  0  0999 V2000
   18.4068  -51.2164  -38.4841 O   0  0  0  0  0  0  0  0  0  0  0  0
   18.9126  -52.1182  -37.8344 C   0  0  0  0  0  0  0  0  0  0  0  0
   19.7474  -51.8741  -36.8244 N   0  0  0  0  0  0  0  0  0  0  0  0
   18.6063  -53.5347  -38.1823 C   0  0  0  0  0  0  0  0  0  0  0  0
   19.2313  -54.6990  -37.5353 C   0  0  0  0  0  0  0  0  0  0  0  0
   20.2314  -54.6378  -36.4774 N   0  0  0  0  0  0  0  0  0  0  0  0
   17.7582  -54.0880  -39.0772 N   0  0  0  0  0  0  0  0  0  0  0  0
   17.8622  -55.4498  -38.9816 C   0  0  0  0  0  0  0  0  0  0  0  0
   18.7583  -55.8257  -38.0432 N   0  0  0  0  0  0  0  0  0  0  0  0
   19.1347  -57.2057  -37.6575 C   0  0  1  0  0  0  0  0  0  0  0  0
   19.1163  -57.3602  -36.1456 C   0  0  1  0  0  0  0  0  0  0  0  0
   18.6973  -58.7957  -35.9567 C   0  0  2  0  0  0  0  0  0  0  0  0
   19.8453  -59.6414  -36.0510 O   0  0  0  0  0  0  0  0  0  0  0  0
   20.4148  -57.1487  -35.5898 O   0  0  0  0  0  0  0  0  0  0  0  0
   18.2022  -58.1609  -38.1772 O   0  0  0  0  0  0  0  0  0  0  0  0
   17.7903  -59.0582  -37.1432 C   0  0  2  0  0  0  0  0  0  0  0  0
   16.3420  -58.7946  -36.7609 C   0  0  0  0  0  0  0  0  0  0  0  0
   15.5000  -59.4571  -37.7029 O   0  0  0  0  0  0  0  0  0  0  0  0
   13.9216  -59.1448  -37.7866 P   0  0  0  0  0  0  0  0  0  0  0  0
   13.4763  -58.9915  -36.3507 O   0  0  0  0  0  0  0  0  0  0  0  0
   13.3670  -60.3660  -38.4811 O   0  0  0  0  0  0  0  0  0  0  0  0
   13.8592  -57.8710  -38.5965 O   0  0  0  0  0  0  0  0  0  0  0  0
  1  2  2  0  0  0  0
  2  4  1  0  0  0  0
  2  3  1  0  0  0  0
  4  7  1  0  0  0  0
  5  9  1  0  0  0  0
  5  4  2  0  0  0  0
  6  5  1  0  0  0  0
  8  7  2  0  0  0  0
  9  8  1  0  0  0  0
 10 15  1  0  0  0  0
 10  9  1  1  0  0  0
 10 11  1  0  0  0  0
 11 14  1  6  0  0  0
 11 12  1  0  0  0  0
 12 13  1  6  0  0  0
 15 16  1  0  0  0  0
 16 12  1  0  0  0  0
 16 17  1  1  0  0  0
 17 18  1  0  0  0  0
 18 19  1  0  0  0  0
 19 21  1  0  0  0  0
 19 20  1  0  0  0  0
 22 19  2  0  0  0  0
M  END
>  <CHROM.1>
175.35991731,47.81097430,-160.81548896,-167.05575521,-39.45173719,17.41065005
-56.84430254,-37.46050223,0.86487883,-0.33444735,-0.27722932

>  <Name>
lig.pdb

>  <RI>
0

>  <Rbt.Current_Directory>
/home/itssahil/PROJECTS/Mol_Feturizer/New_Systems/rnas/5btp

>  <Rbt.Executable>
rbdock ($Id: //depot/dev/client3/rdock/2013.1/src/exe/rbdock.cxx#4 $)

>  <Rbt.Library>
libRbt.so (2013.1, Build901 2013/11/27)

>  <Rbt.Parameter_File>
/export/apps/rDock/src/rDock_2013.1_src/data/scripts/dock_solv.prm

>  <Rbt.Receptor>
prm/pocket_docking_6.prm

>  <SCORE>
-19.085

>  <SCORE.INTER>
-19.9398

>  <SCORE.INTER.CONST>
1

>  <SCORE.INTER.POLAR>
0

>  <SCORE.INTER.ROT>
5

>  <SCORE.INTER.SOLV>
20.8852

>  <SCORE.INTER.VDW>
-27.1882

>  <SCORE.INTER.norm>
-0.906353

>  <SCORE.INTRA>
0.847213

>  <SCORE.INTRA.DIHEDRAL>
0.906402

>  <SCORE.INTRA.DIHEDRAL.0>
4.21161

>  <SCORE.INTRA.POLAR>
0

>  <SCORE.INTRA.POLAR.0>
0

>  <SCORE.INTRA.REPUL>
0

>  <SCORE.INTRA.REPUL.0>
0

>  <SCORE.INTRA.SOLV>
0.702781

>  <SCORE.INTRA.SOLV.lig_0>
-41.4168

>  <SCORE.INTRA.VDW>
0.0426215

>  <SCORE.INTRA.VDW.0>
-1.62533

>  <SCORE.INTRA.norm>
0.0385097

>  <SCORE.RESTR>
0.00752654

>  <SCORE.RESTR.CAVITY>
0.00752654

>  <SCORE.RESTR.norm>
0.000342115

>  <SCORE.SYSTEM>
0

>  <SCORE.SYSTEM.CONST>
0

>  <SCORE.SYSTEM.DIHEDRAL>
0

>  <SCORE.SYSTEM.SOLV>
0

>  <SCORE.SYSTEM.norm>
0

>  <SCORE.heavy>
22

>  <SCORE.norm>
-0.867501

>  <RMSD>
6.749

$$$$
lig.pdb
 OpenBabel11021811523D
libRbt.so/2013.1/901 2013/11/27
 22 23  0  0  0  0  0  0  0  0999 V2000
   19.6606  -51.8076  -36.7750 O   0  0  0  0  0  0  0  0  0  0  0  0
   18.9282  -52.0151  -37.7298 C   0  0  0  0  0  0  0  0  0  0  0  0
   18.3860  -51.0185  -38.4295 N   0  0  0  0  0  0  0  0  0  0  0  0
   18.6133  -53.4180  -38.1223 C   0  0  0  0  0  0  0  0  0  0  0  0
   19.2563  -54.6049  -37.5368 C   0  0  0  0  0  0  0  0  0  0  0  0
   20.2847  -54.5820  -36.5048 N   0  0  0  0  0  0  0  0  0  0  0  0
   17.7415  -53.9385  -39.0141 N   0  0  0  0  0  0  0  0  0  0  0  0
   17.8487  -55.3028  -38.9726 C   0  0  0  0  0  0  0  0  0  0  0  0
   18.7702  -55.7124  -38.0738 N   0  0  0  0  0  0  0  0  0  0  0  0
   19.1577  -57.1054  -37.7506 C   0  0  1  0  0  0  0  0  0  0  0  0
   19.1672  -57.3204  -36.2461 C   0  0  1  0  0  0  0  0  0  0  0  0
   18.7560  -58.7639  -36.1075 C   0  0  2  0  0  0  0  0  0  0  0  0
   19.9047  -59.6008  -36.2563 O   0  0  0  0  0  0  0  0  0  0  0  0
   20.4750  -57.1266  -35.7057 O   0  0  0  0  0  0  0  0  0  0  0  0
   18.2188  -58.0424  -38.2914 O   0  0  0  0  0  0  0  0  0  0  0  0
   17.8284  -58.9819  -37.2871 C   0  0  2  0  0  0  0  0  0  0  0  0
   16.3865  -58.7393  -36.8684 C   0  0  0  0  0  0  0  0  0  0  0  0
   15.5292  -59.3419  -37.8365 O   0  0  0  0  0  0  0  0  0  0  0  0
   13.9385  -59.0858  -37.8277 P   0  0  0  0  0  0  0  0  0  0  0  0
   13.7397  -57.8301  -38.6446 O   0  0  0  0  0  0  0  0  0  0  0  0
   13.6251  -58.9265  -36.3588 O   0  0  0  0  0  0  0  0  0  0  0  0
   13.3790  -60.3366  -38.4639 O   0  0  0  0  0  0  0  0  0  0  0  0
  1  2  2  0  0  0  0
  2  4  1  0  0  0  0
  2  3  1  0  0  0  0
  4  7  1  0  0  0  0
  5  9  1  0  0  0  0
  5  4  2  0  0  0  0
  6  5  1  0  0  0  0
  8  7  2  0  0  0  0
  9  8  1  0  0  0  0
 10 15  1  0  0  0  0
 10  9  1  1  0  0  0
 10 11  1  0  0  0  0
 11 14  1  6  0  0  0
 11 12  1  0  0  0  0
 12 13  1  6  0  0  0
 15 16  1  0  0  0  0
 16 12  1  0  0  0  0
 16 17  1  1  0  0  0
 17 18  1  0  0  0  0
 18 19  1  0  0  0  0
 19 21  1  0  0  0  0
 19 20  1  0  0  0  0
 22 19  2  0  0  0  0
M  END
>  <CHROM.1>
-7.78841016,48.36554118,-162.05412892,-170.48491687,87.18720198,17.43713642
-56.76733332,-37.49641943,0.87279417,-0.31397602,-0.23613909

>  <Name>
lig.pdb

>  <RI>
0

>  <Rbt.Current_Directory>
/home/itssahil/PROJECTS/Mol_Feturizer/New_Systems/rnas/5btp

>  <Rbt.Executable>
rbdock ($Id: //depot/dev/client3/rdock/2013.1/src/exe/rbdock.cxx#4 $)

>  <Rbt.Library>
libRbt.so (2013.1, Build901 2013/11/27)

>  <Rbt.Parameter_File>
/export/apps/rDock/src/rDock_2013.1_src/data/scripts/dock_solv.prm

>  <Rbt.Receptor>
prm/pocket_docking_7.prm

>  <SCORE>
-18.8187

>  <SCORE.INTER>
-19.6599

>  <SCORE.INTER.CONST>
1

>  <SCORE.INTER.POLAR>
0

>  <SCORE.INTER.ROT>
5

>  <SCORE.INTER.SOLV>
20.8856

>  <SCORE.INTER.VDW>
-27.0018

>  <SCORE.INTER.norm>
-0.893633

>  <SCORE.INTRA>
0.834242

>  <SCORE.INTRA.DIHEDRAL>
0.937041

>  <SCORE.INTRA.DIHEDRAL.0>
4.21161

>  <SCORE.INTRA.POLAR>
0

>  <SCORE.INTRA.POLAR.0>
0

>  <SCORE.INTRA.REPUL>
0

>  <SCORE.INTRA.REPUL.0>
0

>  <SCORE.INTRA.SOLV>
0.269232

>  <SCORE.INTRA.SOLV.lig_0>
-41.4168

>  <SCORE.INTRA.VDW>
0.231106

>  <SCORE.INTRA.VDW.0>
-1.62533

>  <SCORE.INTRA.norm>
0.0379201

>  <SCORE.RESTR>
0.00701045

>  <SCORE.RESTR.CAVITY>
0.00701045

>  <SCORE.RESTR.norm>
0.000318657

>  <SCORE.SYSTEM>
0

>  <SCORE.SYSTEM.CONST>
0

>  <SCORE.SYSTEM.DIHEDRAL>
0

>  <SCORE.SYSTEM.SOLV>
0

>  <SCORE.SYSTEM.norm>
0

>  <SCORE.heavy>
22

>  <SCORE.norm>
-0.855395

>  <RMSD>
6.756

$$$$
lig.pdb
 OpenBabel11021811523D
libRbt.so/2013.1/901 2013/11/27
 22 23  0  0  0  0  0  0  0  0999 V2000
   22.7017  -63.1205  -34.8349 O   0  0  0  0  0  0  0  0  0  0  0  0
   22.1159  -62.0999  -34.5088 C   0  0  0  0  0  0  0  0  0  0  0  0
   21.8981  -61.7924  -33.2302 N   0  0  0  0  0  0  0  0  0  0  0  0
   21.6132  -61.1734  -35.5625 C   0  0  0  0  0  0  0  0  0  0  0  0
   20.8979  -59.9175  -35.2869 C   0  0  0  0  0  0  0  0  0  0  0  0
   20.5766  -59.4054  -33.9611 N   0  0  0  0  0  0  0  0  0  0  0  0
   21.6745  -61.2125  -36.9119 N   0  0  0  0  0  0  0  0  0  0  0  0
   21.0566  -60.0934  -37.4020 C   0  0  0  0  0  0  0  0  0  0  0  0
   20.5826  -59.3020  -36.4152 N   0  0  0  0  0  0  0  0  0  0  0  0
   19.8631  -58.0149  -36.5586 C   0  0  1  0  0  0  0  0  0  0  0  0
   20.1290  -57.4053  -37.9252 C   0  0  1  0  0  0  0  0  0  0  0  0
   18.8401  -56.6868  -38.2324 C   0  0  2  0  0  0  0  0  0  0  0  0
   18.8622  -55.3927  -37.6267 O   0  0  0  0  0  0  0  0  0  0  0  0
   21.2114  -56.4749  -37.8730 O   0  0  0  0  0  0  0  0  0  0  0  0
   18.4460  -58.2007  -36.4629 O   0  0  0  0  0  0  0  0  0  0  0  0
   17.7892  -57.5371  -37.5455 C   0  0  2  0  0  0  0  0  0  0  0  0
   17.2214  -58.5549  -38.5228 C   0  0  0  0  0  0  0  0  0  0  0  0
   16.1074  -59.1982  -37.9062 O   0  0  0  0  0  0  0  0  0  0  0  0
   14.5951  -58.7244  -38.1965 P   0  0  0  0  0  0  0  0  0  0  0  0
   13.9688  -58.5567  -36.8315 O   0  0  0  0  0  0  0  0  0  0  0  0
   14.0267  -59.8674  -39.0036 O   0  0  0  0  0  0  0  0  0  0  0  0
   14.7732  -57.4340  -38.9617 O   0  0  0  0  0  0  0  0  0  0  0  0
  1  2  2  0  0  0  0
  2  4  1  0  0  0  0
  2  3  1  0  0  0  0
  4  7  1  0  0  0  0
  5  9  1  0  0  0  0
  5  4  2  0  0  0  0
  6  5  1  0  0  0  0
  8  7  2  0  0  0  0
  9  8  1  0  0  0  0
 10 15  1  0  0  0  0
 10  9  1  6  0  0  0
 10 11  1  0  0  0  0
 11 14  1  1  0  0  0
 11 12  1  0  0  0  0
 12 13  1  1  0  0  0
 15 16  1  0  0  0  0
 16 12  1  0  0  0  0
 16 17  1  6  0  0  0
 17 18  1  0  0  0  0
 18 19  1  0  0  0  0
 19 21  1  0  0  0  0
 19 20  1  0  0  0  0
 22 19  2  0  0  0  0
M  END
>  <CHROM.1>
-179.88168465,159.51442716,-171.54865598,97.41296839,-129.93698868,18.68787330
-59.03331609,-36.92897300,0.51367994,0.24904004,2.71742700

>  <Name>
lig.pdb

>  <RI>
0

>  <Rbt.Current_Directory>
/home/itssahil/PROJECTS/Mol_Feturizer/New_Systems/rnas/5btp

>  <Rbt.Executable>
rbdock ($Id: //depot/dev/client3/rdock/2013.1/src/exe/rbdock.cxx#4 $)

>  <Rbt.Library>
libRbt.so (2013.1, Build901 2013/11/27)

>  <Rbt.Parameter_File>
/export/apps/rDock/src/rDock_2013.1_src/data/scripts/dock_solv.prm

>  <Rbt.Receptor>
prm/pocket_docking_5.prm

>  <SCORE>
-7.51311

>  <SCORE.INTER>
-11.2529

>  <SCORE.INTER.CONST>
1

>  <SCORE.INTER.POLAR>
0

>  <SCORE.INTER.ROT>
5

>  <SCORE.INTER.SOLV>
17.2894

>  <SCORE.INTER.VDW>
-20.1984

>  <SCORE.INTER.norm>
-0.511495

>  <SCORE.INTRA>
3.73978

>  <SCORE.INTRA.DIHEDRAL>
5.65121

>  <SCORE.INTRA.DIHEDRAL.0>
4.21161

>  <SCORE.INTRA.POLAR>
0

>  <SCORE.INTRA.POLAR.0>
0

>  <SCORE.INTRA.REPUL>
0

>  <SCORE.INTRA.REPUL.0>
0

>  <SCORE.INTRA.SOLV>
0.642635

>  <SCORE.INTRA.SOLV.lig_0>
-41.4168

>  <SCORE.INTRA.VDW>
0.59286

>  <SCORE.INTRA.VDW.0>
-1.62533

>  <SCORE.INTRA.norm>
0.16999

>  <SCORE.RESTR>
0

>  <SCORE.RESTR.CAVITY>
0

>  <SCORE.RESTR.norm>
0

>  <SCORE.SYSTEM>
0

>  <SCORE.SYSTEM.CONST>
0

>  <SCORE.SYSTEM.DIHEDRAL>
0

>  <SCORE.SYSTEM.SOLV>
0

>  <SCORE.SYSTEM.norm>
0

>  <SCORE.heavy>
22

>  <SCORE.norm>
-0.341505

>  <RMSD>
6.764

$$$$
lig.pdb
 OpenBabel11021811523D
libRbt.so/2013.1/901 2013/11/27
 22 23  0  0  0  0  0  0  0  0999 V2000
   24.6238  -57.7889  -36.5794 O   0  0  0  0  0  0  0  0  0  0  0  0
   23.7152  -58.6024  -36.6414 C   0  0  0  0  0  0  0  0  0  0  0  0
   23.9038  -59.8901  -36.3535 N   0  0  0  0  0  0  0  0  0  0  0  0
   22.3576  -58.1558  -37.0644 C   0  0  0  0  0  0  0  0  0  0  0  0
   21.1830  -59.0385  -37.1406 C   0  0  0  0  0  0  0  0  0  0  0  0
   21.1767  -60.4605  -36.8226 N   0  0  0  0  0  0  0  0  0  0  0  0
   21.8733  -56.9521  -37.4422 N   0  0  0  0  0  0  0  0  0  0  0  0
   20.5403  -57.0942  -37.7206 C   0  0  0  0  0  0  0  0  0  0  0  0
   20.1162  -58.3636  -37.5377 N   0  0  0  0  0  0  0  0  0  0  0  0
   18.7471  -58.8942  -37.7356 C   0  0  1  0  0  0  0  0  0  0  0  0
   17.7851  -58.2719  -36.7371 C   0  0  1  0  0  0  0  0  0  0  0  0
   16.4892  -58.2156  -37.5049 C   0  0  2  0  0  0  0  0  0  0  0  0
   15.8198  -59.4737  -37.3988 O   0  0  0  0  0  0  0  0  0  0  0  0
   17.6372  -59.0968  -35.5806 O   0  0  0  0  0  0  0  0  0  0  0  0
   18.2497  -58.5695  -39.0391 O   0  0  0  0  0  0  0  0  0  0  0  0
   16.9369  -58.0124  -38.9393 C   0  0  2  0  0  0  0  0  0  0  0  0
   16.9659  -56.5285  -39.2713 C   0  0  0  0  0  0  0  0  0  0  0  0
   17.9524  -55.9030  -38.4522 O   0  0  0  0  0  0  0  0  0  0  0  0
   18.2346  -54.3189  -38.5354 P   0  0  0  0  0  0  0  0  0  0  0  0
   18.6113  -54.0637  -39.9764 O   0  0  0  0  0  0  0  0  0  0  0  0
   19.3654  -54.1203  -37.5541 O   0  0  0  0  0  0  0  0  0  0  0  0
   16.9179  -53.7064  -38.1189 O   0  0  0  0  0  0  0  0  0  0  0  0
  1  2  2  0  0  0  0
  2  4  1  0  0  0  0
  2  3  1  0  0  0  0
  4  7  1  0  0  0  0
  5  9  1  0  0  0  0
  5  4  2  0  0  0  0
  6  5  1  0  0  0  0
  8  7  2  0  0  0  0
  9  8  1  0  0  0  0
 10 15  1  0  0  0  0
 10  9  1  1  0  0  0
 10 11  1  0  0  0  0
 11 14  1  1  0  0  0
 11 12  1  0  0  0  0
 12 13  1  6  0  0  0
 15 16  1  0  0  0  0
 16 12  1  0  0  0  0
 16 17  1  1  0  0  0
 17 18  1  0  0  0  0
 18 19  1  0  0  0  0
 19 21  1  0  0  0  0
 19 20  1  0  0  0  0
 22 19  2  0  0  0  0
M  END
>  <CHROM.1>
-178.31768933,114.56804223,64.16252304,-179.29895633,-57.99981730,19.37023846
-57.28577064,-37.70967999,-0.57603234,-0.13875611,-0.28633203

>  <Name>
lig.pdb

>  <RI>
0

>  <Rbt.Current_Directory>
/home/itssahil/PROJECTS/Mol_Feturizer/New_Systems/rnas/5btp

>  <Rbt.Executable>
rbdock ($Id: //depot/dev/client3/rdock/2013.1/src/exe/rbdock.cxx#4 $)

>  <Rbt.Library>
libRbt.so (2013.1, Build901 2013/11/27)

>  <Rbt.Parameter_File>
/export/apps/rDock/src/rDock_2013.1_src/data/scripts/dock_solv.prm

>  <Rbt.Receptor>
prm/pocket_docking_8.prm

>  <SCORE>
-13.2882

>  <SCORE.INTER>
-12.1565

>  <SCORE.INTER.CONST>
1

>  <SCORE.INTER.POLAR>
0

>  <SCORE.INTER.ROT>
5

>  <SCORE.INTER.SOLV>
21.3556

>  <SCORE.INTER.VDW>
-22.1562

>  <SCORE.INTER.norm>
-0.552568

>  <SCORE.INTRA>
-1.51896

>  <SCORE.INTRA.DIHEDRAL>
-1.71285

>  <SCORE.INTRA.DIHEDRAL.0>
4.21161

>  <SCORE.INTRA.POLAR>
0

>  <SCORE.INTRA.POLAR.0>
0

>  <SCORE.INTRA.REPUL>
0

>  <SCORE.INTRA.REPUL.0>
0

>  <SCORE.INTRA.SOLV>
1.12666

>  <SCORE.INTRA.SOLV.lig_0>
-41.4168

>  <SCORE.INTRA.VDW>
-1.22586

>  <SCORE.INTRA.VDW.0>
-1.62533

>  <SCORE.INTRA.norm>
-0.0690436

>  <SCORE.RESTR>
0.387247

>  <SCORE.RESTR.CAVITY>
0.387247

>  <SCORE.RESTR.norm>
0.0176021

>  <SCORE.SYSTEM>
0

>  <SCORE.SYSTEM.CONST>
0

>  <SCORE.SYSTEM.DIHEDRAL>
0

>  <SCORE.SYSTEM.SOLV>
0

>  <SCORE.SYSTEM.norm>
0

>  <SCORE.heavy>
22

>  <SCORE.norm>
-0.60401

>  <RMSD>
6.775

$$$$
lig.pdb
 OpenBabel11021811523D
libRbt.so/2013.1/901 2013/11/27
 22 23  0  0  0  0  0  0  0  0999 V2000
   18.3083  -51.0164  -38.2408 O   0  0  0  0  0  0  0  0  0  0  0  0
   18.8706  -51.9605  -37.7082 C   0  0  0  0  0  0  0  0  0  0  0  0
   19.7764  -51.7872  -36.7458 N   0  0  0  0  0  0  0  0  0  0  0  0
   18.5534  -53.3481  -38.1499 C   0  0  0  0  0  0  0  0  0  0  0  0
   19.2118  -54.5543  -37.6242 C   0  0  0  0  0  0  0  0  0  0  0  0
   20.2596  -54.5678  -36.6117 N   0  0  0  0  0  0  0  0  0  0  0  0
   17.6668  -53.8368  -39.0451 N   0  0  0  0  0  0  0  0  0  0  0  0
   17.7798  -55.2012  -39.0597 C   0  0  0  0  0  0  0  0  0  0  0  0
   18.7197  -55.6419  -38.1953 N   0  0  0  0  0  0  0  0  0  0  0  0
   19.1184  -57.0448  -37.9350 C   0  0  1  0  0  0  0  0  0  0  0  0
   19.1655  -57.3168  -36.4405 C   0  0  1  0  0  0  0  0  0  0  0  0
   18.7613  -58.7658  -36.3468 C   0  0  2  0  0  0  0  0  0  0  0  0
   19.9079  -59.5927  -36.5555 O   0  0  0  0  0  0  0  0  0  0  0  0
   20.4857  -57.1393  -35.9254 O   0  0  0  0  0  0  0  0  0  0  0  0
   18.1687  -57.9638  -38.4878 O   0  0  0  0  0  0  0  0  0  0  0  0
   17.8054  -58.9420  -37.5106 C   0  0  2  0  0  0  0  0  0  0  0  0
   16.3737  -58.7203  -37.0478 C   0  0  0  0  0  0  0  0  0  0  0  0
   15.4934  -59.1582  -38.0815 O   0  0  0  0  0  0  0  0  0  0  0  0
   13.8942  -59.0241  -37.9383 P   0  0  0  0  0  0  0  0  0  0  0  0
   13.5237  -57.8320  -38.7898 O   0  0  0  0  0  0  0  0  0  0  0  0
   13.6995  -58.8119  -36.4556 O   0  0  0  0  0  0  0  0  0  0  0  0
   13.3836  -60.3457  -38.4626 O   0  0  0  0  0  0  0  0  0  0  0  0
  1  2  2  0  0  0  0
  2  4  1  0  0  0  0
  2  3  1  0  0  0  0
  4  7  1  0  0  0  0
  5  9  1  0  0  0  0
  5  4  2  0  0  0  0
  6  5  1  0  0  0  0
  8  7  2  0  0  0  0
  9  8  1  0  0  0  0
 10 15  1  0  0  0  0
 10  9  1  1  0  0  0
 10 11  1  0  0  0  0
 11 14  1  6  0  0  0
 11 12  1  0  0  0  0
 12 13  1  6  0  0  0
 15 16  1  0  0  0  0
 16 12  1  0  0  0  0
 16 17  1  1  0  0  0
 17 18  1  0  0  0  0
 18 19  1  0  0  0  0
 19 21  1  0  0  0  0
 19 20  1  0  0  0  0
 22 19  2  0  0  0  0
M  END
>  <CHROM.1>
177.09827133,48.02116673,-168.21704262,-178.11612233,102.78067582,17.39845413
-56.71518464,-37.62323991,0.88143317,-0.28543463,-0.19491965

>  <Name>
lig.pdb

>  <RI>
0

>  <Rbt.Current_Directory>
/home/itssahil/PROJECTS/Mol_Feturizer/New_Systems/rnas/5btp

>  <Rbt.Executable>
rbdock ($Id: //depot/dev/client3/rdock/2013.1/src/exe/rbdock.cxx#4 $)

>  <Rbt.Library>
libRbt.so (2013.1, Build901 2013/11/27)

>  <Rbt.Parameter_File>
/export/apps/rDock/src/rDock_2013.1_src/data/scripts/dock_solv.prm

>  <Rbt.Receptor>
prm/pocket_docking_8.prm

>  <SCORE>
-18.6924

>  <SCORE.INTER>
-19.8928

>  <SCORE.INTER.CONST>
1

>  <SCORE.INTER.POLAR>
0

>  <SCORE.INTER.ROT>
5

>  <SCORE.INTER.SOLV>
20.7933

>  <SCORE.INTER.VDW>
-27.1263

>  <SCORE.INTER.norm>
-0.90422

>  <SCORE.INTRA>
1.19941

>  <SCORE.INTRA.DIHEDRAL>
0.669782

>  <SCORE.INTRA.DIHEDRAL.0>
4.21161

>  <SCORE.INTRA.POLAR>
0

>  <SCORE.INTRA.POLAR.0>
0

>  <SCORE.INTRA.REPUL>
0

>  <SCORE.INTRA.REPUL.0>
0

>  <SCORE.INTRA.SOLV>
0.520111

>  <SCORE.INTRA.SOLV.lig_0>
-41.4168

>  <SCORE.INTRA.VDW>
0.604462

>  <SCORE.INTRA.VDW.0>
-1.62533

>  <SCORE.INTRA.norm>
0.0545186

>  <SCORE.RESTR>
0.000991587

>  <SCORE.RESTR.CAVITY>
0.000991587

>  <SCORE.RESTR.norm>
4.50721e-05

>  <SCORE.SYSTEM>
0

>  <SCORE.SYSTEM.CONST>
0

>  <SCORE.SYSTEM.DIHEDRAL>
0

>  <SCORE.SYSTEM.SOLV>
0

>  <SCORE.SYSTEM.norm>
0

>  <SCORE.heavy>
22

>  <SCORE.norm>
-0.849656

>  <RMSD>
6.780

$$$$
lig.pdb
 OpenBabel11021811523D
libRbt.so/2013.1/901 2013/11/27
 22 23  0  0  0  0  0  0  0  0999 V2000
   19.6069  -51.8298  -36.6300 O   0  0  0  0  0  0  0  0  0  0  0  0
   18.9378  -52.0280  -37.6321 C   0  0  0  0  0  0  0  0  0  0  0  0
   18.4473  -51.0246  -38.3597 N   0  0  0  0  0  0  0  0  0  0  0  0
   18.6431  -53.4270  -38.0531 C   0  0  0  0  0  0  0  0  0  0  0  0
   19.2599  -54.6194  -37.4509 C   0  0  0  0  0  0  0  0  0  0  0  0
   20.2396  -54.6064  -36.3724 N   0  0  0  0  0  0  0  0  0  0  0  0
   17.8141  -53.9389  -38.9896 N   0  0  0  0  0  0  0  0  0  0  0  0
   17.9209  -55.3035  -38.9573 C   0  0  0  0  0  0  0  0  0  0  0  0
   18.8005  -55.7216  -38.0211 N   0  0  0  0  0  0  0  0  0  0  0  0
   19.1744  -57.1176  -37.6948 C   0  0  1  0  0  0  0  0  0  0  0  0
   19.1621  -57.3348  -36.1906 C   0  0  1  0  0  0  0  0  0  0  0  0
   18.7396  -58.7756  -36.0597 C   0  0  2  0  0  0  0  0  0  0  0  0
   19.8846  -59.6200  -36.1942 O   0  0  0  0  0  0  0  0  0  0  0  0
   20.4638  -57.1503  -35.6324 O   0  0  0  0  0  0  0  0  0  0  0  0
   18.2366  -58.0476  -38.2495 O   0  0  0  0  0  0  0  0  0  0  0  0
   17.8265  -58.9859  -37.2519 C   0  0  2  0  0  0  0  0  0  0  0  0
   16.3807  -58.7343  -36.8524 C   0  0  0  0  0  0  0  0  0  0  0  0
   15.5325  -59.3362  -37.8288 O   0  0  0  0  0  0  0  0  0  0  0  0
   13.9376  -59.1080  -37.8140 P   0  0  0  0  0  0  0  0  0  0  0  0
   13.3606  -60.3353  -38.4805 O   0  0  0  0  0  0  0  0  0  0  0  0
   13.7664  -57.8334  -38.6060 O   0  0  0  0  0  0  0  0  0  0  0  0
   13.6146  -58.9893  -36.3430 O   0  0  0  0  0  0  0  0  0  0  0  0
  1  2  2  0  0  0  0
  2  4  1  0  0  0  0
  2  3  1  0  0  0  0
  4  7  1  0  0  0  0
  5  9  1  0  0  0  0
  5  4  2  0  0  0  0
  6  5  1  0  0  0  0
  8  7  2  0  0  0  0
  9  8  1  0  0  0  0
 10 15  1  0  0  0  0
 10  9  1  1  0  0  0
 10 11  1  0  0  0  0
 11 14  1  6  0  0  0
 11 12  1  0  0  0  0
 12 13  1  6  0  0  0
 15 16  1  0  0  0  0
 16 12  1  0  0  0  0
 16 17  1  1  0  0  0
 17 18  1  0  0  0  0
 18 19  1  0  0  0  0
 19 21  1  0  0  0  0
 19 20  1  0  0  0  0
 22 19  2  0  0  0  0
M  END
>  <CHROM.1>
-8.98187391,46.37484011,-161.73948765,-172.38023426,-153.38694902,17.44280010
-56.78019945,-37.44730425,0.86870967,-0.32394738,-0.23404698

>  <Name>
lig.pdb

>  <RI>
0

>  <Rbt.Current_Directory>
/home/itssahil/PROJECTS/Mol_Feturizer/New_Systems/rnas/5btp

>  <Rbt.Executable>
rbdock ($Id: //depot/dev/client3/rdock/2013.1/src/exe/rbdock.cxx#4 $)

>  <Rbt.Library>
libRbt.so (2013.1, Build901 2013/11/27)

>  <Rbt.Parameter_File>
/export/apps/rDock/src/rDock_2013.1_src/data/scripts/dock_solv.prm

>  <Rbt.Receptor>
prm/pocket_docking_8.prm

>  <SCORE>
-18.745

>  <SCORE.INTER>
-19.7247

>  <SCORE.INTER.CONST>
1

>  <SCORE.INTER.POLAR>
0

>  <SCORE.INTER.ROT>
5

>  <SCORE.INTER.SOLV>
20.7802

>  <SCORE.INTER.VDW>
-27.0099

>  <SCORE.INTER.norm>
-0.896576

>  <SCORE.INTRA>
0.971509

>  <SCORE.INTRA.DIHEDRAL>
0.849065

>  <SCORE.INTRA.DIHEDRAL.0>
4.21161

>  <SCORE.INTRA.POLAR>
0

>  <SCORE.INTRA.POLAR.0>
0

>  <SCORE.INTRA.REPUL>
0

>  <SCORE.INTRA.REPUL.0>
0

>  <SCORE.INTRA.SOLV>
0.551771

>  <SCORE.INTRA.SOLV.lig_0>
-41.4168

>  <SCORE.INTRA.VDW>
0.271091

>  <SCORE.INTRA.VDW.0>
-1.62533

>  <SCORE.INTRA.norm>
0.0441595

>  <SCORE.RESTR>
0.00815615

>  <SCORE.RESTR.CAVITY>
0.00815615

>  <SCORE.RESTR.norm>
0.000370734

>  <SCORE.SYSTEM>
0

>  <SCORE.SYSTEM.CONST>
0

>  <SCORE.SYSTEM.DIHEDRAL>
0

>  <SCORE.SYSTEM.SOLV>
0

>  <SCORE.SYSTEM.norm>
0

>  <SCORE.heavy>
22

>  <SCORE.norm>
-0.852046

>  <RMSD>
6.785

$$$$
lig.pdb
 OpenBabel11021811523D
libRbt.so/2013.1/901 2013/11/27
 22 23  0  0  0  0  0  0  0  0999 V2000
   23.8657  -59.8836  -36.4052 O   0  0  0  0  0  0  0  0  0  0  0  0
   23.7037  -58.7183  -36.7323 C   0  0  0  0  0  0  0  0  0  0  0  0
   24.7092  -57.8432  -36.7368 N   0  0  0  0  0  0  0  0  0  0  0  0
   22.3450  -58.2479  -37.1244 C   0  0  0  0  0  0  0  0  0  0  0  0
   21.1587  -59.1152  -37.1980 C   0  0  0  0  0  0  0  0  0  0  0  0
   21.1405  -60.5428  -36.9068 N   0  0  0  0  0  0  0  0  0  0  0  0
   21.8691  -57.0316  -37.4714 N   0  0  0  0  0  0  0  0  0  0  0  0
   20.5302  -57.1527  -37.7304 C   0  0  0  0  0  0  0  0  0  0  0  0
   20.0938  -58.4203  -37.5647 N   0  0  0  0  0  0  0  0  0  0  0  0
   18.7155  -58.9310  -37.7500 C   0  0  1  0  0  0  0  0  0  0  0  0
   17.7704  -58.2901  -36.7470 C   0  0  1  0  0  0  0  0  0  0  0  0
   16.4699  -58.2175  -37.5053 C   0  0  2  0  0  0  0  0  0  0  0  0
   15.7824  -59.4648  -37.3889 O   0  0  0  0  0  0  0  0  0  0  0  0
   17.6189  -59.1080  -35.5860 O   0  0  0  0  0  0  0  0  0  0  0  0
   18.2132  -58.6042  -39.0511 O   0  0  0  0  0  0  0  0  0  0  0  0
   16.9097  -58.0269  -38.9439 C   0  0  2  0  0  0  0  0  0  0  0  0
   16.9586  -56.5450  -39.2823 C   0  0  0  0  0  0  0  0  0  0  0  0
   17.9333  -55.9240  -38.4460 O   0  0  0  0  0  0  0  0  0  0  0  0
   18.2242  -54.3412  -38.5241 P   0  0  0  0  0  0  0  0  0  0  0  0
   18.6002  -54.0831  -39.9648 O   0  0  0  0  0  0  0  0  0  0  0  0
   19.3574  -54.1522  -37.5437 O   0  0  0  0  0  0  0  0  0  0  0  0
   16.9115  -53.7228  -38.1037 O   0  0  0  0  0  0  0  0  0  0  0  0
  1  2  2  0  0  0  0
  2  4  1  0  0  0  0
  2  3  1  0  0  0  0
  4  7  1  0  0  0  0
  5  9  1  0  0  0  0
  5  4  2  0  0  0  0
  6  5  1  0  0  0  0
  8  7  2  0  0  0  0
  9  8  1  0  0  0  0
 10 15  1  0  0  0  0
 10  9  1  6  0  0  0
 10 11  1  0  0  0  0
 11 14  1  1  0  0  0
 11 12  1  0  0  0  0
 12 13  1  6  0  0  0
 15 16  1  0  0  0  0
 16 12  1  0  0  0  0
 16 17  1  1  0  0  0
 17 18  1  0  0  0  0
 18 19  1  0  0  0  0
 19 21  1  0  0  0  0
 19 20  1  0  0  0  0
 22 19  2  0  0  0  0
M  END
>  <CHROM.1>
-2.43569639,116.00042222,62.50506410,-178.88857992,-56.89505945,19.35126510
-57.33406988,-37.73023623,-0.58986769,-0.12222835,-0.28102796

>  <Name>
lig.pdb

>  <RI>
0

>  <Rbt.Current_Directory>
/home/itssahil/PROJECTS/Mol_Feturizer/New_Systems/rnas/5btp

>  <Rbt.Executable>
rbdock ($Id: //depot/dev/client3/rdock/2013.1/src/exe/rbdock.cxx#4 $)

>  <Rbt.Library>
libRbt.so (2013.1, Build901 2013/11/27)

>  <Rbt.Parameter_File>
/export/apps/rDock/src/rDock_2013.1_src/data/scripts/dock_solv.prm

>  <Rbt.Receptor>
prm/pocket_docking_5.prm

>  <SCORE>
-13.3697

>  <SCORE.INTER>
-12.1132

>  <SCORE.INTER.CONST>
1

>  <SCORE.INTER.POLAR>
0

>  <SCORE.INTER.ROT>
5

>  <SCORE.INTER.SOLV>
21.851

>  <SCORE.INTER.VDW>
-22.2925

>  <SCORE.INTER.norm>
-0.550602

>  <SCORE.INTRA>
-1.6347

>  <SCORE.INTRA.DIHEDRAL>
-1.72833

>  <SCORE.INTRA.DIHEDRAL.0>
4.21161

>  <SCORE.INTRA.POLAR>
0

>  <SCORE.INTRA.POLAR.0>
0

>  <SCORE.INTRA.REPUL>
0

>  <SCORE.INTRA.REPUL.0>
0

>  <SCORE.INTRA.SOLV>
0.862674

>  <SCORE.INTRA.SOLV.lig_0>
-41.4168

>  <SCORE.INTRA.VDW>
-1.20187

>  <SCORE.INTRA.VDW.0>
-1.62533

>  <SCORE.INTRA.norm>
-0.0743043

>  <SCORE.RESTR>
0.378251

>  <SCORE.RESTR.CAVITY>
0.378251

>  <SCORE.RESTR.norm>
0.0171932

>  <SCORE.SYSTEM>
0

>  <SCORE.SYSTEM.CONST>
0

>  <SCORE.SYSTEM.DIHEDRAL>
0

>  <SCORE.SYSTEM.SOLV>
0

>  <SCORE.SYSTEM.norm>
0

>  <SCORE.heavy>
22

>  <SCORE.norm>
-0.607713

>  <RMSD>
6.788

$$$$
lig.pdb
 OpenBabel11021811523D
libRbt.so/2013.1/901 2013/11/27
 22 23  0  0  0  0  0  0  0  0999 V2000
   19.7740  -51.8379  -36.8190 O   0  0  0  0  0  0  0  0  0  0  0  0
   18.9664  -52.0334  -37.7138 C   0  0  0  0  0  0  0  0  0  0  0  0
   18.3627  -51.0282  -38.3478 N   0  0  0  0  0  0  0  0  0  0  0  0
   18.6283  -53.4312  -38.1050 C   0  0  0  0  0  0  0  0  0  0  0  0
   19.2601  -54.6277  -37.5271 C   0  0  0  0  0  0  0  0  0  0  0  0
   20.2985  -54.6206  -36.5049 N   0  0  0  0  0  0  0  0  0  0  0  0
   17.7409  -53.9383  -38.9891 N   0  0  0  0  0  0  0  0  0  0  0  0
   17.8294  -55.3040  -38.9503 C   0  0  0  0  0  0  0  0  0  0  0  0
   18.7535  -55.7276  -38.0607 N   0  0  0  0  0  0  0  0  0  0  0  0
   19.1246  -57.1263  -37.7430 C   0  0  1  0  0  0  0  0  0  0  0  0
   19.1069  -57.3540  -36.2404 C   0  0  1  0  0  0  0  0  0  0  0  0
   18.6821  -58.7953  -36.1211 C   0  0  2  0  0  0  0  0  0  0  0  0
   19.8265  -59.6401  -36.2576 O   0  0  0  0  0  0  0  0  0  0  0  0
   20.4068  -57.1752  -35.6765 O   0  0  0  0  0  0  0  0  0  0  0  0
   18.1876  -58.0512  -38.3075 O   0  0  0  0  0  0  0  0  0  0  0  0
   17.7728  -58.9960  -37.3179 C   0  0  2  0  0  0  0  0  0  0  0  0
   16.3260  -58.7454  -36.9216 C   0  0  0  0  0  0  0  0  0  0  0  0
   15.4819  -59.2581  -37.9510 O   0  0  0  0  0  0  0  0  0  0  0  0
   13.8804  -59.0946  -37.8860 P   0  0  0  0  0  0  0  0  0  0  0  0
   13.5803  -57.8553  -38.6969 O   0  0  0  0  0  0  0  0  0  0  0  0
   13.6106  -58.9486  -36.4071 O   0  0  0  0  0  0  0  0  0  0  0  0
   13.3721  -60.3778  -38.5001 O   0  0  0  0  0  0  0  0  0  0  0  0
  1  2  2  0  0  0  0
  2  4  1  0  0  0  0
  2  3  1  0  0  0  0
  4  7  1  0  0  0  0
  5  9  1  0  0  0  0
  5  4  2  0  0  0  0
  6  5  1  0  0  0  0
  8  7  2  0  0  0  0
  9  8  1  0  0  0  0
 10 15  1  0  0  0  0
 10  9  1  1  0  0  0
 10 11  1  0  0  0  0
 11 14  1  6  0  0  0
 11 12  1  0  0  0  0
 12 13  1  6  0  0  0
 15 16  1  0  0  0  0
 16 12  1  0  0  0  0
 16 17  1  1  0  0  0
 17 18  1  0  0  0  0
 18 19  1  0  0  0  0
 19 21  1  0  0  0  0
 19 20  1  0  0  0  0
 22 19  2  0  0  0  0
M  END
>  <CHROM.1>
-3.33146833,49.97063393,-165.68523406,-176.98863271,95.20458607,17.40633369
-56.78344414,-37.51158477,0.85944161,-0.32121161,-0.23516157

>  <Name>
lig.pdb

>  <RI>
0

>  <Rbt.Current_Directory>
/home/itssahil/PROJECTS/Mol_Feturizer/New_Systems/rnas/5btp

>  <Rbt.Executable>
rbdock ($Id: //depot/dev/client3/rdock/2013.1/src/exe/rbdock.cxx#4 $)

>  <Rbt.Library>
libRbt.so (2013.1, Build901 2013/11/27)

>  <Rbt.Parameter_File>
/export/apps/rDock/src/rDock_2013.1_src/data/scripts/dock_solv.prm

>  <Rbt.Receptor>
prm/pocket_docking_7.prm

>  <SCORE>
-18.8809

>  <SCORE.INTER>
-19.6234

>  <SCORE.INTER.CONST>
1

>  <SCORE.INTER.POLAR>
0

>  <SCORE.INTER.ROT>
5

>  <SCORE.INTER.SOLV>
20.9199

>  <SCORE.INTER.VDW>
-26.9889

>  <SCORE.INTER.norm>
-0.891975

>  <SCORE.INTRA>
0.742506

>  <SCORE.INTRA.DIHEDRAL>
0.503632

>  <SCORE.INTRA.DIHEDRAL.0>
4.21161

>  <SCORE.INTRA.POLAR>
0

>  <SCORE.INTRA.POLAR.0>
0

>  <SCORE.INTRA.REPUL>
0

>  <SCORE.INTRA.REPUL.0>
0

>  <SCORE.INTRA.SOLV>
0.242947

>  <SCORE.INTRA.SOLV.lig_0>
-41.4168

>  <SCORE.INTRA.VDW>
0.369217

>  <SCORE.INTRA.VDW.0>
-1.62533

>  <SCORE.INTRA.norm>
0.0337503

>  <SCORE.RESTR>
0

>  <SCORE.RESTR.CAVITY>
0

>  <SCORE.RESTR.norm>
0

>  <SCORE.SYSTEM>
0

>  <SCORE.SYSTEM.CONST>
0

>  <SCORE.SYSTEM.DIHEDRAL>
0

>  <SCORE.SYSTEM.SOLV>
0

>  <SCORE.SYSTEM.norm>
0

>  <SCORE.heavy>
22

>  <SCORE.norm>
-0.858224

>  <RMSD>
6.788

$$$$
lig.pdb
 OpenBabel11021811523D
libRbt.so/2013.1/901 2013/11/27
 22 23  0  0  0  0  0  0  0  0999 V2000
   23.3399  -61.1158  -34.9702 O   0  0  0  0  0  0  0  0  0  0  0  0
   23.4355  -60.3315  -34.0391 C   0  0  0  0  0  0  0  0  0  0  0  0
   24.0534  -60.6595  -32.9044 N   0  0  0  0  0  0  0  0  0  0  0  0
   22.8347  -58.9729  -34.1590 C   0  0  0  0  0  0  0  0  0  0  0  0
   21.9829  -58.5410  -35.2782 C   0  0  0  0  0  0  0  0  0  0  0  0
   21.6112  -59.3662  -36.4202 N   0  0  0  0  0  0  0  0  0  0  0  0
   22.8855  -57.8829  -33.3617 N   0  0  0  0  0  0  0  0  0  0  0  0
   22.1406  -56.8917  -33.9423 C   0  0  0  0  0  0  0  0  0  0  0  0
   21.5890  -57.2890  -35.1097 N   0  0  0  0  0  0  0  0  0  0  0  0
   20.7232  -56.4964  -36.0137 C   0  0  1  0  0  0  0  0  0  0  0  0
   21.0248  -56.8275  -37.4660 C   0  0  1  0  0  0  0  0  0  0  0  0
   19.6849  -56.6636  -38.1364 C   0  0  2  0  0  0  0  0  0  0  0  0
   19.4856  -55.2881  -38.4686 O   0  0  0  0  0  0  0  0  0  0  0  0
   21.9682  -55.9088  -38.0191 O   0  0  0  0  0  0  0  0  0  0  0  0
   19.3394  -56.8017  -35.8040 O   0  0  0  0  0  0  0  0  0  0  0  0
   18.6981  -57.0598  -37.0553 C   0  0  2  0  0  0  0  0  0  0  0  0
   18.3546  -58.5363  -37.1785 C   0  0  0  0  0  0  0  0  0  0  0  0
   17.9390  -58.7916  -38.5191 O   0  0  0  0  0  0  0  0  0  0  0  0
   16.6574  -58.0534  -39.1582 P   0  0  0  0  0  0  0  0  0  0  0  0
   16.6103  -58.5238  -40.5935 O   0  0  0  0  0  0  0  0  0  0  0  0
   16.9890  -56.5889  -38.9959 O   0  0  0  0  0  0  0  0  0  0  0  0
   15.5102  -58.5426  -38.3056 O   0  0  0  0  0  0  0  0  0  0  0  0
  1  2  2  0  0  0  0
  2  4  1  0  0  0  0
  2  3  1  0  0  0  0
  4  7  1  0  0  0  0
  5  9  1  0  0  0  0
  5  4  2  0  0  0  0
  6  5  1  0  0  0  0
  8  7  2  0  0  0  0
  9  8  1  0  0  0  0
 10 15  1  0  0  0  0
 10  9  1  1  0  0  0
 10 11  1  0  0  0  0
 11 14  1  6  0  0  0
 11 12  1  0  0  0  0
 12 13  1  1  0  0  0
 15 16  1  0  0  0  0
 16 12  1  0  0  0  0
 16 17  1  1  0  0  0
 17 18  1  0  0  0  0
 18 19  1  0  0  0  0
 19 21  1  0  0  0  0
 19 20  1  0  0  0  0
 22 19  2  0  0  0  0
M  END
>  <CHROM.1>
7.40633003,-36.86973986,-52.56353861,-60.54007053,176.54342670,20.00912289
-57.94616491,-36.78132575,0.33687148,0.62623629,2.89674834

>  <Name>
lig.pdb

>  <RI>
0

>  <Rbt.Current_Directory>
/home/itssahil/PROJECTS/Mol_Feturizer/New_Systems/rnas/5btp

>  <Rbt.Executable>
rbdock ($Id: //depot/dev/client3/rdock/2013.1/src/exe/rbdock.cxx#4 $)

>  <Rbt.Library>
libRbt.so (2013.1, Build901 2013/11/27)

>  <Rbt.Parameter_File>
/export/apps/rDock/src/rDock_2013.1_src/data/scripts/dock_solv.prm

>  <Rbt.Receptor>
prm/pocket_docking_2.prm

>  <SCORE>
-5.36584

>  <SCORE.INTER>
-7.9007

>  <SCORE.INTER.CONST>
1

>  <SCORE.INTER.POLAR>
0

>  <SCORE.INTER.ROT>
5

>  <SCORE.INTER.SOLV>
14.0379

>  <SCORE.INTER.VDW>
-16.8798

>  <SCORE.INTER.norm>
-0.359123

>  <SCORE.INTRA>
1.50936

>  <SCORE.INTRA.DIHEDRAL>
-1.3848

>  <SCORE.INTRA.DIHEDRAL.0>
4.21161

>  <SCORE.INTRA.POLAR>
0

>  <SCORE.INTRA.POLAR.0>
0

>  <SCORE.INTRA.REPUL>
0

>  <SCORE.INTRA.REPUL.0>
0

>  <SCORE.INTRA.SOLV>
2.5424

>  <SCORE.INTRA.SOLV.lig_0>
-41.4168

>  <SCORE.INTRA.VDW>
0.93056

>  <SCORE.INTRA.VDW.0>
-1.62533

>  <SCORE.INTRA.norm>
0.0686071

>  <SCORE.RESTR>
1.0255

>  <SCORE.RESTR.CAVITY>
1.0255

>  <SCORE.RESTR.norm>
0.0466135

>  <SCORE.SYSTEM>
0

>  <SCORE.SYSTEM.CONST>
0

>  <SCORE.SYSTEM.DIHEDRAL>
0

>  <SCORE.SYSTEM.SOLV>
0

>  <SCORE.SYSTEM.norm>
0

>  <SCORE.heavy>
22

>  <SCORE.norm>
-0.243902

>  <RMSD>
6.792

$$$$
lig.pdb
 OpenBabel11021811523D
libRbt.so/2013.1/901 2013/11/27
 22 23  0  0  0  0  0  0  0  0999 V2000
   25.0989  -62.1947  -37.1835 O   0  0  0  0  0  0  0  0  0  0  0  0
   23.9275  -62.4379  -37.4282 C   0  0  0  0  0  0  0  0  0  0  0  0
   23.5260  -63.6506  -37.8088 N   0  0  0  0  0  0  0  0  0  0  0  0
   22.9132  -61.3516  -37.3160 C   0  0  0  0  0  0  0  0  0  0  0  0
   23.2023  -59.9985  -36.8155 C   0  0  0  0  0  0  0  0  0  0  0  0
   24.5042  -59.5306  -36.3581 N   0  0  0  0  0  0  0  0  0  0  0  0
   21.5969  -61.3024  -37.6176 N   0  0  0  0  0  0  0  0  0  0  0  0
   21.1368  -60.0461  -37.3267 C   0  0  0  0  0  0  0  0  0  0  0  0
   22.1119  -59.2490  -36.8382 N   0  0  0  0  0  0  0  0  0  0  0  0
   21.9931  -57.8335  -36.4173 C   0  0  1  0  0  0  0  0  0  0  0  0
   22.4709  -56.9069  -37.5233 C   0  0  1  0  0  0  0  0  0  0  0  0
   21.5952  -55.6925  -37.3498 C   0  0  2  0  0  0  0  0  0  0  0  0
   22.1632  -54.8359  -36.3569 O   0  0  0  0  0  0  0  0  0  0  0  0
   23.8433  -56.5545  -37.3437 O   0  0  0  0  0  0  0  0  0  0  0  0
   20.6291  -57.4849  -36.1531 O   0  0  0  0  0  0  0  0  0  0  0  0
   20.2946  -56.2669  -36.8228 C   0  0  2  0  0  0  0  0  0  0  0  0
   19.3412  -56.5422  -37.9753 C   0  0  0  0  0  0  0  0  0  0  0  0
   18.1733  -57.1730  -37.4526 O   0  0  0  0  0  0  0  0  0  0  0  0
   17.0979  -57.8857  -38.4178 P   0  0  0  0  0  0  0  0  0  0  0  0
   17.8606  -58.9981  -39.0993 O   0  0  0  0  0  0  0  0  0  0  0  0
   16.6728  -56.7687  -39.3412 O   0  0  0  0  0  0  0  0  0  0  0  0
   16.0290  -58.3599  -37.4613 O   0  0  0  0  0  0  0  0  0  0  0  0
  1  2  2  0  0  0  0
  2  4  1  0  0  0  0
  2  3  1  0  0  0  0
  4  7  1  0  0  0  0
  5  9  1  0  0  0  0
  5  4  2  0  0  0  0
  6  5  1  0  0  0  0
  8  7  2  0  0  0  0
  9  8  1  0  0  0  0
 10 15  1  0  0  0  0
 10  9  1  6  0  0  0
 10 11  1  0  0  0  0
 11 14  1  1  0  0  0
 11 12  1  0  0  0  0
 12 13  1  1  0  0  0
 15 16  1  0  0  0  0
 16 12  1  0  0  0  0
 16 17  1  6  0  0  0
 17 18  1  0  0  0  0
 18 19  1  0  0  0  0
 19 21  1  0  0  0  0
 19 20  1  0  0  0  0
 22 19  2  0  0  0  0
M  END
>  <CHROM.1>
-5.28236728,81.35137893,175.68309634,-166.74707704,61.87233003,20.88130597
-58.57386263,-37.45142372,0.52788546,0.24114267,-2.99647068

>  <Name>
lig.pdb

>  <RI>
0

>  <Rbt.Current_Directory>
/home/itssahil/PROJECTS/Mol_Feturizer/New_Systems/rnas/5btp

>  <Rbt.Executable>
rbdock ($Id: //depot/dev/client3/rdock/2013.1/src/exe/rbdock.cxx#4 $)

>  <Rbt.Library>
libRbt.so (2013.1, Build901 2013/11/27)

>  <Rbt.Parameter_File>
/export/apps/rDock/src/rDock_2013.1_src/data/scripts/dock_solv.prm

>  <Rbt.Receptor>
prm/pocket_docking_8.prm

>  <SCORE>
-11.5618

>  <SCORE.INTER>
-10.4326

>  <SCORE.INTER.CONST>
1

>  <SCORE.INTER.POLAR>
0

>  <SCORE.INTER.ROT>
5

>  <SCORE.INTER.SOLV>
15.4154

>  <SCORE.INTER.VDW>
-19.0268

>  <SCORE.INTER.norm>
-0.474207

>  <SCORE.INTRA>
-1.12928

>  <SCORE.INTRA.DIHEDRAL>
-0.781112

>  <SCORE.INTRA.DIHEDRAL.0>
4.21161

>  <SCORE.INTRA.POLAR>
0

>  <SCORE.INTRA.POLAR.0>
0

>  <SCORE.INTRA.REPUL>
0

>  <SCORE.INTRA.REPUL.0>
0

>  <SCORE.INTRA.SOLV>
0.0206035

>  <SCORE.INTRA.SOLV.lig_0>
-41.4168

>  <SCORE.INTRA.VDW>
-0.749022

>  <SCORE.INTRA.VDW.0>
-1.62533

>  <SCORE.INTRA.norm>
-0.0513307

>  <SCORE.RESTR>
0

>  <SCORE.RESTR.CAVITY>
0

>  <SCORE.RESTR.norm>
0

>  <SCORE.SYSTEM>
0

>  <SCORE.SYSTEM.CONST>
0

>  <SCORE.SYSTEM.DIHEDRAL>
0

>  <SCORE.SYSTEM.SOLV>
0

>  <SCORE.SYSTEM.norm>
0

>  <SCORE.heavy>
22

>  <SCORE.norm>
-0.525538

>  <RMSD>
6.794

$$$$
lig.pdb
 OpenBabel11021811523D
libRbt.so/2013.1/901 2013/11/27
 22 23  0  0  0  0  0  0  0  0999 V2000
   18.2305  -50.9188  -37.8351 O   0  0  0  0  0  0  0  0  0  0  0  0
   18.7985  -51.8893  -37.3591 C   0  0  0  0  0  0  0  0  0  0  0  0
   19.6696  -51.7725  -36.3570 N   0  0  0  0  0  0  0  0  0  0  0  0
   18.5285  -53.2446  -37.9173 C   0  0  0  0  0  0  0  0  0  0  0  0
   19.1814  -54.4772  -37.4488 C   0  0  0  0  0  0  0  0  0  0  0  0
   20.1777  -54.5510  -36.3881 N   0  0  0  0  0  0  0  0  0  0  0  0
   17.6964  -53.6780  -38.8899 N   0  0  0  0  0  0  0  0  0  0  0  0
   17.8343  -55.0358  -38.9991 C   0  0  0  0  0  0  0  0  0  0  0  0
   18.7378  -55.5262  -38.1227 N   0  0  0  0  0  0  0  0  0  0  0  0
   19.1481  -56.9388  -37.9463 C   0  0  1  0  0  0  0  0  0  0  0  0
   19.2324  -57.2887  -36.4697 C   0  0  1  0  0  0  0  0  0  0  0  0
   18.8362  -58.7427  -36.4429 C   0  0  2  0  0  0  0  0  0  0  0  0
   19.9806  -59.5516  -36.7222 O   0  0  0  0  0  0  0  0  0  0  0  0
   20.5640  -57.1317  -35.9777 O   0  0  0  0  0  0  0  0  0  0  0  0
   18.1889  -57.8322  -38.5238 O   0  0  0  0  0  0  0  0  0  0  0  0
   17.8531  -58.8624  -37.5912 C   0  0  2  0  0  0  0  0  0  0  0  0
   16.4322  -58.6727  -37.0832 C   0  0  0  0  0  0  0  0  0  0  0  0
   15.5333  -59.2273  -38.0422 O   0  0  0  0  0  0  0  0  0  0  0  0
   13.9367  -59.0836  -37.8811 P   0  0  0  0  0  0  0  0  0  0  0  0
   13.3673  -60.3466  -38.4846 O   0  0  0  0  0  0  0  0  0  0  0  0
   13.6252  -57.8283  -38.6610 O   0  0  0  0  0  0  0  0  0  0  0  0
   13.7445  -58.9667  -36.3872 O   0  0  0  0  0  0  0  0  0  0  0  0
  1  2  2  0  0  0  0
  2  4  1  0  0  0  0
  2  3  1  0  0  0  0
  4  7  1  0  0  0  0
  5  9  1  0  0  0  0
  5  4  2  0  0  0  0
  6  5  1  0  0  0  0
  8  7  2  0  0  0  0
  9  8  1  0  0  0  0
 10 15  1  0  0  0  0
 10  9  1  1  0  0  0
 10 11  1  0  0  0  0
 11 14  1  6  0  0  0
 11 12  1  0  0  0  0
 12 13  1  6  0  0  0
 15 16  1  0  0  0  0
 16 12  1  0  0  0  0
 16 17  1  1  0  0  0
 17 18  1  0  0  0  0
 18 19  1  0  0  0  0
 19 21  1  0  0  0  0
 19 20  1  0  0  0  0
 22 19  2  0  0  0  0
M  END
>  <CHROM.1>
178.24312781,43.53576085,-160.45296659,-174.59525810,-147.61871049,17.41787540
-56.67798433,-37.54466735,0.90719794,-0.26043921,-0.13063935

>  <Name>
lig.pdb

>  <RI>
0

>  <Rbt.Current_Directory>
/home/itssahil/PROJECTS/Mol_Feturizer/New_Systems/rnas/5btp

>  <Rbt.Executable>
rbdock ($Id: //depot/dev/client3/rdock/2013.1/src/exe/rbdock.cxx#4 $)

>  <Rbt.Library>
libRbt.so (2013.1, Build901 2013/11/27)

>  <Rbt.Parameter_File>
/export/apps/rDock/src/rDock_2013.1_src/data/scripts/dock_solv.prm

>  <Rbt.Receptor>
prm/pocket_docking_5.prm

>  <SCORE>
-18.3374

>  <SCORE.INTER>
-19.768

>  <SCORE.INTER.CONST>
1

>  <SCORE.INTER.POLAR>
0

>  <SCORE.INTER.ROT>
5

>  <SCORE.INTER.SOLV>
20.0763

>  <SCORE.INTER.VDW>
-26.8041

>  <SCORE.INTER.norm>
-0.898545

>  <SCORE.INTRA>
1.43057

>  <SCORE.INTRA.DIHEDRAL>
0.950994

>  <SCORE.INTRA.DIHEDRAL.0>
4.21161

>  <SCORE.INTRA.POLAR>
0

>  <SCORE.INTRA.POLAR.0>
0

>  <SCORE.INTRA.REPUL>
0

>  <SCORE.INTRA.REPUL.0>
0

>  <SCORE.INTRA.SOLV>
0.818275

>  <SCORE.INTRA.SOLV.lig_0>
-41.4168

>  <SCORE.INTRA.VDW>
0.545934

>  <SCORE.INTRA.VDW.0>
-1.62533

>  <SCORE.INTRA.norm>
0.0650258

>  <SCORE.RESTR>
0

>  <SCORE.RESTR.CAVITY>
0

>  <SCORE.RESTR.norm>
0

>  <SCORE.SYSTEM>
0

>  <SCORE.SYSTEM.CONST>
0

>  <SCORE.SYSTEM.DIHEDRAL>
0

>  <SCORE.SYSTEM.SOLV>
0

>  <SCORE.SYSTEM.norm>
0

>  <SCORE.heavy>
22

>  <SCORE.norm>
-0.83352

>  <RMSD>
6.798

$$$$
lig.pdb
 OpenBabel11021811523D
libRbt.so/2013.1/901 2013/11/27
 22 23  0  0  0  0  0  0  0  0999 V2000
   21.4961  -63.9694  -34.7081 O   0  0  0  0  0  0  0  0  0  0  0  0
   22.0366  -63.7834  -35.7871 C   0  0  0  0  0  0  0  0  0  0  0  0
   22.6560  -64.7657  -36.4416 N   0  0  0  0  0  0  0  0  0  0  0  0
   22.0219  -62.4206  -36.3903 C   0  0  0  0  0  0  0  0  0  0  0  0
   21.4074  -61.2428  -35.7580 C   0  0  0  0  0  0  0  0  0  0  0  0
   20.7280  -61.2379  -34.4690 N   0  0  0  0  0  0  0  0  0  0  0  0
   22.5208  -61.9335  -37.5480 N   0  0  0  0  0  0  0  0  0  0  0  0
   22.2345  -60.5961  -37.6094 C   0  0  0  0  0  0  0  0  0  0  0  0
   21.5566  -60.1717  -36.5207 N   0  0  0  0  0  0  0  0  0  0  0  0
   21.0803  -58.7985  -36.2338 C   0  0  1  0  0  0  0  0  0  0  0  0
   21.1659  -57.9335  -37.4805 C   0  0  1  0  0  0  0  0  0  0  0  0
   20.0012  -56.9904  -37.3193 C   0  0  2  0  0  0  0  0  0  0  0  0
   20.3939  -55.8871  -36.5004 O   0  0  0  0  0  0  0  0  0  0  0  0
   22.3915  -57.2011  -37.5169 O   0  0  0  0  0  0  0  0  0  0  0  0
   19.7053  -58.8011  -35.8320 O   0  0  0  0  0  0  0  0  0  0  0  0
   18.9750  -57.8205  -36.5728 C   0  0  2  0  0  0  0  0  0  0  0  0
   18.0337  -58.4956  -37.5583 C   0  0  0  0  0  0  0  0  0  0  0  0
   17.2728  -57.4854  -38.2184 O   0  0  0  0  0  0  0  0  0  0  0  0
   16.0576  -57.8587  -39.2083 P   0  0  0  0  0  0  0  0  0  0  0  0
   15.2089  -58.8399  -38.4334 O   0  0  0  0  0  0  0  0  0  0  0  0
   16.7608  -58.4559  -40.4041 O   0  0  0  0  0  0  0  0  0  0  0  0
   15.3920  -56.5267  -39.4634 O   0  0  0  0  0  0  0  0  0  0  0  0
  1  2  2  0  0  0  0
  2  4  1  0  0  0  0
  2  3  1  0  0  0  0
  4  7  1  0  0  0  0
  5  9  1  0  0  0  0
  5  4  2  0  0  0  0
  6  5  1  0  0  0  0
  8  7  2  0  0  0  0
  9  8  1  0  0  0  0
 10 15  1  0  0  0  0
 10  9  1  6  0  0  0
 10 11  1  0  0  0  0
 11 14  1  1  0  0  0
 11 12  1  0  0  0  0
 12 13  1  1  0  0  0
 15 16  1  0  0  0  0
 16 12  1  0  0  0  0
 16 17  1  6  0  0  0
 17 18  1  0  0  0  0
 18 19  1  0  0  0  0
 19 21  1  0  0  0  0
 19 20  1  0  0  0  0
 22 19  2  0  0  0  0
M  END
>  <CHROM.1>
1.04933749,-167.07026705,-65.98955476,-172.90535830,49.68598931,19.64688335
-59.41820286,-37.24577782,0.73055724,0.40894691,3.04386590

>  <Name>
lig.pdb

>  <RI>
0

>  <Rbt.Current_Directory>
/home/itssahil/PROJECTS/Mol_Feturizer/New_Systems/rnas/5btp

>  <Rbt.Executable>
rbdock ($Id: //depot/dev/client3/rdock/2013.1/src/exe/rbdock.cxx#4 $)

>  <Rbt.Library>
libRbt.so (2013.1, Build901 2013/11/27)

>  <Rbt.Parameter_File>
/export/apps/rDock/src/rDock_2013.1_src/data/scripts/dock_solv.prm

>  <Rbt.Receptor>
prm/pocket_docking_8.prm

>  <SCORE>
-9.20003

>  <SCORE.INTER>
-8.96608

>  <SCORE.INTER.CONST>
1

>  <SCORE.INTER.POLAR>
0

>  <SCORE.INTER.ROT>
5

>  <SCORE.INTER.SOLV>
17.0578

>  <SCORE.INTER.VDW>
-18.5967

>  <SCORE.INTER.norm>
-0.407549

>  <SCORE.INTRA>
-0.374382

>  <SCORE.INTRA.DIHEDRAL>
-1.23662

>  <SCORE.INTRA.DIHEDRAL.0>
4.21161

>  <SCORE.INTRA.POLAR>
0

>  <SCORE.INTRA.POLAR.0>
0

>  <SCORE.INTRA.REPUL>
0

>  <SCORE.INTRA.REPUL.0>
0

>  <SCORE.INTRA.SOLV>
-0.164457

>  <SCORE.INTRA.SOLV.lig_0>
-41.4168

>  <SCORE.INTRA.VDW>
0.326157

>  <SCORE.INTRA.VDW.0>
-1.62533

>  <SCORE.INTRA.norm>
-0.0170174

>  <SCORE.RESTR>
0.140435

>  <SCORE.RESTR.CAVITY>
0.140435

>  <SCORE.RESTR.norm>
0.00638343

>  <SCORE.SYSTEM>
0

>  <SCORE.SYSTEM.CONST>
0

>  <SCORE.SYSTEM.DIHEDRAL>
0

>  <SCORE.SYSTEM.SOLV>
0

>  <SCORE.SYSTEM.norm>
0

>  <SCORE.heavy>
22

>  <SCORE.norm>
-0.418183

>  <RMSD>
6.799

$$$$
lig.pdb
 OpenBabel11021811523D
libRbt.so/2013.1/901 2013/11/27
 22 23  0  0  0  0  0  0  0  0999 V2000
   25.1437  -62.1408  -37.1751 O   0  0  0  0  0  0  0  0  0  0  0  0
   23.9766  -62.3976  -37.4261 C   0  0  0  0  0  0  0  0  0  0  0  0
   23.5902  -63.6170  -37.8012 N   0  0  0  0  0  0  0  0  0  0  0  0
   22.9506  -61.3212  -37.3281 C   0  0  0  0  0  0  0  0  0  0  0  0
   23.2184  -59.9670  -36.8188 C   0  0  0  0  0  0  0  0  0  0  0  0
   24.5080  -59.4886  -36.3377 N   0  0  0  0  0  0  0  0  0  0  0  0
   21.6392  -61.2831  -37.6522 N   0  0  0  0  0  0  0  0  0  0  0  0
   21.1625  -60.0320  -37.3656 C   0  0  0  0  0  0  0  0  0  0  0  0
   22.1217  -59.2275  -36.8580 N   0  0  0  0  0  0  0  0  0  0  0  0
   21.9826  -57.8145  -36.4351 C   0  0  1  0  0  0  0  0  0  0  0  0
   22.4565  -56.8797  -37.5359 C   0  0  1  0  0  0  0  0  0  0  0  0
   21.5647  -55.6765  -37.3660 C   0  0  2  0  0  0  0  0  0  0  0  0
   22.1153  -54.8151  -36.3675 O   0  0  0  0  0  0  0  0  0  0  0  0
   23.8232  -56.5109  -37.3462 O   0  0  0  0  0  0  0  0  0  0  0  0
   20.6126  -57.4833  -36.1796 O   0  0  0  0  0  0  0  0  0  0  0  0
   20.2677  -56.2681  -36.8491 C   0  0  2  0  0  0  0  0  0  0  0  0
   19.3256  -56.5526  -38.0087 C   0  0  0  0  0  0  0  0  0  0  0  0
   18.1467  -57.1667  -37.4907 O   0  0  0  0  0  0  0  0  0  0  0  0
   17.0818  -57.8932  -38.4572 P   0  0  0  0  0  0  0  0  0  0  0  0
   15.9810  -58.3699  -37.5382 O   0  0  0  0  0  0  0  0  0  0  0  0
   17.8905  -59.0038  -39.0847 O   0  0  0  0  0  0  0  0  0  0  0  0
   16.6662  -56.7954  -39.4082 O   0  0  0  0  0  0  0  0  0  0  0  0
  1  2  2  0  0  0  0
  2  4  1  0  0  0  0
  2  3  1  0  0  0  0
  4  7  1  0  0  0  0
  5  9  1  0  0  0  0
  5  4  2  0  0  0  0
  6  5  1  0  0  0  0
  8  7  2  0  0  0  0
  9  8  1  0  0  0  0
 10 15  1  0  0  0  0
 10  9  1  6  0  0  0
 10 11  1  0  0  0  0
 11 14  1  1  0  0  0
 11 12  1  0  0  0  0
 12 13  1  1  0  0  0
 15 16  1  0  0  0  0
 16 12  1  0  0  0  0
 16 17  1  6  0  0  0
 17 18  1  0  0  0  0
 18 19  1  0  0  0  0
 19 21  1  0  0  0  0
 19 20  1  0  0  0  0
 22 19  2  0  0  0  0
M  END
>  <CHROM.1>
-6.09998964,81.97037572,177.20317743,-166.35135323,-178.49029429,20.88131789
-58.55932061,-37.47215638,0.51634552,0.24538096,-2.99432335

>  <Name>
lig.pdb

>  <RI>
0

>  <Rbt.Current_Directory>
/home/itssahil/PROJECTS/Mol_Feturizer/New_Systems/rnas/5btp

>  <Rbt.Executable>
rbdock ($Id: //depot/dev/client3/rdock/2013.1/src/exe/rbdock.cxx#4 $)

>  <Rbt.Library>
libRbt.so (2013.1, Build901 2013/11/27)

>  <Rbt.Parameter_File>
/export/apps/rDock/src/rDock_2013.1_src/data/scripts/dock_solv.prm

>  <Rbt.Receptor>
prm/pocket_docking_8.prm

>  <SCORE>
-11.7023

>  <SCORE.INTER>
-10.6986

>  <SCORE.INTER.CONST>
1

>  <SCORE.INTER.POLAR>
0

>  <SCORE.INTER.ROT>
5

>  <SCORE.INTER.SOLV>
15.5479

>  <SCORE.INTER.VDW>
-19.2484

>  <SCORE.INTER.norm>
-0.4863

>  <SCORE.INTRA>
-1.00371

>  <SCORE.INTRA.DIHEDRAL>
-0.742818

>  <SCORE.INTRA.DIHEDRAL.0>
4.21161

>  <SCORE.INTRA.POLAR>
0

>  <SCORE.INTRA.POLAR.0>
0

>  <SCORE.INTRA.REPUL>
0

>  <SCORE.INTRA.REPUL.0>
0

>  <SCORE.INTRA.SOLV>
0.196896

>  <SCORE.INTRA.SOLV.lig_0>
-41.4168

>  <SCORE.INTRA.VDW>
-0.730753

>  <SCORE.INTRA.VDW.0>
-1.62533

>  <SCORE.INTRA.norm>
-0.0456234

>  <SCORE.RESTR>
0

>  <SCORE.RESTR.CAVITY>
0

>  <SCORE.RESTR.norm>
0

>  <SCORE.SYSTEM>
0

>  <SCORE.SYSTEM.CONST>
0

>  <SCORE.SYSTEM.DIHEDRAL>
0

>  <SCORE.SYSTEM.SOLV>
0

>  <SCORE.SYSTEM.norm>
0

>  <SCORE.heavy>
22

>  <SCORE.norm>
-0.531924

>  <RMSD>
6.805

$$$$
lig.pdb
 OpenBabel11021811523D
libRbt.so/2013.1/901 2013/11/27
 22 23  0  0  0  0  0  0  0  0999 V2000
   23.0457  -58.8768  -32.6259 O   0  0  0  0  0  0  0  0  0  0  0  0
   22.7743  -59.7761  -33.4060 C   0  0  0  0  0  0  0  0  0  0  0  0
   23.2877  -60.9992  -33.2748 N   0  0  0  0  0  0  0  0  0  0  0  0
   21.8567  -59.5048  -34.5486 C   0  0  0  0  0  0  0  0  0  0  0  0
   21.2244  -58.2022  -34.8104 C   0  0  0  0  0  0  0  0  0  0  0  0
   21.3970  -57.0045  -33.9987 N   0  0  0  0  0  0  0  0  0  0  0  0
   21.4066  -60.2829  -35.5576 N   0  0  0  0  0  0  0  0  0  0  0  0
   20.5835  -59.5267  -36.3483 C   0  0  0  0  0  0  0  0  0  0  0  0
   20.4704  -58.2586  -35.8964 N   0  0  0  0  0  0  0  0  0  0  0  0
   19.6742  -57.1582  -36.4882 C   0  0  1  0  0  0  0  0  0  0  0  0
   20.1235  -56.8824  -37.9137 C   0  0  1  0  0  0  0  0  0  0  0  0
   18.8504  -56.4450  -38.5916 C   0  0  2  0  0  0  0  0  0  0  0  0
   18.6463  -55.0492  -38.3628 O   0  0  0  0  0  0  0  0  0  0  0  0
   21.0901  -55.8317  -37.9555 O   0  0  0  0  0  0  0  0  0  0  0  0
   18.2856  -57.5032  -36.5570 O   0  0  0  0  0  0  0  0  0  0  0  0
   17.7753  -57.2285  -37.8639 C   0  0  2  0  0  0  0  0  0  0  0  0
   17.4861  -58.5265  -38.6019 C   0  0  0  0  0  0  0  0  0  0  0  0
   16.3808  -59.1682  -37.9681 O   0  0  0  0  0  0  0  0  0  0  0  0
   14.8664  -58.6785  -38.2184 P   0  0  0  0  0  0  0  0  0  0  0  0
   14.2289  -59.7796  -39.0338 O   0  0  0  0  0  0  0  0  0  0  0  0
   15.0457  -57.3780  -38.9651 O   0  0  0  0  0  0  0  0  0  0  0  0
   14.3089  -58.5366  -36.8215 O   0  0  0  0  0  0  0  0  0  0  0  0
  1  2  2  0  0  0  0
  2  4  1  0  0  0  0
  2  3  1  0  0  0  0
  4  7  1  0  0  0  0
  5  9  1  0  0  0  0
  5  4  2  0  0  0  0
  6  5  1  0  0  0  0
  8  7  2  0  0  0  0
  9  8  1  0  0  0  0
 10 15  1  0  0  0  0
 10  9  1  6  0  0  0
 10 11  1  0  0  0  0
 11 14  1  1  0  0  0
 11 12  1  0  0  0  0
 12 13  1  1  0  0  0
 15 16  1  0  0  0  0
 16 12  1  0  0  0  0
 16 17  1  6  0  0  0
 17 18  1  0  0  0  0
 18 19  1  0  0  0  0
 19 21  1  0  0  0  0
 19 20  1  0  0  0  0
 22 19  2  0  0  0  0
M  END
>  <CHROM.1>
-0.58264408,120.76276268,-174.16741576,77.85821780,109.84648168,18.86573791
-58.20581241,-36.68733685,0.38285917,0.41869580,2.55186860

>  <Name>
lig.pdb

>  <RI>
0

>  <Rbt.Current_Directory>
/home/itssahil/PROJECTS/Mol_Feturizer/New_Systems/rnas/5btp

>  <Rbt.Executable>
rbdock ($Id: //depot/dev/client3/rdock/2013.1/src/exe/rbdock.cxx#4 $)

>  <Rbt.Library>
libRbt.so (2013.1, Build901 2013/11/27)

>  <Rbt.Parameter_File>
/export/apps/rDock/src/rDock_2013.1_src/data/scripts/dock_solv.prm

>  <Rbt.Receptor>
prm/pocket_docking_2.prm

>  <SCORE>
-5.55071

>  <SCORE.INTER>
-7.01353

>  <SCORE.INTER.CONST>
1

>  <SCORE.INTER.POLAR>
0

>  <SCORE.INTER.ROT>
5

>  <SCORE.INTER.SOLV>
16.0458

>  <SCORE.INTER.VDW>
-16.9576

>  <SCORE.INTER.norm>
-0.318797

>  <SCORE.INTRA>
1.27907

>  <SCORE.INTRA.DIHEDRAL>
2.02282

>  <SCORE.INTRA.DIHEDRAL.0>
4.21161

>  <SCORE.INTRA.POLAR>
0

>  <SCORE.INTRA.POLAR.0>
0

>  <SCORE.INTRA.REPUL>
0

>  <SCORE.INTRA.REPUL.0>
0

>  <SCORE.INTRA.SOLV>
0.331847

>  <SCORE.INTRA.SOLV.lig_0>
-41.4168

>  <SCORE.INTRA.VDW>
0.101742

>  <SCORE.INTRA.VDW.0>
-1.62533

>  <SCORE.INTRA.norm>
0.0581397

>  <SCORE.RESTR>
0.183749

>  <SCORE.RESTR.CAVITY>
0.183749

>  <SCORE.RESTR.norm>
0.00835222

>  <SCORE.SYSTEM>
0

>  <SCORE.SYSTEM.CONST>
0

>  <SCORE.SYSTEM.DIHEDRAL>
0

>  <SCORE.SYSTEM.SOLV>
0

>  <SCORE.SYSTEM.norm>
0

>  <SCORE.heavy>
22

>  <SCORE.norm>
-0.252305

>  <RMSD>
6.835

$$$$
lig.pdb
 OpenBabel11021811523D
libRbt.so/2013.1/901 2013/11/27
 22 23  0  0  0  0  0  0  0  0999 V2000
   19.6212  -51.8505  -36.6925 O   0  0  0  0  0  0  0  0  0  0  0  0
   18.9353  -52.0405  -37.6847 C   0  0  0  0  0  0  0  0  0  0  0  0
   18.4532  -51.0312  -38.4098 N   0  0  0  0  0  0  0  0  0  0  0  0
   18.6098  -53.4355  -38.0960 C   0  0  0  0  0  0  0  0  0  0  0  0
   19.2256  -54.6359  -37.5090 C   0  0  0  0  0  0  0  0  0  0  0  0
   20.2339  -54.6359  -36.4571 N   0  0  0  0  0  0  0  0  0  0  0  0
   17.7490  -53.9365  -39.0093 N   0  0  0  0  0  0  0  0  0  0  0  0
   17.8375  -55.3024  -38.9782 C   0  0  0  0  0  0  0  0  0  0  0  0
   18.7357  -55.7321  -38.0654 N   0  0  0  0  0  0  0  0  0  0  0  0
   19.0986  -57.1329  -37.7475 C   0  0  1  0  0  0  0  0  0  0  0  0
   19.0726  -57.3623  -36.2453 C   0  0  1  0  0  0  0  0  0  0  0  0
   18.6404  -58.8016  -36.1297 C   0  0  2  0  0  0  0  0  0  0  0  0
   19.7814  -59.6518  -36.2617 O   0  0  0  0  0  0  0  0  0  0  0  0
   20.3706  -57.1903  -35.6748 O   0  0  0  0  0  0  0  0  0  0  0  0
   18.1600  -58.0527  -38.3176 O   0  0  0  0  0  0  0  0  0  0  0  0
   17.7360  -58.9966  -37.3311 C   0  0  2  0  0  0  0  0  0  0  0  0
   16.2885  -58.7396  -36.9415 C   0  0  0  0  0  0  0  0  0  0  0  0
   15.4555  -59.0972  -38.0430 O   0  0  0  0  0  0  0  0  0  0  0  0
   13.8494  -59.0124  -37.9463 P   0  0  0  0  0  0  0  0  0  0  0  0
   13.5578  -58.7692  -36.4836 O   0  0  0  0  0  0  0  0  0  0  0  0
   13.4038  -60.3642  -38.4513 O   0  0  0  0  0  0  0  0  0  0  0  0
   13.5050  -57.8520  -38.8503 O   0  0  0  0  0  0  0  0  0  0  0  0
  1  2  2  0  0  0  0
  2  4  1  0  0  0  0
  2  3  1  0  0  0  0
  4  7  1  0  0  0  0
  5  9  1  0  0  0  0
  5  4  2  0  0  0  0
  6  5  1  0  0  0  0
  8  7  2  0  0  0  0
  9  8  1  0  0  0  0
 10 15  1  0  0  0  0
 10  9  1  1  0  0  0
 10 11  1  0  0  0  0
 11 14  1  6  0  0  0
 11 12  1  0  0  0  0
 12 13  1  6  0  0  0
 15 16  1  0  0  0  0
 16 12  1  0  0  0  0
 16 17  1  1  0  0  0
 17 18  1  0  0  0  0
 18 19  1  0  0  0  0
 19 21  1  0  0  0  0
 19 20  1  0  0  0  0
 22 19  2  0  0  0  0
M  END
>  <CHROM.1>
-9.79605533,48.50115549,-172.65679854,177.18684030,-10.28787675,17.37567187
-56.76256022,-37.52773925,0.85130806,-0.32929278,-0.23233144

>  <Name>
lig.pdb

>  <RI>
0

>  <Rbt.Current_Directory>
/home/itssahil/PROJECTS/Mol_Feturizer/New_Systems/rnas/5btp

>  <Rbt.Executable>
rbdock ($Id: //depot/dev/client3/rdock/2013.1/src/exe/rbdock.cxx#4 $)

>  <Rbt.Library>
libRbt.so (2013.1, Build901 2013/11/27)

>  <Rbt.Parameter_File>
/export/apps/rDock/src/rDock_2013.1_src/data/scripts/dock_solv.prm

>  <Rbt.Receptor>
prm/pocket_docking_8.prm

>  <SCORE>
-18.87

>  <SCORE.INTER>
-19.956

>  <SCORE.INTER.CONST>
1

>  <SCORE.INTER.POLAR>
0

>  <SCORE.INTER.ROT>
5

>  <SCORE.INTER.SOLV>
21.0946

>  <SCORE.INTER.VDW>
-27.2689

>  <SCORE.INTER.norm>
-0.907092

>  <SCORE.INTRA>
1.08185

>  <SCORE.INTRA.DIHEDRAL>
0.986797

>  <SCORE.INTRA.DIHEDRAL.0>
4.21161

>  <SCORE.INTRA.POLAR>
0

>  <SCORE.INTRA.POLAR.0>
0

>  <SCORE.INTRA.REPUL>
0

>  <SCORE.INTRA.REPUL.0>
0

>  <SCORE.INTRA.SOLV>
0.325302

>  <SCORE.INTRA.SOLV.lig_0>
-41.4168

>  <SCORE.INTRA.VDW>
0.425805

>  <SCORE.INTRA.VDW.0>
-1.62533

>  <SCORE.INTRA.norm>
0.0491752

>  <SCORE.RESTR>
0.00411868

>  <SCORE.RESTR.CAVITY>
0.00411868

>  <SCORE.RESTR.norm>
0.000187213

>  <SCORE.SYSTEM>
0

>  <SCORE.SYSTEM.CONST>
0

>  <SCORE.SYSTEM.DIHEDRAL>
0

>  <SCORE.SYSTEM.SOLV>
0

>  <SCORE.SYSTEM.norm>
0

>  <SCORE.heavy>
22

>  <SCORE.norm>
-0.857729

>  <RMSD>
6.840

$$$$
lig.pdb
 OpenBabel11021811523D
libRbt.so/2013.1/901 2013/11/27
 22 23  0  0  0  0  0  0  0  0999 V2000
   23.6925  -61.0997  -34.1327 O   0  0  0  0  0  0  0  0  0  0  0  0
   22.7269  -60.3731  -33.9578 C   0  0  0  0  0  0  0  0  0  0  0  0
   22.2821  -60.0770  -32.7366 N   0  0  0  0  0  0  0  0  0  0  0  0
   22.0097  -59.8089  -35.1361 C   0  0  0  0  0  0  0  0  0  0  0  0
   21.0755  -58.6740  -35.0703 C   0  0  0  0  0  0  0  0  0  0  0  0
   20.7163  -57.9488  -33.8586 N   0  0  0  0  0  0  0  0  0  0  0  0
   22.0210  -60.1331  -36.4480 N   0  0  0  0  0  0  0  0  0  0  0  0
   21.1769  -59.2807  -37.1078 C   0  0  0  0  0  0  0  0  0  0  0  0
   20.5994  -58.3904  -36.2720 N   0  0  0  0  0  0  0  0  0  0  0  0
   19.6375  -57.3189  -36.6206 C   0  0  1  0  0  0  0  0  0  0  0  0
   19.9288  -56.7723  -38.0085 C   0  0  1  0  0  0  0  0  0  0  0  0
   18.5612  -56.3963  -38.5186 C   0  0  2  0  0  0  0  0  0  0  0  0
   18.2232  -55.0890  -38.0510 O   0  0  0  0  0  0  0  0  0  0  0  0
   20.7650  -55.6163  -37.9424 O   0  0  0  0  0  0  0  0  0  0  0  0
   18.2953  -57.8183  -36.6517 O   0  0  0  0  0  0  0  0  0  0  0  0
   17.6469  -57.4101  -37.8586 C   0  0  2  0  0  0  0  0  0  0  0  0
   17.4418  -58.6040  -38.7782 C   0  0  0  0  0  0  0  0  0  0  0  0
   16.1802  -58.4601  -39.4284 O   0  0  0  0  0  0  0  0  0  0  0  0
   14.7954  -58.5623  -38.6111 P   0  0  0  0  0  0  0  0  0  0  0  0
   14.0150  -57.3306  -39.0078 O   0  0  0  0  0  0  0  0  0  0  0  0
   15.2479  -58.5726  -37.1701 O   0  0  0  0  0  0  0  0  0  0  0  0
   14.1968  -59.8613  -39.0976 O   0  0  0  0  0  0  0  0  0  0  0  0
  1  2  2  0  0  0  0
  2  4  1  0  0  0  0
  2  3  1  0  0  0  0
  4  7  1  0  0  0  0
  5  9  1  0  0  0  0
  5  4  2  0  0  0  0
  6  5  1  0  0  0  0
  8  7  2  0  0  0  0
  9  8  1  0  0  0  0
 10 15  1  0  0  0  0
 10  9  1  6  0  0  0
 10 11  1  0  0  0  0
 11 14  1  1  0  0  0
 11 12  1  0  0  0  0
 12 13  1  1  0  0  0
 15 16  1  0  0  0  0
 16 12  1  0  0  0  0
 16 17  1  6  0  0  0
 17 18  1  0  0  0  0
 18 19  1  0  0  0  0
 19 21  1  0  0  0  0
 19 20  1  0  0  0  0
 22 19  2  0  0  0  0
M  END
>  <CHROM.1>
-163.63132435,146.89063086,-100.29195448,-67.78265705,129.45132665,18.79324800
-58.32943997,-36.99799991,0.40552318,0.39679120,2.66289425

>  <Name>
lig.pdb

>  <RI>
0

>  <Rbt.Current_Directory>
/home/itssahil/PROJECTS/Mol_Feturizer/New_Systems/rnas/5btp

>  <Rbt.Executable>
rbdock ($Id: //depot/dev/client3/rdock/2013.1/src/exe/rbdock.cxx#4 $)

>  <Rbt.Library>
libRbt.so (2013.1, Build901 2013/11/27)

>  <Rbt.Parameter_File>
/export/apps/rDock/src/rDock_2013.1_src/data/scripts/dock_solv.prm

>  <Rbt.Receptor>
prm/pocket_docking_2.prm

>  <SCORE>
-3.60177

>  <SCORE.INTER>
-7.7087

>  <SCORE.INTER.CONST>
1

>  <SCORE.INTER.POLAR>
0

>  <SCORE.INTER.ROT>
5

>  <SCORE.INTER.SOLV>
16.9746

>  <SCORE.INTER.VDW>
-17.7307

>  <SCORE.INTER.norm>
-0.350396

>  <SCORE.INTRA>
3.95403

>  <SCORE.INTRA.DIHEDRAL>
5.63782

>  <SCORE.INTRA.DIHEDRAL.0>
4.21161

>  <SCORE.INTRA.POLAR>
0

>  <SCORE.INTRA.POLAR.0>
0

>  <SCORE.INTRA.REPUL>
0

>  <SCORE.INTRA.REPUL.0>
0

>  <SCORE.INTRA.SOLV>
0.536618

>  <SCORE.INTRA.SOLV.lig_0>
-41.4168

>  <SCORE.INTRA.VDW>
0.866814

>  <SCORE.INTRA.VDW.0>
-1.62533

>  <SCORE.INTRA.norm>
0.179729

>  <SCORE.RESTR>
0.1529

>  <SCORE.RESTR.CAVITY>
0.1529

>  <SCORE.RESTR.norm>
0.00695

>  <SCORE.SYSTEM>
0

>  <SCORE.SYSTEM.CONST>
0

>  <SCORE.SYSTEM.DIHEDRAL>
0

>  <SCORE.SYSTEM.SOLV>
0

>  <SCORE.SYSTEM.norm>
0

>  <SCORE.heavy>
22

>  <SCORE.norm>
-0.163717

>  <RMSD>
6.854

$$$$
lig.pdb
 OpenBabel11021811523D
libRbt.so/2013.1/901 2013/11/27
 22 23  0  0  0  0  0  0  0  0999 V2000
   23.2881  -62.0771  -33.9440 O   0  0  0  0  0  0  0  0  0  0  0  0
   22.5965  -61.0844  -33.7790 C   0  0  0  0  0  0  0  0  0  0  0  0
   22.3686  -60.5802  -32.5662 N   0  0  0  0  0  0  0  0  0  0  0  0
   21.9731  -60.4196  -34.9582 C   0  0  0  0  0  0  0  0  0  0  0  0
   21.1495  -59.2027  -34.8822 C   0  0  0  0  0  0  0  0  0  0  0  0
   20.8236  -58.4821  -33.6584 N   0  0  0  0  0  0  0  0  0  0  0  0
   21.9942  -60.7048  -36.2790 N   0  0  0  0  0  0  0  0  0  0  0  0
   21.2558  -59.7563  -36.9345 C   0  0  0  0  0  0  0  0  0  0  0  0
   20.7400  -58.8395  -36.0870 N   0  0  0  0  0  0  0  0  0  0  0  0
   19.8957  -57.6708  -36.4279 C   0  0  1  0  0  0  0  0  0  0  0  0
   20.2735  -57.1207  -37.7934 C   0  0  1  0  0  0  0  0  0  0  0  0
   18.9621  -56.6004  -38.3238 C   0  0  2  0  0  0  0  0  0  0  0  0
   18.7408  -55.2785  -37.8284 O   0  0  0  0  0  0  0  0  0  0  0  0
   21.2159  -56.0539  -37.6768 O   0  0  0  0  0  0  0  0  0  0  0  0
   18.5126  -58.0359  -36.5030 O   0  0  0  0  0  0  0  0  0  0  0  0
   17.9374  -57.5363  -37.7127 C   0  0  2  0  0  0  0  0  0  0  0  0
   17.6407  -58.6810  -38.6690 C   0  0  0  0  0  0  0  0  0  0  0  0
   16.4516  -58.3671  -39.3919 O   0  0  0  0  0  0  0  0  0  0  0  0
   15.0080  -58.3620  -38.6764 P   0  0  0  0  0  0  0  0  0  0  0  0
   15.3055  -58.3379  -37.1950 O   0  0  0  0  0  0  0  0  0  0  0  0
   14.3801  -59.6468  -39.1623 O   0  0  0  0  0  0  0  0  0  0  0  0
   14.3615  -57.1015  -39.2014 O   0  0  0  0  0  0  0  0  0  0  0  0
  1  2  2  0  0  0  0
  2  4  1  0  0  0  0
  2  3  1  0  0  0  0
  4  7  1  0  0  0  0
  5  9  1  0  0  0  0
  5  4  2  0  0  0  0
  6  5  1  0  0  0  0
  8  7  2  0  0  0  0
  9  8  1  0  0  0  0
 10 15  1  0  0  0  0
 10  9  1  6  0  0  0
 10 11  1  0  0  0  0
 11 14  1  1  0  0  0
 11 12  1  0  0  0  0
 12 13  1  1  0  0  0
 15 16  1  0  0  0  0
 16 12  1  0  0  0  0
 16 17  1  6  0  0  0
 17 18  1  0  0  0  0
 18 19  1  0  0  0  0
 19 21  1  0  0  0  0
 19 20  1  0  0  0  0
 22 19  2  0  0  0  0
M  END
>  <CHROM.1>
-178.47882066,147.31559744,-97.41369274,-70.37412308,15.73657400,18.96495402
-58.57885288,-36.88452143,0.50694336,0.39753862,2.67528717

>  <Name>
lig.pdb

>  <RI>
0

>  <Rbt.Current_Directory>
/home/itssahil/PROJECTS/Mol_Feturizer/New_Systems/rnas/5btp

>  <Rbt.Executable>
rbdock ($Id: //depot/dev/client3/rdock/2013.1/src/exe/rbdock.cxx#4 $)

>  <Rbt.Library>
libRbt.so (2013.1, Build901 2013/11/27)

>  <Rbt.Parameter_File>
/export/apps/rDock/src/rDock_2013.1_src/data/scripts/dock_solv.prm

>  <Rbt.Receptor>
prm/pocket_docking_4.prm

>  <SCORE>
-6.28056

>  <SCORE.INTER>
-9.63313

>  <SCORE.INTER.CONST>
1

>  <SCORE.INTER.POLAR>
0

>  <SCORE.INTER.ROT>
5

>  <SCORE.INTER.SOLV>
16.8872

>  <SCORE.INTER.VDW>
-18.9845

>  <SCORE.INTER.norm>
-0.43787

>  <SCORE.INTRA>
2.98024

>  <SCORE.INTRA.DIHEDRAL>
4.36815

>  <SCORE.INTRA.DIHEDRAL.0>
4.21161

>  <SCORE.INTRA.POLAR>
0

>  <SCORE.INTRA.POLAR.0>
0

>  <SCORE.INTRA.REPUL>
0

>  <SCORE.INTRA.REPUL.0>
0

>  <SCORE.INTRA.SOLV>
0.596404

>  <SCORE.INTRA.SOLV.lig_0>
-41.4168

>  <SCORE.INTRA.VDW>
0.497965

>  <SCORE.INTRA.VDW.0>
-1.62533

>  <SCORE.INTRA.norm>
0.135466

>  <SCORE.RESTR>
0.372336

>  <SCORE.RESTR.CAVITY>
0.372336

>  <SCORE.RESTR.norm>
0.0169244

>  <SCORE.SYSTEM>
0

>  <SCORE.SYSTEM.CONST>
0

>  <SCORE.SYSTEM.DIHEDRAL>
0

>  <SCORE.SYSTEM.SOLV>
0

>  <SCORE.SYSTEM.norm>
0

>  <SCORE.heavy>
22

>  <SCORE.norm>
-0.28548

>  <RMSD>
6.858

$$$$
lig.pdb
 OpenBabel11021811523D
libRbt.so/2013.1/901 2013/11/27
 22 23  0  0  0  0  0  0  0  0999 V2000
   17.4578  -49.2811  -37.4152 O   0  0  0  0  0  0  0  0  0  0  0  0
   18.5434  -49.7929  -37.1903 C   0  0  0  0  0  0  0  0  0  0  0  0
   19.6527  -49.0637  -37.0690 N   0  0  0  0  0  0  0  0  0  0  0  0
   18.6441  -51.2743  -37.0613 C   0  0  0  0  0  0  0  0  0  0  0  0
   19.8976  -51.9983  -36.7981 C   0  0  0  0  0  0  0  0  0  0  0  0
   21.2071  -51.3812  -36.6321 N   0  0  0  0  0  0  0  0  0  0  0  0
   17.7196  -52.2576  -37.1294 N   0  0  0  0  0  0  0  0  0  0  0  0
   18.3517  -53.4554  -36.9292 C   0  0  0  0  0  0  0  0  0  0  0  0
   19.6784  -53.3015  -36.7268 N   0  0  0  0  0  0  0  0  0  0  0  0
   20.6813  -54.3626  -36.4752 C   0  0  1  0  0  0  0  0  0  0  0  0
   20.5098  -54.9373  -35.0787 C   0  0  1  0  0  0  0  0  0  0  0  0
   20.9206  -56.3771  -35.2520 C   0  0  2  0  0  0  0  0  0  0  0  0
   22.3417  -56.4814  -35.1441 O   0  0  0  0  0  0  0  0  0  0  0  0
   21.3728  -54.2878  -34.1442 O   0  0  0  0  0  0  0  0  0  0  0  0
   20.5202  -55.4540  -37.3888 O   0  0  0  0  0  0  0  0  0  0  0  0
   20.5077  -56.6934  -36.6764 C   0  0  2  0  0  0  0  0  0  0  0  0
   19.1124  -57.2984  -36.6928 C   0  0  0  0  0  0  0  0  0  0  0  0
   18.5083  -57.0029  -37.9509 O   0  0  0  0  0  0  0  0  0  0  0  0
   17.2449  -57.8412  -38.4957 P   0  0  0  0  0  0  0  0  0  0  0  0
   16.5286  -56.9015  -39.4378 O   0  0  0  0  0  0  0  0  0  0  0  0
   16.4765  -58.1609  -37.2354 O   0  0  0  0  0  0  0  0  0  0  0  0
   17.8807  -59.0336  -39.1711 O   0  0  0  0  0  0  0  0  0  0  0  0
  1  2  2  0  0  0  0
  2  4  1  0  0  0  0
  2  3  1  0  0  0  0
  4  7  1  0  0  0  0
  5  9  1  0  0  0  0
  5  4  2  0  0  0  0
  6  5  1  0  0  0  0
  8  7  2  0  0  0  0
  9  8  1  0  0  0  0
 10 15  1  0  0  0  0
 10  9  1  6  0  0  0
 10 11  1  0  0  0  0
 11 14  1  1  0  0  0
 11 12  1  0  0  0  0
 12 13  1  6  0  0  0
 15 16  1  0  0  0  0
 16 12  1  0  0  0  0
 16 17  1  1  0  0  0
 17 18  1  0  0  0  0
 18 19  1  0  0  0  0
 19 21  1  0  0  0  0
 19 20  1  0  0  0  0
 22 19  2  0  0  0  0
M  END
>  <CHROM.1>
179.69870802,107.86998353,152.72554869,161.03132157,154.61726374,19.13019447
-54.68880496,-37.02083125,1.35940797,-0.61026102,0.04098570

>  <Name>
lig.pdb

>  <RI>
0

>  <Rbt.Current_Directory>
/home/itssahil/PROJECTS/Mol_Feturizer/New_Systems/rnas/5btp

>  <Rbt.Executable>
rbdock ($Id: //depot/dev/client3/rdock/2013.1/src/exe/rbdock.cxx#4 $)

>  <Rbt.Library>
libRbt.so (2013.1, Build901 2013/11/27)

>  <Rbt.Parameter_File>
/export/apps/rDock/src/rDock_2013.1_src/data/scripts/dock_solv.prm

>  <Rbt.Receptor>
prm/pocket_docking_8.prm

>  <SCORE>
-5.58998

>  <SCORE.INTER>
-7.01962

>  <SCORE.INTER.CONST>
1

>  <SCORE.INTER.POLAR>
0

>  <SCORE.INTER.ROT>
5

>  <SCORE.INTER.SOLV>
12.9231

>  <SCORE.INTER.VDW>
-15.9208

>  <SCORE.INTER.norm>
-0.319074

>  <SCORE.INTRA>
1.3317

>  <SCORE.INTRA.DIHEDRAL>
3.02101

>  <SCORE.INTRA.DIHEDRAL.0>
4.21161

>  <SCORE.INTRA.POLAR>
0

>  <SCORE.INTRA.POLAR.0>
0

>  <SCORE.INTRA.REPUL>
0

>  <SCORE.INTRA.REPUL.0>
0

>  <SCORE.INTRA.SOLV>
0.0956766

>  <SCORE.INTRA.SOLV.lig_0>
-41.4168

>  <SCORE.INTRA.VDW>
-0.226644

>  <SCORE.INTRA.VDW.0>
-1.62533

>  <SCORE.INTRA.norm>
0.0605318

>  <SCORE.RESTR>
0.0979388

>  <SCORE.RESTR.CAVITY>
0.0979388

>  <SCORE.RESTR.norm>
0.00445176

>  <SCORE.SYSTEM>
0

>  <SCORE.SYSTEM.CONST>
0

>  <SCORE.SYSTEM.DIHEDRAL>
0

>  <SCORE.SYSTEM.SOLV>
0

>  <SCORE.SYSTEM.norm>
0

>  <SCORE.heavy>
22

>  <SCORE.norm>
-0.25409

>  <RMSD>
6.882

$$$$
lig.pdb
 OpenBabel11021811523D
libRbt.so/2013.1/901 2013/11/27
 22 23  0  0  0  0  0  0  0  0999 V2000
   18.6832  -50.7136  -37.8415 O   0  0  0  0  0  0  0  0  0  0  0  0
   19.0693  -51.7386  -37.3017 C   0  0  0  0  0  0  0  0  0  0  0  0
   19.7816  -51.7144  -36.1753 N   0  0  0  0  0  0  0  0  0  0  0  0
   18.7535  -53.0575  -37.9196 C   0  0  0  0  0  0  0  0  0  0  0  0
   19.2211  -54.3501  -37.3948 C   0  0  0  0  0  0  0  0  0  0  0  0
   20.0544  -54.5266  -36.2125 N   0  0  0  0  0  0  0  0  0  0  0  0
   18.0236  -53.4021  -39.0035 N   0  0  0  0  0  0  0  0  0  0  0  0
   18.0495  -54.7659  -39.1223 C   0  0  0  0  0  0  0  0  0  0  0  0
   18.7778  -55.3467  -38.1440 N   0  0  0  0  0  0  0  0  0  0  0  0
   19.0289  -56.7932  -37.9447 C   0  0  1  0  0  0  0  0  0  0  0  0
   18.6653  -57.2068  -36.5281 C   0  0  1  0  0  0  0  0  0  0  0  0
   18.1853  -58.6250  -36.7019 C   0  0  2  0  0  0  0  0  0  0  0  0
   19.3074  -59.5099  -36.6956 O   0  0  0  0  0  0  0  0  0  0  0  0
   19.8082  -57.1749  -35.6722 O   0  0  0  0  0  0  0  0  0  0  0  0
   18.2191  -57.5847  -38.8220 O   0  0  0  0  0  0  0  0  0  0  0  0
   17.5655  -58.6213  -38.0857 C   0  0  2  0  0  0  0  0  0  0  0  0
   16.0739  -58.3404  -37.9884 C   0  0  0  0  0  0  0  0  0  0  0  0
   15.4475  -59.4507  -37.3481 O   0  0  0  0  0  0  0  0  0  0  0  0
   13.8466  -59.6324  -37.3535 P   0  0  0  0  0  0  0  0  0  0  0  0
   13.3055  -58.3519  -36.7611 O   0  0  0  0  0  0  0  0  0  0  0  0
   13.6373  -60.8530  -36.4890 O   0  0  0  0  0  0  0  0  0  0  0  0
   13.5212  -59.8272  -38.8159 O   0  0  0  0  0  0  0  0  0  0  0  0
  1  2  2  0  0  0  0
  2  4  1  0  0  0  0
  2  3  1  0  0  0  0
  4  7  1  0  0  0  0
  5  9  1  0  0  0  0
  5  4  2  0  0  0  0
  6  5  1  0  0  0  0
  8  7  2  0  0  0  0
  9  8  1  0  0  0  0
 10 15  1  0  0  0  0
 10  9  1  1  0  0  0
 10 11  1  0  0  0  0
 11 14  1  1  0  0  0
 11 12  1  0  0  0  0
 12 13  1  6  0  0  0
 15 16  1  0  0  0  0
 16 12  1  0  0  0  0
 16 17  1  1  0  0  0
 17 18  1  0  0  0  0
 18 19  1  0  0  0  0
 19 21  1  0  0  0  0
 19 20  1  0  0  0  0
 22 19  2  0  0  0  0
M  END
>  <CHROM.1>
176.90308086,52.63414730,-67.55985536,-167.06144812,-55.90477942,17.30996242
-56.72242280,-37.45098982,0.94488376,-0.22652639,-0.16937103

>  <Name>
lig.pdb

>  <RI>
0

>  <Rbt.Current_Directory>
/home/itssahil/PROJECTS/Mol_Feturizer/New_Systems/rnas/5btp

>  <Rbt.Executable>
rbdock ($Id: //depot/dev/client3/rdock/2013.1/src/exe/rbdock.cxx#4 $)

>  <Rbt.Library>
libRbt.so (2013.1, Build901 2013/11/27)

>  <Rbt.Parameter_File>
/export/apps/rDock/src/rDock_2013.1_src/data/scripts/dock_solv.prm

>  <Rbt.Receptor>
prm/pocket_docking_7.prm

>  <SCORE>
-15.422

>  <SCORE.INTER>
-15.4535

>  <SCORE.INTER.CONST>
1

>  <SCORE.INTER.POLAR>
0

>  <SCORE.INTER.ROT>
5

>  <SCORE.INTER.SOLV>
20.5672

>  <SCORE.INTER.VDW>
-24.0914

>  <SCORE.INTER.norm>
-0.702431

>  <SCORE.INTRA>
0.0108621

>  <SCORE.INTRA.DIHEDRAL>
-0.730606

>  <SCORE.INTRA.DIHEDRAL.0>
4.21161

>  <SCORE.INTRA.POLAR>
0

>  <SCORE.INTRA.POLAR.0>
0

>  <SCORE.INTRA.REPUL>
0

>  <SCORE.INTRA.REPUL.0>
0

>  <SCORE.INTRA.SOLV>
0.818442

>  <SCORE.INTRA.SOLV.lig_0>
-41.4168

>  <SCORE.INTRA.VDW>
-0.0330557

>  <SCORE.INTRA.VDW.0>
-1.62533

>  <SCORE.INTRA.norm>
0.00049373

>  <SCORE.RESTR>
0.0205874

>  <SCORE.RESTR.CAVITY>
0.0205874

>  <SCORE.RESTR.norm>
0.000935789

>  <SCORE.SYSTEM>
0

>  <SCORE.SYSTEM.CONST>
0

>  <SCORE.SYSTEM.DIHEDRAL>
0

>  <SCORE.SYSTEM.SOLV>
0

>  <SCORE.SYSTEM.norm>
0

>  <SCORE.heavy>
22

>  <SCORE.norm>
-0.701002

>  <RMSD>
6.898

$$$$
lig.pdb
 OpenBabel11021811523D
libRbt.so/2013.1/901 2013/11/27
 22 23  0  0  0  0  0  0  0  0999 V2000
   18.7584  -50.7356  -37.7640 O   0  0  0  0  0  0  0  0  0  0  0  0
   19.1837  -51.7672  -37.2679 C   0  0  0  0  0  0  0  0  0  0  0  0
   19.9801  -51.7570  -36.1991 N   0  0  0  0  0  0  0  0  0  0  0  0
   18.8202  -53.0784  -37.8761 C   0  0  0  0  0  0  0  0  0  0  0  0
   19.2930  -54.3801  -37.3791 C   0  0  0  0  0  0  0  0  0  0  0  0
   20.1778  -54.5744  -36.2378 N   0  0  0  0  0  0  0  0  0  0  0  0
   18.0357  -53.4072  -38.9261 N   0  0  0  0  0  0  0  0  0  0  0  0
   18.0362  -54.7706  -39.0518 C   0  0  0  0  0  0  0  0  0  0  0  0
   18.8007  -55.3666  -38.1110 N   0  0  0  0  0  0  0  0  0  0  0  0
   19.0397  -56.8175  -37.9298 C   0  0  1  0  0  0  0  0  0  0  0  0
   18.6523  -57.2499  -36.5252 C   0  0  1  0  0  0  0  0  0  0  0  0
   18.1660  -58.6622  -36.7275 C   0  0  2  0  0  0  0  0  0  0  0  0
   19.2823  -59.5543  -36.7177 O   0  0  0  0  0  0  0  0  0  0  0  0
   19.7823  -57.2382  -35.6519 O   0  0  0  0  0  0  0  0  0  0  0  0
   18.2383  -57.5905  -38.8310 O   0  0  0  0  0  0  0  0  0  0  0  0
   17.5671  -58.6337  -38.1203 C   0  0  2  0  0  0  0  0  0  0  0  0
   16.0761  -58.3447  -38.0410 C   0  0  0  0  0  0  0  0  0  0  0  0
   15.4523  -59.3954  -37.3049 O   0  0  0  0  0  0  0  0  0  0  0  0
   13.8569  -59.6175  -37.3423 P   0  0  0  0  0  0  0  0  0  0  0  0
   13.2722  -58.3564  -36.7497 O   0  0  0  0  0  0  0  0  0  0  0  0
   13.6625  -60.8506  -36.4920 O   0  0  0  0  0  0  0  0  0  0  0  0
   13.5642  -59.8076  -38.8122 O   0  0  0  0  0  0  0  0  0  0  0  0
  1  2  2  0  0  0  0
  2  4  1  0  0  0  0
  2  3  1  0  0  0  0
  4  7  1  0  0  0  0
  5  9  1  0  0  0  0
  5  4  2  0  0  0  0
  6  5  1  0  0  0  0
  8  7  2  0  0  0  0
  9  8  1  0  0  0  0
 10 15  1  0  0  0  0
 10  9  1  1  0  0  0
 10 11  1  0  0  0  0
 11 14  1  1  0  0  0
 11 12  1  0  0  0  0
 12 13  1  6  0  0  0
 15 16  1  0  0  0  0
 16 12  1  0  0  0  0
 16 17  1  1  0  0  0
 17 18  1  0  0  0  0
 18 19  1  0  0  0  0
 19 21  1  0  0  0  0
 19 20  1  0  0  0  0
 22 19  2  0  0  0  0
M  END
>  <CHROM.1>
178.84870421,56.24822222,-61.64739551,-164.19143194,-62.64032615,17.33807555
-56.73685452,-37.43916665,0.93561796,-0.22125914,-0.16440805

>  <Name>
lig.pdb

>  <RI>
0

>  <Rbt.Current_Directory>
/home/itssahil/PROJECTS/Mol_Feturizer/New_Systems/rnas/5btp

>  <Rbt.Executable>
rbdock ($Id: //depot/dev/client3/rdock/2013.1/src/exe/rbdock.cxx#4 $)

>  <Rbt.Library>
libRbt.so (2013.1, Build901 2013/11/27)

>  <Rbt.Parameter_File>
/export/apps/rDock/src/rDock_2013.1_src/data/scripts/dock_solv.prm

>  <Rbt.Receptor>
prm/pocket_docking_8.prm

>  <SCORE>
-15.6572

>  <SCORE.INTER>
-15.7367

>  <SCORE.INTER.CONST>
1

>  <SCORE.INTER.POLAR>
0

>  <SCORE.INTER.ROT>
5

>  <SCORE.INTER.SOLV>
20.4805

>  <SCORE.INTER.VDW>
-24.2513

>  <SCORE.INTER.norm>
-0.715306

>  <SCORE.INTRA>
0.0686991

>  <SCORE.INTRA.DIHEDRAL>
-0.603531

>  <SCORE.INTRA.DIHEDRAL.0>
4.21161

>  <SCORE.INTRA.POLAR>
0

>  <SCORE.INTRA.POLAR.0>
0

>  <SCORE.INTRA.REPUL>
0

>  <SCORE.INTRA.REPUL.0>
0

>  <SCORE.INTRA.SOLV>
0.84012

>  <SCORE.INTRA.SOLV.lig_0>
-41.4168

>  <SCORE.INTRA.VDW>
-0.0495953

>  <SCORE.INTRA.VDW.0>
-1.62533

>  <SCORE.INTRA.norm>
0.00312269

>  <SCORE.RESTR>
0.010874

>  <SCORE.RESTR.CAVITY>
0.010874

>  <SCORE.RESTR.norm>
0.000494275

>  <SCORE.SYSTEM>
0

>  <SCORE.SYSTEM.CONST>
0

>  <SCORE.SYSTEM.DIHEDRAL>
0

>  <SCORE.SYSTEM.SOLV>
0

>  <SCORE.SYSTEM.norm>
0

>  <SCORE.heavy>
22

>  <SCORE.norm>
-0.711689

>  <RMSD>
6.906

$$$$
lig.pdb
 OpenBabel11021811523D
libRbt.so/2013.1/901 2013/11/27
 22 23  0  0  0  0  0  0  0  0999 V2000
   18.7258  -50.7324  -37.7677 O   0  0  0  0  0  0  0  0  0  0  0  0
   19.1440  -51.7618  -37.2612 C   0  0  0  0  0  0  0  0  0  0  0  0
   19.9176  -51.7473  -36.1758 N   0  0  0  0  0  0  0  0  0  0  0  0
   18.7982  -53.0752  -37.8749 C   0  0  0  0  0  0  0  0  0  0  0  0
   19.2654  -54.3744  -37.3666 C   0  0  0  0  0  0  0  0  0  0  0  0
   20.1272  -54.5639  -36.2069 N   0  0  0  0  0  0  0  0  0  0  0  0
   18.0367  -53.4082  -38.9406 N   0  0  0  0  0  0  0  0  0  0  0  0
   18.0449  -54.7717  -39.0644 C   0  0  0  0  0  0  0  0  0  0  0  0
   18.7921  -55.3637  -38.1072 N   0  0  0  0  0  0  0  0  0  0  0  0
   19.0328  -56.8134  -37.9191 C   0  0  1  0  0  0  0  0  0  0  0  0
   18.6334  -57.2423  -36.5168 C   0  0  1  0  0  0  0  0  0  0  0  0
   18.1523  -58.6563  -36.7190 C   0  0  2  0  0  0  0  0  0  0  0  0
   19.2705  -59.5458  -36.6961 O   0  0  0  0  0  0  0  0  0  0  0  0
   19.7554  -57.2251  -35.6332 O   0  0  0  0  0  0  0  0  0  0  0  0
   18.2414  -57.5911  -38.8251 O   0  0  0  0  0  0  0  0  0  0  0  0
   17.5662  -58.6337  -38.1173 C   0  0  2  0  0  0  0  0  0  0  0  0
   16.0738  -58.3478  -38.0527 C   0  0  0  0  0  0  0  0  0  0  0  0
   15.4513  -59.3762  -37.2846 O   0  0  0  0  0  0  0  0  0  0  0  0
   13.8611  -59.6283  -37.3472 P   0  0  0  0  0  0  0  0  0  0  0  0
   13.5522  -59.8160  -38.8144 O   0  0  0  0  0  0  0  0  0  0  0  0
   13.2900  -58.3642  -36.7497 O   0  0  0  0  0  0  0  0  0  0  0  0
   13.6700  -60.8696  -36.5076 O   0  0  0  0  0  0  0  0  0  0  0  0
  1  2  2  0  0  0  0
  2  4  1  0  0  0  0
  2  3  1  0  0  0  0
  4  7  1  0  0  0  0
  5  9  1  0  0  0  0
  5  4  2  0  0  0  0
  6  5  1  0  0  0  0
  8  7  2  0  0  0  0
  9  8  1  0  0  0  0
 10 15  1  0  0  0  0
 10  9  1  1  0  0  0
 10 11  1  0  0  0  0
 11 14  1  1  0  0  0
 11 12  1  0  0  0  0
 12 13  1  6  0  0  0
 15 16  1  0  0  0  0
 16 12  1  0  0  0  0
 16 17  1  1  0  0  0
 17 18  1  0  0  0  0
 18 19  1  0  0  0  0
 19 21  1  0  0  0  0
 19 20  1  0  0  0  0
 22 19  2  0  0  0  0
M  END
>  <CHROM.1>
178.81514450,55.57650015,-59.91499530,-162.70479220,54.40641105,17.32605818
-56.73549217,-37.43464003,0.93952655,-0.22743073,-0.16642743

>  <Name>
lig.pdb

>  <RI>
0

>  <Rbt.Current_Directory>
/home/itssahil/PROJECTS/Mol_Feturizer/New_Systems/rnas/5btp

>  <Rbt.Executable>
rbdock ($Id: //depot/dev/client3/rdock/2013.1/src/exe/rbdock.cxx#4 $)

>  <Rbt.Library>
libRbt.so (2013.1, Build901 2013/11/27)

>  <Rbt.Parameter_File>
/export/apps/rDock/src/rDock_2013.1_src/data/scripts/dock_solv.prm

>  <Rbt.Receptor>
prm/pocket_docking_8.prm

>  <SCORE>
-14.7975

>  <SCORE.INTER>
-14.8799

>  <SCORE.INTER.CONST>
1

>  <SCORE.INTER.POLAR>
0

>  <SCORE.INTER.ROT>
5

>  <SCORE.INTER.SOLV>
21.577

>  <SCORE.INTER.VDW>
-24.0456

>  <SCORE.INTER.norm>
-0.676359

>  <SCORE.INTRA>
0.0751662

>  <SCORE.INTRA.DIHEDRAL>
-0.362214

>  <SCORE.INTRA.DIHEDRAL.0>
4.21161

>  <SCORE.INTRA.POLAR>
0

>  <SCORE.INTRA.POLAR.0>
0

>  <SCORE.INTRA.REPUL>
0

>  <SCORE.INTRA.REPUL.0>
0

>  <SCORE.INTRA.SOLV>
0.593569

>  <SCORE.INTRA.SOLV.lig_0>
-41.4168

>  <SCORE.INTRA.VDW>
-0.0405113

>  <SCORE.INTRA.VDW.0>
-1.62533

>  <SCORE.INTRA.norm>
0.00341664

>  <SCORE.RESTR>
0.0072684

>  <SCORE.RESTR.CAVITY>
0.0072684

>  <SCORE.RESTR.norm>
0.000330382

>  <SCORE.SYSTEM>
0

>  <SCORE.SYSTEM.CONST>
0

>  <SCORE.SYSTEM.DIHEDRAL>
0

>  <SCORE.SYSTEM.SOLV>
0

>  <SCORE.SYSTEM.norm>
0

>  <SCORE.heavy>
22

>  <SCORE.norm>
-0.672612

>  <RMSD>
6.907

$$$$
lig.pdb
 OpenBabel11021811523D
libRbt.so/2013.1/901 2013/11/27
 22 23  0  0  0  0  0  0  0  0999 V2000
   19.8626  -59.8618  -37.8724 O   0  0  0  0  0  0  0  0  0  0  0  0
   20.2829  -59.1590  -36.9666 C   0  0  0  0  0  0  0  0  0  0  0  0
   20.9672  -59.6675  -35.9420 N   0  0  0  0  0  0  0  0  0  0  0  0
   20.0155  -57.6930  -36.9904 C   0  0  0  0  0  0  0  0  0  0  0  0
   20.4384  -56.7578  -35.9361 C   0  0  0  0  0  0  0  0  0  0  0  0
   21.1666  -57.1245  -34.7284 N   0  0  0  0  0  0  0  0  0  0  0  0
   19.3923  -56.8970  -37.8873 N   0  0  0  0  0  0  0  0  0  0  0  0
   19.4331  -55.6106  -37.4204 C   0  0  0  0  0  0  0  0  0  0  0  0
   20.0698  -55.5219  -36.2323 N   0  0  0  0  0  0  0  0  0  0  0  0
   20.3102  -54.3017  -35.4271 C   0  0  1  0  0  0  0  0  0  0  0  0
   19.9358  -53.0590  -36.2180 C   0  0  1  0  0  0  0  0  0  0  0  0
   19.4475  -52.1128  -35.1513 C   0  0  2  0  0  0  0  0  0  0  0  0
   20.5637  -51.4342  -34.5718 O   0  0  0  0  0  0  0  0  0  0  0  0
   21.0740  -52.5080  -36.8819 O   0  0  0  0  0  0  0  0  0  0  0  0
   19.5003  -54.2935  -34.2456 O   0  0  0  0  0  0  0  0  0  0  0  0
   18.8356  -53.0346  -34.1143 C   0  0  2  0  0  0  0  0  0  0  0  0
   17.3454  -53.1943  -34.3729 C   0  0  0  0  0  0  0  0  0  0  0  0
   16.7739  -51.8965  -34.5288 O   0  0  0  0  0  0  0  0  0  0  0  0
   15.1945  -51.6964  -34.7768 P   0  0  0  0  0  0  0  0  0  0  0  0
   15.0901  -50.4895  -35.6801 O   0  0  0  0  0  0  0  0  0  0  0  0
   14.6540  -51.4773  -33.3836 O   0  0  0  0  0  0  0  0  0  0  0  0
   14.7743  -52.9954  -35.4235 O   0  0  0  0  0  0  0  0  0  0  0  0
  1  2  2  0  0  0  0
  2  4  1  0  0  0  0
  2  3  1  0  0  0  0
  4  7  1  0  0  0  0
  5  9  1  0  0  0  0
  5  4  2  0  0  0  0
  6  5  1  0  0  0  0
  8  7  2  0  0  0  0
  9  8  1  0  0  0  0
 10 15  1  0  0  0  0
 10  9  1  6  0  0  0
 10 11  1  0  0  0  0
 11 14  1  1  0  0  0
 11 12  1  0  0  0  0
 12 13  1  1  0  0  0
 15 16  1  0  0  0  0
 16 12  1  0  0  0  0
 16 17  1  6  0  0  0
 17 18  1  0  0  0  0
 18 19  1  0  0  0  0
 19 21  1  0  0  0  0
 19 20  1  0  0  0  0
 22 19  2  0  0  0  0
M  END
>  <CHROM.1>
178.15893442,170.62002488,-49.88389392,-178.29569651,-146.19398043,18.59242802
-54.31695284,-35.59040591,0.98589567,-0.03167089,-2.85761141

>  <Name>
lig.pdb

>  <RI>
0

>  <Rbt.Current_Directory>
/home/itssahil/PROJECTS/Mol_Feturizer/New_Systems/rnas/5btp

>  <Rbt.Executable>
rbdock ($Id: //depot/dev/client3/rdock/2013.1/src/exe/rbdock.cxx#4 $)

>  <Rbt.Library>
libRbt.so (2013.1, Build901 2013/11/27)

>  <Rbt.Parameter_File>
/export/apps/rDock/src/rDock_2013.1_src/data/scripts/dock_solv.prm

>  <Rbt.Receptor>
prm/pocket_docking_8.prm

>  <SCORE>
-5.92022

>  <SCORE.INTER>
-7.10533

>  <SCORE.INTER.CONST>
1

>  <SCORE.INTER.POLAR>
0

>  <SCORE.INTER.ROT>
5

>  <SCORE.INTER.SOLV>
12.3131

>  <SCORE.INTER.VDW>
-15.7746

>  <SCORE.INTER.norm>
-0.322969

>  <SCORE.INTRA>
1.1851

>  <SCORE.INTRA.DIHEDRAL>
0.0213393

>  <SCORE.INTRA.DIHEDRAL.0>
4.21161

>  <SCORE.INTRA.POLAR>
0

>  <SCORE.INTRA.POLAR.0>
0

>  <SCORE.INTRA.REPUL>
0

>  <SCORE.INTRA.REPUL.0>
0

>  <SCORE.INTRA.SOLV>
0.310648

>  <SCORE.INTRA.SOLV.lig_0>
-41.4168

>  <SCORE.INTRA.VDW>
1.01911

>  <SCORE.INTRA.VDW.0>
-1.62533

>  <SCORE.INTRA.norm>
0.0538682

>  <SCORE.RESTR>
0

>  <SCORE.RESTR.CAVITY>
0

>  <SCORE.RESTR.norm>
0

>  <SCORE.SYSTEM>
0

>  <SCORE.SYSTEM.CONST>
0

>  <SCORE.SYSTEM.DIHEDRAL>
0

>  <SCORE.SYSTEM.SOLV>
0

>  <SCORE.SYSTEM.norm>
0

>  <SCORE.heavy>
22

>  <SCORE.norm>
-0.269101

>  <RMSD>
6.910

$$$$
lig.pdb
 OpenBabel11021811523D
libRbt.so/2013.1/901 2013/11/27
 22 23  0  0  0  0  0  0  0  0999 V2000
   19.8353  -51.6873  -36.3540 O   0  0  0  0  0  0  0  0  0  0  0  0
   19.0984  -51.7355  -37.3265 C   0  0  0  0  0  0  0  0  0  0  0  0
   18.5684  -50.6358  -37.8619 N   0  0  0  0  0  0  0  0  0  0  0  0
   18.7641  -53.0567  -37.9295 C   0  0  0  0  0  0  0  0  0  0  0  0
   19.2419  -54.3477  -37.4100 C   0  0  0  0  0  0  0  0  0  0  0  0
   20.1043  -54.5203  -36.2482 N   0  0  0  0  0  0  0  0  0  0  0  0
   18.0064  -53.4050  -38.9929 N   0  0  0  0  0  0  0  0  0  0  0  0
   18.0262  -54.7694  -39.1053 C   0  0  0  0  0  0  0  0  0  0  0  0
   18.7775  -55.3471  -38.1427 N   0  0  0  0  0  0  0  0  0  0  0  0
   19.0302  -56.7931  -37.9424 C   0  0  1  0  0  0  0  0  0  0  0  0
   18.6308  -57.2142  -36.5378 C   0  0  1  0  0  0  0  0  0  0  0  0
   18.1626  -58.6340  -36.7299 C   0  0  2  0  0  0  0  0  0  0  0  0
   19.2884  -59.5135  -36.6970 O   0  0  0  0  0  0  0  0  0  0  0  0
   19.7502  -57.1803  -35.6514 O   0  0  0  0  0  0  0  0  0  0  0  0
   18.2481  -57.5849  -38.8443 O   0  0  0  0  0  0  0  0  0  0  0  0
   17.5800  -58.6276  -38.1299 C   0  0  2  0  0  0  0  0  0  0  0  0
   16.0851  -58.3542  -38.0715 C   0  0  0  0  0  0  0  0  0  0  0  0
   15.4652  -59.3990  -37.3236 O   0  0  0  0  0  0  0  0  0  0  0  0
   13.8688  -59.6159  -37.3438 P   0  0  0  0  0  0  0  0  0  0  0  0
   13.2950  -58.3564  -36.7372 O   0  0  0  0  0  0  0  0  0  0  0  0
   13.6803  -60.8533  -36.4985 O   0  0  0  0  0  0  0  0  0  0  0  0
   13.5586  -59.7965  -38.8113 O   0  0  0  0  0  0  0  0  0  0  0  0
  1  2  2  0  0  0  0
  2  4  1  0  0  0  0
  2  3  1  0  0  0  0
  4  7  1  0  0  0  0
  5  9  1  0  0  0  0
  5  4  2  0  0  0  0
  6  5  1  0  0  0  0
  8  7  2  0  0  0  0
  9  8  1  0  0  0  0
 10 15  1  0  0  0  0
 10  9  1  1  0  0  0
 10 11  1  0  0  0  0
 11 14  1  1  0  0  0
 11 12  1  0  0  0  0
 12 13  1  6  0  0  0
 15 16  1  0  0  0  0
 16 12  1  0  0  0  0
 16 17  1  1  0  0  0
 17 18  1  0  0  0  0
 18 19  1  0  0  0  0
 19 21  1  0  0  0  0
 19 20  1  0  0  0  0
 22 19  2  0  0  0  0
M  END
>  <CHROM.1>
1.52770905,55.68851773,-61.27390421,-165.80592109,-63.28155953,17.31982953
-56.72026480,-37.45640201,0.94498430,-0.22285588,-0.16757204

>  <Name>
lig.pdb

>  <RI>
0

>  <Rbt.Current_Directory>
/home/itssahil/PROJECTS/Mol_Feturizer/New_Systems/rnas/5btp

>  <Rbt.Executable>
rbdock ($Id: //depot/dev/client3/rdock/2013.1/src/exe/rbdock.cxx#4 $)

>  <Rbt.Library>
libRbt.so (2013.1, Build901 2013/11/27)

>  <Rbt.Parameter_File>
/export/apps/rDock/src/rDock_2013.1_src/data/scripts/dock_solv.prm

>  <Rbt.Receptor>
prm/pocket_docking_7.prm

>  <SCORE>
-15.7661

>  <SCORE.INTER>
-15.6002

>  <SCORE.INTER.CONST>
1

>  <SCORE.INTER.POLAR>
0

>  <SCORE.INTER.ROT>
5

>  <SCORE.INTER.SOLV>
20.8634

>  <SCORE.INTER.VDW>
-24.2879

>  <SCORE.INTER.norm>
-0.709101

>  <SCORE.INTRA>
-0.178524

>  <SCORE.INTRA.DIHEDRAL>
-0.813074

>  <SCORE.INTRA.DIHEDRAL.0>
4.21161

>  <SCORE.INTRA.POLAR>
0

>  <SCORE.INTRA.POLAR.0>
0

>  <SCORE.INTRA.REPUL>
0

>  <SCORE.INTRA.REPUL.0>
0

>  <SCORE.INTRA.SOLV>
0.608633

>  <SCORE.INTRA.SOLV.lig_0>
-41.4168

>  <SCORE.INTRA.VDW>
-0.0763037

>  <SCORE.INTRA.VDW.0>
-1.62533

>  <SCORE.INTRA.norm>
-0.00811474

>  <SCORE.RESTR>
0.0126362

>  <SCORE.RESTR.CAVITY>
0.0126362

>  <SCORE.RESTR.norm>
0.000574372

>  <SCORE.SYSTEM>
0

>  <SCORE.SYSTEM.CONST>
0

>  <SCORE.SYSTEM.DIHEDRAL>
0

>  <SCORE.SYSTEM.SOLV>
0

>  <SCORE.SYSTEM.norm>
0

>  <SCORE.heavy>
22

>  <SCORE.norm>
-0.716641

>  <RMSD>
6.916

$$$$
lig.pdb
 OpenBabel11021811523D
libRbt.so/2013.1/901 2013/11/27
 22 23  0  0  0  0  0  0  0  0999 V2000
   24.6674  -56.8553  -35.6412 O   0  0  0  0  0  0  0  0  0  0  0  0
   24.3845  -57.7869  -34.9041 C   0  0  0  0  0  0  0  0  0  0  0  0
   25.1997  -58.1823  -33.9264 N   0  0  0  0  0  0  0  0  0  0  0  0
   23.1016  -58.5183  -35.1047 C   0  0  0  0  0  0  0  0  0  0  0  0
   22.1249  -58.2015  -36.1587 C   0  0  0  0  0  0  0  0  0  0  0  0
   22.2655  -57.1374  -37.1441 N   0  0  0  0  0  0  0  0  0  0  0  0
   22.5415  -59.5652  -34.4593 N   0  0  0  0  0  0  0  0  0  0  0  0
   21.3457  -59.8507  -35.0619 C   0  0  0  0  0  0  0  0  0  0  0  0
   21.0887  -59.0223  -36.0976 N   0  0  0  0  0  0  0  0  0  0  0  0
   19.9012  -59.0278  -36.9834 C   0  0  1  0  0  0  0  0  0  0  0  0
   18.6834  -58.4969  -36.2451 C   0  0  1  0  0  0  0  0  0  0  0  0
   17.8967  -57.8153  -37.3353 C   0  0  2  0  0  0  0  0  0  0  0  0
   17.0913  -58.7811  -38.0140 O   0  0  0  0  0  0  0  0  0  0  0  0
   17.9191  -59.5620  -35.6784 O   0  0  0  0  0  0  0  0  0  0  0  0
   20.0968  -58.1734  -38.1163 O   0  0  0  0  0  0  0  0  0  0  0  0
   18.9685  -57.3111  -38.2821 C   0  0  2  0  0  0  0  0  0  0  0  0
   19.3420  -55.8790  -37.9320 C   0  0  0  0  0  0  0  0  0  0  0  0
   18.2003  -55.0508  -38.1462 O   0  0  0  0  0  0  0  0  0  0  0  0
   18.2754  -53.4512  -37.9684 P   0  0  0  0  0  0  0  0  0  0  0  0
   19.4871  -53.2106  -37.0981 O   0  0  0  0  0  0  0  0  0  0  0  0
   16.9597  -53.1179  -37.3058 O   0  0  0  0  0  0  0  0  0  0  0  0
   18.4177  -52.9476  -39.3856 O   0  0  0  0  0  0  0  0  0  0  0  0
  1  2  2  0  0  0  0
  2  4  1  0  0  0  0
  2  3  1  0  0  0  0
  4  7  1  0  0  0  0
  5  9  1  0  0  0  0
  5  4  2  0  0  0  0
  6  5  1  0  0  0  0
  8  7  2  0  0  0  0
  9  8  1  0  0  0  0
 10 15  1  0  0  0  0
 10  9  1  1  0  0  0
 10 11  1  0  0  0  0
 11 14  1  6  0  0  0
 11 12  1  0  0  0  0
 12 13  1  6  0  0  0
 15 16  1  0  0  0  0
 16 12  1  0  0  0  0
 16 17  1  1  0  0  0
 17 18  1  0  0  0  0
 18 19  1  0  0  0  0
 19 21  1  0  0  0  0
 19 20  1  0  0  0  0
 22 19  2  0  0  0  0
M  END
>  <CHROM.1>
0.44781027,-107.27639325,-64.26064722,-175.73517938,-20.56333365,20.15724047
-56.89114559,-36.80528992,-0.74313179,-0.34695476,-0.23244065

>  <Name>
lig.pdb

>  <RI>
0

>  <Rbt.Current_Directory>
/home/itssahil/PROJECTS/Mol_Feturizer/New_Systems/rnas/5btp

>  <Rbt.Executable>
rbdock ($Id: //depot/dev/client3/rdock/2013.1/src/exe/rbdock.cxx#4 $)

>  <Rbt.Library>
libRbt.so (2013.1, Build901 2013/11/27)

>  <Rbt.Parameter_File>
/export/apps/rDock/src/rDock_2013.1_src/data/scripts/dock_solv.prm

>  <Rbt.Receptor>
prm/pocket_docking_5.prm

>  <SCORE>
-6.73137

>  <SCORE.INTER>
-7.32733

>  <SCORE.INTER.CONST>
1

>  <SCORE.INTER.POLAR>
0

>  <SCORE.INTER.ROT>
5

>  <SCORE.INTER.SOLV>
14.9871

>  <SCORE.INTER.VDW>
-16.8139

>  <SCORE.INTER.norm>
-0.33306

>  <SCORE.INTRA>
0.595958

>  <SCORE.INTRA.DIHEDRAL>
0.133627

>  <SCORE.INTRA.DIHEDRAL.0>
4.21161

>  <SCORE.INTRA.POLAR>
0

>  <SCORE.INTRA.POLAR.0>
0

>  <SCORE.INTRA.REPUL>
0

>  <SCORE.INTRA.REPUL.0>
0

>  <SCORE.INTRA.SOLV>
0.82325

>  <SCORE.INTRA.SOLV.lig_0>
-41.4168

>  <SCORE.INTRA.VDW>
0.11752

>  <SCORE.INTRA.VDW.0>
-1.62533

>  <SCORE.INTRA.norm>
0.027089

>  <SCORE.RESTR>
0

>  <SCORE.RESTR.CAVITY>
0

>  <SCORE.RESTR.norm>
0

>  <SCORE.SYSTEM>
0

>  <SCORE.SYSTEM.CONST>
0

>  <SCORE.SYSTEM.DIHEDRAL>
0

>  <SCORE.SYSTEM.SOLV>
0

>  <SCORE.SYSTEM.norm>
0

>  <SCORE.heavy>
22

>  <SCORE.norm>
-0.305971

>  <RMSD>
6.917

$$$$
lig.pdb
 OpenBabel11021811523D
libRbt.so/2013.1/901 2013/11/27
 22 23  0  0  0  0  0  0  0  0999 V2000
   18.6537  -50.7502  -37.8987 O   0  0  0  0  0  0  0  0  0  0  0  0
   19.0969  -51.7647  -37.3834 C   0  0  0  0  0  0  0  0  0  0  0  0
   19.8851  -51.7209  -36.3094 N   0  0  0  0  0  0  0  0  0  0  0  0
   18.7655  -53.0926  -37.9732 C   0  0  0  0  0  0  0  0  0  0  0  0
   19.2322  -54.3783  -37.4309 C   0  0  0  0  0  0  0  0  0  0  0  0
   20.0794  -54.5384  -36.2562 N   0  0  0  0  0  0  0  0  0  0  0  0
   18.0198  -53.4523  -39.0413 N   0  0  0  0  0  0  0  0  0  0  0  0
   18.0362  -54.8181  -39.1356 C   0  0  0  0  0  0  0  0  0  0  0  0
   18.7734  -55.3856  -38.1562 N   0  0  0  0  0  0  0  0  0  0  0  0
   19.0185  -56.8297  -37.9338 C   0  0  1  0  0  0  0  0  0  0  0  0
   18.6286  -57.2246  -36.5189 C   0  0  1  0  0  0  0  0  0  0  0  0
   18.1495  -58.6442  -36.6832 C   0  0  2  0  0  0  0  0  0  0  0  0
   19.2698  -59.5305  -36.6451 O   0  0  0  0  0  0  0  0  0  0  0  0
   19.7558  -57.1832  -35.6428 O   0  0  0  0  0  0  0  0  0  0  0  0
   18.2236  -57.6313  -38.8155 O   0  0  0  0  0  0  0  0  0  0  0  0
   17.5550  -58.6574  -38.0780 C   0  0  2  0  0  0  0  0  0  0  0  0
   16.0623  -58.3733  -38.0115 C   0  0  0  0  0  0  0  0  0  0  0  0
   15.4293  -59.4502  -37.3225 O   0  0  0  0  0  0  0  0  0  0  0  0
   13.8303  -59.6454  -37.3537 P   0  0  0  0  0  0  0  0  0  0  0  0
   13.5665  -60.8534  -36.4850 O   0  0  0  0  0  0  0  0  0  0  0  0
   13.5398  -59.8605  -38.8202 O   0  0  0  0  0  0  0  0  0  0  0  0
   13.3077  -58.3460  -36.7872 O   0  0  0  0  0  0  0  0  0  0  0  0
  1  2  2  0  0  0  0
  2  4  1  0  0  0  0
  2  3  1  0  0  0  0
  4  7  1  0  0  0  0
  5  9  1  0  0  0  0
  5  4  2  0  0  0  0
  6  5  1  0  0  0  0
  8  7  2  0  0  0  0
  9  8  1  0  0  0  0
 10 15  1  0  0  0  0
 10  9  1  1  0  0  0
 10 11  1  0  0  0  0
 11 14  1  1  0  0  0
 11 12  1  0  0  0  0
 12 13  1  6  0  0  0
 15 16  1  0  0  0  0
 16 12  1  0  0  0  0
 16 17  1  1  0  0  0
 17 18  1  0  0  0  0
 18 19  1  0  0  0  0
 19 21  1  0  0  0  0
 19 20  1  0  0  0  0
 22 19  2  0  0  0  0
M  END
>  <CHROM.1>
-179.42551835,54.45008916,-65.33633036,-166.17112156,-178.43671528,17.30179257
-56.74600860,-37.46519716,0.93878335,-0.23558940,-0.18626617

>  <Name>
lig.pdb

>  <RI>
0

>  <Rbt.Current_Directory>
/home/itssahil/PROJECTS/Mol_Feturizer/New_Systems/rnas/5btp

>  <Rbt.Executable>
rbdock ($Id: //depot/dev/client3/rdock/2013.1/src/exe/rbdock.cxx#4 $)

>  <Rbt.Library>
libRbt.so (2013.1, Build901 2013/11/27)

>  <Rbt.Parameter_File>
/export/apps/rDock/src/rDock_2013.1_src/data/scripts/dock_solv.prm

>  <Rbt.Receptor>
prm/pocket_docking_6.prm

>  <SCORE>
-14.9384

>  <SCORE.INTER>
-14.9499

>  <SCORE.INTER.CONST>
1

>  <SCORE.INTER.POLAR>
0

>  <SCORE.INTER.ROT>
5

>  <SCORE.INTER.SOLV>
21.6786

>  <SCORE.INTER.VDW>
-24.1261

>  <SCORE.INTER.norm>
-0.67954

>  <SCORE.INTRA>
-0.0172831

>  <SCORE.INTRA.DIHEDRAL>
-0.780038

>  <SCORE.INTRA.DIHEDRAL.0>
4.21161

>  <SCORE.INTRA.POLAR>
0

>  <SCORE.INTRA.POLAR.0>
0

>  <SCORE.INTRA.REPUL>
0

>  <SCORE.INTRA.REPUL.0>
0

>  <SCORE.INTRA.SOLV>
0.782024

>  <SCORE.INTRA.SOLV.lig_0>
-41.4168

>  <SCORE.INTRA.VDW>
-0.0182762

>  <SCORE.INTRA.VDW.0>
-1.62533

>  <SCORE.INTRA.norm>
-0.000785595

>  <SCORE.RESTR>
0.0287643

>  <SCORE.RESTR.CAVITY>
0.0287643

>  <SCORE.RESTR.norm>
0.00130747

>  <SCORE.SYSTEM>
0

>  <SCORE.SYSTEM.CONST>
0

>  <SCORE.SYSTEM.DIHEDRAL>
0

>  <SCORE.SYSTEM.SOLV>
0

>  <SCORE.SYSTEM.norm>
0

>  <SCORE.heavy>
22

>  <SCORE.norm>
-0.679018

>  <RMSD>
6.931

$$$$
lig.pdb
 OpenBabel11021811523D
libRbt.so/2013.1/901 2013/11/27
 22 23  0  0  0  0  0  0  0  0999 V2000
   24.6774  -60.7434  -33.8212 O   0  0  0  0  0  0  0  0  0  0  0  0
   23.4828  -60.8910  -34.0270 C   0  0  0  0  0  0  0  0  0  0  0  0
   22.7391  -61.7155  -33.2895 N   0  0  0  0  0  0  0  0  0  0  0  0
   22.8321  -60.1448  -35.1410 C   0  0  0  0  0  0  0  0  0  0  0  0
   21.3996  -60.2276  -35.4662 C   0  0  0  0  0  0  0  0  0  0  0  0
   20.4217  -61.0442  -34.7590 N   0  0  0  0  0  0  0  0  0  0  0  0
   23.3136  -59.2731  -36.0545 N   0  0  0  0  0  0  0  0  0  0  0  0
   22.2762  -58.8712  -36.8525 C   0  0  0  0  0  0  0  0  0  0  0  0
   21.1087  -59.4503  -36.4970 N   0  0  0  0  0  0  0  0  0  0  0  0
   19.7796  -59.2583  -37.1228 C   0  0  1  0  0  0  0  0  0  0  0  0
   18.7409  -58.9071  -36.0704 C   0  0  1  0  0  0  0  0  0  0  0  0
   17.7965  -57.9994  -36.8160 C   0  0  2  0  0  0  0  0  0  0  0  0
   16.8410  -58.7894  -37.5268 O   0  0  0  0  0  0  0  0  0  0  0  0
   18.0502  -60.0727  -35.6185 O   0  0  0  0  0  0  0  0  0  0  0  0
   19.7992  -58.1717  -38.0561 O   0  0  0  0  0  0  0  0  0  0  0  0
   18.6963  -57.2952  -37.8129 C   0  0  2  0  0  0  0  0  0  0  0  0
   19.1865  -55.9774  -37.2329 C   0  0  0  0  0  0  0  0  0  0  0  0
   19.2976  -55.0316  -38.2950 O   0  0  0  0  0  0  0  0  0  0  0  0
   18.0044  -54.2741  -38.8865 P   0  0  0  0  0  0  0  0  0  0  0  0
   17.3637  -53.6038  -37.6933 O   0  0  0  0  0  0  0  0  0  0  0  0
   17.1889  -55.3994  -39.4780 O   0  0  0  0  0  0  0  0  0  0  0  0
   18.5912  -53.3165  -39.8970 O   0  0  0  0  0  0  0  0  0  0  0  0
  1  2  2  0  0  0  0
  2  4  1  0  0  0  0
  2  3  1  0  0  0  0
  4  7  1  0  0  0  0
  5  9  1  0  0  0  0
  5  4  2  0  0  0  0
  6  5  1  0  0  0  0
  8  7  2  0  0  0  0
  9  8  1  0  0  0  0
 10 15  1  0  0  0  0
 10  9  1  1  0  0  0
 10 11  1  0  0  0  0
 11 14  1  6  0  0  0
 11 12  1  0  0  0  0
 12 13  1  6  0  0  0
 15 16  1  0  0  0  0
 16 12  1  0  0  0  0
 16 17  1  1  0  0  0
 17 18  1  0  0  0  0
 18 19  1  0  0  0  0
 19 21  1  0  0  0  0
 19 20  1  0  0  0  0
 22 19  2  0  0  0  0
M  END
>  <CHROM.1>
-178.94524850,51.58032973,-145.58776764,78.86437325,55.86348301,19.87676520
-57.89308655,-36.84106366,-0.98361068,-0.17517254,-0.48655671

>  <Name>
lig.pdb

>  <RI>
0

>  <Rbt.Current_Directory>
/home/itssahil/PROJECTS/Mol_Feturizer/New_Systems/rnas/5btp

>  <Rbt.Executable>
rbdock ($Id: //depot/dev/client3/rdock/2013.1/src/exe/rbdock.cxx#4 $)

>  <Rbt.Library>
libRbt.so (2013.1, Build901 2013/11/27)

>  <Rbt.Parameter_File>
/export/apps/rDock/src/rDock_2013.1_src/data/scripts/dock_solv.prm

>  <Rbt.Receptor>
prm/pocket_docking_8.prm

>  <SCORE>
-7.4389

>  <SCORE.INTER>
-9.2062

>  <SCORE.INTER.CONST>
1

>  <SCORE.INTER.POLAR>
0

>  <SCORE.INTER.ROT>
5

>  <SCORE.INTER.SOLV>
18.1531

>  <SCORE.INTER.VDW>
-19.1218

>  <SCORE.INTER.norm>
-0.418464

>  <SCORE.INTRA>
1.76731

>  <SCORE.INTRA.DIHEDRAL>
3.0589

>  <SCORE.INTRA.DIHEDRAL.0>
4.21161

>  <SCORE.INTRA.POLAR>
0

>  <SCORE.INTRA.POLAR.0>
0

>  <SCORE.INTRA.REPUL>
0

>  <SCORE.INTRA.REPUL.0>
0

>  <SCORE.INTRA.SOLV>
1.11337

>  <SCORE.INTRA.SOLV.lig_0>
-41.4168

>  <SCORE.INTRA.VDW>
-0.318827

>  <SCORE.INTRA.VDW.0>
-1.62533

>  <SCORE.INTRA.norm>
0.0803321

>  <SCORE.RESTR>
0

>  <SCORE.RESTR.CAVITY>
0

>  <SCORE.RESTR.norm>
0

>  <SCORE.SYSTEM>
0

>  <SCORE.SYSTEM.CONST>
0

>  <SCORE.SYSTEM.DIHEDRAL>
0

>  <SCORE.SYSTEM.SOLV>
0

>  <SCORE.SYSTEM.norm>
0

>  <SCORE.heavy>
22

>  <SCORE.norm>
-0.338132

>  <RMSD>
6.950

$$$$
lig.pdb
 OpenBabel11021811523D
libRbt.so/2013.1/901 2013/11/27
 22 23  0  0  0  0  0  0  0  0999 V2000
   18.8208  -50.7276  -37.6313 O   0  0  0  0  0  0  0  0  0  0  0  0
   19.1901  -51.7854  -37.1458 C   0  0  0  0  0  0  0  0  0  0  0  0
   19.9139  -51.8307  -36.0273 N   0  0  0  0  0  0  0  0  0  0  0  0
   18.8401  -53.0659  -37.8232 C   0  0  0  0  0  0  0  0  0  0  0  0
   19.2400  -54.3955  -37.3361 C   0  0  0  0  0  0  0  0  0  0  0  0
   20.0303  -54.6506  -36.1389 N   0  0  0  0  0  0  0  0  0  0  0  0
   18.1292  -53.3391  -38.9396 N   0  0  0  0  0  0  0  0  0  0  0  0
   18.1040  -54.6973  -39.1105 C   0  0  0  0  0  0  0  0  0  0  0  0
   18.7793  -55.3441  -38.1356 N   0  0  0  0  0  0  0  0  0  0  0  0
   18.9663  -56.8061  -37.9858 C   0  0  1  0  0  0  0  0  0  0  0  0
   18.5250  -57.2610  -36.6044 C   0  0  1  0  0  0  0  0  0  0  0  0
   17.9997  -58.6509  -36.8571 C   0  0  2  0  0  0  0  0  0  0  0  0
   19.0860  -59.5792  -36.8395 O   0  0  0  0  0  0  0  0  0  0  0  0
   19.6293  -57.3084  -35.6999 O   0  0  0  0  0  0  0  0  0  0  0  0
   18.1667  -57.5294  -38.9290 O   0  0  0  0  0  0  0  0  0  0  0  0
   17.4423  -58.5677  -38.2648 C   0  0  2  0  0  0  0  0  0  0  0  0
   15.9596  -58.2319  -38.2197 C   0  0  0  0  0  0  0  0  0  0  0  0
   15.2664  -59.3325  -37.6337 O   0  0  0  0  0  0  0  0  0  0  0  0
   13.6827  -59.2717  -37.3435 P   0  0  0  0  0  0  0  0  0  0  0  0
   13.1386  -58.2821  -38.3476 O   0  0  0  0  0  0  0  0  0  0  0  0
   13.6148  -58.8017  -35.9098 O   0  0  0  0  0  0  0  0  0  0  0  0
   13.2310  -60.6960  -37.5666 O   0  0  0  0  0  0  0  0  0  0  0  0
  1  2  2  0  0  0  0
  2  4  1  0  0  0  0
  2  3  1  0  0  0  0
  4  7  1  0  0  0  0
  5  9  1  0  0  0  0
  5  4  2  0  0  0  0
  6  5  1  0  0  0  0
  8  7  2  0  0  0  0
  9  8  1  0  0  0  0
 10 15  1  0  0  0  0
 10  9  1  1  0  0  0
 10 11  1  0  0  0  0
 11 14  1  1  0  0  0
 11 12  1  0  0  0  0
 12 13  1  6  0  0  0
 15 16  1  0  0  0  0
 16 12  1  0  0  0  0
 16 17  1  1  0  0  0
 17 18  1  0  0  0  0
 18 19  1  0  0  0  0
 19 21  1  0  0  0  0
 19 20  1  0  0  0  0
 22 19  2  0  0  0  0
M  END
>  <CHROM.1>
179.47068895,53.49966121,-66.64826537,175.91267314,26.27050357,17.24178136
-56.63531748,-37.45887005,0.90601186,-0.18065857,-0.12741301

>  <Name>
lig.pdb

>  <RI>
0

>  <Rbt.Current_Directory>
/home/itssahil/PROJECTS/Mol_Feturizer/New_Systems/rnas/5btp

>  <Rbt.Executable>
rbdock ($Id: //depot/dev/client3/rdock/2013.1/src/exe/rbdock.cxx#4 $)

>  <Rbt.Library>
libRbt.so (2013.1, Build901 2013/11/27)

>  <Rbt.Parameter_File>
/export/apps/rDock/src/rDock_2013.1_src/data/scripts/dock_solv.prm

>  <Rbt.Receptor>
prm/pocket_docking_6.prm

>  <SCORE>
-17.6275

>  <SCORE.INTER>
-18.2358

>  <SCORE.INTER.CONST>
1

>  <SCORE.INTER.POLAR>
0

>  <SCORE.INTER.ROT>
5

>  <SCORE.INTER.SOLV>
21.0264

>  <SCORE.INTER.VDW>
-26.0993

>  <SCORE.INTER.norm>
-0.8289

>  <SCORE.INTRA>
0.460984

>  <SCORE.INTRA.DIHEDRAL>
-0.120599

>  <SCORE.INTRA.DIHEDRAL.0>
4.21161

>  <SCORE.INTRA.POLAR>
0

>  <SCORE.INTRA.POLAR.0>
0

>  <SCORE.INTRA.REPUL>
0

>  <SCORE.INTRA.REPUL.0>
0

>  <SCORE.INTRA.SOLV>
0.664831

>  <SCORE.INTRA.SOLV.lig_0>
-41.4168

>  <SCORE.INTRA.VDW>
0.188869

>  <SCORE.INTRA.VDW.0>
-1.62533

>  <SCORE.INTRA.norm>
0.0209538

>  <SCORE.RESTR>
0.147267

>  <SCORE.RESTR.CAVITY>
0.147267

>  <SCORE.RESTR.norm>
0.00669396

>  <SCORE.SYSTEM>
0

>  <SCORE.SYSTEM.CONST>
0

>  <SCORE.SYSTEM.DIHEDRAL>
0

>  <SCORE.SYSTEM.SOLV>
0

>  <SCORE.SYSTEM.norm>
0

>  <SCORE.heavy>
22

>  <SCORE.norm>
-0.801252

>  <RMSD>
6.966

$$$$
lig.pdb
 OpenBabel11021811523D
libRbt.so/2013.1/901 2013/11/27
 22 23  0  0  0  0  0  0  0  0999 V2000
   22.8579  -62.5487  -32.9175 O   0  0  0  0  0  0  0  0  0  0  0  0
   22.1615  -61.5459  -32.8973 C   0  0  0  0  0  0  0  0  0  0  0  0
   21.8322  -60.9416  -31.7557 N   0  0  0  0  0  0  0  0  0  0  0  0
   21.6478  -60.9829  -34.1781 C   0  0  0  0  0  0  0  0  0  0  0  0
   20.8257  -59.7667  -34.2764 C   0  0  0  0  0  0  0  0  0  0  0  0
   20.3953  -58.9485  -33.1500 N   0  0  0  0  0  0  0  0  0  0  0  0
   21.7849  -61.3763  -35.4637 N   0  0  0  0  0  0  0  0  0  0  0  0
   21.1114  -60.4877  -36.2584 C   0  0  0  0  0  0  0  0  0  0  0  0
   20.5261  -59.5057  -35.5386 N   0  0  0  0  0  0  0  0  0  0  0  0
   19.7201  -58.3720  -36.0485 C   0  0  1  0  0  0  0  0  0  0  0  0
   19.5311  -58.4864  -37.5522 C   0  0  1  0  0  0  0  0  0  0  0  0
   18.1681  -57.8807  -37.7695 C   0  0  2  0  0  0  0  0  0  0  0  0
   18.2907  -56.4605  -37.8710 O   0  0  0  0  0  0  0  0  0  0  0  0
   20.5219  -57.7353  -38.2551 O   0  0  0  0  0  0  0  0  0  0  0  0
   18.4092  -58.3681  -35.4711 O   0  0  0  0  0  0  0  0  0  0  0  0
   17.4218  -58.2233  -36.4948 C   0  0  2  0  0  0  0  0  0  0  0  0
   16.6522  -59.5228  -36.6743 C   0  0  0  0  0  0  0  0  0  0  0  0
   15.3814  -59.3846  -36.0409 O   0  0  0  0  0  0  0  0  0  0  0  0
   14.0328  -59.1730  -36.8967 P   0  0  0  0  0  0  0  0  0  0  0  0
   13.6898  -60.5439  -37.4319 O   0  0  0  0  0  0  0  0  0  0  0  0
   14.4510  -58.1804  -37.9555 O   0  0  0  0  0  0  0  0  0  0  0  0
   13.0522  -58.6395  -35.8788 O   0  0  0  0  0  0  0  0  0  0  0  0
  1  2  2  0  0  0  0
  2  4  1  0  0  0  0
  2  3  1  0  0  0  0
  4  7  1  0  0  0  0
  5  9  1  0  0  0  0
  5  4  2  0  0  0  0
  6  5  1  0  0  0  0
  8  7  2  0  0  0  0
  9  8  1  0  0  0  0
 10 15  1  0  0  0  0
 10  9  1  1  0  0  0
 10 11  1  0  0  0  0
 11 14  1  6  0  0  0
 11 12  1  0  0  0  0
 12 13  1  1  0  0  0
 15 16  1  0  0  0  0
 16 12  1  0  0  0  0
 16 17  1  6  0  0  0
 17 18  1  0  0  0  0
 18 19  1  0  0  0  0
 19 21  1  0  0  0  0
 19 20  1  0  0  0  0
 22 19  2  0  0  0  0
M  END
>  <CHROM.1>
-178.68432810,-176.14127954,-139.87327745,104.97775346,77.50183122,18.36812914
-59.36568223,-35.87542499,0.47493537,0.07878510,2.27881543

>  <Name>
lig.pdb

>  <RI>
0

>  <Rbt.Current_Directory>
/home/itssahil/PROJECTS/Mol_Feturizer/New_Systems/rnas/5btp

>  <Rbt.Executable>
rbdock ($Id: //depot/dev/client3/rdock/2013.1/src/exe/rbdock.cxx#4 $)

>  <Rbt.Library>
libRbt.so (2013.1, Build901 2013/11/27)

>  <Rbt.Parameter_File>
/export/apps/rDock/src/rDock_2013.1_src/data/scripts/dock_solv.prm

>  <Rbt.Receptor>
prm/pocket_docking_4.prm

>  <SCORE>
-4.01786

>  <SCORE.INTER>
-8.66395

>  <SCORE.INTER.CONST>
1

>  <SCORE.INTER.POLAR>
0

>  <SCORE.INTER.ROT>
5

>  <SCORE.INTER.SOLV>
19.4196

>  <SCORE.INTER.VDW>
-19.1825

>  <SCORE.INTER.norm>
-0.393816

>  <SCORE.INTRA>
4.64609

>  <SCORE.INTRA.DIHEDRAL>
8.76386

>  <SCORE.INTRA.DIHEDRAL.0>
4.21161

>  <SCORE.INTRA.POLAR>
0

>  <SCORE.INTRA.POLAR.0>
0

>  <SCORE.INTRA.REPUL>
0

>  <SCORE.INTRA.REPUL.0>
0

>  <SCORE.INTRA.SOLV>
0.16634

>  <SCORE.INTRA.SOLV.lig_0>
-41.4168

>  <SCORE.INTRA.VDW>
0.180995

>  <SCORE.INTRA.VDW.0>
-1.62533

>  <SCORE.INTRA.norm>
0.211186

>  <SCORE.RESTR>
0

>  <SCORE.RESTR.CAVITY>
0

>  <SCORE.RESTR.norm>
0

>  <SCORE.SYSTEM>
0

>  <SCORE.SYSTEM.CONST>
0

>  <SCORE.SYSTEM.DIHEDRAL>
0

>  <SCORE.SYSTEM.SOLV>
0

>  <SCORE.SYSTEM.norm>
0

>  <SCORE.heavy>
22

>  <SCORE.norm>
-0.18263

>  <RMSD>
6.971

$$$$
lig.pdb
 OpenBabel11021811523D
libRbt.so/2013.1/901 2013/11/27
 22 23  0  0  0  0  0  0  0  0999 V2000
   21.9584  -60.8877  -30.9480 O   0  0  0  0  0  0  0  0  0  0  0  0
   21.6610  -59.8520  -31.5224 C   0  0  0  0  0  0  0  0  0  0  0  0
   21.8580  -58.6574  -30.9648 N   0  0  0  0  0  0  0  0  0  0  0  0
   21.0459  -59.9152  -32.8785 C   0  0  0  0  0  0  0  0  0  0  0  0
   20.6622  -58.7347  -33.6685 C   0  0  0  0  0  0  0  0  0  0  0  0
   20.8208  -57.3499  -33.2439 N   0  0  0  0  0  0  0  0  0  0  0  0
   20.7156  -60.9523  -33.6794 N   0  0  0  0  0  0  0  0  0  0  0  0
   20.1840  -60.4487  -34.8362 C   0  0  0  0  0  0  0  0  0  0  0  0
   20.1501  -59.0983  -34.8333 N   0  0  0  0  0  0  0  0  0  0  0  0
   19.6492  -58.2066  -35.9052 C   0  0  1  0  0  0  0  0  0  0  0  0
   19.7374  -58.8963  -37.2566 C   0  0  1  0  0  0  0  0  0  0  0  0
   18.5565  -58.3309  -38.0034 C   0  0  2  0  0  0  0  0  0  0  0  0
   18.9219  -57.0814  -38.5928 O   0  0  0  0  0  0  0  0  0  0  0  0
   20.9521  -58.5604  -37.9286 O   0  0  0  0  0  0  0  0  0  0  0  0
   18.2694  -57.8789  -35.7031 O   0  0  0  0  0  0  0  0  0  0  0  0
   17.5337  -58.0831  -36.9117 C   0  0  2  0  0  0  0  0  0  0  0  0
   16.6154  -59.2877  -36.7743 C   0  0  0  0  0  0  0  0  0  0  0  0
   15.3637  -58.8426  -36.2545 O   0  0  0  0  0  0  0  0  0  0  0  0
   13.9663  -59.3305  -36.8910 P   0  0  0  0  0  0  0  0  0  0  0  0
   14.1070  -59.0882  -38.3760 O   0  0  0  0  0  0  0  0  0  0  0  0
   12.9513  -58.4426  -36.2109 O   0  0  0  0  0  0  0  0  0  0  0  0
   13.8950  -60.7888  -36.5030 O   0  0  0  0  0  0  0  0  0  0  0  0
  1  2  2  0  0  0  0
  2  4  1  0  0  0  0
  2  3  1  0  0  0  0
  4  7  1  0  0  0  0
  5  9  1  0  0  0  0
  5  4  2  0  0  0  0
  6  5  1  0  0  0  0
  8  7  2  0  0  0  0
  9  8  1  0  0  0  0
 10 15  1  0  0  0  0
 10  9  1  1  0  0  0
 10 11  1  0  0  0  0
 11 14  1  6  0  0  0
 11 12  1  0  0  0  0
 12 13  1  1  0  0  0
 15 16  1  0  0  0  0
 16 12  1  0  0  0  0
 16 17  1  1  0  0  0
 17 18  1  0  0  0  0
 18 19  1  0  0  0  0
 19 21  1  0  0  0  0
 19 20  1  0  0  0  0
 22 19  2  0  0  0  0
M  END
>  <CHROM.1>
-179.27833645,154.31540298,-153.39145581,134.08768802,-50.39442329,18.24918824
-59.03871976,-35.51355309,0.55758728,0.17686173,1.94407742

>  <Name>
lig.pdb

>  <RI>
0

>  <Rbt.Current_Directory>
/home/itssahil/PROJECTS/Mol_Feturizer/New_Systems/rnas/5btp

>  <Rbt.Executable>
rbdock ($Id: //depot/dev/client3/rdock/2013.1/src/exe/rbdock.cxx#4 $)

>  <Rbt.Library>
libRbt.so (2013.1, Build901 2013/11/27)

>  <Rbt.Parameter_File>
/export/apps/rDock/src/rDock_2013.1_src/data/scripts/dock_solv.prm

>  <Rbt.Receptor>
prm/pocket_docking_3.prm

>  <SCORE>
-6.90436

>  <SCORE.INTER>
-10.2283

>  <SCORE.INTER.CONST>
1

>  <SCORE.INTER.POLAR>
0

>  <SCORE.INTER.ROT>
5

>  <SCORE.INTER.SOLV>
21.2747

>  <SCORE.INTER.VDW>
-20.8438

>  <SCORE.INTER.norm>
-0.464924

>  <SCORE.INTRA>
3.32396

>  <SCORE.INTRA.DIHEDRAL>
6.75837

>  <SCORE.INTRA.DIHEDRAL.0>
4.21161

>  <SCORE.INTRA.POLAR>
0

>  <SCORE.INTRA.POLAR.0>
0

>  <SCORE.INTRA.REPUL>
0

>  <SCORE.INTRA.REPUL.0>
0

>  <SCORE.INTRA.SOLV>
-0.136458

>  <SCORE.INTRA.SOLV.lig_0>
-41.4168

>  <SCORE.INTRA.VDW>
0.0130043

>  <SCORE.INTRA.VDW.0>
-1.62533

>  <SCORE.INTRA.norm>
0.151089

>  <SCORE.RESTR>
0

>  <SCORE.RESTR.CAVITY>
0

>  <SCORE.RESTR.norm>
0

>  <SCORE.SYSTEM>
0

>  <SCORE.SYSTEM.CONST>
0

>  <SCORE.SYSTEM.DIHEDRAL>
0

>  <SCORE.SYSTEM.SOLV>
0

>  <SCORE.SYSTEM.norm>
0

>  <SCORE.heavy>
22

>  <SCORE.norm>
-0.313835

>  <RMSD>
6.977

$$$$
lig.pdb
 OpenBabel11021811523D
libRbt.so/2013.1/901 2013/11/27
 22 23  0  0  0  0  0  0  0  0999 V2000
   19.9302  -51.8243  -36.0960 O   0  0  0  0  0  0  0  0  0  0  0  0
   19.1693  -51.7965  -37.0507 C   0  0  0  0  0  0  0  0  0  0  0  0
   18.6209  -50.6598  -37.4795 N   0  0  0  0  0  0  0  0  0  0  0  0
   18.8262  -53.0653  -37.7531 C   0  0  0  0  0  0  0  0  0  0  0  0
   19.2261  -54.4027  -37.2879 C   0  0  0  0  0  0  0  0  0  0  0  0
   20.0099  -54.6777  -36.0907 N   0  0  0  0  0  0  0  0  0  0  0  0
   18.1226  -53.3197  -38.8785 N   0  0  0  0  0  0  0  0  0  0  0  0
   18.1014  -54.6747  -39.0742 C   0  0  0  0  0  0  0  0  0  0  0  0
   18.7723  -55.3376  -38.1071 N   0  0  0  0  0  0  0  0  0  0  0  0
   18.9617  -56.8017  -37.9826 C   0  0  1  0  0  0  0  0  0  0  0  0
   18.5337  -57.2791  -36.6046 C   0  0  1  0  0  0  0  0  0  0  0  0
   18.0070  -58.6652  -36.8747 C   0  0  2  0  0  0  0  0  0  0  0  0
   19.0941  -59.5928  -36.8823 O   0  0  0  0  0  0  0  0  0  0  0  0
   19.6466  -57.3402  -35.7115 O   0  0  0  0  0  0  0  0  0  0  0  0
   18.1537  -57.5104  -38.9297 O   0  0  0  0  0  0  0  0  0  0  0  0
   17.4363  -58.5598  -38.2755 C   0  0  2  0  0  0  0  0  0  0  0  0
   15.9539  -58.2260  -38.2110 C   0  0  0  0  0  0  0  0  0  0  0  0
   15.2694  -59.3286  -37.6187 O   0  0  0  0  0  0  0  0  0  0  0  0
   13.6846  -59.2804  -37.3326 P   0  0  0  0  0  0  0  0  0  0  0  0
   13.1360  -58.2912  -38.3346 O   0  0  0  0  0  0  0  0  0  0  0  0
   13.6094  -58.8161  -35.8974 O   0  0  0  0  0  0  0  0  0  0  0  0
   13.2438  -60.7071  -37.5619 O   0  0  0  0  0  0  0  0  0  0  0  0
  1  2  2  0  0  0  0
  2  4  1  0  0  0  0
  2  3  1  0  0  0  0
  4  7  1  0  0  0  0
  5  9  1  0  0  0  0
  5  4  2  0  0  0  0
  6  5  1  0  0  0  0
  8  7  2  0  0  0  0
  9  8  1  0  0  0  0
 10 15  1  0  0  0  0
 10  9  1  1  0  0  0
 10 11  1  0  0  0  0
 11 14  1  1  0  0  0
 11 12  1  0  0  0  0
 12 13  1  6  0  0  0
 15 16  1  0  0  0  0
 16 12  1  0  0  0  0
 16 17  1  1  0  0  0
 17 18  1  0  0  0  0
 18 19  1  0  0  0  0
 19 21  1  0  0  0  0
 19 20  1  0  0  0  0
 22 19  2  0  0  0  0
M  END
>  <CHROM.1>
7.09383718,52.60623089,-65.82927783,177.01600242,25.64618743,17.23851014
-56.64271624,-37.43112001,0.90806693,-0.16663806,-0.10335471

>  <Name>
lig.pdb

>  <RI>
0

>  <Rbt.Current_Directory>
/home/itssahil/PROJECTS/Mol_Feturizer/New_Systems/rnas/5btp

>  <Rbt.Executable>
rbdock ($Id: //depot/dev/client3/rdock/2013.1/src/exe/rbdock.cxx#4 $)

>  <Rbt.Library>
libRbt.so (2013.1, Build901 2013/11/27)

>  <Rbt.Parameter_File>
/export/apps/rDock/src/rDock_2013.1_src/data/scripts/dock_solv.prm

>  <Rbt.Receptor>
prm/pocket_docking_5.prm

>  <SCORE>
-17.665

>  <SCORE.INTER>
-18.2544

>  <SCORE.INTER.CONST>
1

>  <SCORE.INTER.POLAR>
0

>  <SCORE.INTER.ROT>
5

>  <SCORE.INTER.SOLV>
21.052

>  <SCORE.INTER.VDW>
-26.1203

>  <SCORE.INTER.norm>
-0.829746

>  <SCORE.INTRA>
0.43543

>  <SCORE.INTRA.DIHEDRAL>
0.0165009

>  <SCORE.INTRA.DIHEDRAL.0>
4.21161

>  <SCORE.INTRA.POLAR>
0

>  <SCORE.INTRA.POLAR.0>
0

>  <SCORE.INTRA.REPUL>
0

>  <SCORE.INTRA.REPUL.0>
0

>  <SCORE.INTRA.SOLV>
0.434348

>  <SCORE.INTRA.SOLV.lig_0>
-41.4168

>  <SCORE.INTRA.VDW>
0.210006

>  <SCORE.INTRA.VDW.0>
-1.62533

>  <SCORE.INTRA.norm>
0.0197923

>  <SCORE.RESTR>
0.154001

>  <SCORE.RESTR.CAVITY>
0.154001

>  <SCORE.RESTR.norm>
0.00700006

>  <SCORE.SYSTEM>
0

>  <SCORE.SYSTEM.CONST>
0

>  <SCORE.SYSTEM.DIHEDRAL>
0

>  <SCORE.SYSTEM.SOLV>
0

>  <SCORE.SYSTEM.norm>
0

>  <SCORE.heavy>
22

>  <SCORE.norm>
-0.802954

>  <RMSD>
6.979

$$$$
lig.pdb
 OpenBabel11021811523D
libRbt.so/2013.1/901 2013/11/27
 22 23  0  0  0  0  0  0  0  0999 V2000
   23.2569  -58.9430  -32.6781 O   0  0  0  0  0  0  0  0  0  0  0  0
   23.1843  -59.7318  -33.6074 C   0  0  0  0  0  0  0  0  0  0  0  0
   23.9034  -60.8538  -33.6348 N   0  0  0  0  0  0  0  0  0  0  0  0
   22.2810  -59.4334  -34.7547 C   0  0  0  0  0  0  0  0  0  0  0  0
   21.4596  -58.2179  -34.8664 C   0  0  0  0  0  0  0  0  0  0  0  0
   21.4063  -57.1447  -33.8821 N   0  0  0  0  0  0  0  0  0  0  0  0
   22.0014  -60.1092  -35.8911 N   0  0  0  0  0  0  0  0  0  0  0  0
   21.1000  -59.3761  -36.6154 C   0  0  0  0  0  0  0  0  0  0  0  0
   20.7678  -58.2233  -35.9945 N   0  0  0  0  0  0  0  0  0  0  0  0
   19.8301  -57.1800  -36.4713 C   0  0  1  0  0  0  0  0  0  0  0  0
   20.1616  -56.7779  -37.8990 C   0  0  1  0  0  0  0  0  0  0  0  0
   18.8119  -56.4379  -38.4774 C   0  0  2  0  0  0  0  0  0  0  0  0
   18.4823  -55.0865  -38.1502 O   0  0  0  0  0  0  0  0  0  0  0  0
   21.0128  -55.6314  -37.9274 O   0  0  0  0  0  0  0  0  0  0  0  0
   18.4818  -57.6636  -36.4856 O   0  0  0  0  0  0  0  0  0  0  0  0
   17.8677  -57.3696  -37.7427 C   0  0  2  0  0  0  0  0  0  0  0  0
   17.6666  -58.6465  -38.5441 C   0  0  0  0  0  0  0  0  0  0  0  0
   16.4829  -58.5046  -39.3276 O   0  0  0  0  0  0  0  0  0  0  0  0
   15.0272  -58.4084  -38.6439 P   0  0  0  0  0  0  0  0  0  0  0  0
   15.2936  -58.3939  -37.1565 O   0  0  0  0  0  0  0  0  0  0  0  0
   14.3335  -59.6558  -39.1377 O   0  0  0  0  0  0  0  0  0  0  0  0
   14.4694  -57.1143  -39.1884 O   0  0  0  0  0  0  0  0  0  0  0  0
  1  2  2  0  0  0  0
  2  4  1  0  0  0  0
  2  3  1  0  0  0  0
  4  7  1  0  0  0  0
  5  9  1  0  0  0  0
  5  4  2  0  0  0  0
  6  5  1  0  0  0  0
  8  7  2  0  0  0  0
  9  8  1  0  0  0  0
 10 15  1  0  0  0  0
 10  9  1  6  0  0  0
 10 11  1  0  0  0  0
 11 14  1  1  0  0  0
 11 12  1  0  0  0  0
 12 13  1  1  0  0  0
 15 16  1  0  0  0  0
 16 12  1  0  0  0  0
 16 17  1  6  0  0  0
 17 18  1  0  0  0  0
 18 19  1  0  0  0  0
 19 21  1  0  0  0  0
 19 20  1  0  0  0  0
 22 19  2  0  0  0  0
M  END
>  <CHROM.1>
0.88931813,129.40579325,-95.22630351,-66.76534843,4.25358670,19.05975821
-58.11416706,-36.85567480,0.34900661,0.46351395,2.69282754

>  <Name>
lig.pdb

>  <RI>
0

>  <Rbt.Current_Directory>
/home/itssahil/PROJECTS/Mol_Feturizer/New_Systems/rnas/5btp

>  <Rbt.Executable>
rbdock ($Id: //depot/dev/client3/rdock/2013.1/src/exe/rbdock.cxx#4 $)

>  <Rbt.Library>
libRbt.so (2013.1, Build901 2013/11/27)

>  <Rbt.Parameter_File>
/export/apps/rDock/src/rDock_2013.1_src/data/scripts/dock_solv.prm

>  <Rbt.Receptor>
prm/pocket_docking_2.prm

>  <SCORE>
-4.98625

>  <SCORE.INTER>
-7.85529

>  <SCORE.INTER.CONST>
1

>  <SCORE.INTER.POLAR>
0

>  <SCORE.INTER.ROT>
5

>  <SCORE.INTER.SOLV>
16.1831

>  <SCORE.INTER.VDW>
-17.5646

>  <SCORE.INTER.norm>
-0.357059

>  <SCORE.INTRA>
2.5667

>  <SCORE.INTRA.DIHEDRAL>
4.14614

>  <SCORE.INTRA.DIHEDRAL.0>
4.21161

>  <SCORE.INTRA.POLAR>
0

>  <SCORE.INTRA.POLAR.0>
0

>  <SCORE.INTRA.REPUL>
0

>  <SCORE.INTRA.REPUL.0>
0

>  <SCORE.INTRA.SOLV>
0.465411

>  <SCORE.INTRA.SOLV.lig_0>
-41.4168

>  <SCORE.INTRA.VDW>
0.260923

>  <SCORE.INTRA.VDW.0>
-1.62533

>  <SCORE.INTRA.norm>
0.116668

>  <SCORE.RESTR>
0.302339

>  <SCORE.RESTR.CAVITY>
0.302339

>  <SCORE.RESTR.norm>
0.0137427

>  <SCORE.SYSTEM>
0

>  <SCORE.SYSTEM.CONST>
0

>  <SCORE.SYSTEM.DIHEDRAL>
0

>  <SCORE.SYSTEM.SOLV>
0

>  <SCORE.SYSTEM.norm>
0

>  <SCORE.heavy>
22

>  <SCORE.norm>
-0.226648

>  <RMSD>
6.987

$$$$
lig.pdb
 OpenBabel11021811523D
libRbt.so/2013.1/901 2013/11/27
 22 23  0  0  0  0  0  0  0  0999 V2000
   19.8145  -51.8238  -36.0275 O   0  0  0  0  0  0  0  0  0  0  0  0
   19.1686  -51.7875  -37.0631 C   0  0  0  0  0  0  0  0  0  0  0  0
   18.7405  -50.6379  -37.5847 N   0  0  0  0  0  0  0  0  0  0  0  0
   18.8313  -53.0595  -37.7628 C   0  0  0  0  0  0  0  0  0  0  0  0
   19.2297  -54.3945  -37.2898 C   0  0  0  0  0  0  0  0  0  0  0  0
   20.0061  -54.6641  -36.0866 N   0  0  0  0  0  0  0  0  0  0  0  0
   18.1352  -53.3190  -38.8917 N   0  0  0  0  0  0  0  0  0  0  0  0
   18.1167  -54.6747  -39.0822 C   0  0  0  0  0  0  0  0  0  0  0  0
   18.7821  -55.3331  -38.1083 N   0  0  0  0  0  0  0  0  0  0  0  0
   18.9723  -56.7965  -37.9769 C   0  0  1  0  0  0  0  0  0  0  0  0
   18.5391  -57.2685  -36.5986 C   0  0  1  0  0  0  0  0  0  0  0  0
   18.0147  -58.6562  -36.8650 C   0  0  2  0  0  0  0  0  0  0  0  0
   19.1025  -59.5829  -36.8643 O   0  0  0  0  0  0  0  0  0  0  0  0
   19.6483  -57.3248  -35.7007 O   0  0  0  0  0  0  0  0  0  0  0  0
   18.1688  -57.5099  -38.9242 O   0  0  0  0  0  0  0  0  0  0  0  0
   17.4496  -58.5571  -38.2686 C   0  0  2  0  0  0  0  0  0  0  0  0
   15.9666  -58.2244  -38.2115 C   0  0  0  0  0  0  0  0  0  0  0  0
   15.2790  -59.3307  -37.6299 O   0  0  0  0  0  0  0  0  0  0  0  0
   13.6944  -59.2805  -37.3428 P   0  0  0  0  0  0  0  0  0  0  0  0
   13.5696  -58.7770  -35.9235 O   0  0  0  0  0  0  0  0  0  0  0  0
   13.2662  -60.7165  -37.5316 O   0  0  0  0  0  0  0  0  0  0  0  0
   13.1790  -58.3217  -38.3904 O   0  0  0  0  0  0  0  0  0  0  0  0
  1  2  2  0  0  0  0
  2  4  1  0  0  0  0
  2  3  1  0  0  0  0
  4  7  1  0  0  0  0
  5  9  1  0  0  0  0
  5  4  2  0  0  0  0
  6  5  1  0  0  0  0
  8  7  2  0  0  0  0
  9  8  1  0  0  0  0
 10 15  1  0  0  0  0
 10  9  1  1  0  0  0
 10 11  1  0  0  0  0
 11 14  1  1  0  0  0
 11 12  1  0  0  0  0
 12 13  1  6  0  0  0
 15 16  1  0  0  0  0
 16 12  1  0  0  0  0
 16 17  1  1  0  0  0
 17 18  1  0  0  0  0
 18 19  1  0  0  0  0
 19 21  1  0  0  0  0
 19 20  1  0  0  0  0
 22 19  2  0  0  0  0
M  END
>  <CHROM.1>
-0.10142547,52.47198103,-66.41085752,176.52942627,-92.02179231,17.24549939
-56.63787998,-37.43512382,0.90922696,-0.17355082,-0.10908117

>  <Name>
lig.pdb

>  <RI>
0

>  <Rbt.Current_Directory>
/home/itssahil/PROJECTS/Mol_Feturizer/New_Systems/rnas/5btp

>  <Rbt.Executable>
rbdock ($Id: //depot/dev/client3/rdock/2013.1/src/exe/rbdock.cxx#4 $)

>  <Rbt.Library>
libRbt.so (2013.1, Build901 2013/11/27)

>  <Rbt.Parameter_File>
/export/apps/rDock/src/rDock_2013.1_src/data/scripts/dock_solv.prm

>  <Rbt.Receptor>
prm/pocket_docking_6.prm

>  <SCORE>
-17.8762

>  <SCORE.INTER>
-18.5534

>  <SCORE.INTER.CONST>
1

>  <SCORE.INTER.POLAR>
0

>  <SCORE.INTER.ROT>
5

>  <SCORE.INTER.SOLV>
20.4381

>  <SCORE.INTER.VDW>
-26.1149

>  <SCORE.INTER.norm>
-0.843335

>  <SCORE.INTRA>
0.537066

>  <SCORE.INTRA.DIHEDRAL>
-0.261933

>  <SCORE.INTRA.DIHEDRAL.0>
4.21161

>  <SCORE.INTRA.POLAR>
0

>  <SCORE.INTRA.POLAR.0>
0

>  <SCORE.INTRA.REPUL>
0

>  <SCORE.INTRA.REPUL.0>
0

>  <SCORE.INTRA.SOLV>
0.723718

>  <SCORE.INTRA.SOLV.lig_0>
-41.4168

>  <SCORE.INTRA.VDW>
0.306173

>  <SCORE.INTRA.VDW.0>
-1.62533

>  <SCORE.INTRA.norm>
0.0244121

>  <SCORE.RESTR>
0.140079

>  <SCORE.RESTR.CAVITY>
0.140079

>  <SCORE.RESTR.norm>
0.00636723

>  <SCORE.SYSTEM>
0

>  <SCORE.SYSTEM.CONST>
0

>  <SCORE.SYSTEM.DIHEDRAL>
0

>  <SCORE.SYSTEM.SOLV>
0

>  <SCORE.SYSTEM.norm>
0

>  <SCORE.heavy>
22

>  <SCORE.norm>
-0.812556

>  <RMSD>
7.004

$$$$
lig.pdb
 OpenBabel11021811523D
libRbt.so/2013.1/901 2013/11/27
 22 23  0  0  0  0  0  0  0  0999 V2000
   24.6572  -60.4880  -32.8618 O   0  0  0  0  0  0  0  0  0  0  0  0
   24.3468  -59.9263  -33.9007 C   0  0  0  0  0  0  0  0  0  0  0  0
   25.0884  -60.0282  -35.0036 N   0  0  0  0  0  0  0  0  0  0  0  0
   23.1145  -59.0891  -33.9427 C   0  0  0  0  0  0  0  0  0  0  0  0
   22.6891  -58.3014  -35.1104 C   0  0  0  0  0  0  0  0  0  0  0  0
   23.4036  -58.2223  -36.3778 N   0  0  0  0  0  0  0  0  0  0  0  0
   22.1449  -58.8523  -33.0316 N   0  0  0  0  0  0  0  0  0  0  0  0
   21.2270  -58.0051  -33.5923 C   0  0  0  0  0  0  0  0  0  0  0  0
   21.5550  -57.6676  -34.8586 N   0  0  0  0  0  0  0  0  0  0  0  0
   20.8065  -56.7786  -35.7774 C   0  0  1  0  0  0  0  0  0  0  0  0
   21.1474  -57.0983  -37.2236 C   0  0  1  0  0  0  0  0  0  0  0  0
   19.8608  -56.7988  -37.9493 C   0  0  2  0  0  0  0  0  0  0  0  0
   19.7992  -55.4031  -38.2496 O   0  0  0  0  0  0  0  0  0  0  0  0
   22.1932  -56.2535  -37.7057 O   0  0  0  0  0  0  0  0  0  0  0  0
   19.3928  -56.9646  -35.6402 O   0  0  0  0  0  0  0  0  0  0  0  0
   18.7922  -57.1329  -36.9266 C   0  0  2  0  0  0  0  0  0  0  0  0
   18.3268  -58.5693  -37.1087 C   0  0  0  0  0  0  0  0  0  0  0  0
   17.9211  -58.7426  -38.4653 O   0  0  0  0  0  0  0  0  0  0  0  0
   16.7017  -57.8977  -39.0939 P   0  0  0  0  0  0  0  0  0  0  0  0
   17.1378  -56.4538  -39.0022 O   0  0  0  0  0  0  0  0  0  0  0  0
   15.5401  -58.2531  -38.1964 O   0  0  0  0  0  0  0  0  0  0  0  0
   16.5990  -58.4279  -40.5048 O   0  0  0  0  0  0  0  0  0  0  0  0
  1  2  2  0  0  0  0
  2  4  1  0  0  0  0
  2  3  1  0  0  0  0
  4  7  1  0  0  0  0
  5  9  1  0  0  0  0
  5  4  2  0  0  0  0
  6  5  1  0  0  0  0
  8  7  2  0  0  0  0
  9  8  1  0  0  0  0
 10 15  1  0  0  0  0
 10  9  1  1  0  0  0
 10 11  1  0  0  0  0
 11 14  1  6  0  0  0
 11 12  1  0  0  0  0
 12 13  1  1  0  0  0
 15 16  1  0  0  0  0
 16 12  1  0  0  0  0
 16 17  1  6  0  0  0
 17 18  1  0  0  0  0
 18 19  1  0  0  0  0
 19 21  1  0  0  0  0
 19 20  1  0  0  0  0
 22 19  2  0  0  0  0
M  END
>  <CHROM.1>
176.03207231,23.56785589,-54.11541648,-61.83428596,61.64173130,20.25073181
-57.94167759,-36.62298548,0.56307454,0.35260237,2.37976107

>  <Name>
lig.pdb

>  <RI>
0

>  <Rbt.Current_Directory>
/home/itssahil/PROJECTS/Mol_Feturizer/New_Systems/rnas/5btp

>  <Rbt.Executable>
rbdock ($Id: //depot/dev/client3/rdock/2013.1/src/exe/rbdock.cxx#4 $)

>  <Rbt.Library>
libRbt.so (2013.1, Build901 2013/11/27)

>  <Rbt.Parameter_File>
/export/apps/rDock/src/rDock_2013.1_src/data/scripts/dock_solv.prm

>  <Rbt.Receptor>
prm/pocket_docking_3.prm

>  <SCORE>
-6.65668

>  <SCORE.INTER>
-8.30286

>  <SCORE.INTER.CONST>
1

>  <SCORE.INTER.POLAR>
0

>  <SCORE.INTER.ROT>
5

>  <SCORE.INTER.SOLV>
14.6732

>  <SCORE.INTER.VDW>
-17.3596

>  <SCORE.INTER.norm>
-0.377403

>  <SCORE.INTRA>
1.62941

>  <SCORE.INTRA.DIHEDRAL>
-1.60683

>  <SCORE.INTRA.DIHEDRAL.0>
4.21161

>  <SCORE.INTRA.POLAR>
0

>  <SCORE.INTRA.POLAR.0>
0

>  <SCORE.INTRA.REPUL>
0

>  <SCORE.INTRA.REPUL.0>
0

>  <SCORE.INTRA.SOLV>
2.07924

>  <SCORE.INTRA.SOLV.lig_0>
-41.4168

>  <SCORE.INTRA.VDW>
1.39321

>  <SCORE.INTRA.VDW.0>
-1.62533

>  <SCORE.INTRA.norm>
0.0740643

>  <SCORE.RESTR>
0.0167661

>  <SCORE.RESTR.CAVITY>
0.0167661

>  <SCORE.RESTR.norm>
0.000762094

>  <SCORE.SYSTEM>
0

>  <SCORE.SYSTEM.CONST>
0

>  <SCORE.SYSTEM.DIHEDRAL>
0

>  <SCORE.SYSTEM.SOLV>
0

>  <SCORE.SYSTEM.norm>
0

>  <SCORE.heavy>
22

>  <SCORE.norm>
-0.302576

>  <RMSD>
7.029

$$$$
lig.pdb
 OpenBabel11021811523D
libRbt.so/2013.1/901 2013/11/27
 22 23  0  0  0  0  0  0  0  0999 V2000
   19.3469  -50.6683  -36.9085 O   0  0  0  0  0  0  0  0  0  0  0  0
   19.7061  -51.7778  -36.5463 C   0  0  0  0  0  0  0  0  0  0  0  0
   20.5249  -51.9475  -35.5083 N   0  0  0  0  0  0  0  0  0  0  0  0
   19.2338  -52.9809  -37.2884 C   0  0  0  0  0  0  0  0  0  0  0  0
   19.6519  -54.3581  -36.9829 C   0  0  0  0  0  0  0  0  0  0  0  0
   20.5805  -54.7412  -35.9274 N   0  0  0  0  0  0  0  0  0  0  0  0
   18.3783  -53.1327  -38.3234 N   0  0  0  0  0  0  0  0  0  0  0  0
   18.2902  -54.4675  -38.6150 C   0  0  0  0  0  0  0  0  0  0  0  0
   19.0644  -55.2171  -37.8003 N   0  0  0  0  0  0  0  0  0  0  0  0
   19.2245  -56.6899  -37.8124 C   0  0  1  0  0  0  0  0  0  0  0  0
   18.6719  -57.2964  -36.5330 C   0  0  1  0  0  0  0  0  0  0  0  0
   18.1541  -58.6364  -36.9893 C   0  0  2  0  0  0  0  0  0  0  0  0
   19.2264  -59.5809  -36.9998 O   0  0  0  0  0  0  0  0  0  0  0  0
   19.7016  -57.4718  -35.5589 O   0  0  0  0  0  0  0  0  0  0  0  0
   18.4939  -57.2810  -38.8935 O   0  0  0  0  0  0  0  0  0  0  0  0
   17.7093  -58.3764  -38.4155 C   0  0  2  0  0  0  0  0  0  0  0  0
   16.2311  -58.0199  -38.4440 C   0  0  0  0  0  0  0  0  0  0  0  0
   15.4824  -59.1731  -38.0639 O   0  0  0  0  0  0  0  0  0  0  0  0
   13.8760  -59.1330  -37.9469 P   0  0  0  0  0  0  0  0  0  0  0  0
   13.4110  -60.4666  -38.4845 O   0  0  0  0  0  0  0  0  0  0  0  0
   13.4990  -57.9513  -38.8086 O   0  0  0  0  0  0  0  0  0  0  0  0
   13.6373  -58.9415  -36.4675 O   0  0  0  0  0  0  0  0  0  0  0  0
  1  2  2  0  0  0  0
  2  4  1  0  0  0  0
  2  3  1  0  0  0  0
  4  7  1  0  0  0  0
  5  9  1  0  0  0  0
  5  4  2  0  0  0  0
  6  5  1  0  0  0  0
  8  7  2  0  0  0  0
  9  8  1  0  0  0  0
 10 15  1  0  0  0  0
 10  9  1  1  0  0  0
 10 11  1  0  0  0  0
 11 14  1  1  0  0  0
 11 12  1  0  0  0  0
 12 13  1  6  0  0  0
 15 16  1  0  0  0  0
 16 12  1  0  0  0  0
 16 17  1  1  0  0  0
 17 18  1  0  0  0  0
 18 19  1  0  0  0  0
 19 21  1  0  0  0  0
 19 20  1  0  0  0  0
 22 19  2  0  0  0  0
M  END
>  <CHROM.1>
176.94210560,65.44478594,-67.33522313,178.19107145,141.53395261,17.52078636
-56.54785961,-37.46038563,0.85791182,-0.27934736,-0.05018944

>  <Name>
lig.pdb

>  <RI>
0

>  <Rbt.Current_Directory>
/home/itssahil/PROJECTS/Mol_Feturizer/New_Systems/rnas/5btp

>  <Rbt.Executable>
rbdock ($Id: //depot/dev/client3/rdock/2013.1/src/exe/rbdock.cxx#4 $)

>  <Rbt.Library>
libRbt.so (2013.1, Build901 2013/11/27)

>  <Rbt.Parameter_File>
/export/apps/rDock/src/rDock_2013.1_src/data/scripts/dock_solv.prm

>  <Rbt.Receptor>
prm/pocket_docking_7.prm

>  <SCORE>
-16.3315

>  <SCORE.INTER>
-16.9513

>  <SCORE.INTER.CONST>
1

>  <SCORE.INTER.POLAR>
0

>  <SCORE.INTER.ROT>
5

>  <SCORE.INTER.SOLV>
18.8491

>  <SCORE.INTER.VDW>
-24.5173

>  <SCORE.INTER.norm>
-0.770515

>  <SCORE.INTRA>
0.619828

>  <SCORE.INTRA.DIHEDRAL>
0.16571

>  <SCORE.INTRA.DIHEDRAL.0>
4.21161

>  <SCORE.INTRA.POLAR>
0

>  <SCORE.INTRA.POLAR.0>
0

>  <SCORE.INTRA.REPUL>
0

>  <SCORE.INTRA.REPUL.0>
0

>  <SCORE.INTRA.SOLV>
0.603766

>  <SCORE.INTRA.SOLV.lig_0>
-41.4168

>  <SCORE.INTRA.VDW>
0.23509

>  <SCORE.INTRA.VDW.0>
-1.62533

>  <SCORE.INTRA.norm>
0.028174

>  <SCORE.RESTR>
0

>  <SCORE.RESTR.CAVITY>
0

>  <SCORE.RESTR.norm>
0

>  <SCORE.SYSTEM>
0

>  <SCORE.SYSTEM.CONST>
0

>  <SCORE.SYSTEM.DIHEDRAL>
0

>  <SCORE.SYSTEM.SOLV>
0

>  <SCORE.SYSTEM.norm>
0

>  <SCORE.heavy>
22

>  <SCORE.norm>
-0.742341

>  <RMSD>
7.117

$$$$
lig.pdb
 OpenBabel11021811523D
libRbt.so/2013.1/901 2013/11/27
 22 23  0  0  0  0  0  0  0  0999 V2000
   23.9347  -64.0896  -36.6848 O   0  0  0  0  0  0  0  0  0  0  0  0
   23.7556  -63.0602  -36.0527 C   0  0  0  0  0  0  0  0  0  0  0  0
   24.3667  -62.8341  -34.8899 N   0  0  0  0  0  0  0  0  0  0  0  0
   22.8180  -62.0287  -36.5800 C   0  0  0  0  0  0  0  0  0  0  0  0
   22.5331  -60.7501  -35.9100 C   0  0  0  0  0  0  0  0  0  0  0  0
   23.1146  -60.3137  -34.6472 N   0  0  0  0  0  0  0  0  0  0  0  0
   22.0609  -61.9750  -37.6982 N   0  0  0  0  0  0  0  0  0  0  0  0
   21.3851  -60.7843  -37.7019 C   0  0  0  0  0  0  0  0  0  0  0  0
   21.6704  -60.0354  -36.6144 N   0  0  0  0  0  0  0  0  0  0  0  0
   21.1361  -58.6954  -36.2769 C   0  0  1  0  0  0  0  0  0  0  0  0
   21.2016  -57.7758  -37.4852 C   0  0  1  0  0  0  0  0  0  0  0  0
   19.9983  -56.8872  -37.3005 C   0  0  2  0  0  0  0  0  0  0  0  0
   20.3368  -55.8048  -36.4310 O   0  0  0  0  0  0  0  0  0  0  0  0
   22.3973  -56.9947  -37.4745 O   0  0  0  0  0  0  0  0  0  0  0  0
   19.7577  -58.7694  -35.8941 O   0  0  0  0  0  0  0  0  0  0  0  0
   18.9974  -57.7880  -36.6032 C   0  0  2  0  0  0  0  0  0  0  0  0
   18.0956  -58.4576  -37.6285 C   0  0  0  0  0  0  0  0  0  0  0  0
   17.2831  -57.4550  -38.2365 O   0  0  0  0  0  0  0  0  0  0  0  0
   16.0618  -57.8398  -39.2145 P   0  0  0  0  0  0  0  0  0  0  0  0
   16.7134  -58.4588  -40.4293 O   0  0  0  0  0  0  0  0  0  0  0  0
   15.3998  -56.5078  -39.4765 O   0  0  0  0  0  0  0  0  0  0  0  0
   15.2427  -58.8041  -38.3890 O   0  0  0  0  0  0  0  0  0  0  0  0
  1  2  2  0  0  0  0
  2  4  1  0  0  0  0
  2  3  1  0  0  0  0
  4  7  1  0  0  0  0
  5  9  1  0  0  0  0
  5  4  2  0  0  0  0
  6  5  1  0  0  0  0
  8  7  2  0  0  0  0
  9  8  1  0  0  0  0
 10 15  1  0  0  0  0
 10  9  1  6  0  0  0
 10 11  1  0  0  0  0
 11 14  1  1  0  0  0
 11 12  1  0  0  0  0
 12 13  1  1  0  0  0
 15 16  1  0  0  0  0
 16 12  1  0  0  0  0
 16 17  1  6  0  0  0
 17 18  1  0  0  0  0
 18 19  1  0  0  0  0
 19 21  1  0  0  0  0
 19 20  1  0  0  0  0
 22 19  2  0  0  0  0
M  END
>  <CHROM.1>
-179.55101910,133.09094712,-67.17133276,-170.92878318,-66.66814510,20.03083582
-59.20926193,-37.32347971,0.46398052,0.48331519,-2.95214249

>  <Name>
lig.pdb

>  <RI>
0

>  <Rbt.Current_Directory>
/home/itssahil/PROJECTS/Mol_Feturizer/New_Systems/rnas/5btp

>  <Rbt.Executable>
rbdock ($Id: //depot/dev/client3/rdock/2013.1/src/exe/rbdock.cxx#4 $)

>  <Rbt.Library>
libRbt.so (2013.1, Build901 2013/11/27)

>  <Rbt.Parameter_File>
/export/apps/rDock/src/rDock_2013.1_src/data/scripts/dock_solv.prm

>  <Rbt.Receptor>
prm/pocket_docking_8.prm

>  <SCORE>
-9.83434

>  <SCORE.INTER>
-9.25847

>  <SCORE.INTER.CONST>
1

>  <SCORE.INTER.POLAR>
0

>  <SCORE.INTER.ROT>
5

>  <SCORE.INTER.SOLV>
14.875

>  <SCORE.INTER.VDW>
-18.064

>  <SCORE.INTER.norm>
-0.420839

>  <SCORE.INTRA>
-0.671709

>  <SCORE.INTRA.DIHEDRAL>
-1.13876

>  <SCORE.INTRA.DIHEDRAL.0>
4.21161

>  <SCORE.INTRA.POLAR>
0

>  <SCORE.INTRA.POLAR.0>
0

>  <SCORE.INTRA.REPUL>
0

>  <SCORE.INTRA.REPUL.0>
0

>  <SCORE.INTRA.SOLV>
0.0412307

>  <SCORE.INTRA.SOLV.lig_0>
-41.4168

>  <SCORE.INTRA.VDW>
-0.122944

>  <SCORE.INTRA.VDW.0>
-1.62533

>  <SCORE.INTRA.norm>
-0.0305322

>  <SCORE.RESTR>
0.0958407

>  <SCORE.RESTR.CAVITY>
0.0958407

>  <SCORE.RESTR.norm>
0.0043564

>  <SCORE.SYSTEM>
0

>  <SCORE.SYSTEM.CONST>
0

>  <SCORE.SYSTEM.DIHEDRAL>
0

>  <SCORE.SYSTEM.SOLV>
0

>  <SCORE.SYSTEM.norm>
0

>  <SCORE.heavy>
22

>  <SCORE.norm>
-0.447015

>  <RMSD>
7.121

$$$$
lig.pdb
 OpenBabel11021811523D
libRbt.so/2013.1/901 2013/11/27
 22 23  0  0  0  0  0  0  0  0999 V2000
   23.5639  -61.2367  -31.0631 O   0  0  0  0  0  0  0  0  0  0  0  0
   23.5545  -60.1629  -31.6444 C   0  0  0  0  0  0  0  0  0  0  0  0
   24.3974  -59.1818  -31.3222 N   0  0  0  0  0  0  0  0  0  0  0  0
   22.5671  -59.9274  -32.7356 C   0  0  0  0  0  0  0  0  0  0  0  0
   22.4707  -58.6793  -33.5088 C   0  0  0  0  0  0  0  0  0  0  0  0
   23.3123  -57.5049  -33.3196 N   0  0  0  0  0  0  0  0  0  0  0  0
   21.6008  -60.7060  -33.2708 N   0  0  0  0  0  0  0  0  0  0  0  0
   20.9818  -59.9983  -34.2660 C   0  0  0  0  0  0  0  0  0  0  0  0
   21.5091  -58.7634  -34.4141 N   0  0  0  0  0  0  0  0  0  0  0  0
   21.1033  -57.7200  -35.3844 C   0  0  1  0  0  0  0  0  0  0  0  0
   21.5277  -58.1070  -36.7916 C   0  0  1  0  0  0  0  0  0  0  0  0
   20.4417  -57.5099  -37.6494 C   0  0  2  0  0  0  0  0  0  0  0  0
   20.7445  -56.1382  -37.9118 O   0  0  0  0  0  0  0  0  0  0  0  0
   22.7916  -57.5316  -37.1254 O   0  0  0  0  0  0  0  0  0  0  0  0
   19.6793  -57.5673  -35.4147 O   0  0  0  0  0  0  0  0  0  0  0  0
   19.2118  -57.5852  -36.7656 C   0  0  2  0  0  0  0  0  0  0  0  0
   18.4478  -58.8705  -37.0435 C   0  0  0  0  0  0  0  0  0  0  0  0
   18.0380  -58.8643  -38.4099 O   0  0  0  0  0  0  0  0  0  0  0  0
   16.8674  -57.8888  -38.9334 P   0  0  0  0  0  0  0  0  0  0  0  0
   17.4318  -56.4934  -38.7994 O   0  0  0  0  0  0  0  0  0  0  0  0
   15.7248  -58.1888  -37.9923 O   0  0  0  0  0  0  0  0  0  0  0  0
   16.6494  -58.3372  -40.3595 O   0  0  0  0  0  0  0  0  0  0  0  0
  1  2  2  0  0  0  0
  2  4  1  0  0  0  0
  2  3  1  0  0  0  0
  4  7  1  0  0  0  0
  5  9  1  0  0  0  0
  5  4  2  0  0  0  0
  6  5  1  0  0  0  0
  8  7  2  0  0  0  0
  9  8  1  0  0  0  0
 10 15  1  0  0  0  0
 10  9  1  1  0  0  0
 10 11  1  0  0  0  0
 11 14  1  6  0  0  0
 11 12  1  0  0  0  0
 12 13  1  1  0  0  0
 15 16  1  0  0  0  0
 16 12  1  0  0  0  0
 16 17  1  6  0  0  0
 17 18  1  0  0  0  0
 18 19  1  0  0  0  0
 19 21  1  0  0  0  0
 19 20  1  0  0  0  0
 22 19  2  0  0  0  0
M  END
>  <CHROM.1>
-179.56660033,108.35759452,-60.88372764,-71.83079720,66.87319744,20.28000192
-58.43000523,-35.93008861,0.74973394,0.44645927,2.29044304

>  <Name>
lig.pdb

>  <RI>
0

>  <Rbt.Current_Directory>
/home/itssahil/PROJECTS/Mol_Feturizer/New_Systems/rnas/5btp

>  <Rbt.Executable>
rbdock ($Id: //depot/dev/client3/rdock/2013.1/src/exe/rbdock.cxx#4 $)

>  <Rbt.Library>
libRbt.so (2013.1, Build901 2013/11/27)

>  <Rbt.Parameter_File>
/export/apps/rDock/src/rDock_2013.1_src/data/scripts/dock_solv.prm

>  <Rbt.Receptor>
prm/pocket_docking_5.prm

>  <SCORE>
-9.22006

>  <SCORE.INTER>
-8.4961

>  <SCORE.INTER.CONST>
1

>  <SCORE.INTER.POLAR>
0

>  <SCORE.INTER.ROT>
5

>  <SCORE.INTER.SOLV>
13.31

>  <SCORE.INTER.VDW>
-17.0341

>  <SCORE.INTER.norm>
-0.386186

>  <SCORE.INTRA>
-0.724724

>  <SCORE.INTRA.DIHEDRAL>
-1.03697

>  <SCORE.INTRA.DIHEDRAL.0>
4.21161

>  <SCORE.INTRA.POLAR>
0

>  <SCORE.INTRA.POLAR.0>
0

>  <SCORE.INTRA.REPUL>
0

>  <SCORE.INTRA.REPUL.0>
0

>  <SCORE.INTRA.SOLV>
0.746619

>  <SCORE.INTRA.SOLV.lig_0>
-41.4168

>  <SCORE.INTRA.VDW>
-0.57955

>  <SCORE.INTRA.VDW.0>
-1.62533

>  <SCORE.INTRA.norm>
-0.032942

>  <SCORE.RESTR>
0.000766934

>  <SCORE.RESTR.CAVITY>
0.000766934

>  <SCORE.RESTR.norm>
3.48606e-05

>  <SCORE.SYSTEM>
0

>  <SCORE.SYSTEM.CONST>
0

>  <SCORE.SYSTEM.DIHEDRAL>
0

>  <SCORE.SYSTEM.SOLV>
0

>  <SCORE.SYSTEM.norm>
0

>  <SCORE.heavy>
22

>  <SCORE.norm>
-0.419093

>  <RMSD>
7.139

$$$$
lig.pdb
 OpenBabel11021811523D
libRbt.so/2013.1/901 2013/11/27
 22 23  0  0  0  0  0  0  0  0999 V2000
   24.5855  -60.4117  -33.5304 O   0  0  0  0  0  0  0  0  0  0  0  0
   24.3065  -60.9810  -34.5740 C   0  0  0  0  0  0  0  0  0  0  0  0
   24.8935  -62.1235  -34.9301 N   0  0  0  0  0  0  0  0  0  0  0  0
   23.2942  -60.3819  -35.4891 C   0  0  0  0  0  0  0  0  0  0  0  0
   22.5882  -59.1177  -35.2277 C   0  0  0  0  0  0  0  0  0  0  0  0
   22.7699  -58.2804  -34.0490 N   0  0  0  0  0  0  0  0  0  0  0  0
   22.8030  -60.7766  -36.6846 N   0  0  0  0  0  0  0  0  0  0  0  0
   21.8906  -59.8451  -37.1022 C   0  0  0  0  0  0  0  0  0  0  0  0
   21.7573  -58.8331  -36.2175 N   0  0  0  0  0  0  0  0  0  0  0  0
   20.8719  -57.6503  -36.3271 C   0  0  1  0  0  0  0  0  0  0  0  0
   20.8198  -57.1550  -37.7631 C   0  0  1  0  0  0  0  0  0  0  0  0
   19.4191  -56.6116  -37.8835 C   0  0  2  0  0  0  0  0  0  0  0  0
   19.3875  -55.2687  -37.3962 O   0  0  0  0  0  0  0  0  0  0  0  0
   21.7727  -56.1144  -37.9845 O   0  0  0  0  0  0  0  0  0  0  0  0
   19.5264  -57.9751  -35.9579 O   0  0  0  0  0  0  0  0  0  0  0  0
   18.6154  -57.4961  -36.9501 C   0  0  2  0  0  0  0  0  0  0  0  0
   18.0154  -58.6606  -37.7228 C   0  0  0  0  0  0  0  0  0  0  0  0
   16.6529  -58.3538  -38.0134 O   0  0  0  0  0  0  0  0  0  0  0  0
   16.2377  -57.5392  -39.3399 P   0  0  0  0  0  0  0  0  0  0  0  0
   16.9934  -56.2337  -39.2500 O   0  0  0  0  0  0  0  0  0  0  0  0
   14.7401  -57.3999  -39.2020 O   0  0  0  0  0  0  0  0  0  0  0  0
   16.6902  -58.4436  -40.4623 O   0  0  0  0  0  0  0  0  0  0  0  0
  1  2  2  0  0  0  0
  2  4  1  0  0  0  0
  2  3  1  0  0  0  0
  4  7  1  0  0  0  0
  5  9  1  0  0  0  0
  5  4  2  0  0  0  0
  6  5  1  0  0  0  0
  8  7  2  0  0  0  0
  9  8  1  0  0  0  0
 10 15  1  0  0  0  0
 10  9  1  6  0  0  0
 10 11  1  0  0  0  0
 11 14  1  1  0  0  0
 11 12  1  0  0  0  0
 12 13  1  1  0  0  0
 15 16  1  0  0  0  0
 16 12  1  0  0  0  0
 16 17  1  6  0  0  0
 17 18  1  0  0  0  0
 18 19  1  0  0  0  0
 19 21  1  0  0  0  0
 19 20  1  0  0  0  0
 22 19  2  0  0  0  0
M  END
>  <CHROM.1>
0.28414513,141.75448075,-99.50616661,87.72586904,-57.75980194,20.04801013
-58.32748063,-37.10432509,0.34785004,0.51877767,3.12965570

>  <Name>
lig.pdb

>  <RI>
0

>  <Rbt.Current_Directory>
/home/itssahil/PROJECTS/Mol_Feturizer/New_Systems/rnas/5btp

>  <Rbt.Executable>
rbdock ($Id: //depot/dev/client3/rdock/2013.1/src/exe/rbdock.cxx#4 $)

>  <Rbt.Library>
libRbt.so (2013.1, Build901 2013/11/27)

>  <Rbt.Parameter_File>
/export/apps/rDock/src/rDock_2013.1_src/data/scripts/dock_solv.prm

>  <Rbt.Receptor>
prm/pocket_docking_8.prm

>  <SCORE>
-8.28852

>  <SCORE.INTER>
-10.8742

>  <SCORE.INTER.CONST>
1

>  <SCORE.INTER.POLAR>
0

>  <SCORE.INTER.ROT>
5

>  <SCORE.INTER.SOLV>
15.1412

>  <SCORE.INTER.VDW>
-19.2299

>  <SCORE.INTER.norm>
-0.494284

>  <SCORE.INTRA>
2.51703

>  <SCORE.INTRA.DIHEDRAL>
5.27011

>  <SCORE.INTRA.DIHEDRAL.0>
4.21161

>  <SCORE.INTRA.POLAR>
0

>  <SCORE.INTRA.POLAR.0>
0

>  <SCORE.INTRA.REPUL>
0

>  <SCORE.INTRA.REPUL.0>
0

>  <SCORE.INTRA.SOLV>
0.712894

>  <SCORE.INTRA.SOLV.lig_0>
-41.4168

>  <SCORE.INTRA.VDW>
-0.474473

>  <SCORE.INTRA.VDW.0>
-1.62533

>  <SCORE.INTRA.norm>
0.11441

>  <SCORE.RESTR>
0.0687016

>  <SCORE.RESTR.CAVITY>
0.0687016

>  <SCORE.RESTR.norm>
0.0031228

>  <SCORE.SYSTEM>
0

>  <SCORE.SYSTEM.CONST>
0

>  <SCORE.SYSTEM.DIHEDRAL>
0

>  <SCORE.SYSTEM.SOLV>
0

>  <SCORE.SYSTEM.norm>
0

>  <SCORE.heavy>
22

>  <SCORE.norm>
-0.376751

>  <RMSD>
7.163

$$$$
lig.pdb
 OpenBabel11021811523D
libRbt.so/2013.1/901 2013/11/27
 22 23  0  0  0  0  0  0  0  0999 V2000
   21.4521  -58.2224  -29.4598 O   0  0  0  0  0  0  0  0  0  0  0  0
   22.1114  -58.0124  -30.4660 C   0  0  0  0  0  0  0  0  0  0  0  0
   23.0774  -57.0943  -30.4945 N   0  0  0  0  0  0  0  0  0  0  0  0
   21.8256  -58.7881  -31.7060 C   0  0  0  0  0  0  0  0  0  0  0  0
   22.6106  -58.6842  -32.9461 C   0  0  0  0  0  0  0  0  0  0  0  0
   23.7640  -57.8155  -33.1417 N   0  0  0  0  0  0  0  0  0  0  0  0
   20.8823  -59.7084  -32.0055 N   0  0  0  0  0  0  0  0  0  0  0  0
   21.0772  -60.1177  -33.2974 C   0  0  0  0  0  0  0  0  0  0  0  0
   22.1292  -59.4963  -33.8734 N   0  0  0  0  0  0  0  0  0  0  0  0
   22.6424  -59.6818  -35.2508 C   0  0  1  0  0  0  0  0  0  0  0  0
   22.2868  -61.0652  -35.7701 C   0  0  1  0  0  0  0  0  0  0  0  0
   22.0990  -60.8346  -37.2477 C   0  0  2  0  0  0  0  0  0  0  0  0
   23.3682  -60.8914  -37.9019 O   0  0  0  0  0  0  0  0  0  0  0  0
   23.3527  -61.9893  -35.5471 O   0  0  0  0  0  0  0  0  0  0  0  0
   22.0501  -58.7415  -36.1547 O   0  0  0  0  0  0  0  0  0  0  0  0
   21.5681  -59.4161  -37.3194 C   0  0  2  0  0  0  0  0  0  0  0  0
   20.0473  -59.4284  -37.3315 C   0  0  0  0  0  0  0  0  0  0  0  0
   19.5903  -58.1546  -37.7829 O   0  0  0  0  0  0  0  0  0  0  0  0
   18.0255  -57.8606  -38.0299 P   0  0  0  0  0  0  0  0  0  0  0  0
   17.3479  -58.2313  -36.7310 O   0  0  0  0  0  0  0  0  0  0  0  0
   17.6850  -58.7680  -39.1883 O   0  0  0  0  0  0  0  0  0  0  0  0
   17.9927  -56.3844  -38.3492 O   0  0  0  0  0  0  0  0  0  0  0  0
  1  2  2  0  0  0  0
  2  4  1  0  0  0  0
  2  3  1  0  0  0  0
  4  7  1  0  0  0  0
  5  9  1  0  0  0  0
  5  4  2  0  0  0  0
  6  5  1  0  0  0  0
  8  7  2  0  0  0  0
  9  8  1  0  0  0  0
 10 15  1  0  0  0  0
 10  9  1  1  0  0  0
 10 11  1  0  0  0  0
 11 14  1  6  0  0  0
 11 12  1  0  0  0  0
 12 13  1  6  0  0  0
 15 16  1  0  0  0  0
 16 12  1  0  0  0  0
 16 17  1  1  0  0  0
 17 18  1  0  0  0  0
 18 19  1  0  0  0  0
 19 21  1  0  0  0  0
 19 20  1  0  0  0  0
 22 19  2  0  0  0  0
M  END
>  <CHROM.1>
-175.75539794,153.99999479,-163.40002632,174.99312317,54.12134351,20.99202199
-58.98743131,-35.27084496,0.94945642,-0.59208796,1.23674129

>  <Name>
lig.pdb

>  <RI>
0

>  <Rbt.Current_Directory>
/home/itssahil/PROJECTS/Mol_Feturizer/New_Systems/rnas/5btp

>  <Rbt.Executable>
rbdock ($Id: //depot/dev/client3/rdock/2013.1/src/exe/rbdock.cxx#4 $)

>  <Rbt.Library>
libRbt.so (2013.1, Build901 2013/11/27)

>  <Rbt.Parameter_File>
/export/apps/rDock/src/rDock_2013.1_src/data/scripts/dock_solv.prm

>  <Rbt.Receptor>
prm/pocket_docking_6.prm

>  <SCORE>
-6.74472

>  <SCORE.INTER>
-6.30801

>  <SCORE.INTER.CONST>
1

>  <SCORE.INTER.POLAR>
0

>  <SCORE.INTER.ROT>
5

>  <SCORE.INTER.SOLV>
12.2019

>  <SCORE.INTER.VDW>
-15.206

>  <SCORE.INTER.norm>
-0.286728

>  <SCORE.INTRA>
-0.437623

>  <SCORE.INTRA.DIHEDRAL>
-0.642543

>  <SCORE.INTRA.DIHEDRAL.0>
4.21161

>  <SCORE.INTRA.POLAR>
0

>  <SCORE.INTRA.POLAR.0>
0

>  <SCORE.INTRA.REPUL>
0

>  <SCORE.INTRA.REPUL.0>
0

>  <SCORE.INTRA.SOLV>
-0.393712

>  <SCORE.INTRA.SOLV.lig_0>
-41.4168

>  <SCORE.INTRA.VDW>
0.0805042

>  <SCORE.INTRA.VDW.0>
-1.62533

>  <SCORE.INTRA.norm>
-0.019892

>  <SCORE.RESTR>
0.000912526

>  <SCORE.RESTR.CAVITY>
0.000912526

>  <SCORE.RESTR.norm>
4.14784e-05

>  <SCORE.SYSTEM>
0

>  <SCORE.SYSTEM.CONST>
0

>  <SCORE.SYSTEM.DIHEDRAL>
0

>  <SCORE.SYSTEM.SOLV>
0

>  <SCORE.SYSTEM.norm>
0

>  <SCORE.heavy>
22

>  <SCORE.norm>
-0.306578

>  <RMSD>
7.171

$$$$
lig.pdb
 OpenBabel11021811523D
libRbt.so/2013.1/901 2013/11/27
 22 23  0  0  0  0  0  0  0  0999 V2000
   24.3109  -59.8092  -32.8507 O   0  0  0  0  0  0  0  0  0  0  0  0
   24.0736  -60.5252  -33.8109 C   0  0  0  0  0  0  0  0  0  0  0  0
   24.6525  -61.7167  -33.9594 N   0  0  0  0  0  0  0  0  0  0  0  0
   23.1234  -60.0565  -34.8591 C   0  0  0  0  0  0  0  0  0  0  0  0
   22.4291  -58.7597  -34.8260 C   0  0  0  0  0  0  0  0  0  0  0  0
   22.5636  -57.7596  -33.7748 N   0  0  0  0  0  0  0  0  0  0  0  0
   22.6894  -60.6179  -36.0092 N   0  0  0  0  0  0  0  0  0  0  0  0
   21.8188  -59.7482  -36.6093 C   0  0  0  0  0  0  0  0  0  0  0  0
   21.6580  -58.6151  -35.8917 N   0  0  0  0  0  0  0  0  0  0  0  0
   20.8028  -57.4516  -36.2231 C   0  0  1  0  0  0  0  0  0  0  0  0
   20.8940  -57.1283  -37.7053 C   0  0  1  0  0  0  0  0  0  0  0  0
   19.5184  -56.6001  -38.0222 C   0  0  2  0  0  0  0  0  0  0  0  0
   19.4584  -55.2091  -37.7003 O   0  0  0  0  0  0  0  0  0  0  0  0
   21.8773  -56.1229  -37.9542 O   0  0  0  0  0  0  0  0  0  0  0  0
   19.4241  -57.7280  -35.9493 O   0  0  0  0  0  0  0  0  0  0  0  0
   18.6180  -57.3671  -37.0734 C   0  0  2  0  0  0  0  0  0  0  0  0
   18.0788  -58.6131  -37.7589 C   0  0  0  0  0  0  0  0  0  0  0  0
   16.6947  -58.4099  -38.0384 O   0  0  0  0  0  0  0  0  0  0  0  0
   16.2102  -57.5618  -39.3197 P   0  0  0  0  0  0  0  0  0  0  0  0
   14.7124  -57.4368  -39.1628 O   0  0  0  0  0  0  0  0  0  0  0  0
   16.6424  -58.4221  -40.4835 O   0  0  0  0  0  0  0  0  0  0  0  0
   16.9609  -56.2582  -39.1810 O   0  0  0  0  0  0  0  0  0  0  0  0
  1  2  2  0  0  0  0
  2  4  1  0  0  0  0
  2  3  1  0  0  0  0
  4  7  1  0  0  0  0
  5  9  1  0  0  0  0
  5  4  2  0  0  0  0
  6  5  1  0  0  0  0
  8  7  2  0  0  0  0
  9  8  1  0  0  0  0
 10 15  1  0  0  0  0
 10  9  1  6  0  0  0
 10 11  1  0  0  0  0
 11 14  1  1  0  0  0
 11 12  1  0  0  0  0
 12 13  1  1  0  0  0
 15 16  1  0  0  0  0
 16 12  1  0  0  0  0
 16 17  1  6  0  0  0
 17 18  1  0  0  0  0
 18 19  1  0  0  0  0
 19 21  1  0  0  0  0
 19 20  1  0  0  0  0
 22 19  2  0  0  0  0
M  END
>  <CHROM.1>
0.02334641,138.80227439,-107.85069175,80.67204978,-173.19893509,19.98805796
-58.17357408,-36.90479213,0.40487141,0.53542883,2.92663691

>  <Name>
lig.pdb

>  <RI>
0

>  <Rbt.Current_Directory>
/home/itssahil/PROJECTS/Mol_Feturizer/New_Systems/rnas/5btp

>  <Rbt.Executable>
rbdock ($Id: //depot/dev/client3/rdock/2013.1/src/exe/rbdock.cxx#4 $)

>  <Rbt.Library>
libRbt.so (2013.1, Build901 2013/11/27)

>  <Rbt.Parameter_File>
/export/apps/rDock/src/rDock_2013.1_src/data/scripts/dock_solv.prm

>  <Rbt.Receptor>
prm/pocket_docking_3.prm

>  <SCORE>
-7.52943

>  <SCORE.INTER>
-10.4754

>  <SCORE.INTER.CONST>
1

>  <SCORE.INTER.POLAR>
0

>  <SCORE.INTER.ROT>
5

>  <SCORE.INTER.SOLV>
13.9328

>  <SCORE.INTER.VDW>
-18.5612

>  <SCORE.INTER.norm>
-0.476154

>  <SCORE.INTRA>
2.92578

>  <SCORE.INTRA.DIHEDRAL>
4.92928

>  <SCORE.INTRA.DIHEDRAL.0>
4.21161

>  <SCORE.INTRA.POLAR>
0

>  <SCORE.INTRA.POLAR.0>
0

>  <SCORE.INTRA.REPUL>
0

>  <SCORE.INTRA.REPUL.0>
0

>  <SCORE.INTRA.SOLV>
1.52782

>  <SCORE.INTRA.SOLV.lig_0>
-41.4168

>  <SCORE.INTRA.VDW>
-0.302777

>  <SCORE.INTRA.VDW.0>
-1.62533

>  <SCORE.INTRA.norm>
0.13299

>  <SCORE.RESTR>
0.020174

>  <SCORE.RESTR.CAVITY>
0.020174

>  <SCORE.RESTR.norm>
0.000917

>  <SCORE.SYSTEM>
0

>  <SCORE.SYSTEM.CONST>
0

>  <SCORE.SYSTEM.DIHEDRAL>
0

>  <SCORE.SYSTEM.SOLV>
0

>  <SCORE.SYSTEM.norm>
0

>  <SCORE.heavy>
22

>  <SCORE.norm>
-0.342247

>  <RMSD>
7.178

$$$$
lig.pdb
 OpenBabel11021811523D
libRbt.so/2013.1/901 2013/11/27
 22 23  0  0  0  0  0  0  0  0999 V2000
   26.0605  -55.3641  -37.6212 O   0  0  0  0  0  0  0  0  0  0  0  0
   25.9969  -56.4447  -37.0561 C   0  0  0  0  0  0  0  0  0  0  0  0
   27.0678  -57.0115  -36.5005 N   0  0  0  0  0  0  0  0  0  0  0  0
   24.6936  -57.1649  -36.9937 C   0  0  0  0  0  0  0  0  0  0  0  0
   23.4389  -56.6561  -37.5698 C   0  0  0  0  0  0  0  0  0  0  0  0
   23.2885  -55.3881  -38.2719 N   0  0  0  0  0  0  0  0  0  0  0  0
   24.3375  -58.3558  -36.4633 N   0  0  0  0  0  0  0  0  0  0  0  0
   23.0015  -58.5460  -36.6942 C   0  0  0  0  0  0  0  0  0  0  0  0
   22.4508  -57.5129  -37.3682 N   0  0  0  0  0  0  0  0  0  0  0  0
   21.0402  -57.3652  -37.7965 C   0  0  1  0  0  0  0  0  0  0  0  0
   20.1008  -57.9123  -36.7345 C   0  0  1  0  0  0  0  0  0  0  0  0
   18.8890  -57.0256  -36.8646 C   0  0  2  0  0  0  0  0  0  0  0  0
   18.0434  -57.5269  -37.9018 O   0  0  0  0  0  0  0  0  0  0  0  0
   19.7496  -59.2697  -37.0065 O   0  0  0  0  0  0  0  0  0  0  0  0
   20.6955  -55.9864  -37.9758 O   0  0  0  0  0  0  0  0  0  0  0  0
   19.4702  -55.6944  -37.2997 C   0  0  2  0  0  0  0  0  0  0  0  0
   19.7329  -54.8179  -36.0848 C   0  0  0  0  0  0  0  0  0  0  0  0
   18.4789  -54.4753  -35.4972 O   0  0  0  0  0  0  0  0  0  0  0  0
   18.3863  -53.4924  -34.2239 P   0  0  0  0  0  0  0  0  0  0  0  0
   16.9197  -53.4582  -33.8617 O   0  0  0  0  0  0  0  0  0  0  0  0
   18.9237  -52.1864  -34.7593 O   0  0  0  0  0  0  0  0  0  0  0  0
   19.2651  -54.1666  -33.1965 O   0  0  0  0  0  0  0  0  0  0  0  0
  1  2  2  0  0  0  0
  2  4  1  0  0  0  0
  2  3  1  0  0  0  0
  4  7  1  0  0  0  0
  5  9  1  0  0  0  0
  5  4  2  0  0  0  0
  6  5  1  0  0  0  0
  8  7  2  0  0  0  0
  9  8  1  0  0  0  0
 10 15  1  0  0  0  0
 10  9  1  1  0  0  0
 10 11  1  0  0  0  0
 11 14  1  6  0  0  0
 11 12  1  0  0  0  0
 12 13  1  6  0  0  0
 15 16  1  0  0  0  0
 16 12  1  0  0  0  0
 16 17  1  1  0  0  0
 17 18  1  0  0  0  0
 18 19  1  0  0  0  0
 19 21  1  0  0  0  0
 19 20  1  0  0  0  0
 22 19  2  0  0  0  0
M  END
>  <CHROM.1>
-0.41479388,-142.10103966,-66.70635578,-177.07731723,-176.49141541,21.08698383
-55.96629781,-36.36777542,-0.52639874,0.08262383,0.54027899

>  <Name>
lig.pdb

>  <RI>
0

>  <Rbt.Current_Directory>
/home/itssahil/PROJECTS/Mol_Feturizer/New_Systems/rnas/5btp

>  <Rbt.Executable>
rbdock ($Id: //depot/dev/client3/rdock/2013.1/src/exe/rbdock.cxx#4 $)

>  <Rbt.Library>
libRbt.so (2013.1, Build901 2013/11/27)

>  <Rbt.Parameter_File>
/export/apps/rDock/src/rDock_2013.1_src/data/scripts/dock_solv.prm

>  <Rbt.Receptor>
prm/pocket_docking_7.prm

>  <SCORE>
-6.29123

>  <SCORE.INTER>
-5.86087

>  <SCORE.INTER.CONST>
1

>  <SCORE.INTER.POLAR>
0

>  <SCORE.INTER.ROT>
5

>  <SCORE.INTER.SOLV>
12.6058

>  <SCORE.INTER.VDW>
-15.0425

>  <SCORE.INTER.norm>
-0.266403

>  <SCORE.INTRA>
-0.430357

>  <SCORE.INTRA.DIHEDRAL>
-1.55643

>  <SCORE.INTRA.DIHEDRAL.0>
4.21161

>  <SCORE.INTRA.POLAR>
0

>  <SCORE.INTRA.POLAR.0>
0

>  <SCORE.INTRA.REPUL>
0

>  <SCORE.INTRA.REPUL.0>
0

>  <SCORE.INTRA.SOLV>
0.443304

>  <SCORE.INTRA.SOLV.lig_0>
-41.4168

>  <SCORE.INTRA.VDW>
0.126208

>  <SCORE.INTRA.VDW.0>
-1.62533

>  <SCORE.INTRA.norm>
-0.0195617

>  <SCORE.RESTR>
0

>  <SCORE.RESTR.CAVITY>
0

>  <SCORE.RESTR.norm>
0

>  <SCORE.SYSTEM>
0

>  <SCORE.SYSTEM.CONST>
0

>  <SCORE.SYSTEM.DIHEDRAL>
0

>  <SCORE.SYSTEM.SOLV>
0

>  <SCORE.SYSTEM.norm>
0

>  <SCORE.heavy>
22

>  <SCORE.norm>
-0.285965

>  <RMSD>
7.204

$$$$
lig.pdb
 OpenBabel11021811523D
libRbt.so/2013.1/901 2013/11/27
 22 23  0  0  0  0  0  0  0  0999 V2000
   24.5013  -62.5468  -33.2594 O   0  0  0  0  0  0  0  0  0  0  0  0
   24.3940  -61.3324  -33.1902 C   0  0  0  0  0  0  0  0  0  0  0  0
   25.0329  -60.6221  -32.2606 N   0  0  0  0  0  0  0  0  0  0  0  0
   23.5147  -60.6168  -34.1577 C   0  0  0  0  0  0  0  0  0  0  0  0
   23.3440  -59.1559  -34.1962 C   0  0  0  0  0  0  0  0  0  0  0  0
   23.9972  -58.2083  -33.3026 N   0  0  0  0  0  0  0  0  0  0  0  0
   22.7261  -61.0537  -35.1644 N   0  0  0  0  0  0  0  0  0  0  0  0
   22.1368  -59.9658  -35.7508 C   0  0  0  0  0  0  0  0  0  0  0  0
   22.5110  -58.8081  -35.1639 N   0  0  0  0  0  0  0  0  0  0  0  0
   22.0847  -57.4357  -35.5240 C   0  0  1  0  0  0  0  0  0  0  0  0
   22.0809  -57.2578  -37.0334 C   0  0  1  0  0  0  0  0  0  0  0  0
   20.9507  -56.2859  -37.2572 C   0  0  2  0  0  0  0  0  0  0  0  0
   21.4301  -54.9515  -37.0793 O   0  0  0  0  0  0  0  0  0  0  0  0
   23.3120  -56.6953  -37.4894 O   0  0  0  0  0  0  0  0  0  0  0  0
   20.7484  -57.1752  -35.0785 O   0  0  0  0  0  0  0  0  0  0  0  0
   19.9761  -56.6146  -36.1430 C   0  0  2  0  0  0  0  0  0  0  0  0
   18.9437  -57.6184  -36.6324 C   0  0  0  0  0  0  0  0  0  0  0  0
   18.1686  -57.0027  -37.6596 O   0  0  0  0  0  0  0  0  0  0  0  0
   17.0788  -57.8350  -38.5054 P   0  0  0  0  0  0  0  0  0  0  0  0
   17.8473  -58.9899  -39.1047 O   0  0  0  0  0  0  0  0  0  0  0  0
   16.5862  -56.8265  -39.5161 O   0  0  0  0  0  0  0  0  0  0  0  0
   16.0614  -58.2388  -37.4641 O   0  0  0  0  0  0  0  0  0  0  0  0
  1  2  2  0  0  0  0
  2  4  1  0  0  0  0
  2  3  1  0  0  0  0
  4  7  1  0  0  0  0
  5  9  1  0  0  0  0
  5  4  2  0  0  0  0
  6  5  1  0  0  0  0
  8  7  2  0  0  0  0
  9  8  1  0  0  0  0
 10 15  1  0  0  0  0
 10  9  1  6  0  0  0
 10 11  1  0  0  0  0
 11 14  1  1  0  0  0
 11 12  1  0  0  0  0
 12 13  1  1  0  0  0
 15 16  1  0  0  0  0
 16 12  1  0  0  0  0
 16 17  1  6  0  0  0
 17 18  1  0  0  0  0
 18 19  1  0  0  0  0
 19 21  1  0  0  0  0
 19 20  1  0  0  0  0
 22 19  2  0  0  0  0
M  END
>  <CHROM.1>
-177.92842872,137.07033396,-64.64673923,173.69831191,-56.38483086,20.91561438
-58.33823982,-36.16967000,0.53957880,0.47433687,2.80032272

>  <Name>
lig.pdb

>  <RI>
0

>  <Rbt.Current_Directory>
/home/itssahil/PROJECTS/Mol_Feturizer/New_Systems/rnas/5btp

>  <Rbt.Executable>
rbdock ($Id: //depot/dev/client3/rdock/2013.1/src/exe/rbdock.cxx#4 $)

>  <Rbt.Library>
libRbt.so (2013.1, Build901 2013/11/27)

>  <Rbt.Parameter_File>
/export/apps/rDock/src/rDock_2013.1_src/data/scripts/dock_solv.prm

>  <Rbt.Receptor>
prm/pocket_docking_3.prm

>  <SCORE>
-5.83242

>  <SCORE.INTER>
-4.98119

>  <SCORE.INTER.CONST>
1

>  <SCORE.INTER.POLAR>
0

>  <SCORE.INTER.ROT>
5

>  <SCORE.INTER.SOLV>
9.94377

>  <SCORE.INTER.VDW>
-13.5687

>  <SCORE.INTER.norm>
-0.226418

>  <SCORE.INTRA>
-0.853834

>  <SCORE.INTRA.DIHEDRAL>
-1.48617

>  <SCORE.INTRA.DIHEDRAL.0>
4.21161

>  <SCORE.INTRA.POLAR>
0

>  <SCORE.INTRA.POLAR.0>
0

>  <SCORE.INTRA.REPUL>
0

>  <SCORE.INTRA.REPUL.0>
0

>  <SCORE.INTRA.SOLV>
0.0713106

>  <SCORE.INTRA.SOLV.lig_0>
-41.4168

>  <SCORE.INTRA.VDW>
-0.146406

>  <SCORE.INTRA.VDW.0>
-1.62533

>  <SCORE.INTRA.norm>
-0.0388106

>  <SCORE.RESTR>
0.00261124

>  <SCORE.RESTR.CAVITY>
0.00261124

>  <SCORE.RESTR.norm>
0.000118693

>  <SCORE.SYSTEM>
0

>  <SCORE.SYSTEM.CONST>
0

>  <SCORE.SYSTEM.DIHEDRAL>
0

>  <SCORE.SYSTEM.SOLV>
0

>  <SCORE.SYSTEM.norm>
0

>  <SCORE.heavy>
22

>  <SCORE.norm>
-0.26511

>  <RMSD>
7.253

$$$$
lig.pdb
 OpenBabel11021811523D
libRbt.so/2013.1/901 2013/11/27
 22 23  0  0  0  0  0  0  0  0999 V2000
   25.7325  -61.2403  -34.6601 O   0  0  0  0  0  0  0  0  0  0  0  0
   24.9669  -61.7221  -35.4803 C   0  0  0  0  0  0  0  0  0  0  0  0
   25.0930  -62.9789  -35.9062 N   0  0  0  0  0  0  0  0  0  0  0  0
   23.8670  -60.8853  -36.0381 C   0  0  0  0  0  0  0  0  0  0  0  0
   23.5899  -59.5008  -35.6245 C   0  0  0  0  0  0  0  0  0  0  0  0
   24.3375  -58.7571  -34.6188 N   0  0  0  0  0  0  0  0  0  0  0  0
   22.9290  -61.1273  -36.9804 N   0  0  0  0  0  0  0  0  0  0  0  0
   22.1613  -60.0023  -37.1203 C   0  0  0  0  0  0  0  0  0  0  0  0
   22.5610  -59.0094  -36.2962 N   0  0  0  0  0  0  0  0  0  0  0  0
   21.9772  -57.6538  -36.1683 C   0  0  1  0  0  0  0  0  0  0  0  0
   21.7784  -57.0277  -37.5389 C   0  0  1  0  0  0  0  0  0  0  0  0
   20.5493  -56.1764  -37.3476 C   0  0  2  0  0  0  0  0  0  0  0  0
   20.9285  -54.9118  -36.8008 O   0  0  0  0  0  0  0  0  0  0  0  0
   22.8928  -56.2103  -37.8989 O   0  0  0  0  0  0  0  0  0  0  0  0
   20.6858  -57.7028  -35.5503 O   0  0  0  0  0  0  0  0  0  0  0  0
   19.7465  -56.9421  -36.3138 C   0  0  2  0  0  0  0  0  0  0  0  0
   18.7545  -57.8659  -37.0035 C   0  0  0  0  0  0  0  0  0  0  0  0
   17.9100  -57.0764  -37.8393 O   0  0  0  0  0  0  0  0  0  0  0  0
   16.8145  -57.7527  -38.8081 P   0  0  0  0  0  0  0  0  0  0  0  0
   17.5842  -58.7682  -39.6204 O   0  0  0  0  0  0  0  0  0  0  0  0
   16.2960  -56.5819  -39.6090 O   0  0  0  0  0  0  0  0  0  0  0  0
   15.8181  -58.3533  -37.8444 O   0  0  0  0  0  0  0  0  0  0  0  0
  1  2  2  0  0  0  0
  2  4  1  0  0  0  0
  2  3  1  0  0  0  0
  4  7  1  0  0  0  0
  5  9  1  0  0  0  0
  5  4  2  0  0  0  0
  6  5  1  0  0  0  0
  8  7  2  0  0  0  0
  9  8  1  0  0  0  0
 10 15  1  0  0  0  0
 10  9  1  6  0  0  0
 10 11  1  0  0  0  0
 11 14  1  1  0  0  0
 11 12  1  0  0  0  0
 12 13  1  1  0  0  0
 15 16  1  0  0  0  0
 16 12  1  0  0  0  0
 16 17  1  6  0  0  0
 17 18  1  0  0  0  0
 18 19  1  0  0  0  0
 19 21  1  0  0  0  0
 19 20  1  0  0  0  0
 22 19  2  0  0  0  0
M  END
>  <CHROM.1>
-2.71092082,132.10300712,-57.90145030,175.15181558,-53.15772403,20.87390595
-58.44536927,-37.01646834,0.38889651,0.40357309,-3.08380541

>  <Name>
lig.pdb

>  <RI>
0

>  <Rbt.Current_Directory>
/home/itssahil/PROJECTS/Mol_Feturizer/New_Systems/rnas/5btp

>  <Rbt.Executable>
rbdock ($Id: //depot/dev/client3/rdock/2013.1/src/exe/rbdock.cxx#4 $)

>  <Rbt.Library>
libRbt.so (2013.1, Build901 2013/11/27)

>  <Rbt.Parameter_File>
/export/apps/rDock/src/rDock_2013.1_src/data/scripts/dock_solv.prm

>  <Rbt.Receptor>
prm/pocket_docking_5.prm

>  <SCORE>
-8.9604

>  <SCORE.INTER>
-8.2158

>  <SCORE.INTER.CONST>
1

>  <SCORE.INTER.POLAR>
0

>  <SCORE.INTER.ROT>
5

>  <SCORE.INTER.SOLV>
11.8365

>  <SCORE.INTER.VDW>
-16.356

>  <SCORE.INTER.norm>
-0.373445

>  <SCORE.INTRA>
-0.995349

>  <SCORE.INTRA.DIHEDRAL>
-1.56572

>  <SCORE.INTRA.DIHEDRAL.0>
4.21161

>  <SCORE.INTRA.POLAR>
0

>  <SCORE.INTRA.POLAR.0>
0

>  <SCORE.INTRA.REPUL>
0

>  <SCORE.INTRA.REPUL.0>
0

>  <SCORE.INTRA.SOLV>
-0.157103

>  <SCORE.INTRA.SOLV.lig_0>
-41.4168

>  <SCORE.INTRA.VDW>
-0.133938

>  <SCORE.INTRA.VDW.0>
-1.62533

>  <SCORE.INTRA.norm>
-0.0452431

>  <SCORE.RESTR>
0.250742

>  <SCORE.RESTR.CAVITY>
0.250742

>  <SCORE.RESTR.norm>
0.0113974

>  <SCORE.SYSTEM>
0

>  <SCORE.SYSTEM.CONST>
0

>  <SCORE.SYSTEM.DIHEDRAL>
0

>  <SCORE.SYSTEM.SOLV>
0

>  <SCORE.SYSTEM.norm>
0

>  <SCORE.heavy>
22

>  <SCORE.norm>
-0.407291

>  <RMSD>
7.276

$$$$
lig.pdb
 OpenBabel11021811523D
libRbt.so/2013.1/901 2013/11/27
 22 23  0  0  0  0  0  0  0  0999 V2000
   24.1413  -52.5164  -38.6598 O   0  0  0  0  0  0  0  0  0  0  0  0
   23.5271  -53.2851  -37.9366 C   0  0  0  0  0  0  0  0  0  0  0  0
   22.4842  -52.8843  -37.2095 N   0  0  0  0  0  0  0  0  0  0  0  0
   23.9568  -54.7093  -37.8458 C   0  0  0  0  0  0  0  0  0  0  0  0
   23.2023  -55.7575  -37.1410 C   0  0  0  0  0  0  0  0  0  0  0  0
   21.9438  -55.5579  -36.4341 N   0  0  0  0  0  0  0  0  0  0  0  0
   25.0294  -55.3683  -38.3372 N   0  0  0  0  0  0  0  0  0  0  0  0
   24.9331  -56.6823  -37.9649 C   0  0  0  0  0  0  0  0  0  0  0  0
   23.8214  -56.9232  -37.2364 N   0  0  0  0  0  0  0  0  0  0  0  0
   23.3810  -58.2170  -36.6643 C   0  0  1  0  0  0  0  0  0  0  0  0
   22.9005  -58.0313  -35.2344 C   0  0  1  0  0  0  0  0  0  0  0  0
   21.8162  -59.0701  -35.1038 C   0  0  2  0  0  0  0  0  0  0  0  0
   22.4029  -60.3286  -34.7662 O   0  0  0  0  0  0  0  0  0  0  0  0
   23.9486  -58.2929  -34.3001 O   0  0  0  0  0  0  0  0  0  0  0  0
   22.2773  -58.7588  -37.3992 O   0  0  0  0  0  0  0  0  0  0  0  0
   21.2362  -59.1534  -36.5023 C   0  0  2  0  0  0  0  0  0  0  0  0
   20.0454  -58.2159  -36.6298 C   0  0  0  0  0  0  0  0  0  0  0  0
   19.3408  -58.5432  -37.8263 O   0  0  0  0  0  0  0  0  0  0  0  0
   17.8960  -57.9092  -38.1527 P   0  0  0  0  0  0  0  0  0  0  0  0
   17.0309  -58.2771  -36.9696 O   0  0  0  0  0  0  0  0  0  0  0  0
   17.5059  -58.5913  -39.4425 O   0  0  0  0  0  0  0  0  0  0  0  0
   18.1824  -56.4311  -38.2779 O   0  0  0  0  0  0  0  0  0  0  0  0
  1  2  2  0  0  0  0
  2  4  1  0  0  0  0
  2  3  1  0  0  0  0
  4  7  1  0  0  0  0
  5  9  1  0  0  0  0
  5  4  2  0  0  0  0
  6  5  1  0  0  0  0
  8  7  2  0  0  0  0
  9  8  1  0  0  0  0
 10 15  1  0  0  0  0
 10  9  1  6  0  0  0
 10 11  1  0  0  0  0
 11 14  1  1  0  0  0
 11 12  1  0  0  0  0
 12 13  1  6  0  0  0
 15 16  1  0  0  0  0
 16 12  1  0  0  0  0
 16 17  1  1  0  0  0
 17 18  1  0  0  0  0
 18 19  1  0  0  0  0
 19 21  1  0  0  0  0
 19 20  1  0  0  0  0
 22 19  2  0  0  0  0
M  END
>  <CHROM.1>
-172.26837325,-44.35718283,-166.53432738,169.99052030,-56.60312490,21.55330661
-57.08580704,-37.15437865,0.45235952,-0.31424432,-0.49864022

>  <Name>
lig.pdb

>  <RI>
0

>  <Rbt.Current_Directory>
/home/itssahil/PROJECTS/Mol_Feturizer/New_Systems/rnas/5btp

>  <Rbt.Executable>
rbdock ($Id: //depot/dev/client3/rdock/2013.1/src/exe/rbdock.cxx#4 $)

>  <Rbt.Library>
libRbt.so (2013.1, Build901 2013/11/27)

>  <Rbt.Parameter_File>
/export/apps/rDock/src/rDock_2013.1_src/data/scripts/dock_solv.prm

>  <Rbt.Receptor>
prm/pocket_docking_7.prm

>  <SCORE>
-10.0181

>  <SCORE.INTER>
-9.69849

>  <SCORE.INTER.CONST>
1

>  <SCORE.INTER.POLAR>
0

>  <SCORE.INTER.ROT>
5

>  <SCORE.INTER.SOLV>
17.5791

>  <SCORE.INTER.VDW>
-19.2587

>  <SCORE.INTER.norm>
-0.44084

>  <SCORE.INTRA>
-0.319622

>  <SCORE.INTRA.DIHEDRAL>
-0.462573

>  <SCORE.INTRA.DIHEDRAL.0>
4.21161

>  <SCORE.INTRA.POLAR>
0

>  <SCORE.INTRA.POLAR.0>
0

>  <SCORE.INTRA.REPUL>
0

>  <SCORE.INTRA.REPUL.0>
0

>  <SCORE.INTRA.SOLV>
1.16123

>  <SCORE.INTRA.SOLV.lig_0>
-41.4168

>  <SCORE.INTRA.VDW>
-0.668952

>  <SCORE.INTRA.VDW.0>
-1.62533

>  <SCORE.INTRA.norm>
-0.0145283

>  <SCORE.RESTR>
0

>  <SCORE.RESTR.CAVITY>
0

>  <SCORE.RESTR.norm>
0

>  <SCORE.SYSTEM>
0

>  <SCORE.SYSTEM.CONST>
0

>  <SCORE.SYSTEM.DIHEDRAL>
0

>  <SCORE.SYSTEM.SOLV>
0

>  <SCORE.SYSTEM.norm>
0

>  <SCORE.heavy>
22

>  <SCORE.norm>
-0.455369

>  <RMSD>
7.279

$$$$
lig.pdb
 OpenBabel11021811523D
libRbt.so/2013.1/901 2013/11/27
 22 23  0  0  0  0  0  0  0  0999 V2000
   25.2586  -61.0034  -36.7577 O   0  0  0  0  0  0  0  0  0  0  0  0
   25.3267  -59.7869  -36.6764 C   0  0  0  0  0  0  0  0  0  0  0  0
   26.4790  -59.1619  -36.4347 N   0  0  0  0  0  0  0  0  0  0  0  0
   24.0901  -58.9702  -36.8353 C   0  0  0  0  0  0  0  0  0  0  0  0
   22.7462  -59.5346  -37.0357 C   0  0  0  0  0  0  0  0  0  0  0  0
   22.4328  -60.9556  -37.1119 N   0  0  0  0  0  0  0  0  0  0  0  0
   23.8748  -57.6361  -36.8292 N   0  0  0  0  0  0  0  0  0  0  0  0
   22.5355  -57.4169  -37.0098 C   0  0  0  0  0  0  0  0  0  0  0  0
   21.8448  -58.5709  -37.1356 N   0  0  0  0  0  0  0  0  0  0  0  0
   20.3861  -58.7311  -37.3399 C   0  0  1  0  0  0  0  0  0  0  0  0
   19.6400  -58.5354  -36.0304 C   0  0  1  0  0  0  0  0  0  0  0  0
   18.3349  -57.9244  -36.4719 C   0  0  2  0  0  0  0  0  0  0  0  0
   17.4312  -58.9623  -36.8569 O   0  0  0  0  0  0  0  0  0  0  0  0
   19.4040  -59.7848  -35.3797 O   0  0  0  0  0  0  0  0  0  0  0  0
   19.8799  -57.7470  -38.2495 O   0  0  0  0  0  0  0  0  0  0  0  0
   18.7182  -57.1211  -37.6996 C   0  0  2  0  0  0  0  0  0  0  0  0
   19.0275  -55.6846  -37.3073 C   0  0  0  0  0  0  0  0  0  0  0  0
   18.6754  -54.8344  -38.3974 O   0  0  0  0  0  0  0  0  0  0  0  0
   18.4439  -53.2533  -38.1912 P   0  0  0  0  0  0  0  0  0  0  0  0
   17.1427  -53.1443  -37.4305 O   0  0  0  0  0  0  0  0  0  0  0  0
   18.3811  -52.7287  -39.6061 O   0  0  0  0  0  0  0  0  0  0  0  0
   19.6607  -52.8205  -37.4073 O   0  0  0  0  0  0  0  0  0  0  0  0
  1  2  2  0  0  0  0
  2  4  1  0  0  0  0
  2  3  1  0  0  0  0
  4  7  1  0  0  0  0
  5  9  1  0  0  0  0
  5  4  2  0  0  0  0
  6  5  1  0  0  0  0
  8  7  2  0  0  0  0
  9  8  1  0  0  0  0
 10 15  1  0  0  0  0
 10  9  1  1  0  0  0
 10 11  1  0  0  0  0
 11 14  1  6  0  0  0
 11 12  1  0  0  0  0
 12 13  1  6  0  0  0
 15 16  1  0  0  0  0
 16 12  1  0  0  0  0
 16 17  1  1  0  0  0
 17 18  1  0  0  0  0
 18 19  1  0  0  0  0
 19 21  1  0  0  0  0
 19 20  1  0  0  0  0
 22 19  2  0  0  0  0
M  END
>  <CHROM.1>
2.58727392,101.72469921,-148.96693932,161.16355014,-71.26553555,20.65881973
-57.15646353,-37.26789439,-0.80726273,0.03873383,-0.26349638

>  <Name>
lig.pdb

>  <RI>
0

>  <Rbt.Current_Directory>
/home/itssahil/PROJECTS/Mol_Feturizer/New_Systems/rnas/5btp

>  <Rbt.Executable>
rbdock ($Id: //depot/dev/client3/rdock/2013.1/src/exe/rbdock.cxx#4 $)

>  <Rbt.Library>
libRbt.so (2013.1, Build901 2013/11/27)

>  <Rbt.Parameter_File>
/export/apps/rDock/src/rDock_2013.1_src/data/scripts/dock_solv.prm

>  <Rbt.Receptor>
prm/pocket_docking_6.prm

>  <SCORE>
-7.83255

>  <SCORE.INTER>
-8.69527

>  <SCORE.INTER.CONST>
1

>  <SCORE.INTER.POLAR>
0

>  <SCORE.INTER.ROT>
5

>  <SCORE.INTER.SOLV>
15.0409

>  <SCORE.INTER.VDW>
-17.7438

>  <SCORE.INTER.norm>
-0.39524

>  <SCORE.INTRA>
0.862717

>  <SCORE.INTRA.DIHEDRAL>
2.79821

>  <SCORE.INTRA.DIHEDRAL.0>
4.21161

>  <SCORE.INTRA.POLAR>
0

>  <SCORE.INTRA.POLAR.0>
0

>  <SCORE.INTRA.REPUL>
0

>  <SCORE.INTRA.REPUL.0>
0

>  <SCORE.INTRA.SOLV>
-0.188886

>  <SCORE.INTRA.SOLV.lig_0>
-41.4168

>  <SCORE.INTRA.VDW>
-0.441945

>  <SCORE.INTRA.VDW.0>
-1.62533

>  <SCORE.INTRA.norm>
0.0392144

>  <SCORE.RESTR>
0

>  <SCORE.RESTR.CAVITY>
0

>  <SCORE.RESTR.norm>
0

>  <SCORE.SYSTEM>
0

>  <SCORE.SYSTEM.CONST>
0

>  <SCORE.SYSTEM.DIHEDRAL>
0

>  <SCORE.SYSTEM.SOLV>
0

>  <SCORE.SYSTEM.norm>
0

>  <SCORE.heavy>
22

>  <SCORE.norm>
-0.356025

>  <RMSD>
7.317

$$$$
lig.pdb
 OpenBabel11021811523D
libRbt.so/2013.1/901 2013/11/27
 22 23  0  0  0  0  0  0  0  0999 V2000
   25.0769  -61.4825  -36.9836 O   0  0  0  0  0  0  0  0  0  0  0  0
   25.2298  -60.2757  -36.8781 C   0  0  0  0  0  0  0  0  0  0  0  0
   26.4329  -59.7333  -36.6910 N   0  0  0  0  0  0  0  0  0  0  0  0
   24.0428  -59.3768  -36.9439 C   0  0  0  0  0  0  0  0  0  0  0  0
   22.6625  -59.8431  -37.1488 C   0  0  0  0  0  0  0  0  0  0  0  0
   22.2603  -61.2331  -37.3199 N   0  0  0  0  0  0  0  0  0  0  0  0
   23.9105  -58.0363  -36.8348 N   0  0  0  0  0  0  0  0  0  0  0  0
   22.5836  -57.7243  -36.9629 C   0  0  0  0  0  0  0  0  0  0  0  0
   21.8203  -58.8224  -37.1540 N   0  0  0  0  0  0  0  0  0  0  0  0
   20.3503  -58.8791  -37.3303 C   0  0  1  0  0  0  0  0  0  0  0  0
   19.6473  -58.7410  -35.9899 C   0  0  1  0  0  0  0  0  0  0  0  0
   18.3725  -58.0211  -36.3485 C   0  0  2  0  0  0  0  0  0  0  0  0
   17.3984  -58.9706  -36.7863 O   0  0  0  0  0  0  0  0  0  0  0  0
   19.3496  -60.0206  -35.4295 O   0  0  0  0  0  0  0  0  0  0  0  0
   19.8852  -57.7995  -38.1488 O   0  0  0  0  0  0  0  0  0  0  0  0
   18.7768  -57.1498  -37.5218 C   0  0  2  0  0  0  0  0  0  0  0  0
   19.1825  -55.7688  -37.0305 C   0  0  0  0  0  0  0  0  0  0  0  0
   19.3019  -54.9060  -38.1603 O   0  0  0  0  0  0  0  0  0  0  0  0
   18.0068  -54.2515  -38.8603 P   0  0  0  0  0  0  0  0  0  0  0  0
   17.2772  -53.5391  -37.7451 O   0  0  0  0  0  0  0  0  0  0  0  0
   17.2740  -55.4503  -39.4145 O   0  0  0  0  0  0  0  0  0  0  0  0
   18.5991  -53.3322  -39.9026 O   0  0  0  0  0  0  0  0  0  0  0  0
  1  2  2  0  0  0  0
  2  4  1  0  0  0  0
  2  3  1  0  0  0  0
  4  7  1  0  0  0  0
  5  9  1  0  0  0  0
  5  4  2  0  0  0  0
  6  5  1  0  0  0  0
  8  7  2  0  0  0  0
  9  8  1  0  0  0  0
 10 15  1  0  0  0  0
 10  9  1  1  0  0  0
 10 11  1  0  0  0  0
 11 14  1  6  0  0  0
 11 12  1  0  0  0  0
 12 13  1  6  0  0  0
 15 16  1  0  0  0  0
 16 12  1  0  0  0  0
 16 17  1  1  0  0  0
 17 18  1  0  0  0  0
 18 19  1  0  0  0  0
 19 21  1  0  0  0  0
 19 20  1  0  0  0  0
 22 19  2  0  0  0  0
M  END
>  <CHROM.1>
-0.81886559,101.56415910,-168.81655051,79.25626817,54.76594425,20.53088328
-57.60902888,-37.45979967,-0.73501409,0.10914978,-0.42052832

>  <Name>
lig.pdb

>  <RI>
0

>  <Rbt.Current_Directory>
/home/itssahil/PROJECTS/Mol_Feturizer/New_Systems/rnas/5btp

>  <Rbt.Executable>
rbdock ($Id: //depot/dev/client3/rdock/2013.1/src/exe/rbdock.cxx#4 $)

>  <Rbt.Library>
libRbt.so (2013.1, Build901 2013/11/27)

>  <Rbt.Parameter_File>
/export/apps/rDock/src/rDock_2013.1_src/data/scripts/dock_solv.prm

>  <Rbt.Receptor>
prm/pocket_docking_7.prm

>  <SCORE>
-11.6066

>  <SCORE.INTER>
-11.2487

>  <SCORE.INTER.CONST>
1

>  <SCORE.INTER.POLAR>
0

>  <SCORE.INTER.ROT>
5

>  <SCORE.INTER.SOLV>
19.2792

>  <SCORE.INTER.VDW>
-20.8588

>  <SCORE.INTER.norm>
-0.511304

>  <SCORE.INTRA>
-0.357889

>  <SCORE.INTRA.DIHEDRAL>
0.366879

>  <SCORE.INTRA.DIHEDRAL.0>
4.21161

>  <SCORE.INTRA.POLAR>
0

>  <SCORE.INTRA.POLAR.0>
0

>  <SCORE.INTRA.REPUL>
0

>  <SCORE.INTRA.REPUL.0>
0

>  <SCORE.INTRA.SOLV>
0.278646

>  <SCORE.INTRA.SOLV.lig_0>
-41.4168

>  <SCORE.INTRA.VDW>
-0.680652

>  <SCORE.INTRA.VDW.0>
-1.62533

>  <SCORE.INTRA.norm>
-0.0162677

>  <SCORE.RESTR>
0

>  <SCORE.RESTR.CAVITY>
0

>  <SCORE.RESTR.norm>
0

>  <SCORE.SYSTEM>
0

>  <SCORE.SYSTEM.CONST>
0

>  <SCORE.SYSTEM.DIHEDRAL>
0

>  <SCORE.SYSTEM.SOLV>
0

>  <SCORE.SYSTEM.norm>
0

>  <SCORE.heavy>
22

>  <SCORE.norm>
-0.527571

>  <RMSD>
7.320

$$$$
lig.pdb
 OpenBabel11021811523D
libRbt.so/2013.1/901 2013/11/27
 22 23  0  0  0  0  0  0  0  0999 V2000
   26.3535  -56.1005  -36.9276 O   0  0  0  0  0  0  0  0  0  0  0  0
   25.1930  -55.9411  -37.2725 C   0  0  0  0  0  0  0  0  0  0  0  0
   24.7637  -54.7872  -37.7833 N   0  0  0  0  0  0  0  0  0  0  0  0
   24.2184  -57.0566  -37.1079 C   0  0  0  0  0  0  0  0  0  0  0  0
   22.7850  -56.9561  -37.4244 C   0  0  0  0  0  0  0  0  0  0  0  0
   22.1170  -55.7655  -37.9338 N   0  0  0  0  0  0  0  0  0  0  0  0
   24.3594  -58.3315  -36.6825 N   0  0  0  0  0  0  0  0  0  0  0  0
   23.1337  -58.9393  -36.7350 C   0  0  0  0  0  0  0  0  0  0  0  0
   22.1723  -58.1047  -37.1868 N   0  0  0  0  0  0  0  0  0  0  0  0
   20.7346  -58.4059  -37.3801 C   0  0  1  0  0  0  0  0  0  0  0  0
   20.0013  -58.3805  -36.0491 C   0  0  1  0  0  0  0  0  0  0  0  0
   18.6293  -57.8843  -36.4276 C   0  0  2  0  0  0  0  0  0  0  0  0
   17.8322  -58.9845  -36.8706 O   0  0  0  0  0  0  0  0  0  0  0  0
   19.9133  -59.6892  -35.4838 O   0  0  0  0  0  0  0  0  0  0  0  0
   20.1071  -57.4224  -38.2112 O   0  0  0  0  0  0  0  0  0  0  0  0
   18.8981  -56.9632  -37.6018 C   0  0  2  0  0  0  0  0  0  0  0  0
   19.0623  -55.5318  -37.1148 C   0  0  0  0  0  0  0  0  0  0  0  0
   18.7768  -54.6513  -38.2004 O   0  0  0  0  0  0  0  0  0  0  0  0
   18.5724  -53.0698  -37.9703 P   0  0  0  0  0  0  0  0  0  0  0  0
   19.8064  -52.6204  -37.2226 O   0  0  0  0  0  0  0  0  0  0  0  0
   17.2985  -53.0029  -37.1618 O   0  0  0  0  0  0  0  0  0  0  0  0
   18.4625  -52.5230  -39.3743 O   0  0  0  0  0  0  0  0  0  0  0  0
  1  2  2  0  0  0  0
  2  4  1  0  0  0  0
  2  3  1  0  0  0  0
  4  7  1  0  0  0  0
  5  9  1  0  0  0  0
  5  4  2  0  0  0  0
  6  5  1  0  0  0  0
  8  7  2  0  0  0  0
  9  8  1  0  0  0  0
 10 15  1  0  0  0  0
 10  9  1  1  0  0  0
 10 11  1  0  0  0  0
 11 14  1  6  0  0  0
 11 12  1  0  0  0  0
 12 13  1  6  0  0  0
 15 16  1  0  0  0  0
 16 12  1  0  0  0  0
 16 17  1  1  0  0  0
 17 18  1  0  0  0  0
 18 19  1  0  0  0  0
 19 21  1  0  0  0  0
 19 20  1  0  0  0  0
 22 19  2  0  0  0  0
M  END
>  <CHROM.1>
176.78791542,-101.96754901,-156.98861404,167.86305501,53.33906613,20.82379304
-56.17435608,-37.32800023,-0.58722850,0.00612234,-0.25050401

>  <Name>
lig.pdb

>  <RI>
0

>  <Rbt.Current_Directory>
/home/itssahil/PROJECTS/Mol_Feturizer/New_Systems/rnas/5btp

>  <Rbt.Executable>
rbdock ($Id: //depot/dev/client3/rdock/2013.1/src/exe/rbdock.cxx#4 $)

>  <Rbt.Library>
libRbt.so (2013.1, Build901 2013/11/27)

>  <Rbt.Parameter_File>
/export/apps/rDock/src/rDock_2013.1_src/data/scripts/dock_solv.prm

>  <Rbt.Receptor>
prm/pocket_docking_6.prm

>  <SCORE>
-8.12083

>  <SCORE.INTER>
-8.38369

>  <SCORE.INTER.CONST>
1

>  <SCORE.INTER.POLAR>
0

>  <SCORE.INTER.ROT>
5

>  <SCORE.INTER.SOLV>
16.2413

>  <SCORE.INTER.VDW>
-17.9362

>  <SCORE.INTER.norm>
-0.381077

>  <SCORE.INTRA>
0.262864

>  <SCORE.INTRA.DIHEDRAL>
0.677622

>  <SCORE.INTRA.DIHEDRAL.0>
4.21161

>  <SCORE.INTRA.POLAR>
0

>  <SCORE.INTRA.POLAR.0>
0

>  <SCORE.INTRA.REPUL>
0

>  <SCORE.INTRA.REPUL.0>
0

>  <SCORE.INTRA.SOLV>
0.976644

>  <SCORE.INTRA.SOLV.lig_0>
-41.4168

>  <SCORE.INTRA.VDW>
-0.564268

>  <SCORE.INTRA.VDW.0>
-1.62533

>  <SCORE.INTRA.norm>
0.0119484

>  <SCORE.RESTR>
0

>  <SCORE.RESTR.CAVITY>
0

>  <SCORE.RESTR.norm>
0

>  <SCORE.SYSTEM>
0

>  <SCORE.SYSTEM.CONST>
0

>  <SCORE.SYSTEM.DIHEDRAL>
0

>  <SCORE.SYSTEM.SOLV>
0

>  <SCORE.SYSTEM.norm>
0

>  <SCORE.heavy>
22

>  <SCORE.norm>
-0.369128

>  <RMSD>
7.337

$$$$
lig.pdb
 OpenBabel11021811523D
libRbt.so/2013.1/901 2013/11/27
 22 23  0  0  0  0  0  0  0  0999 V2000
   23.3432  -53.3010  -30.0025 O   0  0  0  0  0  0  0  0  0  0  0  0
   22.6792  -54.3254  -29.9784 C   0  0  0  0  0  0  0  0  0  0  0  0
   22.7969  -55.2164  -28.9939 N   0  0  0  0  0  0  0  0  0  0  0  0
   21.7187  -54.6039  -31.0835 C   0  0  0  0  0  0  0  0  0  0  0  0
   21.4603  -53.6875  -32.2053 C   0  0  0  0  0  0  0  0  0  0  0  0
   22.0938  -52.3890  -32.3944 N   0  0  0  0  0  0  0  0  0  0  0  0
   20.9152  -55.6584  -31.3454 N   0  0  0  0  0  0  0  0  0  0  0  0
   20.2381  -55.4035  -32.5077 C   0  0  0  0  0  0  0  0  0  0  0  0
   20.5677  -54.2041  -33.0346 N   0  0  0  0  0  0  0  0  0  0  0  0
   20.0460  -53.5916  -34.2786 C   0  0  1  0  0  0  0  0  0  0  0  0
   21.1477  -53.4788  -35.3196 C   0  0  1  0  0  0  0  0  0  0  0  0
   20.4052  -53.6554  -36.6193 C   0  0  2  0  0  0  0  0  0  0  0  0
   19.8598  -52.3996  -37.0286 O   0  0  0  0  0  0  0  0  0  0  0  0
   21.7675  -52.1928  -35.2770 O   0  0  0  0  0  0  0  0  0  0  0  0
   19.0155  -54.3989  -34.8602 O   0  0  0  0  0  0  0  0  0  0  0  0
   19.2704  -54.5924  -36.2536 C   0  0  2  0  0  0  0  0  0  0  0  0
   19.6769  -56.0332  -36.5214 C   0  0  0  0  0  0  0  0  0  0  0  0
   18.5363  -56.8670  -36.3240 O   0  0  0  0  0  0  0  0  0  0  0  0
   18.6001  -58.4560  -36.5823 P   0  0  0  0  0  0  0  0  0  0  0  0
   17.2049  -58.9566  -36.2885 O   0  0  0  0  0  0  0  0  0  0  0  0
   19.6465  -58.9216  -35.5977 O   0  0  0  0  0  0  0  0  0  0  0  0
   19.0048  -58.5587  -38.0342 O   0  0  0  0  0  0  0  0  0  0  0  0
  1  2  2  0  0  0  0
  2  4  1  0  0  0  0
  2  3  1  0  0  0  0
  4  7  1  0  0  0  0
  5  9  1  0  0  0  0
  5  4  2  0  0  0  0
  6  5  1  0  0  0  0
  8  7  2  0  0  0  0
  9  8  1  0  0  0  0
 10 15  1  0  0  0  0
 10  9  1  1  0  0  0
 10 11  1  0  0  0  0
 11 14  1  6  0  0  0
 11 12  1  0  0  0  0
 12 13  1  1  0  0  0
 15 16  1  0  0  0  0
 16 12  1  0  0  0  0
 16 17  1  1  0  0  0
 17 18  1  0  0  0  0
 18 19  1  0  0  0  0
 19 21  1  0  0  0  0
 19 20  1  0  0  0  0
 22 19  2  0  0  0  0
M  END
>  <CHROM.1>
-2.72234251,66.35583240,-172.95075576,177.53084991,-179.02329407,20.30354692
-55.27649764,-34.34700689,0.05177208,1.09458512,2.47667650

>  <Name>
lig.pdb

>  <RI>
0

>  <Rbt.Current_Directory>
/home/itssahil/PROJECTS/Mol_Feturizer/New_Systems/rnas/5btp

>  <Rbt.Executable>
rbdock ($Id: //depot/dev/client3/rdock/2013.1/src/exe/rbdock.cxx#4 $)

>  <Rbt.Library>
libRbt.so (2013.1, Build901 2013/11/27)

>  <Rbt.Parameter_File>
/export/apps/rDock/src/rDock_2013.1_src/data/scripts/dock_solv.prm

>  <Rbt.Receptor>
prm/pocket_docking_7.prm

>  <SCORE>
-7.08038

>  <SCORE.INTER>
-5.99907

>  <SCORE.INTER.CONST>
1

>  <SCORE.INTER.POLAR>
0

>  <SCORE.INTER.ROT>
5

>  <SCORE.INTER.SOLV>
13.4303

>  <SCORE.INTER.VDW>
-15.4095

>  <SCORE.INTER.norm>
-0.272685

>  <SCORE.INTRA>
-1.08131

>  <SCORE.INTRA.DIHEDRAL>
-1.56284

>  <SCORE.INTRA.DIHEDRAL.0>
4.21161

>  <SCORE.INTRA.POLAR>
0

>  <SCORE.INTRA.POLAR.0>
0

>  <SCORE.INTRA.REPUL>
0

>  <SCORE.INTRA.REPUL.0>
0

>  <SCORE.INTRA.SOLV>
0.284502

>  <SCORE.INTRA.SOLV.lig_0>
-41.4168

>  <SCORE.INTRA.VDW>
-0.442146

>  <SCORE.INTRA.VDW.0>
-1.62533

>  <SCORE.INTRA.norm>
-0.0491506

>  <SCORE.RESTR>
0

>  <SCORE.RESTR.CAVITY>
0

>  <SCORE.RESTR.norm>
0

>  <SCORE.SYSTEM>
0

>  <SCORE.SYSTEM.CONST>
0

>  <SCORE.SYSTEM.DIHEDRAL>
0

>  <SCORE.SYSTEM.SOLV>
0

>  <SCORE.SYSTEM.norm>
0

>  <SCORE.heavy>
22

>  <SCORE.norm>
-0.321836

>  <RMSD>
7.512

$$$$
lig.pdb
 OpenBabel11021811523D
libRbt.so/2013.1/901 2013/11/27
 22 23  0  0  0  0  0  0  0  0999 V2000
   24.9807  -55.8926  -33.5032 O   0  0  0  0  0  0  0  0  0  0  0  0
   24.6394  -54.8770  -34.0889 C   0  0  0  0  0  0  0  0  0  0  0  0
   25.2182  -53.7001  -33.8508 N   0  0  0  0  0  0  0  0  0  0  0  0
   23.5359  -54.9416  -35.0885 C   0  0  0  0  0  0  0  0  0  0  0  0
   22.8404  -56.1797  -35.4740 C   0  0  0  0  0  0  0  0  0  0  0  0
   23.1287  -57.5065  -34.9451 N   0  0  0  0  0  0  0  0  0  0  0  0
   22.9236  -53.9916  -35.8294 N   0  0  0  0  0  0  0  0  0  0  0  0
   21.9568  -54.5957  -36.5876 C   0  0  0  0  0  0  0  0  0  0  0  0
   21.9030  -55.9284  -36.3735 N   0  0  0  0  0  0  0  0  0  0  0  0
   20.9886  -56.9072  -37.0067 C   0  0  1  0  0  0  0  0  0  0  0  0
   19.7307  -57.0790  -36.1712 C   0  0  1  0  0  0  0  0  0  0  0  0
   18.6713  -57.3566  -37.2068 C   0  0  2  0  0  0  0  0  0  0  0  0
   18.6747  -58.7492  -37.5276 O   0  0  0  0  0  0  0  0  0  0  0  0
   19.8512  -58.1885  -35.2800 O   0  0  0  0  0  0  0  0  0  0  0  0
   20.5629  -56.4572  -38.2983 O   0  0  0  0  0  0  0  0  0  0  0  0
   19.1424  -56.5693  -38.4141 C   0  0  2  0  0  0  0  0  0  0  0  0
   18.5021  -55.1898  -38.4194 C   0  0  0  0  0  0  0  0  0  0  0  0
   19.0241  -54.4469  -37.3190 O   0  0  0  0  0  0  0  0  0  0  0  0
   18.6120  -52.9093  -37.0701 P   0  0  0  0  0  0  0  0  0  0  0  0
   17.1209  -52.9383  -36.8266 O   0  0  0  0  0  0  0  0  0  0  0  0
   19.0172  -52.2331  -38.3584 O   0  0  0  0  0  0  0  0  0  0  0  0
   19.4318  -52.5181  -35.8629 O   0  0  0  0  0  0  0  0  0  0  0  0
  1  2  2  0  0  0  0
  2  4  1  0  0  0  0
  2  3  1  0  0  0  0
  4  7  1  0  0  0  0
  5  9  1  0  0  0  0
  5  4  2  0  0  0  0
  6  5  1  0  0  0  0
  8  7  2  0  0  0  0
  9  8  1  0  0  0  0
 10 15  1  0  0  0  0
 10  9  1  1  0  0  0
 10 11  1  0  0  0  0
 11 14  1  1  0  0  0
 11 12  1  0  0  0  0
 12 13  1  6  0  0  0
 15 16  1  0  0  0  0
 16 12  1  0  0  0  0
 16 17  1  1  0  0  0
 17 18  1  0  0  0  0
 18 19  1  0  0  0  0
 19 21  1  0  0  0  0
 19 20  1  0  0  0  0
 22 19  2  0  0  0  0
M  END
>  <CHROM.1>
-2.56073823,88.46796176,67.69299499,176.86927052,62.36184609,20.72032910
-55.26109557,-36.40758410,-0.12916170,-0.50199361,0.04703838

>  <Name>
lig.pdb

>  <RI>
0

>  <Rbt.Current_Directory>
/home/itssahil/PROJECTS/Mol_Feturizer/New_Systems/rnas/5btp

>  <Rbt.Executable>
rbdock ($Id: //depot/dev/client3/rdock/2013.1/src/exe/rbdock.cxx#4 $)

>  <Rbt.Library>
libRbt.so (2013.1, Build901 2013/11/27)

>  <Rbt.Parameter_File>
/export/apps/rDock/src/rDock_2013.1_src/data/scripts/dock_solv.prm

>  <Rbt.Receptor>
prm/pocket_docking_5.prm

>  <SCORE>
-7.34332

>  <SCORE.INTER>
-5.82119

>  <SCORE.INTER.CONST>
1

>  <SCORE.INTER.POLAR>
0

>  <SCORE.INTER.ROT>
5

>  <SCORE.INTER.SOLV>
10.4932

>  <SCORE.INTER.VDW>
-14.3118

>  <SCORE.INTER.norm>
-0.264599

>  <SCORE.INTRA>
-1.52213

>  <SCORE.INTRA.DIHEDRAL>
-1.50167

>  <SCORE.INTRA.DIHEDRAL.0>
4.21161

>  <SCORE.INTRA.POLAR>
0

>  <SCORE.INTRA.POLAR.0>
0

>  <SCORE.INTRA.REPUL>
0

>  <SCORE.INTRA.REPUL.0>
0

>  <SCORE.INTRA.SOLV>
1.28971

>  <SCORE.INTRA.SOLV.lig_0>
-41.4168

>  <SCORE.INTRA.VDW>
-1.41615

>  <SCORE.INTRA.VDW.0>
-1.62533

>  <SCORE.INTRA.norm>
-0.0691878

>  <SCORE.RESTR>
0

>  <SCORE.RESTR.CAVITY>
0

>  <SCORE.RESTR.norm>
0

>  <SCORE.SYSTEM>
0

>  <SCORE.SYSTEM.CONST>
0

>  <SCORE.SYSTEM.DIHEDRAL>
0

>  <SCORE.SYSTEM.SOLV>
0

>  <SCORE.SYSTEM.norm>
0

>  <SCORE.heavy>
22

>  <SCORE.norm>
-0.333787

>  <RMSD>
7.515

$$$$
lig.pdb
 OpenBabel11021811523D
libRbt.so/2013.1/901 2013/11/27
 22 23  0  0  0  0  0  0  0  0999 V2000
   26.3169  -54.8201  -38.1284 O   0  0  0  0  0  0  0  0  0  0  0  0
   25.1670  -54.4547  -38.3166 C   0  0  0  0  0  0  0  0  0  0  0  0
   24.8851  -53.2568  -38.8289 N   0  0  0  0  0  0  0  0  0  0  0  0
   24.0402  -55.3598  -37.9528 C   0  0  0  0  0  0  0  0  0  0  0  0
   24.2100  -56.7400  -37.4721 C   0  0  0  0  0  0  0  0  0  0  0  0
   25.4876  -57.4162  -37.2888 N   0  0  0  0  0  0  0  0  0  0  0  0
   22.7000  -55.1867  -37.9496 N   0  0  0  0  0  0  0  0  0  0  0  0
   22.1187  -56.3468  -37.5126 C   0  0  0  0  0  0  0  0  0  0  0  0
   23.0354  -57.2951  -37.2206 N   0  0  0  0  0  0  0  0  0  0  0  0
   22.7854  -58.6674  -36.7214 C   0  0  1  0  0  0  0  0  0  0  0  0
   22.4078  -58.6385  -35.2495 C   0  0  1  0  0  0  0  0  0  0  0  0
   21.4559  -59.8000  -35.1210 C   0  0  2  0  0  0  0  0  0  0  0  0
   22.2003  -61.0046  -34.9287 O   0  0  0  0  0  0  0  0  0  0  0  0
   23.5517  -58.8447  -34.4196 O   0  0  0  0  0  0  0  0  0  0  0  0
   21.6891  -59.2778  -37.4125 O   0  0  0  0  0  0  0  0  0  0  0  0
   20.7744  -59.8499  -36.4746 C   0  0  2  0  0  0  0  0  0  0  0  0
   19.4833  -59.0468  -36.4384 C   0  0  0  0  0  0  0  0  0  0  0  0
   18.9087  -59.0590  -37.7441 O   0  0  0  0  0  0  0  0  0  0  0  0
   17.6355  -58.1428  -38.1122 P   0  0  0  0  0  0  0  0  0  0  0  0
   16.5799  -58.5135  -37.0965 O   0  0  0  0  0  0  0  0  0  0  0  0
   17.3097  -58.5611  -39.5264 O   0  0  0  0  0  0  0  0  0  0  0  0
   18.1653  -56.7349  -37.9730 O   0  0  0  0  0  0  0  0  0  0  0  0
  1  2  2  0  0  0  0
  2  4  1  0  0  0  0
  2  3  1  0  0  0  0
  4  7  1  0  0  0  0
  5  9  1  0  0  0  0
  5  4  2  0  0  0  0
  6  5  1  0  0  0  0
  8  7  2  0  0  0  0
  9  8  1  0  0  0  0
 10 15  1  0  0  0  0
 10  9  1  6  0  0  0
 10 11  1  0  0  0  0
 11 14  1  1  0  0  0
 11 12  1  0  0  0  0
 12 13  1  6  0  0  0
 15 16  1  0  0  0  0
 16 12  1  0  0  0  0
 16 17  1  1  0  0  0
 17 18  1  0  0  0  0
 18 19  1  0  0  0  0
 19 21  1  0  0  0  0
 19 20  1  0  0  0  0
 22 19  2  0  0  0  0
M  END
>  <CHROM.1>
-5.31418484,104.36554397,176.99961594,-171.77358931,-55.45074842,21.53282197
-57.67843140,-37.22466835,0.35660487,-0.25277764,-0.62261224

>  <Name>
lig.pdb

>  <RI>
0

>  <Rbt.Current_Directory>
/home/itssahil/PROJECTS/Mol_Feturizer/New_Systems/rnas/5btp

>  <Rbt.Executable>
rbdock ($Id: //depot/dev/client3/rdock/2013.1/src/exe/rbdock.cxx#4 $)

>  <Rbt.Library>
libRbt.so (2013.1, Build901 2013/11/27)

>  <Rbt.Parameter_File>
/export/apps/rDock/src/rDock_2013.1_src/data/scripts/dock_solv.prm

>  <Rbt.Receptor>
prm/pocket_docking_8.prm

>  <SCORE>
-12.0588

>  <SCORE.INTER>
-10.6745

>  <SCORE.INTER.CONST>
1

>  <SCORE.INTER.POLAR>
0

>  <SCORE.INTER.ROT>
5

>  <SCORE.INTER.SOLV>
17.8716

>  <SCORE.INTER.VDW>
-20.0069

>  <SCORE.INTER.norm>
-0.485204

>  <SCORE.INTRA>
-1.38427

>  <SCORE.INTRA.DIHEDRAL>
-1.29189

>  <SCORE.INTRA.DIHEDRAL.0>
4.21161

>  <SCORE.INTRA.POLAR>
0

>  <SCORE.INTRA.POLAR.0>
0

>  <SCORE.INTRA.REPUL>
0

>  <SCORE.INTRA.REPUL.0>
0

>  <SCORE.INTRA.SOLV>
-0.0263071

>  <SCORE.INTRA.SOLV.lig_0>
-41.4168

>  <SCORE.INTRA.VDW>
-0.725174

>  <SCORE.INTRA.VDW.0>
-1.62533

>  <SCORE.INTRA.norm>
-0.0629214

>  <SCORE.RESTR>
0

>  <SCORE.RESTR.CAVITY>
0

>  <SCORE.RESTR.norm>
0

>  <SCORE.SYSTEM>
0

>  <SCORE.SYSTEM.CONST>
0

>  <SCORE.SYSTEM.DIHEDRAL>
0

>  <SCORE.SYSTEM.SOLV>
0

>  <SCORE.SYSTEM.norm>
0

>  <SCORE.heavy>
22

>  <SCORE.norm>
-0.548125

>  <RMSD>
7.515

$$$$
lig.pdb
 OpenBabel11021811523D
libRbt.so/2013.1/901 2013/11/27
 22 23  0  0  0  0  0  0  0  0999 V2000
   25.6128  -53.9787  -34.4869 O   0  0  0  0  0  0  0  0  0  0  0  0
   25.1044  -55.0540  -34.7633 C   0  0  0  0  0  0  0  0  0  0  0  0
   25.6813  -56.2096  -34.4337 N   0  0  0  0  0  0  0  0  0  0  0  0
   23.8109  -55.0860  -35.5028 C   0  0  0  0  0  0  0  0  0  0  0  0
   23.1013  -56.3200  -35.8751 C   0  0  0  0  0  0  0  0  0  0  0  0
   23.5562  -57.6732  -35.5832 N   0  0  0  0  0  0  0  0  0  0  0  0
   23.0096  -54.1059  -35.9757 N   0  0  0  0  0  0  0  0  0  0  0  0
   21.9258  -54.6896  -36.5751 C   0  0  0  0  0  0  0  0  0  0  0  0
   21.9781  -56.0382  -36.5155 N   0  0  0  0  0  0  0  0  0  0  0  0
   20.9892  -57.0033  -37.0499 C   0  0  1  0  0  0  0  0  0  0  0  0
   19.7829  -57.0947  -36.1298 C   0  0  1  0  0  0  0  0  0  0  0  0
   18.6490  -57.3690  -37.0841 C   0  0  2  0  0  0  0  0  0  0  0  0
   18.5805  -58.7716  -37.3490 O   0  0  0  0  0  0  0  0  0  0  0  0
   19.9206  -58.1741  -35.2048 O   0  0  0  0  0  0  0  0  0  0  0  0
   20.4971  -56.5854  -38.3286 O   0  0  0  0  0  0  0  0  0  0  0  0
   19.0689  -56.6462  -38.3492 C   0  0  2  0  0  0  0  0  0  0  0  0
   18.4805  -55.2439  -38.3683 C   0  0  0  0  0  0  0  0  0  0  0  0
   19.0825  -54.4886  -37.3184 O   0  0  0  0  0  0  0  0  0  0  0  0
   18.6908  -52.9475  -37.0585 P   0  0  0  0  0  0  0  0  0  0  0  0
   18.8886  -52.2633  -38.3912 O   0  0  0  0  0  0  0  0  0  0  0  0
   19.6698  -52.5205  -35.9905 O   0  0  0  0  0  0  0  0  0  0  0  0
   17.2514  -53.0236  -36.6060 O   0  0  0  0  0  0  0  0  0  0  0  0
  1  2  2  0  0  0  0
  2  4  1  0  0  0  0
  2  3  1  0  0  0  0
  4  7  1  0  0  0  0
  5  9  1  0  0  0  0
  5  4  2  0  0  0  0
  6  5  1  0  0  0  0
  8  7  2  0  0  0  0
  9  8  1  0  0  0  0
 10 15  1  0  0  0  0
 10  9  1  1  0  0  0
 10 11  1  0  0  0  0
 11 14  1  1  0  0  0
 11 12  1  0  0  0  0
 12 13  1  6  0  0  0
 15 16  1  0  0  0  0
 16 12  1  0  0  0  0
 16 17  1  1  0  0  0
 17 18  1  0  0  0  0
 18 19  1  0  0  0  0
 19 21  1  0  0  0  0
 19 20  1  0  0  0  0
 22 19  2  0  0  0  0
M  END
>  <CHROM.1>
-179.30363985,102.10133532,66.66894043,179.65910555,-53.53585733,20.84560934
-55.34004595,-36.54862467,-0.16481790,-0.37635048,0.02201972

>  <Name>
lig.pdb

>  <RI>
0

>  <Rbt.Current_Directory>
/home/itssahil/PROJECTS/Mol_Feturizer/New_Systems/rnas/5btp

>  <Rbt.Executable>
rbdock ($Id: //depot/dev/client3/rdock/2013.1/src/exe/rbdock.cxx#4 $)

>  <Rbt.Library>
libRbt.so (2013.1, Build901 2013/11/27)

>  <Rbt.Parameter_File>
/export/apps/rDock/src/rDock_2013.1_src/data/scripts/dock_solv.prm

>  <Rbt.Receptor>
prm/pocket_docking_8.prm

>  <SCORE>
-7.08832

>  <SCORE.INTER>
-5.61201

>  <SCORE.INTER.CONST>
1

>  <SCORE.INTER.POLAR>
0

>  <SCORE.INTER.ROT>
5

>  <SCORE.INTER.SOLV>
10.7142

>  <SCORE.INTER.VDW>
-14.2461

>  <SCORE.INTER.norm>
-0.255091

>  <SCORE.INTRA>
-1.47631

>  <SCORE.INTRA.DIHEDRAL>
-1.56238

>  <SCORE.INTRA.DIHEDRAL.0>
4.21161

>  <SCORE.INTRA.POLAR>
0

>  <SCORE.INTRA.POLAR.0>
0

>  <SCORE.INTRA.REPUL>
0

>  <SCORE.INTRA.REPUL.0>
0

>  <SCORE.INTRA.SOLV>
1.2235

>  <SCORE.INTRA.SOLV.lig_0>
-41.4168

>  <SCORE.INTRA.VDW>
-1.30687

>  <SCORE.INTRA.VDW.0>
-1.62533

>  <SCORE.INTRA.norm>
-0.0671048

>  <SCORE.RESTR>
0

>  <SCORE.RESTR.CAVITY>
0

>  <SCORE.RESTR.norm>
0

>  <SCORE.SYSTEM>
0

>  <SCORE.SYSTEM.CONST>
0

>  <SCORE.SYSTEM.DIHEDRAL>
0

>  <SCORE.SYSTEM.SOLV>
0

>  <SCORE.SYSTEM.norm>
0

>  <SCORE.heavy>
22

>  <SCORE.norm>
-0.322196

>  <RMSD>
7.547

$$$$
lig.pdb
 OpenBabel11021811523D
libRbt.so/2013.1/901 2013/11/27
 22 23  0  0  0  0  0  0  0  0999 V2000
   25.3421  -53.8933  -38.4927 O   0  0  0  0  0  0  0  0  0  0  0  0
   25.2752  -55.0145  -38.0137 C   0  0  0  0  0  0  0  0  0  0  0  0
   26.3674  -55.7094  -37.6957 N   0  0  0  0  0  0  0  0  0  0  0  0
   23.9404  -55.6382  -37.7887 C   0  0  0  0  0  0  0  0  0  0  0  0
   23.7409  -57.0003  -37.2691 C   0  0  0  0  0  0  0  0  0  0  0  0
   24.8052  -57.9277  -36.9081 N   0  0  0  0  0  0  0  0  0  0  0  0
   22.6815  -55.1800  -37.9656 N   0  0  0  0  0  0  0  0  0  0  0  0
   21.8092  -56.1670  -37.5921 C   0  0  0  0  0  0  0  0  0  0  0  0
   22.4509  -57.2772  -37.1670 N   0  0  0  0  0  0  0  0  0  0  0  0
   21.8447  -58.5401  -36.6848 C   0  0  1  0  0  0  0  0  0  0  0  0
   21.1619  -58.3255  -35.3440 C   0  0  1  0  0  0  0  0  0  0  0  0
   20.0056  -59.2909  -35.3942 C   0  0  2  0  0  0  0  0  0  0  0  0
   20.4505  -60.5858  -34.9850 O   0  0  0  0  0  0  0  0  0  0  0  0
   22.0339  -58.6568  -34.2625 O   0  0  0  0  0  0  0  0  0  0  0  0
   20.8350  -59.0071  -37.5873 O   0  0  0  0  0  0  0  0  0  0  0  0
   19.6446  -59.3338  -36.8663 C   0  0  2  0  0  0  0  0  0  0  0  0
   18.5509  -58.3200  -37.1648 C   0  0  0  0  0  0  0  0  0  0  0  0
   18.1048  -58.5204  -38.5049 O   0  0  0  0  0  0  0  0  0  0  0  0
   16.7975  -57.7729  -39.0777 P   0  0  0  0  0  0  0  0  0  0  0  0
   15.6891  -58.1298  -38.1146 O   0  0  0  0  0  0  0  0  0  0  0  0
   16.6377  -58.3696  -40.4560 O   0  0  0  0  0  0  0  0  0  0  0  0
   17.1917  -56.3146  -39.0593 O   0  0  0  0  0  0  0  0  0  0  0  0
  1  2  2  0  0  0  0
  2  4  1  0  0  0  0
  2  3  1  0  0  0  0
  4  7  1  0  0  0  0
  5  9  1  0  0  0  0
  5  4  2  0  0  0  0
  6  5  1  0  0  0  0
  8  7  2  0  0  0  0
  9  8  1  0  0  0  0
 10 15  1  0  0  0  0
 10  9  1  6  0  0  0
 10 11  1  0  0  0  0
 11 14  1  1  0  0  0
 11 12  1  0  0  0  0
 12 13  1  6  0  0  0
 15 16  1  0  0  0  0
 16 12  1  0  0  0  0
 16 17  1  1  0  0  0
 17 18  1  0  0  0  0
 18 19  1  0  0  0  0
 19 21  1  0  0  0  0
 19 20  1  0  0  0  0
 22 19  2  0  0  0  0
M  END
>  <CHROM.1>
177.47069596,110.78172419,-171.77947424,170.35752480,-55.07497389,20.79714465
-57.55085444,-37.49270033,0.10249161,-0.30502358,-0.78520057

>  <Name>
lig.pdb

>  <RI>
0

>  <Rbt.Current_Directory>
/home/itssahil/PROJECTS/Mol_Feturizer/New_Systems/rnas/5btp

>  <Rbt.Executable>
rbdock ($Id: //depot/dev/client3/rdock/2013.1/src/exe/rbdock.cxx#4 $)

>  <Rbt.Library>
libRbt.so (2013.1, Build901 2013/11/27)

>  <Rbt.Parameter_File>
/export/apps/rDock/src/rDock_2013.1_src/data/scripts/dock_solv.prm

>  <Rbt.Receptor>
prm/pocket_docking_7.prm

>  <SCORE>
-13.4296

>  <SCORE.INTER>
-12.3666

>  <SCORE.INTER.CONST>
1

>  <SCORE.INTER.POLAR>
0

>  <SCORE.INTER.ROT>
5

>  <SCORE.INTER.SOLV>
18.1683

>  <SCORE.INTER.VDW>
-21.2339

>  <SCORE.INTER.norm>
-0.56212

>  <SCORE.INTRA>
-1.06471

>  <SCORE.INTRA.DIHEDRAL>
-1.04562

>  <SCORE.INTRA.DIHEDRAL.0>
4.21161

>  <SCORE.INTRA.POLAR>
0

>  <SCORE.INTRA.POLAR.0>
0

>  <SCORE.INTRA.REPUL>
0

>  <SCORE.INTRA.REPUL.0>
0

>  <SCORE.INTRA.SOLV>
-0.0737295

>  <SCORE.INTRA.SOLV.lig_0>
-41.4168

>  <SCORE.INTRA.VDW>
-0.505034

>  <SCORE.INTRA.VDW.0>
-1.62533

>  <SCORE.INTRA.norm>
-0.0483958

>  <SCORE.RESTR>
0.00180454

>  <SCORE.RESTR.CAVITY>
0.00180454

>  <SCORE.RESTR.norm>
8.20245e-05

>  <SCORE.SYSTEM>
0

>  <SCORE.SYSTEM.CONST>
0

>  <SCORE.SYSTEM.DIHEDRAL>
0

>  <SCORE.SYSTEM.SOLV>
0

>  <SCORE.SYSTEM.norm>
0

>  <SCORE.heavy>
22

>  <SCORE.norm>
-0.610434

>  <RMSD>
7.617

$$$$
lig.pdb
 OpenBabel11021811523D
libRbt.so/2013.1/901 2013/11/27
 22 23  0  0  0  0  0  0  0  0999 V2000
   26.6237  -56.6993  -35.5905 O   0  0  0  0  0  0  0  0  0  0  0  0
   25.7118  -57.4389  -35.9260 C   0  0  0  0  0  0  0  0  0  0  0  0
   25.8062  -58.7642  -35.8194 N   0  0  0  0  0  0  0  0  0  0  0  0
   24.4603  -56.8541  -36.4855 C   0  0  0  0  0  0  0  0  0  0  0  0
   23.2816  -57.6429  -36.8768 C   0  0  0  0  0  0  0  0  0  0  0  0
   23.1691  -59.0925  -36.7804 N   0  0  0  0  0  0  0  0  0  0  0  0
   24.0908  -55.5814  -36.7501 N   0  0  0  0  0  0  0  0  0  0  0  0
   22.8174  -55.6001  -37.2527 C   0  0  0  0  0  0  0  0  0  0  0  0
   22.3211  -56.8541  -37.3311 N   0  0  0  0  0  0  0  0  0  0  0  0
   20.9842  -57.2658  -37.8190 C   0  0  1  0  0  0  0  0  0  0  0  0
   20.0898  -57.6588  -36.6547 C   0  0  1  0  0  0  0  0  0  0  0  0
   18.7184  -57.2501  -37.1279 C   0  0  2  0  0  0  0  0  0  0  0  0
   18.1643  -58.2922  -37.9335 O   0  0  0  0  0  0  0  0  0  0  0  0
   20.1321  -59.0678  -36.4247 O   0  0  0  0  0  0  0  0  0  0  0  0
   20.3254  -56.1881  -38.4946 O   0  0  0  0  0  0  0  0  0  0  0  0
   18.9916  -56.0411  -38.0014 C   0  0  2  0  0  0  0  0  0  0  0  0
   18.8690  -54.7665  -37.1808 C   0  0  0  0  0  0  0  0  0  0  0  0
   18.8573  -53.6549  -38.0749 O   0  0  0  0  0  0  0  0  0  0  0  0
   18.7690  -52.1399  -37.5335 P   0  0  0  0  0  0  0  0  0  0  0  0
   19.9372  -51.9942  -36.5860 O   0  0  0  0  0  0  0  0  0  0  0  0
   17.4166  -52.0940  -36.8625 O   0  0  0  0  0  0  0  0  0  0  0  0
   18.8816  -51.3113  -38.7916 O   0  0  0  0  0  0  0  0  0  0  0  0
  1  2  2  0  0  0  0
  2  4  1  0  0  0  0
  2  3  1  0  0  0  0
  4  7  1  0  0  0  0
  5  9  1  0  0  0  0
  5  4  2  0  0  0  0
  6  5  1  0  0  0  0
  8  7  2  0  0  0  0
  9  8  1  0  0  0  0
 10 15  1  0  0  0  0
 10  9  1  1  0  0  0
 10 11  1  0  0  0  0
 11 14  1  6  0  0  0
 11 12  1  0  0  0  0
 12 13  1  6  0  0  0
 15 16  1  0  0  0  0
 16 12  1  0  0  0  0
 16 17  1  1  0  0  0
 17 18  1  0  0  0  0
 18 19  1  0  0  0  0
 19 21  1  0  0  0  0
 19 20  1  0  0  0  0
 22 19  2  0  0  0  0
M  END
>  <CHROM.1>
-177.71911074,74.38955910,-168.21722436,-178.68235597,56.08681533,21.05822807
-55.72454155,-37.14635630,-0.68211735,-0.20521353,-0.01698508

>  <Name>
lig.pdb

>  <RI>
0

>  <Rbt.Current_Directory>
/home/itssahil/PROJECTS/Mol_Feturizer/New_Systems/rnas/5btp

>  <Rbt.Executable>
rbdock ($Id: //depot/dev/client3/rdock/2013.1/src/exe/rbdock.cxx#4 $)

>  <Rbt.Library>
libRbt.so (2013.1, Build901 2013/11/27)

>  <Rbt.Parameter_File>
/export/apps/rDock/src/rDock_2013.1_src/data/scripts/dock_solv.prm

>  <Rbt.Receptor>
prm/pocket_docking_5.prm

>  <SCORE>
-6.6092

>  <SCORE.INTER>
-5.54278

>  <SCORE.INTER.CONST>
1

>  <SCORE.INTER.POLAR>
0

>  <SCORE.INTER.ROT>
5

>  <SCORE.INTER.SOLV>
11.2694

>  <SCORE.INTER.VDW>
-14.385

>  <SCORE.INTER.norm>
-0.251945

>  <SCORE.INTRA>
-1.06641

>  <SCORE.INTRA.DIHEDRAL>
-1.26263

>  <SCORE.INTRA.DIHEDRAL.0>
4.21161

>  <SCORE.INTRA.POLAR>
0

>  <SCORE.INTRA.POLAR.0>
0

>  <SCORE.INTRA.REPUL>
0

>  <SCORE.INTRA.REPUL.0>
0

>  <SCORE.INTRA.SOLV>
0.196646

>  <SCORE.INTRA.SOLV.lig_0>
-41.4168

>  <SCORE.INTRA.VDW>
-0.533423

>  <SCORE.INTRA.VDW.0>
-1.62533

>  <SCORE.INTRA.norm>
-0.0484734

>  <SCORE.RESTR>
0

>  <SCORE.RESTR.CAVITY>
0

>  <SCORE.RESTR.norm>
0

>  <SCORE.SYSTEM>
0

>  <SCORE.SYSTEM.CONST>
0

>  <SCORE.SYSTEM.DIHEDRAL>
0

>  <SCORE.SYSTEM.SOLV>
0

>  <SCORE.SYSTEM.norm>
0

>  <SCORE.heavy>
22

>  <SCORE.norm>
-0.300418

>  <RMSD>
7.635

$$$$
lig.pdb
 OpenBabel11021811523D
libRbt.so/2013.1/901 2013/11/27
 22 23  0  0  0  0  0  0  0  0999 V2000
   27.4346  -55.3367  -36.5998 O   0  0  0  0  0  0  0  0  0  0  0  0
   26.7818  -55.8625  -37.4878 C   0  0  0  0  0  0  0  0  0  0  0  0
   27.3609  -56.5399  -38.4791 N   0  0  0  0  0  0  0  0  0  0  0  0
   25.2969  -55.7361  -37.4804 C   0  0  0  0  0  0  0  0  0  0  0  0
   24.5242  -55.1240  -36.3881 C   0  0  0  0  0  0  0  0  0  0  0  0
   25.0903  -54.5637  -35.1679 N   0  0  0  0  0  0  0  0  0  0  0  0
   24.3496  -56.0946  -38.3751 N   0  0  0  0  0  0  0  0  0  0  0  0
   23.1274  -55.7366  -37.8725 C   0  0  0  0  0  0  0  0  0  0  0  0
   23.2298  -55.1449  -36.6625 N   0  0  0  0  0  0  0  0  0  0  0  0
   22.1299  -54.6246  -35.8172 C   0  0  1  0  0  0  0  0  0  0  0  0
   21.2785  -53.6375  -36.5986 C   0  0  1  0  0  0  0  0  0  0  0  0
   19.9025  -53.8437  -36.0190 C   0  0  2  0  0  0  0  0  0  0  0  0
   19.7643  -53.0579  -34.8335 O   0  0  0  0  0  0  0  0  0  0  0  0
   21.7108  -52.2946  -36.3760 O   0  0  0  0  0  0  0  0  0  0  0  0
   21.2543  -55.6791  -35.4006 O   0  0  0  0  0  0  0  0  0  0  0  0
   19.8939  -55.3127  -35.6431 C   0  0  2  0  0  0  0  0  0  0  0  0
   19.3191  -56.1394  -36.7829 C   0  0  0  0  0  0  0  0  0  0  0  0
   18.8279  -57.3665  -36.2460 O   0  0  0  0  0  0  0  0  0  0  0  0
   18.1373  -58.4794  -37.1844 P   0  0  0  0  0  0  0  0  0  0  0  0
   17.2825  -57.6974  -38.1546 O   0  0  0  0  0  0  0  0  0  0  0  0
   17.3530  -59.3169  -36.2022 O   0  0  0  0  0  0  0  0  0  0  0  0
   19.3146  -59.1817  -37.8191 O   0  0  0  0  0  0  0  0  0  0  0  0
  1  2  2  0  0  0  0
  2  4  1  0  0  0  0
  2  3  1  0  0  0  0
  4  7  1  0  0  0  0
  5  9  1  0  0  0  0
  5  4  2  0  0  0  0
  6  5  1  0  0  0  0
  8  7  2  0  0  0  0
  9  8  1  0  0  0  0
 10 15  1  0  0  0  0
 10  9  1  6  0  0  0
 10 11  1  0  0  0  0
 11 14  1  1  0  0  0
 11 12  1  0  0  0  0
 12 13  1  1  0  0  0
 15 16  1  0  0  0  0
 16 12  1  0  0  0  0
 16 17  1  6  0  0  0
 17 18  1  0  0  0  0
 18 19  1  0  0  0  0
 19 21  1  0  0  0  0
 19 20  1  0  0  0  0
 22 19  2  0  0  0  0
M  END
>  <CHROM.1>
-6.45009051,125.40564960,-156.96686152,179.49082234,-40.38766829,21.64241269
-55.94541612,-36.71814020,-0.28588281,-0.15005014,-2.73593477

>  <Name>
lig.pdb

>  <RI>
0

>  <Rbt.Current_Directory>
/home/itssahil/PROJECTS/Mol_Feturizer/New_Systems/rnas/5btp

>  <Rbt.Executable>
rbdock ($Id: //depot/dev/client3/rdock/2013.1/src/exe/rbdock.cxx#4 $)

>  <Rbt.Library>
libRbt.so (2013.1, Build901 2013/11/27)

>  <Rbt.Parameter_File>
/export/apps/rDock/src/rDock_2013.1_src/data/scripts/dock_solv.prm

>  <Rbt.Receptor>
prm/pocket_docking_8.prm

>  <SCORE>
-7.37885

>  <SCORE.INTER>
-7.14972

>  <SCORE.INTER.CONST>
1

>  <SCORE.INTER.POLAR>
0

>  <SCORE.INTER.ROT>
5

>  <SCORE.INTER.SOLV>
12.9273

>  <SCORE.INTER.VDW>
-16.0089

>  <SCORE.INTER.norm>
-0.324987

>  <SCORE.INTRA>
-0.229127

>  <SCORE.INTRA.DIHEDRAL>
0.602026

>  <SCORE.INTRA.DIHEDRAL.0>
4.21161

>  <SCORE.INTRA.POLAR>
0

>  <SCORE.INTRA.POLAR.0>
0

>  <SCORE.INTRA.REPUL>
0

>  <SCORE.INTRA.REPUL.0>
0

>  <SCORE.INTRA.SOLV>
-0.509425

>  <SCORE.INTRA.SOLV.lig_0>
-41.4168

>  <SCORE.INTRA.VDW>
-0.275427

>  <SCORE.INTRA.VDW.0>
-1.62533

>  <SCORE.INTRA.norm>
-0.0104149

>  <SCORE.RESTR>
0

>  <SCORE.RESTR.CAVITY>
0

>  <SCORE.RESTR.norm>
0

>  <SCORE.SYSTEM>
0

>  <SCORE.SYSTEM.CONST>
0

>  <SCORE.SYSTEM.DIHEDRAL>
0

>  <SCORE.SYSTEM.SOLV>
0

>  <SCORE.SYSTEM.norm>
0

>  <SCORE.heavy>
22

>  <SCORE.norm>
-0.335402

>  <RMSD>
7.862

$$$$
lig.pdb
 OpenBabel11021811523D
libRbt.so/2013.1/901 2013/11/27
 22 23  0  0  0  0  0  0  0  0999 V2000
   25.5885  -54.7075  -32.6702 O   0  0  0  0  0  0  0  0  0  0  0  0
   25.6944  -54.9103  -33.8697 C   0  0  0  0  0  0  0  0  0  0  0  0
   26.8108  -55.4064  -34.4029 N   0  0  0  0  0  0  0  0  0  0  0  0
   24.5549  -54.5830  -34.7730 C   0  0  0  0  0  0  0  0  0  0  0  0
   23.3189  -53.9147  -34.3364 C   0  0  0  0  0  0  0  0  0  0  0  0
   23.0303  -53.4854  -32.9743 N   0  0  0  0  0  0  0  0  0  0  0  0
   24.3605  -54.7736  -36.0966 N   0  0  0  0  0  0  0  0  0  0  0  0
   23.1297  -54.2724  -36.4260 C   0  0  0  0  0  0  0  0  0  0  0  0
   22.4924  -53.7482  -35.3564 N   0  0  0  0  0  0  0  0  0  0  0  0
   21.1526  -53.1166  -35.3254 C   0  0  1  0  0  0  0  0  0  0  0  0
   20.9103  -52.3184  -36.5959 C   0  0  1  0  0  0  0  0  0  0  0  0
   19.4243  -52.4583  -36.8057 C   0  0  2  0  0  0  0  0  0  0  0  0
   18.7406  -51.4720  -36.0298 O   0  0  0  0  0  0  0  0  0  0  0  0
   21.2553  -50.9443  -36.4153 O   0  0  0  0  0  0  0  0  0  0  0  0
   20.1166  -54.1036  -35.2592 O   0  0  0  0  0  0  0  0  0  0  0  0
   19.1157  -53.8322  -36.2432 C   0  0  2  0  0  0  0  0  0  0  0  0
   19.1677  -54.8730  -37.3509 C   0  0  0  0  0  0  0  0  0  0  0  0
   18.9152  -56.1544  -36.7770 O   0  0  0  0  0  0  0  0  0  0  0  0
   18.9382  -57.4958  -37.6691 P   0  0  0  0  0  0  0  0  0  0  0  0
   20.3744  -57.6450  -38.1146 O   0  0  0  0  0  0  0  0  0  0  0  0
   17.9716  -57.1810  -38.7862 O   0  0  0  0  0  0  0  0  0  0  0  0
   18.4711  -58.5637  -36.7079 O   0  0  0  0  0  0  0  0  0  0  0  0
  1  2  2  0  0  0  0
  2  4  1  0  0  0  0
  2  3  1  0  0  0  0
  4  7  1  0  0  0  0
  5  9  1  0  0  0  0
  5  4  2  0  0  0  0
  6  5  1  0  0  0  0
  8  7  2  0  0  0  0
  9  8  1  0  0  0  0
 10 15  1  0  0  0  0
 10  9  1  6  0  0  0
 10 11  1  0  0  0  0
 11 14  1  1  0  0  0
 11 12  1  0  0  0  0
 12 13  1  1  0  0  0
 15 16  1  0  0  0  0
 16 12  1  0  0  0  0
 16 17  1  6  0  0  0
 17 18  1  0  0  0  0
 18 19  1  0  0  0  0
 19 21  1  0  0  0  0
 19 20  1  0  0  0  0
 22 19  2  0  0  0  0
M  END
>  <CHROM.1>
5.35842263,143.22720589,178.16396781,-178.22665394,66.11484211,21.28352955
-54.74351614,-36.00082285,-0.42103396,0.43623799,-2.93658709

>  <Name>
lig.pdb

>  <RI>
0

>  <Rbt.Current_Directory>
/home/itssahil/PROJECTS/Mol_Feturizer/New_Systems/rnas/5btp

>  <Rbt.Executable>
rbdock ($Id: //depot/dev/client3/rdock/2013.1/src/exe/rbdock.cxx#4 $)

>  <Rbt.Library>
libRbt.so (2013.1, Build901 2013/11/27)

>  <Rbt.Parameter_File>
/export/apps/rDock/src/rDock_2013.1_src/data/scripts/dock_solv.prm

>  <Rbt.Receptor>
prm/pocket_docking_6.prm

>  <SCORE>
-6.57213

>  <SCORE.INTER>
-5.35306

>  <SCORE.INTER.CONST>
1

>  <SCORE.INTER.POLAR>
0

>  <SCORE.INTER.ROT>
5

>  <SCORE.INTER.SOLV>
11.0886

>  <SCORE.INTER.VDW>
-14.1982

>  <SCORE.INTER.norm>
-0.243321

>  <SCORE.INTRA>
-1.21906

>  <SCORE.INTRA.DIHEDRAL>
-1.60857

>  <SCORE.INTRA.DIHEDRAL.0>
4.21161

>  <SCORE.INTRA.POLAR>
0

>  <SCORE.INTRA.POLAR.0>
0

>  <SCORE.INTRA.REPUL>
0

>  <SCORE.INTRA.REPUL.0>
0

>  <SCORE.INTRA.SOLV>
-0.534189

>  <SCORE.INTRA.SOLV.lig_0>
-41.4168

>  <SCORE.INTRA.VDW>
-0.147684

>  <SCORE.INTRA.VDW.0>
-1.62533

>  <SCORE.INTRA.norm>
-0.0554119

>  <SCORE.RESTR>
0

>  <SCORE.RESTR.CAVITY>
0

>  <SCORE.RESTR.norm>
0

>  <SCORE.SYSTEM>
0

>  <SCORE.SYSTEM.CONST>
0

>  <SCORE.SYSTEM.DIHEDRAL>
0

>  <SCORE.SYSTEM.SOLV>
0

>  <SCORE.SYSTEM.norm>
0

>  <SCORE.heavy>
22

>  <SCORE.norm>
-0.298733

>  <RMSD>
8.095

$$$$
lig.pdb
 OpenBabel11021811523D
libRbt.so/2013.1/901 2013/11/27
 22 23  0  0  0  0  0  0  0  0999 V2000
   25.5580  -55.7093  -35.2121 O   0  0  0  0  0  0  0  0  0  0  0  0
   25.6939  -54.8957  -34.3117 C   0  0  0  0  0  0  0  0  0  0  0  0
   26.8107  -54.8292  -33.5870 N   0  0  0  0  0  0  0  0  0  0  0  0
   24.5803  -53.9567  -33.9965 C   0  0  0  0  0  0  0  0  0  0  0  0
   23.2742  -53.9654  -34.6738 C   0  0  0  0  0  0  0  0  0  0  0  0
   22.8856  -54.8784  -35.7410 N   0  0  0  0  0  0  0  0  0  0  0  0
   24.4628  -52.9555  -33.0965 N   0  0  0  0  0  0  0  0  0  0  0  0
   23.2117  -52.4129  -33.2193 C   0  0  0  0  0  0  0  0  0  0  0  0
   22.4848  -53.0257  -34.1789 N   0  0  0  0  0  0  0  0  0  0  0  0
   21.0961  -52.7175  -34.5930 C   0  0  1  0  0  0  0  0  0  0  0  0
   21.0052  -52.5977  -36.1054 C   0  0  1  0  0  0  0  0  0  0  0  0
   19.6164  -53.1025  -36.4025 C   0  0  2  0  0  0  0  0  0  0  0  0
   18.6791  -52.0362  -36.2399 O   0  0  0  0  0  0  0  0  0  0  0  0
   21.1353  -51.2383  -36.5237 O   0  0  0  0  0  0  0  0  0  0  0  0
   20.1976  -53.7660  -34.2115 O   0  0  0  0  0  0  0  0  0  0  0  0
   19.3787  -54.1397  -35.3222 C   0  0  2  0  0  0  0  0  0  0  0  0
   19.7717  -55.5191  -35.8280 C   0  0  0  0  0  0  0  0  0  0  0  0
   18.9190  -55.8579  -36.9204 O   0  0  0  0  0  0  0  0  0  0  0  0
   18.9913  -57.3037  -37.6278 P   0  0  0  0  0  0  0  0  0  0  0  0
   20.4346  -57.4629  -38.0462 O   0  0  0  0  0  0  0  0  0  0  0  0
   18.0227  -57.1707  -38.7791 O   0  0  0  0  0  0  0  0  0  0  0  0
   18.5523  -58.2504  -36.5354 O   0  0  0  0  0  0  0  0  0  0  0  0
  1  2  2  0  0  0  0
  2  4  1  0  0  0  0
  2  3  1  0  0  0  0
  4  7  1  0  0  0  0
  5  9  1  0  0  0  0
  5  4  2  0  0  0  0
  6  5  1  0  0  0  0
  8  7  2  0  0  0  0
  9  8  1  0  0  0  0
 10 15  1  0  0  0  0
 10  9  1  6  0  0  0
 10 11  1  0  0  0  0
 11 14  1  1  0  0  0
 11 12  1  0  0  0  0
 12 13  1  1  0  0  0
 15 16  1  0  0  0  0
 16 12  1  0  0  0  0
 16 17  1  6  0  0  0
 17 18  1  0  0  0  0
 18 19  1  0  0  0  0
 19 21  1  0  0  0  0
 19 20  1  0  0  0  0
 22 19  2  0  0  0  0
M  END
>  <CHROM.1>
2.32935668,-48.87959651,-63.50897611,-175.50781847,-55.26787576,21.33719078
-54.65267899,-35.69375099,-0.55412348,0.36837017,-2.79994169

>  <Name>
lig.pdb

>  <RI>
0

>  <Rbt.Current_Directory>
/home/itssahil/PROJECTS/Mol_Feturizer/New_Systems/rnas/5btp

>  <Rbt.Executable>
rbdock ($Id: //depot/dev/client3/rdock/2013.1/src/exe/rbdock.cxx#4 $)

>  <Rbt.Library>
libRbt.so (2013.1, Build901 2013/11/27)

>  <Rbt.Parameter_File>
/export/apps/rDock/src/rDock_2013.1_src/data/scripts/dock_solv.prm

>  <Rbt.Receptor>
prm/pocket_docking_7.prm

>  <SCORE>
-6.38335

>  <SCORE.INTER>
-5.51272

>  <SCORE.INTER.CONST>
1

>  <SCORE.INTER.POLAR>
0

>  <SCORE.INTER.ROT>
5

>  <SCORE.INTER.SOLV>
11.4254

>  <SCORE.INTER.VDW>
-14.4169

>  <SCORE.INTER.norm>
-0.250578

>  <SCORE.INTRA>
-0.870627

>  <SCORE.INTRA.DIHEDRAL>
-1.5854

>  <SCORE.INTRA.DIHEDRAL.0>
4.21161

>  <SCORE.INTRA.POLAR>
0

>  <SCORE.INTRA.POLAR.0>
0

>  <SCORE.INTRA.REPUL>
0

>  <SCORE.INTRA.REPUL.0>
0

>  <SCORE.INTRA.SOLV>
1.18619

>  <SCORE.INTRA.SOLV.lig_0>
-41.4168

>  <SCORE.INTRA.VDW>
-0.671023

>  <SCORE.INTRA.VDW.0>
-1.62533

>  <SCORE.INTRA.norm>
-0.0395739

>  <SCORE.RESTR>
0

>  <SCORE.RESTR.CAVITY>
0

>  <SCORE.RESTR.norm>
0

>  <SCORE.SYSTEM>
0

>  <SCORE.SYSTEM.CONST>
0

>  <SCORE.SYSTEM.DIHEDRAL>
0

>  <SCORE.SYSTEM.SOLV>
0

>  <SCORE.SYSTEM.norm>
0

>  <SCORE.heavy>
22

>  <SCORE.norm>
-0.290152

>  <RMSD>
8.102

$$$$
lig.pdb
 OpenBabel11021811523D
libRbt.so/2013.1/901 2013/11/27
 22 23  0  0  0  0  0  0  0  0999 V2000
   18.0004  -58.0152  -38.9255 O   0  0  0  0  0  0  0  0  0  0  0  0
   18.6542  -57.2952  -38.1870 C   0  0  0  0  0  0  0  0  0  0  0  0
   19.5366  -57.7928  -37.3207 N   0  0  0  0  0  0  0  0  0  0  0  0
   18.4563  -55.8189  -38.2374 C   0  0  0  0  0  0  0  0  0  0  0  0
   18.8985  -54.8887  -37.1866 C   0  0  0  0  0  0  0  0  0  0  0  0
   19.5811  -55.2707  -35.9572 N   0  0  0  0  0  0  0  0  0  0  0  0
   17.8917  -55.0083  -39.1596 N   0  0  0  0  0  0  0  0  0  0  0  0
   17.9821  -53.7183  -38.7098 C   0  0  0  0  0  0  0  0  0  0  0  0
   18.5951  -53.6415  -37.5085 N   0  0  0  0  0  0  0  0  0  0  0  0
   18.8741  -52.4220  -36.7149 C   0  0  1  0  0  0  0  0  0  0  0  0
   20.2788  -51.9139  -36.9948 C   0  0  1  0  0  0  0  0  0  0  0  0
   20.1344  -50.4206  -36.8495 C   0  0  2  0  0  0  0  0  0  0  0  0
   20.2566  -50.0640  -35.4711 O   0  0  0  0  0  0  0  0  0  0  0  0
   21.2093  -52.4147  -36.0340 O   0  0  0  0  0  0  0  0  0  0  0  0
   17.9783  -51.3605  -37.0652 O   0  0  0  0  0  0  0  0  0  0  0  0
   18.7122  -50.1572  -37.3049 C   0  0  2  0  0  0  0  0  0  0  0  0
   18.6941  -49.8134  -38.7863 C   0  0  0  0  0  0  0  0  0  0  0  0
   17.3760  -49.3936  -39.1350 O   0  0  0  0  0  0  0  0  0  0  0  0
   16.9906  -49.0009  -40.6493 P   0  0  0  0  0  0  0  0  0  0  0  0
   17.8549  -47.8051  -40.9756 O   0  0  0  0  0  0  0  0  0  0  0  0
   15.5147  -48.6933  -40.5585 O   0  0  0  0  0  0  0  0  0  0  0  0
   17.3321  -50.2472  -41.4320 O   0  0  0  0  0  0  0  0  0  0  0  0
  1  2  2  0  0  0  0
  2  4  1  0  0  0  0
  2  3  1  0  0  0  0
  4  7  1  0  0  0  0
  5  9  1  0  0  0  0
  5  4  2  0  0  0  0
  6  5  1  0  0  0  0
  8  7  2  0  0  0  0
  9  8  1  0  0  0  0
 10 15  1  0  0  0  0
 10  9  1  6  0  0  0
 10 11  1  0  0  0  0
 11 14  1  1  0  0  0
 11 12  1  0  0  0  0
 12 13  1  1  0  0  0
 15 16  1  0  0  0  0
 16 12  1  0  0  0  0
 16 17  1  6  0  0  0
 17 18  1  0  0  0  0
 18 19  1  0  0  0  0
 19 21  1  0  0  0  0
 19 20  1  0  0  0  0
 22 19  2  0  0  0  0
M  END
>  <CHROM.1>
163.09077935,85.14834031,-172.08131806,-177.89401374,-62.66403473,18.47043810
-52.20224413,-38.31679156,1.21596829,0.94402627,3.11061416

>  <Name>
lig.pdb

>  <RI>
0

>  <Rbt.Current_Directory>
/home/itssahil/PROJECTS/Mol_Feturizer/New_Systems/rnas/5btp

>  <Rbt.Executable>
rbdock ($Id: //depot/dev/client3/rdock/2013.1/src/exe/rbdock.cxx#4 $)

>  <Rbt.Library>
libRbt.so (2013.1, Build901 2013/11/27)

>  <Rbt.Parameter_File>
/export/apps/rDock/src/rDock_2013.1_src/data/scripts/dock_solv.prm

>  <Rbt.Receptor>
prm/blind_docking_80.prm

>  <SCORE>
-10.866

>  <SCORE.INTER>
-10.0834

>  <SCORE.INTER.CONST>
1

>  <SCORE.INTER.POLAR>
0

>  <SCORE.INTER.ROT>
5

>  <SCORE.INTER.SOLV>
18.453

>  <SCORE.INTER.VDW>
-19.8066

>  <SCORE.INTER.norm>
-0.458336

>  <SCORE.INTRA>
-0.782579

>  <SCORE.INTRA.DIHEDRAL>
-0.576263

>  <SCORE.INTRA.DIHEDRAL.0>
4.21161

>  <SCORE.INTRA.POLAR>
0

>  <SCORE.INTRA.POLAR.0>
0

>  <SCORE.INTRA.REPUL>
0

>  <SCORE.INTRA.REPUL.0>
0

>  <SCORE.INTRA.SOLV>
0.301388

>  <SCORE.INTRA.SOLV.lig_0>
-41.4168

>  <SCORE.INTRA.VDW>
-0.645141

>  <SCORE.INTRA.VDW.0>
-1.62533

>  <SCORE.INTRA.norm>
-0.0355718

>  <SCORE.RESTR>
0

>  <SCORE.RESTR.CAVITY>
0

>  <SCORE.RESTR.norm>
0

>  <SCORE.SYSTEM>
0

>  <SCORE.SYSTEM.CONST>
0

>  <SCORE.SYSTEM.DIHEDRAL>
0

>  <SCORE.SYSTEM.SOLV>
0

>  <SCORE.SYSTEM.norm>
0

>  <SCORE.heavy>
22

>  <SCORE.norm>
-0.493908

>  <RMSD>
8.351

$$$$
lig.pdb
 OpenBabel11021811523D
libRbt.so/2013.1/901 2013/11/27
 22 23  0  0  0  0  0  0  0  0999 V2000
   23.9007  -52.6085  -38.5185 O   0  0  0  0  0  0  0  0  0  0  0  0
   24.0197  -53.7760  -38.1810 C   0  0  0  0  0  0  0  0  0  0  0  0
   24.6192  -54.6755  -38.9609 N   0  0  0  0  0  0  0  0  0  0  0  0
   23.4693  -54.2208  -36.8694 C   0  0  0  0  0  0  0  0  0  0  0  0
   22.4518  -53.4815  -36.1058 C   0  0  0  0  0  0  0  0  0  0  0  0
   21.8453  -52.2206  -36.5129 N   0  0  0  0  0  0  0  0  0  0  0  0
   23.7108  -55.3079  -36.1038 N   0  0  0  0  0  0  0  0  0  0  0  0
   22.9198  -55.2317  -34.9889 C   0  0  0  0  0  0  0  0  0  0  0  0
   22.1514  -54.1207  -34.9867 N   0  0  0  0  0  0  0  0  0  0  0  0
   21.1749  -53.7018  -33.9543 C   0  0  1  0  0  0  0  0  0  0  0  0
   20.9911  -52.1932  -33.9757 C   0  0  1  0  0  0  0  0  0  0  0  0
   19.5489  -52.0218  -33.5728 C   0  0  2  0  0  0  0  0  0  0  0  0
   19.4495  -52.0356  -32.1473 O   0  0  0  0  0  0  0  0  0  0  0  0
   21.8470  -51.5561  -33.0263 O   0  0  0  0  0  0  0  0  0  0  0  0
   19.8848  -54.2740  -34.1998 O   0  0  0  0  0  0  0  0  0  0  0  0
   18.8769  -53.2626  -34.1280 C   0  0  2  0  0  0  0  0  0  0  0  0
   18.3157  -52.9766  -35.5124 C   0  0  0  0  0  0  0  0  0  0  0  0
   17.4043  -51.8838  -35.4118 O   0  0  0  0  0  0  0  0  0  0  0  0
   16.0332  -52.0054  -34.5745 P   0  0  0  0  0  0  0  0  0  0  0  0
   16.4654  -52.2960  -33.1560 O   0  0  0  0  0  0  0  0  0  0  0  0
   15.3182  -53.1503  -35.2521 O   0  0  0  0  0  0  0  0  0  0  0  0
   15.3867  -50.6530  -34.7629 O   0  0  0  0  0  0  0  0  0  0  0  0
  1  2  2  0  0  0  0
  2  4  1  0  0  0  0
  2  3  1  0  0  0  0
  4  7  1  0  0  0  0
  5  9  1  0  0  0  0
  5  4  2  0  0  0  0
  6  5  1  0  0  0  0
  8  7  2  0  0  0  0
  9  8  1  0  0  0  0
 10 15  1  0  0  0  0
 10  9  1  6  0  0  0
 10 11  1  0  0  0  0
 11 14  1  1  0  0  0
 11 12  1  0  0  0  0
 12 13  1  1  0  0  0
 15 16  1  0  0  0  0
 16 12  1  0  0  0  0
 16 17  1  6  0  0  0
 17 18  1  0  0  0  0
 18 19  1  0  0  0  0
 19 21  1  0  0  0  0
 19 20  1  0  0  0  0
 22 19  2  0  0  0  0
M  END
>  <CHROM.1>
18.81630810,-25.44793421,-57.58637688,-65.29684427,61.00490472,20.07810510
-52.96634944,-35.14073383,0.37469828,0.24091079,-1.64826068

>  <Name>
lig.pdb

>  <RI>
0

>  <Rbt.Current_Directory>
/home/itssahil/PROJECTS/Mol_Feturizer/New_Systems/rnas/5btp

>  <Rbt.Executable>
rbdock ($Id: //depot/dev/client3/rdock/2013.1/src/exe/rbdock.cxx#4 $)

>  <Rbt.Library>
libRbt.so (2013.1, Build901 2013/11/27)

>  <Rbt.Parameter_File>
/export/apps/rDock/src/rDock_2013.1_src/data/scripts/dock_solv.prm

>  <Rbt.Receptor>
prm/pocket_docking_8.prm

>  <SCORE>
-3.82535

>  <SCORE.INTER>
-5.055

>  <SCORE.INTER.CONST>
1

>  <SCORE.INTER.POLAR>
0

>  <SCORE.INTER.ROT>
5

>  <SCORE.INTER.SOLV>
14.7364

>  <SCORE.INTER.VDW>
-15.2155

>  <SCORE.INTER.norm>
-0.229773

>  <SCORE.INTRA>
1.22964

>  <SCORE.INTRA.DIHEDRAL>
-0.438988

>  <SCORE.INTRA.DIHEDRAL.0>
4.21161

>  <SCORE.INTRA.POLAR>
0

>  <SCORE.INTRA.POLAR.0>
0

>  <SCORE.INTRA.REPUL>
0

>  <SCORE.INTRA.REPUL.0>
0

>  <SCORE.INTRA.SOLV>
1.9504

>  <SCORE.INTRA.SOLV.lig_0>
-41.4168

>  <SCORE.INTRA.VDW>
0.473938

>  <SCORE.INTRA.VDW.0>
-1.62533

>  <SCORE.INTRA.norm>
0.0558929

>  <SCORE.RESTR>
0

>  <SCORE.RESTR.CAVITY>
0

>  <SCORE.RESTR.norm>
0

>  <SCORE.SYSTEM>
0

>  <SCORE.SYSTEM.CONST>
0

>  <SCORE.SYSTEM.DIHEDRAL>
0

>  <SCORE.SYSTEM.SOLV>
0

>  <SCORE.SYSTEM.norm>
0

>  <SCORE.heavy>
22

>  <SCORE.norm>
-0.17388

>  <RMSD>
8.492

$$$$
lig.pdb
 OpenBabel11021811523D
libRbt.so/2013.1/901 2013/11/27
 22 23  0  0  0  0  0  0  0  0999 V2000
   11.4156  -50.3118  -38.5321 O   0  0  0  0  0  0  0  0  0  0  0  0
   12.1968  -49.6928  -39.2375 C   0  0  0  0  0  0  0  0  0  0  0  0
   11.8739  -49.3046  -40.4711 N   0  0  0  0  0  0  0  0  0  0  0  0
   13.5567  -49.3706  -38.7197 C   0  0  0  0  0  0  0  0  0  0  0  0
   14.5506  -48.5675  -39.4490 C   0  0  0  0  0  0  0  0  0  0  0  0
   14.3548  -47.9816  -40.7687 N   0  0  0  0  0  0  0  0  0  0  0  0
   14.1856  -49.6782  -37.5638 N   0  0  0  0  0  0  0  0  0  0  0  0
   15.4348  -49.1184  -37.5930 C   0  0  0  0  0  0  0  0  0  0  0  0
   15.6606  -48.4409  -38.7396 N   0  0  0  0  0  0  0  0  0  0  0  0
   16.8880  -47.7069  -39.1265 C   0  0  1  0  0  0  0  0  0  0  0  0
   17.1186  -46.5269  -38.1967 C   0  0  1  0  0  0  0  0  0  0  0  0
   18.6216  -46.4278  -38.1413 C   0  0  2  0  0  0  0  0  0  0  0  0
   19.0885  -45.6675  -39.2576 O   0  0  0  0  0  0  0  0  0  0  0  0
   16.5654  -45.3272  -38.7393 O   0  0  0  0  0  0  0  0  0  0  0  0
   18.0462  -48.5432  -39.0202 O   0  0  0  0  0  0  0  0  0  0  0  0
   19.0766  -47.8659  -38.2967 C   0  0  2  0  0  0  0  0  0  0  0  0
   19.2683  -48.5030  -36.9291 C   0  0  0  0  0  0  0  0  0  0  0  0
   19.9044  -49.7675  -37.1065 O   0  0  0  0  0  0  0  0  0  0  0  0
   20.5579  -50.5625  -35.8669 P   0  0  0  0  0  0  0  0  0  0  0  0
   21.6376  -49.6460  -35.3397 O   0  0  0  0  0  0  0  0  0  0  0  0
   21.0767  -51.8284  -36.5068 O   0  0  0  0  0  0  0  0  0  0  0  0
   19.3939  -50.7589  -34.9241 O   0  0  0  0  0  0  0  0  0  0  0  0
  1  2  2  0  0  0  0
  2  4  1  0  0  0  0
  2  3  1  0  0  0  0
  4  7  1  0  0  0  0
  5  9  1  0  0  0  0
  5  4  2  0  0  0  0
  6  5  1  0  0  0  0
  8  7  2  0  0  0  0
  9  8  1  0  0  0  0
 10 15  1  0  0  0  0
 10  9  1  1  0  0  0
 10 11  1  0  0  0  0
 11 14  1  6  0  0  0
 11 12  1  0  0  0  0
 12 13  1  6  0  0  0
 15 16  1  0  0  0  0
 16 12  1  0  0  0  0
 16 17  1  1  0  0  0
 17 18  1  0  0  0  0
 18 19  1  0  0  0  0
 19 21  1  0  0  0  0
 19 20  1  0  0  0  0
 22 19  2  0  0  0  0
M  END
>  <CHROM.1>
-176.41668038,115.19628276,-170.43964950,165.93544201,-61.12525237,17.15879460
-48.82595805,-37.94520888,2.84828428,-0.30035907,-0.48987475

>  <Name>
lig.pdb

>  <RI>
0

>  <Rbt.Current_Directory>
/home/itssahil/PROJECTS/Mol_Feturizer/New_Systems/rnas/5btp

>  <Rbt.Executable>
rbdock ($Id: //depot/dev/client3/rdock/2013.1/src/exe/rbdock.cxx#4 $)

>  <Rbt.Library>
libRbt.so (2013.1, Build901 2013/11/27)

>  <Rbt.Parameter_File>
/export/apps/rDock/src/rDock_2013.1_src/data/scripts/dock_solv.prm

>  <Rbt.Receptor>
prm/blind_docking_80.prm

>  <SCORE>
-7.41076

>  <SCORE.INTER>
-6.64483

>  <SCORE.INTER.CONST>
1

>  <SCORE.INTER.POLAR>
0

>  <SCORE.INTER.ROT>
5

>  <SCORE.INTER.SOLV>
16.1864

>  <SCORE.INTER.VDW>
-16.7587

>  <SCORE.INTER.norm>
-0.302038

>  <SCORE.INTRA>
-0.765924

>  <SCORE.INTRA.DIHEDRAL>
-0.49758

>  <SCORE.INTRA.DIHEDRAL.0>
4.21161

>  <SCORE.INTRA.POLAR>
0

>  <SCORE.INTRA.POLAR.0>
0

>  <SCORE.INTRA.REPUL>
0

>  <SCORE.INTRA.REPUL.0>
0

>  <SCORE.INTRA.SOLV>
-0.117958

>  <SCORE.INTRA.SOLV.lig_0>
-41.4168

>  <SCORE.INTRA.VDW>
-0.458155

>  <SCORE.INTRA.VDW.0>
-1.62533

>  <SCORE.INTRA.norm>
-0.0348147

>  <SCORE.RESTR>
0

>  <SCORE.RESTR.CAVITY>
0

>  <SCORE.RESTR.norm>
0

>  <SCORE.SYSTEM>
0

>  <SCORE.SYSTEM.CONST>
0

>  <SCORE.SYSTEM.DIHEDRAL>
0

>  <SCORE.SYSTEM.SOLV>
0

>  <SCORE.SYSTEM.norm>
0

>  <SCORE.heavy>
22

>  <SCORE.norm>
-0.336853

>  <RMSD>
10.052

$$$$
lig.pdb
 OpenBabel11021811523D
libRbt.so/2013.1/901 2013/11/27
 22 23  0  0  0  0  0  0  0  0999 V2000
   18.5912  -54.7279  -38.2655 O   0  0  0  0  0  0  0  0  0  0  0  0
   18.6279  -53.8056  -37.4660 C   0  0  0  0  0  0  0  0  0  0  0  0
   18.6222  -54.0158  -36.1497 N   0  0  0  0  0  0  0  0  0  0  0  0
   18.6649  -52.4020  -37.9657 C   0  0  0  0  0  0  0  0  0  0  0  0
   18.5795  -51.2140  -37.1019 C   0  0  0  0  0  0  0  0  0  0  0  0
   18.4431  -51.2361  -35.6513 N   0  0  0  0  0  0  0  0  0  0  0  0
   18.7855  -51.8819  -39.2071 N   0  0  0  0  0  0  0  0  0  0  0  0
   18.7722  -50.5167  -39.1035 C   0  0  0  0  0  0  0  0  0  0  0  0
   18.6471  -50.1062  -37.8226 N   0  0  0  0  0  0  0  0  0  0  0  0
   18.5981  -48.7122  -37.3232 C   0  0  1  0  0  0  0  0  0  0  0  0
   17.6490  -47.8771  -38.1669 C   0  0  1  0  0  0  0  0  0  0  0  0
   17.0884  -46.8929  -37.1726 C   0  0  2  0  0  0  0  0  0  0  0  0
   17.9832  -45.7861  -37.0444 O   0  0  0  0  0  0  0  0  0  0  0  0
   18.3508  -47.1866  -39.2016 O   0  0  0  0  0  0  0  0  0  0  0  0
   18.1033  -48.6609  -35.9799 O   0  0  0  0  0  0  0  0  0  0  0  0
   17.0759  -47.6726  -35.8721 C   0  0  2  0  0  0  0  0  0  0  0  0
   15.7220  -48.3370  -35.6753 C   0  0  0  0  0  0  0  0  0  0  0  0
   14.7582  -47.3220  -35.3996 O   0  0  0  0  0  0  0  0  0  0  0  0
   13.1979  -47.6732  -35.2049 P   0  0  0  0  0  0  0  0  0  0  0  0
   12.5649  -46.3888  -34.7221 O   0  0  0  0  0  0  0  0  0  0  0  0
   13.2212  -48.7785  -34.1758 O   0  0  0  0  0  0  0  0  0  0  0  0
   12.7604  -48.1014  -36.5861 O   0  0  0  0  0  0  0  0  0  0  0  0
  1  2  2  0  0  0  0
  2  4  1  0  0  0  0
  2  3  1  0  0  0  0
  4  7  1  0  0  0  0
  5  9  1  0  0  0  0
  5  4  2  0  0  0  0
  6  5  1  0  0  0  0
  8  7  2  0  0  0  0
  9  8  1  0  0  0  0
 10 15  1  0  0  0  0
 10  9  1  6  0  0  0
 10 11  1  0  0  0  0
 11 14  1  6  0  0  0
 11 12  1  0  0  0  0
 12 13  1  1  0  0  0
 15 16  1  0  0  0  0
 16 12  1  0  0  0  0
 16 17  1  6  0  0  0
 17 18  1  0  0  0  0
 18 19  1  0  0  0  0
 19 21  1  0  0  0  0
 19 20  1  0  0  0  0
 22 19  2  0  0  0  0
M  END
>  <CHROM.1>
173.82880864,-133.99085396,-70.14435996,177.14633835,171.35397345,16.73843683
-49.32747939,-36.74625520,0.70585995,-0.54154446,3.03305337

>  <Name>
lig.pdb

>  <RI>
0

>  <Rbt.Current_Directory>
/home/itssahil/PROJECTS/Mol_Feturizer/New_Systems/rnas/5btp

>  <Rbt.Executable>
rbdock ($Id: //depot/dev/client3/rdock/2013.1/src/exe/rbdock.cxx#4 $)

>  <Rbt.Library>
libRbt.so (2013.1, Build901 2013/11/27)

>  <Rbt.Parameter_File>
/export/apps/rDock/src/rDock_2013.1_src/data/scripts/dock_solv.prm

>  <Rbt.Receptor>
prm/blind_docking_100.prm

>  <SCORE>
-1.13206

>  <SCORE.INTER>
-1.07251

>  <SCORE.INTER.CONST>
1

>  <SCORE.INTER.POLAR>
0

>  <SCORE.INTER.ROT>
5

>  <SCORE.INTER.SOLV>
11.4135

>  <SCORE.INTER.VDW>
-11.4528

>  <SCORE.INTER.norm>
-0.0487503

>  <SCORE.INTRA>
-0.0614851

>  <SCORE.INTRA.DIHEDRAL>
-1.12812

>  <SCORE.INTRA.DIHEDRAL.0>
4.21161

>  <SCORE.INTRA.POLAR>
0

>  <SCORE.INTRA.POLAR.0>
0

>  <SCORE.INTRA.REPUL>
0

>  <SCORE.INTRA.REPUL.0>
0

>  <SCORE.INTRA.SOLV>
0.789054

>  <SCORE.INTRA.SOLV.lig_0>
-41.4168

>  <SCORE.INTRA.VDW>
0.108046

>  <SCORE.INTRA.VDW.0>
-1.62533

>  <SCORE.INTRA.norm>
-0.00279478

>  <SCORE.RESTR>
0.00193188

>  <SCORE.RESTR.CAVITY>
0.00193188

>  <SCORE.RESTR.norm>
8.78125e-05

>  <SCORE.SYSTEM>
0

>  <SCORE.SYSTEM.CONST>
0

>  <SCORE.SYSTEM.DIHEDRAL>
0

>  <SCORE.SYSTEM.SOLV>
0

>  <SCORE.SYSTEM.norm>
0

>  <SCORE.heavy>
22

>  <SCORE.norm>
-0.0514573

>  <RMSD>
10.647

$$$$
lig.pdb
 OpenBabel11021811523D
libRbt.so/2013.1/901 2013/11/27
 22 23  0  0  0  0  0  0  0  0999 V2000
   12.3130  -49.2327  -40.6025 O   0  0  0  0  0  0  0  0  0  0  0  0
   13.1366  -48.9187  -39.7573 C   0  0  0  0  0  0  0  0  0  0  0  0
   14.4405  -48.8710  -40.0301 N   0  0  0  0  0  0  0  0  0  0  0  0
   12.6828  -48.5927  -38.3756 C   0  0  0  0  0  0  0  0  0  0  0  0
   13.5843  -48.4460  -37.2220 C   0  0  0  0  0  0  0  0  0  0  0  0
   15.0326  -48.6008  -37.2606 N   0  0  0  0  0  0  0  0  0  0  0  0
   11.4595  -48.3552  -37.8529 N   0  0  0  0  0  0  0  0  0  0  0  0
   11.6072  -48.0932  -36.5172 C   0  0  0  0  0  0  0  0  0  0  0  0
   12.9001  -48.1473  -36.1294 N   0  0  0  0  0  0  0  0  0  0  0  0
   13.4441  -47.9192  -34.7703 C   0  0  1  0  0  0  0  0  0  0  0  0
   12.4744  -48.4270  -33.7160 C   0  0  1  0  0  0  0  0  0  0  0  0
   13.3879  -48.8876  -32.6092 C   0  0  2  0  0  0  0  0  0  0  0  0
   13.7342  -47.7728  -31.7849 O   0  0  0  0  0  0  0  0  0  0  0  0
   11.6246  -47.3783  -33.2492 O   0  0  0  0  0  0  0  0  0  0  0  0
   14.6698  -48.6348  -34.5767 O   0  0  0  0  0  0  0  0  0  0  0  0
   14.6253  -49.3616  -33.3464 C   0  0  2  0  0  0  0  0  0  0  0  0
   14.5306  -50.8551  -33.6180 C   0  0  0  0  0  0  0  0  0  0  0  0
   15.5408  -51.2060  -34.5622 O   0  0  0  0  0  0  0  0  0  0  0  0
   15.6915  -52.7126  -35.1130 P   0  0  0  0  0  0  0  0  0  0  0  0
   14.2754  -53.1945  -35.3269 O   0  0  0  0  0  0  0  0  0  0  0  0
   16.4235  -53.4149  -33.9940 O   0  0  0  0  0  0  0  0  0  0  0  0
   16.4893  -52.5423  -36.3845 O   0  0  0  0  0  0  0  0  0  0  0  0
  1  2  2  0  0  0  0
  2  4  1  0  0  0  0
  2  3  1  0  0  0  0
  4  7  1  0  0  0  0
  5  9  1  0  0  0  0
  5  4  2  0  0  0  0
  6  5  1  0  0  0  0
  8  7  2  0  0  0  0
  9  8  1  0  0  0  0
 10 15  1  0  0  0  0
 10  9  1  6  0  0  0
 10 11  1  0  0  0  0
 11 14  1  1  0  0  0
 11 12  1  0  0  0  0
 12 13  1  1  0  0  0
 15 16  1  0  0  0  0
 16 12  1  0  0  0  0
 16 17  1  6  0  0  0
 17 18  1  0  0  0  0
 18 19  1  0  0  0  0
 19 21  1  0  0  0  0
 19 20  1  0  0  0  0
 22 19  2  0  0  0  0
M  END
>  <CHROM.1>
168.21429227,-145.49628562,166.94137774,-177.91203710,40.44242670,13.96773257
-49.76341803,-35.67081298,-2.42608280,-0.96555162,1.44198931

>  <Name>
lig.pdb

>  <RI>
0

>  <Rbt.Current_Directory>
/home/itssahil/PROJECTS/Mol_Feturizer/New_Systems/rnas/5btp

>  <Rbt.Executable>
rbdock ($Id: //depot/dev/client3/rdock/2013.1/src/exe/rbdock.cxx#4 $)

>  <Rbt.Library>
libRbt.so (2013.1, Build901 2013/11/27)

>  <Rbt.Parameter_File>
/export/apps/rDock/src/rDock_2013.1_src/data/scripts/dock_solv.prm

>  <Rbt.Receptor>
prm/blind_docking_80.prm

>  <SCORE>
-11.1478

>  <SCORE.INTER>
-11.2412

>  <SCORE.INTER.CONST>
1

>  <SCORE.INTER.POLAR>
0

>  <SCORE.INTER.ROT>
5

>  <SCORE.INTER.SOLV>
17.7242

>  <SCORE.INTER.VDW>
-20.3355

>  <SCORE.INTER.norm>
-0.510962

>  <SCORE.INTRA>
0.0933212

>  <SCORE.INTRA.DIHEDRAL>
-0.117919

>  <SCORE.INTRA.DIHEDRAL.0>
4.21161

>  <SCORE.INTRA.POLAR>
0

>  <SCORE.INTRA.POLAR.0>
0

>  <SCORE.INTRA.REPUL>
0

>  <SCORE.INTRA.REPUL.0>
0

>  <SCORE.INTRA.SOLV>
0.411113

>  <SCORE.INTRA.SOLV.lig_0>
-41.4168

>  <SCORE.INTRA.VDW>
-0.0532754

>  <SCORE.INTRA.VDW.0>
-1.62533

>  <SCORE.INTRA.norm>
0.00424187

>  <SCORE.RESTR>
0

>  <SCORE.RESTR.CAVITY>
0

>  <SCORE.RESTR.norm>
0

>  <SCORE.SYSTEM>
0

>  <SCORE.SYSTEM.CONST>
0

>  <SCORE.SYSTEM.DIHEDRAL>
0

>  <SCORE.SYSTEM.SOLV>
0

>  <SCORE.SYSTEM.norm>
0

>  <SCORE.heavy>
22

>  <SCORE.norm>
-0.50672

>  <RMSD>
10.959

$$$$
lig.pdb
 OpenBabel11021811523D
libRbt.so/2013.1/901 2013/11/27
 22 23  0  0  0  0  0  0  0  0999 V2000
   13.2295  -49.2688  -39.7674 O   0  0  0  0  0  0  0  0  0  0  0  0
   12.1127  -49.0442  -39.3275 C   0  0  0  0  0  0  0  0  0  0  0  0
   11.0211  -49.1740  -40.0814 N   0  0  0  0  0  0  0  0  0  0  0  0
   11.9566  -48.5974  -37.9143 C   0  0  0  0  0  0  0  0  0  0  0  0
   13.0642  -48.4991  -36.9507 C   0  0  0  0  0  0  0  0  0  0  0  0
   14.4563  -48.8245  -37.2325 N   0  0  0  0  0  0  0  0  0  0  0  0
   10.8818  -48.1917  -37.2027 N   0  0  0  0  0  0  0  0  0  0  0  0
   11.2983  -47.8813  -35.9359 C   0  0  0  0  0  0  0  0  0  0  0  0
   12.6271  -48.0670  -35.7788 N   0  0  0  0  0  0  0  0  0  0  0  0
   13.4316  -47.8354  -34.5565 C   0  0  1  0  0  0  0  0  0  0  0  0
   12.6811  -48.3167  -33.3256 C   0  0  1  0  0  0  0  0  0  0  0  0
   13.7878  -48.7825  -32.4145 C   0  0  2  0  0  0  0  0  0  0  0  0
   14.3064  -47.6661  -31.6886 O   0  0  0  0  0  0  0  0  0  0  0  0
   11.9557  -47.2493  -32.7138 O   0  0  0  0  0  0  0  0  0  0  0  0
   14.6605  -48.5702  -34.5989 O   0  0  0  0  0  0  0  0  0  0  0  0
   14.8484  -49.2845  -33.3749 C   0  0  2  0  0  0  0  0  0  0  0  0
   14.6797  -50.7786  -33.6037 C   0  0  0  0  0  0  0  0  0  0  0  0
   15.5927  -51.1840  -34.6222 O   0  0  0  0  0  0  0  0  0  0  0  0
   15.6744  -52.7146  -35.1188 P   0  0  0  0  0  0  0  0  0  0  0  0
   14.2365  -53.1598  -35.2527 O   0  0  0  0  0  0  0  0  0  0  0  0
   16.4338  -53.3961  -34.0054 O   0  0  0  0  0  0  0  0  0  0  0  0
   16.4201  -52.6181  -36.4292 O   0  0  0  0  0  0  0  0  0  0  0  0
  1  2  2  0  0  0  0
  2  4  1  0  0  0  0
  2  3  1  0  0  0  0
  4  7  1  0  0  0  0
  5  9  1  0  0  0  0
  5  4  2  0  0  0  0
  6  5  1  0  0  0  0
  8  7  2  0  0  0  0
  9  8  1  0  0  0  0
 10 15  1  0  0  0  0
 10  9  1  6  0  0  0
 10 11  1  0  0  0  0
 11 14  1  1  0  0  0
 11 12  1  0  0  0  0
 12 13  1  6  0  0  0
 15 16  1  0  0  0  0
 16 12  1  0  0  0  0
 16 17  1  6  0  0  0
 17 18  1  0  0  0  0
 18 19  1  0  0  0  0
 19 21  1  0  0  0  0
 19 20  1  0  0  0  0
 22 19  2  0  0  0  0
M  END
>  <CHROM.1>
-4.89886607,-139.18450879,173.51809137,-179.75658296,43.51333399,13.78980247
-49.74303624,-35.46570998,-2.82508367,-0.90533770,1.15052047

>  <Name>
lig.pdb

>  <RI>
0

>  <Rbt.Current_Directory>
/home/itssahil/PROJECTS/Mol_Feturizer/New_Systems/rnas/5btp

>  <Rbt.Executable>
rbdock ($Id: //depot/dev/client3/rdock/2013.1/src/exe/rbdock.cxx#4 $)

>  <Rbt.Library>
libRbt.so (2013.1, Build901 2013/11/27)

>  <Rbt.Parameter_File>
/export/apps/rDock/src/rDock_2013.1_src/data/scripts/dock_solv.prm

>  <Rbt.Receptor>
prm/blind_docking_100.prm

>  <SCORE>
-11.3922

>  <SCORE.INTER>
-10.8359

>  <SCORE.INTER.CONST>
1

>  <SCORE.INTER.POLAR>
0

>  <SCORE.INTER.ROT>
5

>  <SCORE.INTER.SOLV>
16.8346

>  <SCORE.INTER.VDW>
-19.7688

>  <SCORE.INTER.norm>
-0.492542

>  <SCORE.INTRA>
-0.556231

>  <SCORE.INTRA.DIHEDRAL>
-1.13166

>  <SCORE.INTRA.DIHEDRAL.0>
4.21161

>  <SCORE.INTRA.POLAR>
0

>  <SCORE.INTRA.POLAR.0>
0

>  <SCORE.INTRA.REPUL>
0

>  <SCORE.INTRA.REPUL.0>
0

>  <SCORE.INTRA.SOLV>
0.256995

>  <SCORE.INTRA.SOLV.lig_0>
-41.4168

>  <SCORE.INTRA.VDW>
-0.118898

>  <SCORE.INTRA.VDW.0>
-1.62533

>  <SCORE.INTRA.norm>
-0.0252832

>  <SCORE.RESTR>
0

>  <SCORE.RESTR.CAVITY>
0

>  <SCORE.RESTR.norm>
0

>  <SCORE.SYSTEM>
0

>  <SCORE.SYSTEM.CONST>
0

>  <SCORE.SYSTEM.DIHEDRAL>
0

>  <SCORE.SYSTEM.SOLV>
0

>  <SCORE.SYSTEM.norm>
0

>  <SCORE.heavy>
22

>  <SCORE.norm>
-0.517825

>  <RMSD>
10.987

$$$$
lig.pdb
 OpenBabel11021811523D
libRbt.so/2013.1/901 2013/11/27
 22 23  0  0  0  0  0  0  0  0999 V2000
   12.3219  -47.5073  -38.6733 O   0  0  0  0  0  0  0  0  0  0  0  0
   13.4493  -47.9762  -38.6890 C   0  0  0  0  0  0  0  0  0  0  0  0
   13.9588  -48.5453  -39.7814 N   0  0  0  0  0  0  0  0  0  0  0  0
   14.2810  -47.9295  -37.4531 C   0  0  0  0  0  0  0  0  0  0  0  0
   15.6570  -48.4426  -37.3623 C   0  0  0  0  0  0  0  0  0  0  0  0
   16.3959  -49.0675  -38.4517 N   0  0  0  0  0  0  0  0  0  0  0  0
   14.0407  -47.4484  -36.2133 N   0  0  0  0  0  0  0  0  0  0  0  0
   15.1588  -47.6523  -35.4499 C   0  0  0  0  0  0  0  0  0  0  0  0
   16.1455  -48.2574  -36.1464 N   0  0  0  0  0  0  0  0  0  0  0  0
   17.4928  -48.6344  -35.6590 C   0  0  1  0  0  0  0  0  0  0  0  0
   18.4388  -47.4474  -35.7362 C   0  0  1  0  0  0  0  0  0  0  0  0
   19.3595  -47.6710  -34.5640 C   0  0  2  0  0  0  0  0  0  0  0  0
   20.4096  -48.5607  -34.9484 O   0  0  0  0  0  0  0  0  0  0  0  0
   19.1821  -47.4588  -36.9557 O   0  0  0  0  0  0  0  0  0  0  0  0
   17.4523  -49.0359  -34.2846 O   0  0  0  0  0  0  0  0  0  0  0  0
   18.4735  -48.3617  -33.5454 C   0  0  2  0  0  0  0  0  0  0  0  0
   17.8570  -47.3343  -32.6087 C   0  0  0  0  0  0  0  0  0  0  0  0
   16.9311  -48.0029  -31.7538 O   0  0  0  0  0  0  0  0  0  0  0  0
   16.0627  -47.1988  -30.6605 P   0  0  0  0  0  0  0  0  0  0  0  0
   17.0620  -46.7522  -29.6186 O   0  0  0  0  0  0  0  0  0  0  0  0
   15.0798  -48.2366  -30.1727 O   0  0  0  0  0  0  0  0  0  0  0  0
   15.4513  -46.0715  -31.4591 O   0  0  0  0  0  0  0  0  0  0  0  0
  1  2  2  0  0  0  0
  2  4  1  0  0  0  0
  2  3  1  0  0  0  0
  4  7  1  0  0  0  0
  5  9  1  0  0  0  0
  5  4  2  0  0  0  0
  6  5  1  0  0  0  0
  8  7  2  0  0  0  0
  9  8  1  0  0  0  0
 10 15  1  0  0  0  0
 10  9  1  1  0  0  0
 10 11  1  0  0  0  0
 11 14  1  6  0  0  0
 11 12  1  0  0  0  0
 12 13  1  6  0  0  0
 15 16  1  0  0  0  0
 16 12  1  0  0  0  0
 16 17  1  1  0  0  0
 17 18  1  0  0  0  0
 18 19  1  0  0  0  0
 19 21  1  0  0  0  0
 19 20  1  0  0  0  0
 22 19  2  0  0  0  0
M  END
>  <CHROM.1>
-178.97004991,96.24208549,174.30799730,-178.18775470,-69.39132042,16.40754347
-47.84091821,-34.66026622,1.85963993,0.11325368,-1.70983931

>  <Name>
lig.pdb

>  <RI>
0

>  <Rbt.Current_Directory>
/home/itssahil/PROJECTS/Mol_Feturizer/New_Systems/rnas/5btp

>  <Rbt.Executable>
rbdock ($Id: //depot/dev/client3/rdock/2013.1/src/exe/rbdock.cxx#4 $)

>  <Rbt.Library>
libRbt.so (2013.1, Build901 2013/11/27)

>  <Rbt.Parameter_File>
/export/apps/rDock/src/rDock_2013.1_src/data/scripts/dock_solv.prm

>  <Rbt.Receptor>
prm/blind_docking_80.prm

>  <SCORE>
-4.97629

>  <SCORE.INTER>
-3.73067

>  <SCORE.INTER.CONST>
1

>  <SCORE.INTER.POLAR>
0

>  <SCORE.INTER.ROT>
5

>  <SCORE.INTER.SOLV>
11.42

>  <SCORE.INTER.VDW>
-13.2271

>  <SCORE.INTER.norm>
-0.169576

>  <SCORE.INTRA>
-1.24562

>  <SCORE.INTRA.DIHEDRAL>
-1.5046

>  <SCORE.INTRA.DIHEDRAL.0>
4.21161

>  <SCORE.INTRA.POLAR>
0

>  <SCORE.INTRA.POLAR.0>
0

>  <SCORE.INTRA.REPUL>
0

>  <SCORE.INTRA.REPUL.0>
0

>  <SCORE.INTRA.SOLV>
0.280108

>  <SCORE.INTRA.SOLV.lig_0>
-41.4168

>  <SCORE.INTRA.VDW>
-0.633373

>  <SCORE.INTRA.VDW.0>
-1.62533

>  <SCORE.INTRA.norm>
-0.0566191

>  <SCORE.RESTR>
0

>  <SCORE.RESTR.CAVITY>
0

>  <SCORE.RESTR.norm>
0

>  <SCORE.SYSTEM>
0

>  <SCORE.SYSTEM.CONST>
0

>  <SCORE.SYSTEM.DIHEDRAL>
0

>  <SCORE.SYSTEM.SOLV>
0

>  <SCORE.SYSTEM.norm>
0

>  <SCORE.heavy>
22

>  <SCORE.norm>
-0.226195

>  <RMSD>
11.247

$$$$
lig.pdb
 OpenBabel11021811523D
libRbt.so/2013.1/901 2013/11/27
 22 23  0  0  0  0  0  0  0  0999 V2000
   20.5604  -52.8640  -36.7706 O   0  0  0  0  0  0  0  0  0  0  0  0
   20.4159  -51.6529  -36.7138 C   0  0  0  0  0  0  0  0  0  0  0  0
   20.9427  -50.9277  -35.7272 N   0  0  0  0  0  0  0  0  0  0  0  0
   19.6174  -50.9587  -37.7634 C   0  0  0  0  0  0  0  0  0  0  0  0
   19.3337  -49.5150  -37.7673 C   0  0  0  0  0  0  0  0  0  0  0  0
   19.7821  -48.5664  -36.7562 N   0  0  0  0  0  0  0  0  0  0  0  0
   19.0083  -51.4034  -38.8849 N   0  0  0  0  0  0  0  0  0  0  0  0
   18.4148  -50.3356  -39.5029 C   0  0  0  0  0  0  0  0  0  0  0  0
   18.6111  -49.1836  -38.8253 N   0  0  0  0  0  0  0  0  0  0  0  0
   18.1251  -47.8313  -39.1860 C   0  0  1  0  0  0  0  0  0  0  0  0
   17.7472  -47.7757  -40.6570 C   0  0  1  0  0  0  0  0  0  0  0  0
   16.6088  -46.7881  -40.6774 C   0  0  2  0  0  0  0  0  0  0  0  0
   17.1335  -45.4603  -40.7396 O   0  0  0  0  0  0  0  0  0  0  0  0
   18.8324  -47.2931  -41.4503 O   0  0  0  0  0  0  0  0  0  0  0  0
   16.9454  -47.4915  -38.4479 O   0  0  0  0  0  0  0  0  0  0  0  0
   15.9389  -46.9932  -39.3326 C   0  0  2  0  0  0  0  0  0  0  0  0
   14.8050  -47.9984  -39.4627 C   0  0  0  0  0  0  0  0  0  0  0  0
   14.0091  -47.9349  -38.2805 O   0  0  0  0  0  0  0  0  0  0  0  0
   12.6076  -48.7214  -38.1658 P   0  0  0  0  0  0  0  0  0  0  0  0
   11.7348  -48.1251  -39.2457 O   0  0  0  0  0  0  0  0  0  0  0  0
   12.1540  -48.4102  -36.7592 O   0  0  0  0  0  0  0  0  0  0  0  0
   12.9943  -50.1623  -38.4037 O   0  0  0  0  0  0  0  0  0  0  0  0
  1  2  2  0  0  0  0
  2  4  1  0  0  0  0
  2  3  1  0  0  0  0
  4  7  1  0  0  0  0
  5  9  1  0  0  0  0
  5  4  2  0  0  0  0
  6  5  1  0  0  0  0
  8  7  2  0  0  0  0
  9  8  1  0  0  0  0
 10 15  1  0  0  0  0
 10  9  1  1  0  0  0
 10 11  1  0  0  0  0
 11 14  1  6  0  0  0
 11 12  1  0  0  0  0
 12 13  1  1  0  0  0
 15 16  1  0  0  0  0
 16 12  1  0  0  0  0
 16 17  1  6  0  0  0
 17 18  1  0  0  0  0
 18 19  1  0  0  0  0
 19 21  1  0  0  0  0
 19 20  1  0  0  0  0
 22 19  2  0  0  0  0
M  END
>  <CHROM.1>
177.50103492,161.16613780,-166.62362944,171.49846359,-61.91596986,16.74636102
-48.87651784,-38.60161854,0.36227335,-0.11622584,2.44060435

>  <Name>
lig.pdb

>  <RI>
0

>  <Rbt.Current_Directory>
/home/itssahil/PROJECTS/Mol_Feturizer/New_Systems/rnas/5btp

>  <Rbt.Executable>
rbdock ($Id: //depot/dev/client3/rdock/2013.1/src/exe/rbdock.cxx#4 $)

>  <Rbt.Library>
libRbt.so (2013.1, Build901 2013/11/27)

>  <Rbt.Parameter_File>
/export/apps/rDock/src/rDock_2013.1_src/data/scripts/dock_solv.prm

>  <Rbt.Receptor>
prm/blind_docking_80.prm

>  <SCORE>
-6.25364

>  <SCORE.INTER>
-5.95223

>  <SCORE.INTER.CONST>
1

>  <SCORE.INTER.POLAR>
0

>  <SCORE.INTER.ROT>
5

>  <SCORE.INTER.SOLV>
16.1721

>  <SCORE.INTER.VDW>
-16.2922

>  <SCORE.INTER.norm>
-0.270556

>  <SCORE.INTRA>
-0.301414

>  <SCORE.INTRA.DIHEDRAL>
-0.815469

>  <SCORE.INTRA.DIHEDRAL.0>
4.21161

>  <SCORE.INTRA.POLAR>
0

>  <SCORE.INTRA.POLAR.0>
0

>  <SCORE.INTRA.REPUL>
0

>  <SCORE.INTRA.REPUL.0>
0

>  <SCORE.INTRA.SOLV>
-0.146535

>  <SCORE.INTRA.SOLV.lig_0>
-41.4168

>  <SCORE.INTRA.VDW>
0.179588

>  <SCORE.INTRA.VDW.0>
-1.62533

>  <SCORE.INTRA.norm>
-0.0137006

>  <SCORE.RESTR>
0

>  <SCORE.RESTR.CAVITY>
0

>  <SCORE.RESTR.norm>
0

>  <SCORE.SYSTEM>
0

>  <SCORE.SYSTEM.CONST>
0

>  <SCORE.SYSTEM.DIHEDRAL>
0

>  <SCORE.SYSTEM.SOLV>
0

>  <SCORE.SYSTEM.norm>
0

>  <SCORE.heavy>
22

>  <SCORE.norm>
-0.284256

>  <RMSD>
11.724

$$$$
lig.pdb
 OpenBabel11021811523D
libRbt.so/2013.1/901 2013/11/27
 22 23  0  0  0  0  0  0  0  0999 V2000
   10.2630  -58.9679  -44.0089 O   0  0  0  0  0  0  0  0  0  0  0  0
   10.3088  -58.5639  -42.8575 C   0  0  0  0  0  0  0  0  0  0  0  0
    9.9505  -59.3316  -41.8284 N   0  0  0  0  0  0  0  0  0  0  0  0
   10.7619  -57.1703  -42.5860 C   0  0  0  0  0  0  0  0  0  0  0  0
   11.2225  -56.2334  -43.6228 C   0  0  0  0  0  0  0  0  0  0  0  0
   11.3064  -56.5292  -45.0471 N   0  0  0  0  0  0  0  0  0  0  0  0
   10.8561  -56.4509  -41.4458 N   0  0  0  0  0  0  0  0  0  0  0  0
   11.3282  -55.2053  -41.7623 C   0  0  0  0  0  0  0  0  0  0  0  0
   11.5522  -55.0690  -43.0874 N   0  0  0  0  0  0  0  0  0  0  0  0
   12.0576  -53.8712  -43.7980 C   0  0  1  0  0  0  0  0  0  0  0  0
   10.9428  -53.2150  -44.5957 C   0  0  1  0  0  0  0  0  0  0  0  0
   11.3035  -51.7526  -44.5424 C   0  0  2  0  0  0  0  0  0  0  0  0
   12.2457  -51.4582  -45.5757 O   0  0  0  0  0  0  0  0  0  0  0  0
   10.9387  -53.6725  -45.9487 O   0  0  0  0  0  0  0  0  0  0  0  0
   12.5347  -52.8850  -42.8751 O   0  0  0  0  0  0  0  0  0  0  0  0
   11.9838  -51.6052  -43.1953 C   0  0  2  0  0  0  0  0  0  0  0  0
   10.9696  -51.1879  -42.1416 C   0  0  0  0  0  0  0  0  0  0  0  0
   11.6695  -50.8978  -40.9329 O   0  0  0  0  0  0  0  0  0  0  0  0
   10.8981  -50.3780  -39.6173 P   0  0  0  0  0  0  0  0  0  0  0  0
   10.3731  -49.0099  -39.9865 O   0  0  0  0  0  0  0  0  0  0  0  0
   11.9833  -50.3634  -38.5670 O   0  0  0  0  0  0  0  0  0  0  0  0
    9.8246  -51.4199  -39.4062 O   0  0  0  0  0  0  0  0  0  0  0  0
  1  2  2  0  0  0  0
  2  4  1  0  0  0  0
  2  3  1  0  0  0  0
  4  7  1  0  0  0  0
  5  9  1  0  0  0  0
  5  4  2  0  0  0  0
  6  5  1  0  0  0  0
  8  7  2  0  0  0  0
  9  8  1  0  0  0  0
 10 15  1  0  0  0  0
 10  9  1  1  0  0  0
 10 11  1  0  0  0  0
 11 14  1  6  0  0  0
 11 12  1  0  0  0  0
 12 13  1  6  0  0  0
 15 16  1  0  0  0  0
 16 12  1  0  0  0  0
 16 17  1  1  0  0  0
 17 18  1  0  0  0  0
 18 19  1  0  0  0  0
 19 21  1  0  0  0  0
 19 20  1  0  0  0  0
 22 19  2  0  0  0  0
M  END
>  <CHROM.1>
-2.61196770,72.37443415,-172.84495789,178.05599268,-66.47711110,11.14118231
-53.56883935,-42.41297050,1.80143159,-1.34694286,-2.50054928

>  <Name>
lig.pdb

>  <RI>
0

>  <Rbt.Current_Directory>
/home/itssahil/PROJECTS/Mol_Feturizer/New_Systems/rnas/5btp

>  <Rbt.Executable>
rbdock ($Id: //depot/dev/client3/rdock/2013.1/src/exe/rbdock.cxx#4 $)

>  <Rbt.Library>
libRbt.so (2013.1, Build901 2013/11/27)

>  <Rbt.Parameter_File>
/export/apps/rDock/src/rDock_2013.1_src/data/scripts/dock_solv.prm

>  <Rbt.Receptor>
prm/blind_docking_80.prm

>  <SCORE>
-15.4406

>  <SCORE.INTER>
-14.288

>  <SCORE.INTER.CONST>
1

>  <SCORE.INTER.POLAR>
0

>  <SCORE.INTER.ROT>
5

>  <SCORE.INTER.SOLV>
23.2614

>  <SCORE.INTER.VDW>
-24.2125

>  <SCORE.INTER.norm>
-0.649455

>  <SCORE.INTRA>
-1.15254

>  <SCORE.INTRA.DIHEDRAL>
-1.50365

>  <SCORE.INTRA.DIHEDRAL.0>
4.21161

>  <SCORE.INTRA.POLAR>
0

>  <SCORE.INTRA.POLAR.0>
0

>  <SCORE.INTRA.REPUL>
0

>  <SCORE.INTRA.REPUL.0>
0

>  <SCORE.INTRA.SOLV>
0.230694

>  <SCORE.INTRA.SOLV.lig_0>
-41.4168

>  <SCORE.INTRA.VDW>
-0.516067

>  <SCORE.INTRA.VDW.0>
-1.62533

>  <SCORE.INTRA.norm>
-0.0523884

>  <SCORE.RESTR>
0

>  <SCORE.RESTR.CAVITY>
0

>  <SCORE.RESTR.norm>
0

>  <SCORE.SYSTEM>
0

>  <SCORE.SYSTEM.CONST>
0

>  <SCORE.SYSTEM.DIHEDRAL>
0

>  <SCORE.SYSTEM.SOLV>
0

>  <SCORE.SYSTEM.norm>
0

>  <SCORE.heavy>
22

>  <SCORE.norm>
-0.701843

>  <RMSD>
11.755

$$$$
lig.pdb
 OpenBabel11021811523D
libRbt.so/2013.1/901 2013/11/27
 22 23  0  0  0  0  0  0  0  0999 V2000
   10.2463  -58.9391  -44.0630 O   0  0  0  0  0  0  0  0  0  0  0  0
   10.3176  -58.5569  -42.9054 C   0  0  0  0  0  0  0  0  0  0  0  0
    9.9931  -59.3479  -41.8828 N   0  0  0  0  0  0  0  0  0  0  0  0
   10.7639  -57.1642  -42.6184 C   0  0  0  0  0  0  0  0  0  0  0  0
   11.2209  -56.2139  -43.6446 C   0  0  0  0  0  0  0  0  0  0  0  0
   11.3071  -56.4937  -45.0720 N   0  0  0  0  0  0  0  0  0  0  0  0
   10.8540  -56.4569  -41.4704 N   0  0  0  0  0  0  0  0  0  0  0  0
   11.3204  -55.2057  -41.7728 C   0  0  0  0  0  0  0  0  0  0  0  0
   11.5447  -55.0539  -43.0962 N   0  0  0  0  0  0  0  0  0  0  0  0
   12.0450  -53.8461  -43.7933 C   0  0  1  0  0  0  0  0  0  0  0  0
   10.9270  -53.1850  -44.5827 C   0  0  1  0  0  0  0  0  0  0  0  0
   11.2821  -51.7219  -44.5127 C   0  0  2  0  0  0  0  0  0  0  0  0
   12.2225  -51.4120  -45.5432 O   0  0  0  0  0  0  0  0  0  0  0  0
   10.9238  -53.6269  -45.9408 O   0  0  0  0  0  0  0  0  0  0  0  0
   12.5190  -52.8687  -42.8594 O   0  0  0  0  0  0  0  0  0  0  0  0
   11.9629  -51.5875  -43.1645 C   0  0  2  0  0  0  0  0  0  0  0  0
   10.9479  -51.1862  -42.1053 C   0  0  0  0  0  0  0  0  0  0  0  0
   11.6478  -50.9049  -40.8945 O   0  0  0  0  0  0  0  0  0  0  0  0
   10.8734  -50.4192  -39.5678 P   0  0  0  0  0  0  0  0  0  0  0  0
    9.8577  -51.5028  -39.2887 O   0  0  0  0  0  0  0  0  0  0  0  0
   10.2722  -49.0983  -39.9861 O   0  0  0  0  0  0  0  0  0  0  0  0
   11.9736  -50.3178  -38.5375 O   0  0  0  0  0  0  0  0  0  0  0  0
  1  2  2  0  0  0  0
  2  4  1  0  0  0  0
  2  3  1  0  0  0  0
  4  7  1  0  0  0  0
  5  9  1  0  0  0  0
  5  4  2  0  0  0  0
  6  5  1  0  0  0  0
  8  7  2  0  0  0  0
  9  8  1  0  0  0  0
 10 15  1  0  0  0  0
 10  9  1  1  0  0  0
 10 11  1  0  0  0  0
 11 14  1  6  0  0  0
 11 12  1  0  0  0  0
 12 13  1  6  0  0  0
 15 16  1  0  0  0  0
 16 12  1  0  0  0  0
 16 17  1  1  0  0  0
 17 18  1  0  0  0  0
 18 19  1  0  0  0  0
 19 21  1  0  0  0  0
 19 20  1  0  0  0  0
 22 19  2  0  0  0  0
M  END
>  <CHROM.1>
-4.21481361,72.47574597,-172.73162072,178.78579436,56.89742741,11.12839655
-53.56597817,-42.40349548,1.78937261,-1.35069537,-2.50038913

>  <Name>
lig.pdb

>  <RI>
0

>  <Rbt.Current_Directory>
/home/itssahil/PROJECTS/Mol_Feturizer/New_Systems/rnas/5btp

>  <Rbt.Executable>
rbdock ($Id: //depot/dev/client3/rdock/2013.1/src/exe/rbdock.cxx#4 $)

>  <Rbt.Library>
libRbt.so (2013.1, Build901 2013/11/27)

>  <Rbt.Parameter_File>
/export/apps/rDock/src/rDock_2013.1_src/data/scripts/dock_solv.prm

>  <Rbt.Receptor>
prm/blind_docking_100.prm

>  <SCORE>
-15.5164

>  <SCORE.INTER>
-14.2083

>  <SCORE.INTER.CONST>
1

>  <SCORE.INTER.POLAR>
0

>  <SCORE.INTER.ROT>
5

>  <SCORE.INTER.SOLV>
23.4057

>  <SCORE.INTER.VDW>
-24.2074

>  <SCORE.INTER.norm>
-0.645832

>  <SCORE.INTRA>
-1.30807

>  <SCORE.INTRA.DIHEDRAL>
-1.52362

>  <SCORE.INTRA.DIHEDRAL.0>
4.21161

>  <SCORE.INTRA.POLAR>
0

>  <SCORE.INTRA.POLAR.0>
0

>  <SCORE.INTRA.REPUL>
0

>  <SCORE.INTRA.REPUL.0>
0

>  <SCORE.INTRA.SOLV>
-0.0109389

>  <SCORE.INTRA.SOLV.lig_0>
-41.4168

>  <SCORE.INTRA.VDW>
-0.540789

>  <SCORE.INTRA.VDW.0>
-1.62533

>  <SCORE.INTRA.norm>
-0.0594576

>  <SCORE.RESTR>
0

>  <SCORE.RESTR.CAVITY>
0

>  <SCORE.RESTR.norm>
0

>  <SCORE.SYSTEM>
0

>  <SCORE.SYSTEM.CONST>
0

>  <SCORE.SYSTEM.DIHEDRAL>
0

>  <SCORE.SYSTEM.SOLV>
0

>  <SCORE.SYSTEM.norm>
0

>  <SCORE.heavy>
22

>  <SCORE.norm>
-0.70529

>  <RMSD>
11.762

$$$$
lig.pdb
 OpenBabel11021811523D
libRbt.so/2013.1/901 2013/11/27
 22 23  0  0  0  0  0  0  0  0999 V2000
   10.2072  -58.9173  -44.0777 O   0  0  0  0  0  0  0  0  0  0  0  0
   10.2979  -58.5422  -42.9192 C   0  0  0  0  0  0  0  0  0  0  0  0
    9.9880  -59.3386  -41.8962 N   0  0  0  0  0  0  0  0  0  0  0  0
   10.7522  -57.1523  -42.6311 C   0  0  0  0  0  0  0  0  0  0  0  0
   11.2093  -56.2020  -43.6572 C   0  0  0  0  0  0  0  0  0  0  0  0
   11.2880  -56.4791  -45.0856 N   0  0  0  0  0  0  0  0  0  0  0  0
   10.8507  -56.4480  -41.4820 N   0  0  0  0  0  0  0  0  0  0  0  0
   11.3218  -55.1984  -41.7837 C   0  0  0  0  0  0  0  0  0  0  0  0
   11.5411  -55.0448  -43.1078 N   0  0  0  0  0  0  0  0  0  0  0  0
   12.0441  -53.8378  -43.8044 C   0  0  1  0  0  0  0  0  0  0  0  0
   10.9276  -53.1738  -44.5933 C   0  0  1  0  0  0  0  0  0  0  0  0
   11.2862  -51.7115  -44.5228 C   0  0  2  0  0  0  0  0  0  0  0  0
   12.2271  -51.4034  -45.5533 O   0  0  0  0  0  0  0  0  0  0  0  0
   10.9230  -53.6150  -45.9516 O   0  0  0  0  0  0  0  0  0  0  0  0
   12.5206  -52.8620  -42.8702 O   0  0  0  0  0  0  0  0  0  0  0  0
   11.9675  -51.5793  -43.1746 C   0  0  2  0  0  0  0  0  0  0  0  0
   10.9536  -51.1761  -42.1151 C   0  0  0  0  0  0  0  0  0  0  0  0
   11.6556  -50.8846  -40.9079 O   0  0  0  0  0  0  0  0  0  0  0  0
   10.8829  -50.3920  -39.5826 P   0  0  0  0  0  0  0  0  0  0  0  0
    9.8686  -51.4748  -39.2958 O   0  0  0  0  0  0  0  0  0  0  0  0
   10.2800  -49.0740  -40.0074 O   0  0  0  0  0  0  0  0  0  0  0  0
   11.9847  -50.2839  -38.5547 O   0  0  0  0  0  0  0  0  0  0  0  0
  1  2  2  0  0  0  0
  2  4  1  0  0  0  0
  2  3  1  0  0  0  0
  4  7  1  0  0  0  0
  5  9  1  0  0  0  0
  5  4  2  0  0  0  0
  6  5  1  0  0  0  0
  8  7  2  0  0  0  0
  9  8  1  0  0  0  0
 10 15  1  0  0  0  0
 10  9  1  1  0  0  0
 10 11  1  0  0  0  0
 11 14  1  6  0  0  0
 11 12  1  0  0  0  0
 12 13  1  6  0  0  0
 15 16  1  0  0  0  0
 16 12  1  0  0  0  0
 16 17  1  1  0  0  0
 17 18  1  0  0  0  0
 18 19  1  0  0  0  0
 19 21  1  0  0  0  0
 19 20  1  0  0  0  0
 22 19  2  0  0  0  0
M  END
>  <CHROM.1>
-4.93293550,72.18174039,-172.18643808,178.68271867,56.76321068,11.12723063
-53.55049938,-42.41604797,1.80268858,-1.34937771,-2.48802263

>  <Name>
lig.pdb

>  <RI>
0

>  <Rbt.Current_Directory>
/home/itssahil/PROJECTS/Mol_Feturizer/New_Systems/rnas/5btp

>  <Rbt.Executable>
rbdock ($Id: //depot/dev/client3/rdock/2013.1/src/exe/rbdock.cxx#4 $)

>  <Rbt.Library>
libRbt.so (2013.1, Build901 2013/11/27)

>  <Rbt.Parameter_File>
/export/apps/rDock/src/rDock_2013.1_src/data/scripts/dock_solv.prm

>  <Rbt.Receptor>
prm/blind_docking_100.prm

>  <SCORE>
-15.52

>  <SCORE.INTER>
-14.2417

>  <SCORE.INTER.CONST>
1

>  <SCORE.INTER.POLAR>
0

>  <SCORE.INTER.ROT>
5

>  <SCORE.INTER.SOLV>
23.2886

>  <SCORE.INTER.VDW>
-24.1906

>  <SCORE.INTER.norm>
-0.647349

>  <SCORE.INTRA>
-1.27832

>  <SCORE.INTRA.DIHEDRAL>
-1.47015

>  <SCORE.INTRA.DIHEDRAL.0>
4.21161

>  <SCORE.INTRA.POLAR>
0

>  <SCORE.INTRA.POLAR.0>
0

>  <SCORE.INTRA.REPUL>
0

>  <SCORE.INTRA.REPUL.0>
0

>  <SCORE.INTRA.SOLV>
-0.0108886

>  <SCORE.INTRA.SOLV.lig_0>
-41.4168

>  <SCORE.INTRA.VDW>
-0.537805

>  <SCORE.INTRA.VDW.0>
-1.62533

>  <SCORE.INTRA.norm>
-0.0581056

>  <SCORE.RESTR>
0

>  <SCORE.RESTR.CAVITY>
0

>  <SCORE.RESTR.norm>
0

>  <SCORE.SYSTEM>
0

>  <SCORE.SYSTEM.CONST>
0

>  <SCORE.SYSTEM.DIHEDRAL>
0

>  <SCORE.SYSTEM.SOLV>
0

>  <SCORE.SYSTEM.norm>
0

>  <SCORE.heavy>
22

>  <SCORE.norm>
-0.705454

>  <RMSD>
11.774

$$$$
lig.pdb
 OpenBabel11021811523D
libRbt.so/2013.1/901 2013/11/27
 22 23  0  0  0  0  0  0  0  0999 V2000
   12.2791  -55.6443  -44.4425 O   0  0  0  0  0  0  0  0  0  0  0  0
   11.6736  -55.2238  -43.4690 C   0  0  0  0  0  0  0  0  0  0  0  0
   10.9920  -56.0354  -42.6606 N   0  0  0  0  0  0  0  0  0  0  0  0
   11.6781  -53.7624  -43.1766 C   0  0  0  0  0  0  0  0  0  0  0  0
   10.7725  -53.1075  -42.2196 C   0  0  0  0  0  0  0  0  0  0  0  0
    9.7492  -53.7826  -41.4320 N   0  0  0  0  0  0  0  0  0  0  0  0
   12.4344  -52.7443  -43.6434 N   0  0  0  0  0  0  0  0  0  0  0  0
   12.0251  -51.5901  -43.0311 C   0  0  0  0  0  0  0  0  0  0  0  0
   11.0132  -51.8075  -42.1629 N   0  0  0  0  0  0  0  0  0  0  0  0
   10.3172  -50.8070  -41.3205 C   0  0  1  0  0  0  0  0  0  0  0  0
   10.2997  -51.2534  -39.8678 C   0  0  1  0  0  0  0  0  0  0  0  0
   10.3625  -49.9507  -39.1122 C   0  0  2  0  0  0  0  0  0  0  0  0
    9.0451  -49.4118  -38.9853 O   0  0  0  0  0  0  0  0  0  0  0  0
    9.0903  -51.9461  -39.5559 O   0  0  0  0  0  0  0  0  0  0  0  0
   10.9930  -49.5443  -41.3518 O   0  0  0  0  0  0  0  0  0  0  0  0
   11.1789  -49.0535  -40.0220 C   0  0  2  0  0  0  0  0  0  0  0  0
   12.6485  -49.1175  -39.6357 C   0  0  0  0  0  0  0  0  0  0  0  0
   12.7969  -48.5532  -38.3339 O   0  0  0  0  0  0  0  0  0  0  0  0
   14.2395  -48.4371  -37.6260 P   0  0  0  0  0  0  0  0  0  0  0  0
   15.0794  -47.6207  -38.5809 O   0  0  0  0  0  0  0  0  0  0  0  0
   14.6736  -49.8777  -37.4942 O   0  0  0  0  0  0  0  0  0  0  0  0
   13.9335  -47.7444  -36.3188 O   0  0  0  0  0  0  0  0  0  0  0  0
  1  2  2  0  0  0  0
  2  4  1  0  0  0  0
  2  3  1  0  0  0  0
  4  7  1  0  0  0  0
  5  9  1  0  0  0  0
  5  4  2  0  0  0  0
  6  5  1  0  0  0  0
  8  7  2  0  0  0  0
  9  8  1  0  0  0  0
 10 15  1  0  0  0  0
 10  9  1  6  0  0  0
 10 11  1  0  0  0  0
 11 14  1  1  0  0  0
 11 12  1  0  0  0  0
 12 13  1  6  0  0  0
 15 16  1  0  0  0  0
 16 12  1  0  0  0  0
 16 17  1  1  0  0  0
 17 18  1  0  0  0  0
 18 19  1  0  0  0  0
 19 21  1  0  0  0  0
 19 20  1  0  0  0  0
 22 19  2  0  0  0  0
M  END
>  <CHROM.1>
166.57994468,51.94298630,-65.78123677,-178.85396507,57.67249542,11.86999011
-50.98676765,-40.39728541,-1.86619022,0.03350348,0.73894244

>  <Name>
lig.pdb

>  <RI>
0

>  <Rbt.Current_Directory>
/home/itssahil/PROJECTS/Mol_Feturizer/New_Systems/rnas/5btp

>  <Rbt.Executable>
rbdock ($Id: //depot/dev/client3/rdock/2013.1/src/exe/rbdock.cxx#4 $)

>  <Rbt.Library>
libRbt.so (2013.1, Build901 2013/11/27)

>  <Rbt.Parameter_File>
/export/apps/rDock/src/rDock_2013.1_src/data/scripts/dock_solv.prm

>  <Rbt.Receptor>
prm/blind_docking_80.prm

>  <SCORE>
-13.2631

>  <SCORE.INTER>
-12.9987

>  <SCORE.INTER.CONST>
1

>  <SCORE.INTER.POLAR>
0

>  <SCORE.INTER.ROT>
5

>  <SCORE.INTER.SOLV>
17.7765

>  <SCORE.INTER.VDW>
-21.5246

>  <SCORE.INTER.norm>
-0.590848

>  <SCORE.INTRA>
-0.264419

>  <SCORE.INTRA.DIHEDRAL>
-1.04579

>  <SCORE.INTRA.DIHEDRAL.0>
4.21161

>  <SCORE.INTRA.POLAR>
0

>  <SCORE.INTRA.POLAR.0>
0

>  <SCORE.INTRA.REPUL>
0

>  <SCORE.INTRA.REPUL.0>
0

>  <SCORE.INTRA.SOLV>
0.626712

>  <SCORE.INTRA.SOLV.lig_0>
-41.4168

>  <SCORE.INTRA.VDW>
-0.0548822

>  <SCORE.INTRA.VDW.0>
-1.62533

>  <SCORE.INTRA.norm>
-0.0120191

>  <SCORE.RESTR>
0

>  <SCORE.RESTR.CAVITY>
0

>  <SCORE.RESTR.norm>
0

>  <SCORE.SYSTEM>
0

>  <SCORE.SYSTEM.CONST>
0

>  <SCORE.SYSTEM.DIHEDRAL>
0

>  <SCORE.SYSTEM.SOLV>
0

>  <SCORE.SYSTEM.norm>
0

>  <SCORE.heavy>
22

>  <SCORE.norm>
-0.602867

>  <RMSD>
11.803

$$$$
lig.pdb
 OpenBabel11021811523D
libRbt.so/2013.1/901 2013/11/27
 22 23  0  0  0  0  0  0  0  0999 V2000
   10.9537  -56.0874  -42.6385 O   0  0  0  0  0  0  0  0  0  0  0  0
   11.5410  -55.3393  -43.4044 C   0  0  0  0  0  0  0  0  0  0  0  0
   12.1700  -55.7949  -44.4877 N   0  0  0  0  0  0  0  0  0  0  0  0
   11.5743  -53.8766  -43.1206 C   0  0  0  0  0  0  0  0  0  0  0  0
   10.6760  -53.1970  -42.1740 C   0  0  0  0  0  0  0  0  0  0  0  0
    9.6333  -53.8456  -41.3897 N   0  0  0  0  0  0  0  0  0  0  0  0
   12.3551  -52.8775  -43.5880 N   0  0  0  0  0  0  0  0  0  0  0  0
   11.9660  -51.7112  -42.9854 C   0  0  0  0  0  0  0  0  0  0  0  0
   10.9437  -51.9020  -42.1233 N   0  0  0  0  0  0  0  0  0  0  0  0
   10.2631  -50.8820  -41.2918 C   0  0  1  0  0  0  0  0  0  0  0  0
   10.2462  -51.3085  -39.8331 C   0  0  1  0  0  0  0  0  0  0  0  0
   10.3276  -49.9967  -39.0954 C   0  0  2  0  0  0  0  0  0  0  0  0
    9.0172  -49.4404  -38.9706 O   0  0  0  0  0  0  0  0  0  0  0  0
    9.0299  -51.9825  -39.5071 O   0  0  0  0  0  0  0  0  0  0  0  0
   10.9538  -49.6280  -41.3427 O   0  0  0  0  0  0  0  0  0  0  0  0
   11.1509  -49.1216  -40.0205 C   0  0  2  0  0  0  0  0  0  0  0  0
   12.6212  -49.1980  -39.6390 C   0  0  0  0  0  0  0  0  0  0  0  0
   12.7911  -48.5649  -38.3720 O   0  0  0  0  0  0  0  0  0  0  0  0
   14.2412  -48.4408  -37.6806 P   0  0  0  0  0  0  0  0  0  0  0  0
   15.0786  -47.6584  -38.6656 O   0  0  0  0  0  0  0  0  0  0  0  0
   14.6649  -49.8806  -37.5122 O   0  0  0  0  0  0  0  0  0  0  0  0
   13.9526  -47.7091  -36.3907 O   0  0  0  0  0  0  0  0  0  0  0  0
  1  2  2  0  0  0  0
  2  4  1  0  0  0  0
  2  3  1  0  0  0  0
  4  7  1  0  0  0  0
  5  9  1  0  0  0  0
  5  4  2  0  0  0  0
  6  5  1  0  0  0  0
  8  7  2  0  0  0  0
  9  8  1  0  0  0  0
 10 15  1  0  0  0  0
 10  9  1  6  0  0  0
 10 11  1  0  0  0  0
 11 14  1  1  0  0  0
 11 12  1  0  0  0  0
 12 13  1  6  0  0  0
 15 16  1  0  0  0  0
 16 12  1  0  0  0  0
 16 17  1  1  0  0  0
 17 18  1  0  0  0  0
 18 19  1  0  0  0  0
 19 21  1  0  0  0  0
 19 20  1  0  0  0  0
 22 19  2  0  0  0  0
M  END
>  <CHROM.1>
-16.20478414,52.86967653,-68.32264985,-178.75818894,59.46164418,11.81634180
-51.04818494,-40.38252993,-1.88175756,0.04500536,0.72311568

>  <Name>
lig.pdb

>  <RI>
0

>  <Rbt.Current_Directory>
/home/itssahil/PROJECTS/Mol_Feturizer/New_Systems/rnas/5btp

>  <Rbt.Executable>
rbdock ($Id: //depot/dev/client3/rdock/2013.1/src/exe/rbdock.cxx#4 $)

>  <Rbt.Library>
libRbt.so (2013.1, Build901 2013/11/27)

>  <Rbt.Parameter_File>
/export/apps/rDock/src/rDock_2013.1_src/data/scripts/dock_solv.prm

>  <Rbt.Receptor>
prm/blind_docking_100.prm

>  <SCORE>
-13.0419

>  <SCORE.INTER>
-12.775

>  <SCORE.INTER.CONST>
1

>  <SCORE.INTER.POLAR>
0

>  <SCORE.INTER.ROT>
5

>  <SCORE.INTER.SOLV>
18.1751

>  <SCORE.INTER.VDW>
-21.5083

>  <SCORE.INTER.norm>
-0.580681

>  <SCORE.INTRA>
-0.266943

>  <SCORE.INTRA.DIHEDRAL>
-0.651315

>  <SCORE.INTRA.DIHEDRAL.0>
4.21161

>  <SCORE.INTRA.POLAR>
0

>  <SCORE.INTRA.POLAR.0>
0

>  <SCORE.INTRA.REPUL>
0

>  <SCORE.INTRA.REPUL.0>
0

>  <SCORE.INTRA.SOLV>
0.36033

>  <SCORE.INTRA.SOLV.lig_0>
-41.4168

>  <SCORE.INTRA.VDW>
-0.121451

>  <SCORE.INTRA.VDW.0>
-1.62533

>  <SCORE.INTRA.norm>
-0.0121338

>  <SCORE.RESTR>
0

>  <SCORE.RESTR.CAVITY>
0

>  <SCORE.RESTR.norm>
0

>  <SCORE.SYSTEM>
0

>  <SCORE.SYSTEM.CONST>
0

>  <SCORE.SYSTEM.DIHEDRAL>
0

>  <SCORE.SYSTEM.SOLV>
0

>  <SCORE.SYSTEM.norm>
0

>  <SCORE.heavy>
22

>  <SCORE.norm>
-0.592814

>  <RMSD>
11.810

$$$$
lig.pdb
 OpenBabel11021811523D
libRbt.so/2013.1/901 2013/11/27
 22 23  0  0  0  0  0  0  0  0999 V2000
   13.3893  -49.2599  -32.4085 O   0  0  0  0  0  0  0  0  0  0  0  0
   13.7789  -48.1026  -32.4067 C   0  0  0  0  0  0  0  0  0  0  0  0
   13.1020  -47.1341  -31.7898 N   0  0  0  0  0  0  0  0  0  0  0  0
   15.0368  -47.7504  -33.1241 C   0  0  0  0  0  0  0  0  0  0  0  0
   15.8954  -48.7249  -33.8155 C   0  0  0  0  0  0  0  0  0  0  0  0
   15.6470  -50.1585  -33.8944 N   0  0  0  0  0  0  0  0  0  0  0  0
   15.6666  -46.5725  -33.3300 N   0  0  0  0  0  0  0  0  0  0  0  0
   16.7934  -46.8121  -34.0698 C   0  0  0  0  0  0  0  0  0  0  0  0
   16.9360  -48.1220  -34.3676 N   0  0  0  0  0  0  0  0  0  0  0  0
   18.0235  -48.7558  -35.1490 C   0  0  1  0  0  0  0  0  0  0  0  0
   17.4987  -49.2544  -36.4853 C   0  0  1  0  0  0  0  0  0  0  0  0
   18.6844  -49.0838  -37.4001 C   0  0  2  0  0  0  0  0  0  0  0  0
   19.5394  -50.2232  -37.2861 O   0  0  0  0  0  0  0  0  0  0  0  0
   17.1270  -50.6315  -36.4121 O   0  0  0  0  0  0  0  0  0  0  0  0
   19.0643  -47.8167  -35.4434 O   0  0  0  0  0  0  0  0  0  0  0  0
   19.3969  -47.8714  -36.8327 C   0  0  2  0  0  0  0  0  0  0  0  0
   18.9240  -46.6105  -37.5395 C   0  0  0  0  0  0  0  0  0  0  0  0
   17.5736  -46.3583  -37.1548 O   0  0  0  0  0  0  0  0  0  0  0  0
   16.7250  -45.1517  -37.8027 P   0  0  0  0  0  0  0  0  0  0  0  0
   17.4903  -43.8988  -37.4448 O   0  0  0  0  0  0  0  0  0  0  0  0
   15.3818  -45.2737  -37.1230 O   0  0  0  0  0  0  0  0  0  0  0  0
   16.7218  -45.4784  -39.2777 O   0  0  0  0  0  0  0  0  0  0  0  0
  1  2  2  0  0  0  0
  2  4  1  0  0  0  0
  2  3  1  0  0  0  0
  4  7  1  0  0  0  0
  5  9  1  0  0  0  0
  5  4  2  0  0  0  0
  6  5  1  0  0  0  0
  8  7  2  0  0  0  0
  9  8  1  0  0  0  0
 10 15  1  0  0  0  0
 10  9  1  6  0  0  0
 10 11  1  0  0  0  0
 11 14  1  1  0  0  0
 11 12  1  0  0  0  0
 12 13  1  1  0  0  0
 15 16  1  0  0  0  0
 16 12  1  0  0  0  0
 16 17  1  6  0  0  0
 17 18  1  0  0  0  0
 18 19  1  0  0  0  0
 19 21  1  0  0  0  0
 19 20  1  0  0  0  0
 22 19  2  0  0  0  0
M  END
>  <CHROM.1>
-2.27214115,69.21789213,69.59420164,-175.58323581,-60.60304665,16.77185001
-47.51911868,-35.68726442,2.39468165,-0.74240799,2.58122439

>  <Name>
lig.pdb

>  <RI>
0

>  <Rbt.Current_Directory>
/home/itssahil/PROJECTS/Mol_Feturizer/New_Systems/rnas/5btp

>  <Rbt.Executable>
rbdock ($Id: //depot/dev/client3/rdock/2013.1/src/exe/rbdock.cxx#4 $)

>  <Rbt.Library>
libRbt.so (2013.1, Build901 2013/11/27)

>  <Rbt.Parameter_File>
/export/apps/rDock/src/rDock_2013.1_src/data/scripts/dock_solv.prm

>  <Rbt.Receptor>
prm/blind_docking_80.prm

>  <SCORE>
-6.00888

>  <SCORE.INTER>
-4.65288

>  <SCORE.INTER.CONST>
1

>  <SCORE.INTER.POLAR>
0

>  <SCORE.INTER.ROT>
5

>  <SCORE.INTER.SOLV>
10.034

>  <SCORE.INTER.VDW>
-13.3799

>  <SCORE.INTER.norm>
-0.211494

>  <SCORE.INTRA>
-1.356

>  <SCORE.INTRA.DIHEDRAL>
-1.35965

>  <SCORE.INTRA.DIHEDRAL.0>
4.21161

>  <SCORE.INTRA.POLAR>
0

>  <SCORE.INTRA.POLAR.0>
0

>  <SCORE.INTRA.REPUL>
0

>  <SCORE.INTRA.REPUL.0>
0

>  <SCORE.INTRA.SOLV>
1.29169

>  <SCORE.INTRA.SOLV.lig_0>
-41.4168

>  <SCORE.INTRA.VDW>
-1.32203

>  <SCORE.INTRA.VDW.0>
-1.62533

>  <SCORE.INTRA.norm>
-0.0616366

>  <SCORE.RESTR>
0

>  <SCORE.RESTR.CAVITY>
0

>  <SCORE.RESTR.norm>
0

>  <SCORE.SYSTEM>
0

>  <SCORE.SYSTEM.CONST>
0

>  <SCORE.SYSTEM.DIHEDRAL>
0

>  <SCORE.SYSTEM.SOLV>
0

>  <SCORE.SYSTEM.norm>
0

>  <SCORE.heavy>
22

>  <SCORE.norm>
-0.273131

>  <RMSD>
11.895

$$$$
lig.pdb
 OpenBabel11021811523D
libRbt.so/2013.1/901 2013/11/27
 22 23  0  0  0  0  0  0  0  0999 V2000
   10.2156  -59.5276  -43.4903 O   0  0  0  0  0  0  0  0  0  0  0  0
   10.3076  -59.1588  -42.3299 C   0  0  0  0  0  0  0  0  0  0  0  0
   10.1170  -59.9949  -41.3094 N   0  0  0  0  0  0  0  0  0  0  0  0
   10.6265  -57.7330  -42.0358 C   0  0  0  0  0  0  0  0  0  0  0  0
   10.9089  -56.7194  -43.0644 C   0  0  0  0  0  0  0  0  0  0  0  0
   10.9226  -56.9598  -44.5015 N   0  0  0  0  0  0  0  0  0  0  0  0
   10.7238  -57.0434  -40.8777 N   0  0  0  0  0  0  0  0  0  0  0  0
   11.0356  -55.7442  -41.1768 C   0  0  0  0  0  0  0  0  0  0  0  0
   11.1488  -55.5430  -42.5078 N   0  0  0  0  0  0  0  0  0  0  0  0
   11.4708  -54.2755  -43.2039 C   0  0  1  0  0  0  0  0  0  0  0  0
   10.5612  -54.0819  -44.4060 C   0  0  1  0  0  0  0  0  0  0  0  0
   10.4052  -52.5843  -44.4752 C   0  0  2  0  0  0  0  0  0  0  0  0
   11.5077  -52.0249  -45.1919 O   0  0  0  0  0  0  0  0  0  0  0  0
   11.1744  -54.5691  -45.6004 O   0  0  0  0  0  0  0  0  0  0  0  0
   11.2613  -53.1468  -42.3471 O   0  0  0  0  0  0  0  0  0  0  0  0
   10.4880  -52.1530  -43.0239 C   0  0  2  0  0  0  0  0  0  0  0  0
    9.0929  -52.0698  -42.4240 C   0  0  0  0  0  0  0  0  0  0  0  0
    9.0722  -51.0015  -41.4788 O   0  0  0  0  0  0  0  0  0  0  0  0
    9.9400  -51.0604  -40.1226 P   0  0  0  0  0  0  0  0  0  0  0  0
   11.3721  -50.8703  -40.5659 O   0  0  0  0  0  0  0  0  0  0  0  0
    9.6359  -52.4369  -39.5806 O   0  0  0  0  0  0  0  0  0  0  0  0
    9.3861  -49.9188  -39.3026 O   0  0  0  0  0  0  0  0  0  0  0  0
  1  2  2  0  0  0  0
  2  4  1  0  0  0  0
  2  3  1  0  0  0  0
  4  7  1  0  0  0  0
  5  9  1  0  0  0  0
  5  4  2  0  0  0  0
  6  5  1  0  0  0  0
  8  7  2  0  0  0  0
  9  8  1  0  0  0  0
 10 15  1  0  0  0  0
 10  9  1  1  0  0  0
 10 11  1  0  0  0  0
 11 14  1  6  0  0  0
 11 12  1  0  0  0  0
 12 13  1  6  0  0  0
 15 16  1  0  0  0  0
 16 12  1  0  0  0  0
 16 17  1  1  0  0  0
 17 18  1  0  0  0  0
 18 19  1  0  0  0  0
 19 21  1  0  0  0  0
 19 20  1  0  0  0  0
 22 19  2  0  0  0  0
M  END
>  <CHROM.1>
-3.06174960,43.85612374,-145.91061422,-66.00194970,72.37970521,10.47831470
-54.18120783,-42.26801421,1.19596439,-1.35373340,3.03224892

>  <Name>
lig.pdb

>  <RI>
0

>  <Rbt.Current_Directory>
/home/itssahil/PROJECTS/Mol_Feturizer/New_Systems/rnas/5btp

>  <Rbt.Executable>
rbdock ($Id: //depot/dev/client3/rdock/2013.1/src/exe/rbdock.cxx#4 $)

>  <Rbt.Library>
libRbt.so (2013.1, Build901 2013/11/27)

>  <Rbt.Parameter_File>
/export/apps/rDock/src/rDock_2013.1_src/data/scripts/dock_solv.prm

>  <Rbt.Receptor>
prm/blind_docking_80.prm

>  <SCORE>
-13.6497

>  <SCORE.INTER>
-14.9826

>  <SCORE.INTER.CONST>
1

>  <SCORE.INTER.POLAR>
0

>  <SCORE.INTER.ROT>
5

>  <SCORE.INTER.SOLV>
19.4512

>  <SCORE.INTER.VDW>
-23.4055

>  <SCORE.INTER.norm>
-0.681029

>  <SCORE.INTRA>
1.33296

>  <SCORE.INTRA.DIHEDRAL>
1.81798

>  <SCORE.INTRA.DIHEDRAL.0>
4.21161

>  <SCORE.INTRA.POLAR>
0

>  <SCORE.INTRA.POLAR.0>
0

>  <SCORE.INTRA.REPUL>
0

>  <SCORE.INTRA.REPUL.0>
0

>  <SCORE.INTRA.SOLV>
1.39812

>  <SCORE.INTRA.SOLV.lig_0>
-41.4168

>  <SCORE.INTRA.VDW>
-0.275095

>  <SCORE.INTRA.VDW.0>
-1.62533

>  <SCORE.INTRA.norm>
0.060589

>  <SCORE.RESTR>
0

>  <SCORE.RESTR.CAVITY>
0

>  <SCORE.RESTR.norm>
0

>  <SCORE.SYSTEM>
0

>  <SCORE.SYSTEM.CONST>
0

>  <SCORE.SYSTEM.DIHEDRAL>
0

>  <SCORE.SYSTEM.SOLV>
0

>  <SCORE.SYSTEM.norm>
0

>  <SCORE.heavy>
22

>  <SCORE.norm>
-0.62044

>  <RMSD>
12.010

$$$$
lig.pdb
 OpenBabel11021811523D
libRbt.so/2013.1/901 2013/11/27
 22 23  0  0  0  0  0  0  0  0999 V2000
   10.6958  -48.7344  -37.5542 O   0  0  0  0  0  0  0  0  0  0  0  0
   11.1638  -48.9934  -38.6519 C   0  0  0  0  0  0  0  0  0  0  0  0
   12.1665  -48.2864  -39.1731 N   0  0  0  0  0  0  0  0  0  0  0  0
   10.5952  -50.1196  -39.4453 C   0  0  0  0  0  0  0  0  0  0  0  0
   10.9584  -50.4149  -40.8402 C   0  0  0  0  0  0  0  0  0  0  0  0
   11.9109  -49.6564  -41.6405 N   0  0  0  0  0  0  0  0  0  0  0  0
    9.6985  -51.0839  -39.1414 N   0  0  0  0  0  0  0  0  0  0  0  0
    9.5353  -51.8805  -40.2429 C   0  0  0  0  0  0  0  0  0  0  0  0
   10.3013  -51.4762  -41.2796 N   0  0  0  0  0  0  0  0  0  0  0  0
   10.3930  -52.0885  -42.6256 C   0  0  1  0  0  0  0  0  0  0  0  0
   11.8380  -52.1289  -43.0951 C   0  0  1  0  0  0  0  0  0  0  0  0
   11.8880  -53.3828  -43.9301 C   0  0  2  0  0  0  0  0  0  0  0  0
   11.4426  -53.0883  -45.2556 O   0  0  0  0  0  0  0  0  0  0  0  0
   12.1514  -50.9898  -43.8976 O   0  0  0  0  0  0  0  0  0  0  0  0
    9.9304  -53.4441  -42.6100 O   0  0  0  0  0  0  0  0  0  0  0  0
   10.8785  -54.2943  -43.2597 C   0  0  2  0  0  0  0  0  0  0  0  0
   11.5748  -55.1843  -42.2417 C   0  0  0  0  0  0  0  0  0  0  0  0
   10.7221  -56.2910  -41.9533 O   0  0  0  0  0  0  0  0  0  0  0  0
   10.9379  -57.2005  -40.6410 P   0  0  0  0  0  0  0  0  0  0  0  0
   12.4317  -57.2108  -40.4134 O   0  0  0  0  0  0  0  0  0  0  0  0
   10.3636  -58.5358  -41.0512 O   0  0  0  0  0  0  0  0  0  0  0  0
   10.1517  -56.4716  -39.5766 O   0  0  0  0  0  0  0  0  0  0  0  0
  1  2  2  0  0  0  0
  2  4  1  0  0  0  0
  2  3  1  0  0  0  0
  4  7  1  0  0  0  0
  5  9  1  0  0  0  0
  5  4  2  0  0  0  0
  6  5  1  0  0  0  0
  8  7  2  0  0  0  0
  9  8  1  0  0  0  0
 10 15  1  0  0  0  0
 10  9  1  1  0  0  0
 10 11  1  0  0  0  0
 11 14  1  6  0  0  0
 11 12  1  0  0  0  0
 12 13  1  6  0  0  0
 15 16  1  0  0  0  0
 16 12  1  0  0  0  0
 16 17  1  1  0  0  0
 17 18  1  0  0  0  0
 18 19  1  0  0  0  0
 19 21  1  0  0  0  0
 19 20  1  0  0  0  0
 22 19  2  0  0  0  0
M  END
>  <CHROM.1>
171.87626455,41.57104372,-161.52615199,-162.56768130,-33.02812107,10.98779949
-53.12793021,-41.28442305,1.48656340,1.39176288,0.28078505

>  <Name>
lig.pdb

>  <RI>
0

>  <Rbt.Current_Directory>
/home/itssahil/PROJECTS/Mol_Feturizer/New_Systems/rnas/5btp

>  <Rbt.Executable>
rbdock ($Id: //depot/dev/client3/rdock/2013.1/src/exe/rbdock.cxx#4 $)

>  <Rbt.Library>
libRbt.so (2013.1, Build901 2013/11/27)

>  <Rbt.Parameter_File>
/export/apps/rDock/src/rDock_2013.1_src/data/scripts/dock_solv.prm

>  <Rbt.Receptor>
prm/blind_docking_100.prm

>  <SCORE>
-14.6116

>  <SCORE.INTER>
-16.2927

>  <SCORE.INTER.CONST>
1

>  <SCORE.INTER.POLAR>
0

>  <SCORE.INTER.ROT>
5

>  <SCORE.INTER.SOLV>
22.4549

>  <SCORE.INTER.VDW>
-25.2801

>  <SCORE.INTER.norm>
-0.740579

>  <SCORE.INTRA>
1.68112

>  <SCORE.INTRA.DIHEDRAL>
1.95948

>  <SCORE.INTRA.DIHEDRAL.0>
4.21161

>  <SCORE.INTRA.POLAR>
0

>  <SCORE.INTRA.POLAR.0>
0

>  <SCORE.INTRA.REPUL>
0

>  <SCORE.INTRA.REPUL.0>
0

>  <SCORE.INTRA.SOLV>
0.786744

>  <SCORE.INTRA.SOLV.lig_0>
-41.4168

>  <SCORE.INTRA.VDW>
0.308006

>  <SCORE.INTRA.VDW.0>
-1.62533

>  <SCORE.INTRA.norm>
0.0764145

>  <SCORE.RESTR>
0

>  <SCORE.RESTR.CAVITY>
0

>  <SCORE.RESTR.norm>
0

>  <SCORE.SYSTEM>
0

>  <SCORE.SYSTEM.CONST>
0

>  <SCORE.SYSTEM.DIHEDRAL>
0

>  <SCORE.SYSTEM.SOLV>
0

>  <SCORE.SYSTEM.norm>
0

>  <SCORE.heavy>
22

>  <SCORE.norm>
-0.664164

>  <RMSD>
12.043

$$$$
lig.pdb
 OpenBabel11021811523D
libRbt.so/2013.1/901 2013/11/27
 22 23  0  0  0  0  0  0  0  0999 V2000
    9.3384  -54.8594  -44.9687 O   0  0  0  0  0  0  0  0  0  0  0  0
   10.5236  -54.6756  -44.7392 C   0  0  0  0  0  0  0  0  0  0  0  0
   11.4708  -55.4470  -45.2727 N   0  0  0  0  0  0  0  0  0  0  0  0
   10.9319  -53.5702  -43.8267 C   0  0  0  0  0  0  0  0  0  0  0  0
    9.9924  -52.7669  -43.0285 C   0  0  0  0  0  0  0  0  0  0  0  0
    8.5445  -52.9295  -43.0176 N   0  0  0  0  0  0  0  0  0  0  0  0
   12.1399  -53.0591  -43.5016 N   0  0  0  0  0  0  0  0  0  0  0  0
   11.9489  -52.0473  -42.5991 C   0  0  0  0  0  0  0  0  0  0  0  0
   10.6421  -51.8667  -42.3083 N   0  0  0  0  0  0  0  0  0  0  0  0
   10.0541  -50.8741  -41.3788 C   0  0  1  0  0  0  0  0  0  0  0  0
   10.1144  -51.3832  -39.9480 C   0  0  1  0  0  0  0  0  0  0  0  0
   10.2910  -50.1194  -39.1458 C   0  0  2  0  0  0  0  0  0  0  0  0
    9.0127  -49.5279  -38.9046 O   0  0  0  0  0  0  0  0  0  0  0  0
    8.8972  -52.0339  -39.5806 O   0  0  0  0  0  0  0  0  0  0  0  0
   10.7860  -49.6430  -41.4055 O   0  0  0  0  0  0  0  0  0  0  0  0
   11.0856  -49.2204  -40.0731 C   0  0  2  0  0  0  0  0  0  0  0  0
   12.5733  -49.3676  -39.7939 C   0  0  0  0  0  0  0  0  0  0  0  0
   12.8497  -48.8001  -38.5145 O   0  0  0  0  0  0  0  0  0  0  0  0
   14.3262  -48.8519  -37.8717 P   0  0  0  0  0  0  0  0  0  0  0  0
   14.5335  -50.2975  -37.4835 O   0  0  0  0  0  0  0  0  0  0  0  0
   14.2236  -47.9036  -36.7007 O   0  0  0  0  0  0  0  0  0  0  0  0
   15.2149  -48.3766  -38.9972 O   0  0  0  0  0  0  0  0  0  0  0  0
  1  2  2  0  0  0  0
  2  4  1  0  0  0  0
  2  3  1  0  0  0  0
  4  7  1  0  0  0  0
  5  9  1  0  0  0  0
  5  4  2  0  0  0  0
  6  5  1  0  0  0  0
  8  7  2  0  0  0  0
  9  8  1  0  0  0  0
 10 15  1  0  0  0  0
 10  9  1  6  0  0  0
 10 11  1  0  0  0  0
 11 14  1  1  0  0  0
 11 12  1  0  0  0  0
 12 13  1  6  0  0  0
 15 16  1  0  0  0  0
 16 12  1  0  0  0  0
 16 17  1  1  0  0  0
 17 18  1  0  0  0  0
 18 19  1  0  0  0  0
 19 21  1  0  0  0  0
 19 20  1  0  0  0  0
 22 19  2  0  0  0  0
M  END
>  <CHROM.1>
8.14247981,97.12898974,-69.01084137,176.93354764,-71.67913634,11.54426710
-51.04399928,-40.76865268,-1.98948149,0.03595806,0.88203773

>  <Name>
lig.pdb

>  <RI>
0

>  <Rbt.Current_Directory>
/home/itssahil/PROJECTS/Mol_Feturizer/New_Systems/rnas/5btp

>  <Rbt.Executable>
rbdock ($Id: //depot/dev/client3/rdock/2013.1/src/exe/rbdock.cxx#4 $)

>  <Rbt.Library>
libRbt.so (2013.1, Build901 2013/11/27)

>  <Rbt.Parameter_File>
/export/apps/rDock/src/rDock_2013.1_src/data/scripts/dock_solv.prm

>  <Rbt.Receptor>
prm/blind_docking_80.prm

>  <SCORE>
-10.9621

>  <SCORE.INTER>
-10.1189

>  <SCORE.INTER.CONST>
1

>  <SCORE.INTER.POLAR>
0

>  <SCORE.INTER.ROT>
5

>  <SCORE.INTER.SOLV>
17.9842

>  <SCORE.INTER.VDW>
-19.674

>  <SCORE.INTER.norm>
-0.459952

>  <SCORE.INTRA>
-0.843129

>  <SCORE.INTRA.DIHEDRAL>
-1.00006

>  <SCORE.INTRA.DIHEDRAL.0>
4.21161

>  <SCORE.INTRA.POLAR>
0

>  <SCORE.INTRA.POLAR.0>
0

>  <SCORE.INTRA.REPUL>
0

>  <SCORE.INTRA.REPUL.0>
0

>  <SCORE.INTRA.SOLV>
0.115528

>  <SCORE.INTRA.SOLV.lig_0>
-41.4168

>  <SCORE.INTRA.VDW>
-0.400861

>  <SCORE.INTRA.VDW.0>
-1.62533

>  <SCORE.INTRA.norm>
-0.038324

>  <SCORE.RESTR>
0

>  <SCORE.RESTR.CAVITY>
0

>  <SCORE.RESTR.norm>
0

>  <SCORE.SYSTEM>
0

>  <SCORE.SYSTEM.CONST>
0

>  <SCORE.SYSTEM.DIHEDRAL>
0

>  <SCORE.SYSTEM.SOLV>
0

>  <SCORE.SYSTEM.norm>
0

>  <SCORE.heavy>
22

>  <SCORE.norm>
-0.498276

>  <RMSD>
12.047

$$$$
lig.pdb
 OpenBabel11021811523D
libRbt.so/2013.1/901 2013/11/27
 22 23  0  0  0  0  0  0  0  0999 V2000
   13.4967  -49.5544  -38.2154 O   0  0  0  0  0  0  0  0  0  0  0  0
   13.0038  -48.5932  -37.6461 C   0  0  0  0  0  0  0  0  0  0  0  0
   12.0310  -47.8704  -38.2011 N   0  0  0  0  0  0  0  0  0  0  0  0
   13.5072  -48.2000  -36.2996 C   0  0  0  0  0  0  0  0  0  0  0  0
   14.6202  -48.8667  -35.6055 C   0  0  0  0  0  0  0  0  0  0  0  0
   15.3795  -49.9969  -36.1244 N   0  0  0  0  0  0  0  0  0  0  0  0
   13.1364  -47.2261  -35.4392 N   0  0  0  0  0  0  0  0  0  0  0  0
   13.9433  -47.2987  -34.3354 C   0  0  0  0  0  0  0  0  0  0  0  0
   14.8485  -48.2966  -34.4333 N   0  0  0  0  0  0  0  0  0  0  0  0
   15.8826  -48.6762  -33.4426 C   0  0  1  0  0  0  0  0  0  0  0  0
   17.1493  -47.8641  -33.6568 C   0  0  1  0  0  0  0  0  0  0  0  0
   17.6989  -47.7189  -32.2609 C   0  0  2  0  0  0  0  0  0  0  0  0
   18.4703  -48.8760  -31.9318 O   0  0  0  0  0  0  0  0  0  0  0  0
   18.0793  -48.5673  -34.4818 O   0  0  0  0  0  0  0  0  0  0  0  0
   15.4439  -48.4041  -32.1064 O   0  0  0  0  0  0  0  0  0  0  0  0
   16.4558  -47.6894  -31.3930 C   0  0  2  0  0  0  0  0  0  0  0  0
   16.0197  -46.2519  -31.1553 C   0  0  0  0  0  0  0  0  0  0  0  0
   17.1177  -45.5353  -30.5932 O   0  0  0  0  0  0  0  0  0  0  0  0
   16.9917  -43.9795  -30.1940 P   0  0  0  0  0  0  0  0  0  0  0  0
   16.0492  -43.9536  -29.0130 O   0  0  0  0  0  0  0  0  0  0  0  0
   16.4333  -43.3482  -31.4473 O   0  0  0  0  0  0  0  0  0  0  0  0
   18.4127  -43.5864  -29.8643 O   0  0  0  0  0  0  0  0  0  0  0  0
  1  2  2  0  0  0  0
  2  4  1  0  0  0  0
  2  3  1  0  0  0  0
  4  7  1  0  0  0  0
  5  9  1  0  0  0  0
  5  4  2  0  0  0  0
  6  5  1  0  0  0  0
  8  7  2  0  0  0  0
  9  8  1  0  0  0  0
 10 15  1  0  0  0  0
 10  9  1  6  0  0  0
 10 11  1  0  0  0  0
 11 14  1  6  0  0  0
 11 12  1  0  0  0  0
 12 13  1  1  0  0  0
 15 16  1  0  0  0  0
 16 12  1  0  0  0  0
 16 17  1  6  0  0  0
 17 18  1  0  0  0  0
 18 19  1  0  0  0  0
 19 21  1  0  0  0  0
 19 20  1  0  0  0  0
 22 19  2  0  0  0  0
M  END
>  <CHROM.1>
2.59771895,92.91250584,-55.57542256,-179.02873645,68.72406227,15.79018290
-47.04821168,-33.25564957,2.10464656,0.65593358,-2.48204078

>  <Name>
lig.pdb

>  <RI>
0

>  <Rbt.Current_Directory>
/home/itssahil/PROJECTS/Mol_Feturizer/New_Systems/rnas/5btp

>  <Rbt.Executable>
rbdock ($Id: //depot/dev/client3/rdock/2013.1/src/exe/rbdock.cxx#4 $)

>  <Rbt.Library>
libRbt.so (2013.1, Build901 2013/11/27)

>  <Rbt.Parameter_File>
/export/apps/rDock/src/rDock_2013.1_src/data/scripts/dock_solv.prm

>  <Rbt.Receptor>
prm/blind_docking_100.prm

>  <SCORE>
-3.89075

>  <SCORE.INTER>
-2.84065

>  <SCORE.INTER.CONST>
1

>  <SCORE.INTER.POLAR>
0

>  <SCORE.INTER.ROT>
5

>  <SCORE.INTER.SOLV>
11.1937

>  <SCORE.INTER.VDW>
-12.5583

>  <SCORE.INTER.norm>
-0.129121

>  <SCORE.INTRA>
-1.05009

>  <SCORE.INTRA.DIHEDRAL>
-1.56569

>  <SCORE.INTRA.DIHEDRAL.0>
4.21161

>  <SCORE.INTRA.POLAR>
0

>  <SCORE.INTRA.POLAR.0>
0

>  <SCORE.INTRA.REPUL>
0

>  <SCORE.INTRA.REPUL.0>
0

>  <SCORE.INTRA.SOLV>
-0.0285231

>  <SCORE.INTRA.SOLV.lig_0>
-41.4168

>  <SCORE.INTRA.VDW>
-0.252986

>  <SCORE.INTRA.VDW.0>
-1.62533

>  <SCORE.INTRA.norm>
-0.0477315

>  <SCORE.RESTR>
0

>  <SCORE.RESTR.CAVITY>
0

>  <SCORE.RESTR.norm>
0

>  <SCORE.SYSTEM>
0

>  <SCORE.SYSTEM.CONST>
0

>  <SCORE.SYSTEM.DIHEDRAL>
0

>  <SCORE.SYSTEM.SOLV>
0

>  <SCORE.SYSTEM.norm>
0

>  <SCORE.heavy>
22

>  <SCORE.norm>
-0.176852

>  <RMSD>
12.351

$$$$
lig.pdb
 OpenBabel11021811523D
libRbt.so/2013.1/901 2013/11/27
 22 23  0  0  0  0  0  0  0  0999 V2000
   10.1911  -58.9433  -46.7831 O   0  0  0  0  0  0  0  0  0  0  0  0
   10.2429  -58.9550  -45.5632 C   0  0  0  0  0  0  0  0  0  0  0  0
   10.0225  -60.0663  -44.8609 N   0  0  0  0  0  0  0  0  0  0  0  0
   10.5453  -57.6937  -44.8291 C   0  0  0  0  0  0  0  0  0  0  0  0
   10.7606  -56.3906  -45.4775 C   0  0  0  0  0  0  0  0  0  0  0  0
   10.7149  -56.1472  -46.9134 N   0  0  0  0  0  0  0  0  0  0  0  0
   10.6801  -57.4178  -43.5130 N   0  0  0  0  0  0  0  0  0  0  0  0
   10.9514  -56.0824  -43.3802 C   0  0  0  0  0  0  0  0  0  0  0  0
   11.0009  -55.4534  -44.5747 N   0  0  0  0  0  0  0  0  0  0  0  0
   11.2654  -54.0177  -44.8274 C   0  0  1  0  0  0  0  0  0  0  0  0
    9.9637  -53.2699  -45.0647 C   0  0  1  0  0  0  0  0  0  0  0  0
   10.2505  -51.9025  -44.4993 C   0  0  2  0  0  0  0  0  0  0  0  0
   10.9115  -51.1095  -45.4873 O   0  0  0  0  0  0  0  0  0  0  0  0
    9.6705  -53.1748  -46.4593 O   0  0  0  0  0  0  0  0  0  0  0  0
   11.8912  -53.3999  -43.6966 O   0  0  0  0  0  0  0  0  0  0  0  0
   11.2154  -52.1847  -43.3641 C   0  0  2  0  0  0  0  0  0  0  0  0
   10.4522  -52.3446  -42.0584 C   0  0  0  0  0  0  0  0  0  0  0  0
   10.0034  -53.6953  -41.9617 O   0  0  0  0  0  0  0  0  0  0  0  0
    9.2462  -54.2388  -40.6475 P   0  0  0  0  0  0  0  0  0  0  0  0
    7.8276  -54.5047  -41.0951 O   0  0  0  0  0  0  0  0  0  0  0  0
    9.3849  -53.0929  -39.6735 O   0  0  0  0  0  0  0  0  0  0  0  0
   10.0260  -55.4801  -40.2822 O   0  0  0  0  0  0  0  0  0  0  0  0
  1  2  2  0  0  0  0
  2  4  1  0  0  0  0
  2  3  1  0  0  0  0
  4  7  1  0  0  0  0
  5  9  1  0  0  0  0
  5  4  2  0  0  0  0
  6  5  1  0  0  0  0
  8  7  2  0  0  0  0
  9  8  1  0  0  0  0
 10 15  1  0  0  0  0
 10  9  1  1  0  0  0
 10 11  1  0  0  0  0
 11 14  1  6  0  0  0
 11 12  1  0  0  0  0
 12 13  1  6  0  0  0
 15 16  1  0  0  0  0
 16 12  1  0  0  0  0
 16 17  1  1  0  0  0
 17 18  1  0  0  0  0
 18 19  1  0  0  0  0
 19 21  1  0  0  0  0
 19 20  1  0  0  0  0
 22 19  2  0  0  0  0
M  END
>  <CHROM.1>
1.58564425,80.39038306,84.75584967,175.63812370,111.85209718,10.24669126
-54.87641365,-43.63442756,1.19822639,-1.32217516,-2.82884668

>  <Name>
lig.pdb

>  <RI>
0

>  <Rbt.Current_Directory>
/home/itssahil/PROJECTS/Mol_Feturizer/New_Systems/rnas/5btp

>  <Rbt.Executable>
rbdock ($Id: //depot/dev/client3/rdock/2013.1/src/exe/rbdock.cxx#4 $)

>  <Rbt.Library>
libRbt.so (2013.1, Build901 2013/11/27)

>  <Rbt.Parameter_File>
/export/apps/rDock/src/rDock_2013.1_src/data/scripts/dock_solv.prm

>  <Rbt.Receptor>
prm/blind_docking_100.prm

>  <SCORE>
-10.3445

>  <SCORE.INTER>
-11.7761

>  <SCORE.INTER.CONST>
1

>  <SCORE.INTER.POLAR>
0

>  <SCORE.INTER.ROT>
5

>  <SCORE.INTER.SOLV>
12.9709

>  <SCORE.INTER.VDW>
-19.1077

>  <SCORE.INTER.norm>
-0.535277

>  <SCORE.INTRA>
1.43156

>  <SCORE.INTRA.DIHEDRAL>
2.50538

>  <SCORE.INTRA.DIHEDRAL.0>
4.21161

>  <SCORE.INTRA.POLAR>
0

>  <SCORE.INTRA.POLAR.0>
0

>  <SCORE.INTRA.REPUL>
0

>  <SCORE.INTRA.REPUL.0>
0

>  <SCORE.INTRA.SOLV>
1.40013

>  <SCORE.INTRA.SOLV.lig_0>
-41.4168

>  <SCORE.INTRA.VDW>
-0.521199

>  <SCORE.INTRA.VDW.0>
-1.62533

>  <SCORE.INTRA.norm>
0.0650707

>  <SCORE.RESTR>
0

>  <SCORE.RESTR.CAVITY>
0

>  <SCORE.RESTR.norm>
0

>  <SCORE.SYSTEM>
0

>  <SCORE.SYSTEM.CONST>
0

>  <SCORE.SYSTEM.DIHEDRAL>
0

>  <SCORE.SYSTEM.SOLV>
0

>  <SCORE.SYSTEM.norm>
0

>  <SCORE.heavy>
22

>  <SCORE.norm>
-0.470206

>  <RMSD>
12.603

$$$$
lig.pdb
 OpenBabel11021811523D
libRbt.so/2013.1/901 2013/11/27
 22 23  0  0  0  0  0  0  0  0999 V2000
   11.1823  -48.6171  -37.3457 O   0  0  0  0  0  0  0  0  0  0  0  0
   12.0740  -48.6110  -38.1800 C   0  0  0  0  0  0  0  0  0  0  0  0
   13.2562  -48.0434  -37.9412 N   0  0  0  0  0  0  0  0  0  0  0  0
   11.8385  -49.2396  -39.5107 C   0  0  0  0  0  0  0  0  0  0  0  0
   10.6340  -50.0087  -39.8606 C   0  0  0  0  0  0  0  0  0  0  0  0
    9.5125  -50.2689  -38.9675 N   0  0  0  0  0  0  0  0  0  0  0  0
   12.5724  -49.2684  -40.6450 N   0  0  0  0  0  0  0  0  0  0  0  0
   11.8813  -49.9848  -41.5850 C   0  0  0  0  0  0  0  0  0  0  0  0
   10.7000  -50.4371  -41.1110 N   0  0  0  0  0  0  0  0  0  0  0  0
    9.6867  -51.2410  -41.8335 C   0  0  1  0  0  0  0  0  0  0  0  0
   10.3604  -52.2298  -42.7706 C   0  0  1  0  0  0  0  0  0  0  0  0
    9.4141  -53.4030  -42.7626 C   0  0  2  0  0  0  0  0  0  0  0  0
    8.3717  -53.1783  -43.7139 O   0  0  0  0  0  0  0  0  0  0  0  0
   10.4717  -51.6956  -44.0905 O   0  0  0  0  0  0  0  0  0  0  0  0
    8.8951  -52.0143  -40.9239 O   0  0  0  0  0  0  0  0  0  0  0  0
    8.8248  -53.3722  -41.3658 C   0  0  2  0  0  0  0  0  0  0  0  0
    9.6297  -54.2714  -40.4402 C   0  0  0  0  0  0  0  0  0  0  0  0
    9.5942  -55.5995  -40.9598 O   0  0  0  0  0  0  0  0  0  0  0  0
   10.7271  -56.6814  -40.5832 P   0  0  0  0  0  0  0  0  0  0  0  0
   12.0333  -56.0361  -40.9843 O   0  0  0  0  0  0  0  0  0  0  0  0
   10.3460  -57.8813  -41.4176 O   0  0  0  0  0  0  0  0  0  0  0  0
   10.5554  -56.8641  -39.0934 O   0  0  0  0  0  0  0  0  0  0  0  0
  1  2  2  0  0  0  0
  2  4  1  0  0  0  0
  2  3  1  0  0  0  0
  4  7  1  0  0  0  0
  5  9  1  0  0  0  0
  5  4  2  0  0  0  0
  6  5  1  0  0  0  0
  8  7  2  0  0  0  0
  9  8  1  0  0  0  0
 10 15  1  0  0  0  0
 10  9  1  1  0  0  0
 10 11  1  0  0  0  0
 11 14  1  6  0  0  0
 11 12  1  0  0  0  0
 12 13  1  6  0  0  0
 15 16  1  0  0  0  0
 16 12  1  0  0  0  0
 16 17  1  1  0  0  0
 17 18  1  0  0  0  0
 18 19  1  0  0  0  0
 19 21  1  0  0  0  0
 19 20  1  0  0  0  0
 22 19  2  0  0  0  0
M  END
>  <CHROM.1>
-6.75289348,-143.91240757,-59.45535813,157.32183199,-56.23297547,10.55103809
-52.59501721,-40.74785700,-1.11941091,1.13221725,2.98380319

>  <Name>
lig.pdb

>  <RI>
0

>  <Rbt.Current_Directory>
/home/itssahil/PROJECTS/Mol_Feturizer/New_Systems/rnas/5btp

>  <Rbt.Executable>
rbdock ($Id: //depot/dev/client3/rdock/2013.1/src/exe/rbdock.cxx#4 $)

>  <Rbt.Library>
libRbt.so (2013.1, Build901 2013/11/27)

>  <Rbt.Parameter_File>
/export/apps/rDock/src/rDock_2013.1_src/data/scripts/dock_solv.prm

>  <Rbt.Receptor>
prm/blind_docking_80.prm

>  <SCORE>
-13.1478

>  <SCORE.INTER>
-13.7879

>  <SCORE.INTER.CONST>
1

>  <SCORE.INTER.POLAR>
0

>  <SCORE.INTER.ROT>
5

>  <SCORE.INTER.SOLV>
22.0111

>  <SCORE.INTER.VDW>
-23.4623

>  <SCORE.INTER.norm>
-0.626722

>  <SCORE.INTRA>
0.640094

>  <SCORE.INTRA.DIHEDRAL>
0.64886

>  <SCORE.INTRA.DIHEDRAL.0>
4.21161

>  <SCORE.INTRA.POLAR>
0

>  <SCORE.INTRA.POLAR.0>
0

>  <SCORE.INTRA.REPUL>
0

>  <SCORE.INTRA.REPUL.0>
0

>  <SCORE.INTRA.SOLV>
0.555675

>  <SCORE.INTRA.SOLV.lig_0>
-41.4168

>  <SCORE.INTRA.VDW>
0.0378263

>  <SCORE.INTRA.VDW.0>
-1.62533

>  <SCORE.INTRA.norm>
0.0290952

>  <SCORE.RESTR>
0

>  <SCORE.RESTR.CAVITY>
0

>  <SCORE.RESTR.norm>
0

>  <SCORE.SYSTEM>
0

>  <SCORE.SYSTEM.CONST>
0

>  <SCORE.SYSTEM.DIHEDRAL>
0

>  <SCORE.SYSTEM.SOLV>
0

>  <SCORE.SYSTEM.norm>
0

>  <SCORE.heavy>
22

>  <SCORE.norm>
-0.597627

>  <RMSD>
12.647

$$$$
lig.pdb
 OpenBabel11021811523D
libRbt.so/2013.1/901 2013/11/27
 22 23  0  0  0  0  0  0  0  0999 V2000
   15.0010  -46.5459  -33.0617 O   0  0  0  0  0  0  0  0  0  0  0  0
   13.7817  -46.5649  -32.9987 C   0  0  0  0  0  0  0  0  0  0  0  0
   13.1243  -46.0720  -31.9491 N   0  0  0  0  0  0  0  0  0  0  0  0
   12.9983  -47.1674  -34.1143 C   0  0  0  0  0  0  0  0  0  0  0  0
   13.5940  -47.7024  -35.3487 C   0  0  0  0  0  0  0  0  0  0  0  0
   15.0177  -47.7167  -35.6586 N   0  0  0  0  0  0  0  0  0  0  0  0
   11.6746  -47.3798  -34.2845 N   0  0  0  0  0  0  0  0  0  0  0  0
   11.4894  -47.9810  -35.5005 C   0  0  0  0  0  0  0  0  0  0  0  0
   12.6564  -48.1794  -36.1515 N   0  0  0  0  0  0  0  0  0  0  0  0
   12.8523  -48.8012  -37.4819 C   0  0  1  0  0  0  0  0  0  0  0  0
   12.4378  -47.8413  -38.5849 C   0  0  1  0  0  0  0  0  0  0  0  0
   13.3799  -48.1893  -39.7088 C   0  0  2  0  0  0  0  0  0  0  0  0
   12.8535  -49.2959  -40.4439 O   0  0  0  0  0  0  0  0  0  0  0  0
   11.0863  -48.0699  -38.9863 O   0  0  0  0  0  0  0  0  0  0  0  0
   14.2318  -49.1134  -37.7091 O   0  0  0  0  0  0  0  0  0  0  0  0
   14.6410  -48.6276  -38.9898 C   0  0  2  0  0  0  0  0  0  0  0  0
   15.5870  -47.4475  -38.8297 C   0  0  0  0  0  0  0  0  0  0  0  0
   16.1100  -47.1122  -40.1139 O   0  0  0  0  0  0  0  0  0  0  0  0
   17.1126  -48.0997  -40.8986 P   0  0  0  0  0  0  0  0  0  0  0  0
   17.6552  -47.2771  -42.0442 O   0  0  0  0  0  0  0  0  0  0  0  0
   16.2124  -49.2359  -41.3226 O   0  0  0  0  0  0  0  0  0  0  0  0
   18.1396  -48.4607  -39.8511 O   0  0  0  0  0  0  0  0  0  0  0  0
  1  2  2  0  0  0  0
  2  4  1  0  0  0  0
  2  3  1  0  0  0  0
  4  7  1  0  0  0  0
  5  9  1  0  0  0  0
  5  4  2  0  0  0  0
  6  5  1  0  0  0  0
  8  7  2  0  0  0  0
  9  8  1  0  0  0  0
 10 15  1  0  0  0  0
 10  9  1  1  0  0  0
 10 11  1  0  0  0  0
 11 14  1  6  0  0  0
 11 12  1  0  0  0  0
 12 13  1  1  0  0  0
 15 16  1  0  0  0  0
 16 12  1  0  0  0  0
 16 17  1  1  0  0  0
 17 18  1  0  0  0  0
 18 19  1  0  0  0  0
 19 21  1  0  0  0  0
 19 20  1  0  0  0  0
 22 19  2  0  0  0  0
M  END
>  <CHROM.1>
-2.94548541,-105.09934579,-70.46564662,-67.87409106,-168.38958582,14.39581046
-47.89068719,-37.76778640,-2.04166890,-0.19375052,-1.82438233

>  <Name>
lig.pdb

>  <RI>
0

>  <Rbt.Current_Directory>
/home/itssahil/PROJECTS/Mol_Feturizer/New_Systems/rnas/5btp

>  <Rbt.Executable>
rbdock ($Id: //depot/dev/client3/rdock/2013.1/src/exe/rbdock.cxx#4 $)

>  <Rbt.Library>
libRbt.so (2013.1, Build901 2013/11/27)

>  <Rbt.Parameter_File>
/export/apps/rDock/src/rDock_2013.1_src/data/scripts/dock_solv.prm

>  <Rbt.Receptor>
prm/blind_docking_80.prm

>  <SCORE>
-5.29611

>  <SCORE.INTER>
-5.38109

>  <SCORE.INTER.CONST>
1

>  <SCORE.INTER.POLAR>
0

>  <SCORE.INTER.ROT>
5

>  <SCORE.INTER.SOLV>
13.4005

>  <SCORE.INTER.VDW>
-14.9875

>  <SCORE.INTER.norm>
-0.244595

>  <SCORE.INTRA>
0.0849871

>  <SCORE.INTRA.DIHEDRAL>
-0.857305

>  <SCORE.INTRA.DIHEDRAL.0>
4.21161

>  <SCORE.INTRA.POLAR>
0

>  <SCORE.INTRA.POLAR.0>
0

>  <SCORE.INTRA.REPUL>
0

>  <SCORE.INTRA.REPUL.0>
0

>  <SCORE.INTRA.SOLV>
1.89513

>  <SCORE.INTRA.SOLV.lig_0>
-41.4168

>  <SCORE.INTRA.VDW>
-0.433926

>  <SCORE.INTRA.VDW.0>
-1.62533

>  <SCORE.INTRA.norm>
0.00386305

>  <SCORE.RESTR>
0

>  <SCORE.RESTR.CAVITY>
0

>  <SCORE.RESTR.norm>
0

>  <SCORE.SYSTEM>
0

>  <SCORE.SYSTEM.CONST>
0

>  <SCORE.SYSTEM.DIHEDRAL>
0

>  <SCORE.SYSTEM.SOLV>
0

>  <SCORE.SYSTEM.norm>
0

>  <SCORE.heavy>
22

>  <SCORE.norm>
-0.240732

>  <RMSD>
12.682

$$$$
lig.pdb
 OpenBabel11021811523D
libRbt.so/2013.1/901 2013/11/27
 22 23  0  0  0  0  0  0  0  0999 V2000
   16.8491  -44.1075  -30.3223 O   0  0  0  0  0  0  0  0  0  0  0  0
   16.7406  -45.3179  -30.4413 C   0  0  0  0  0  0  0  0  0  0  0  0
   16.6931  -46.1268  -29.3829 N   0  0  0  0  0  0  0  0  0  0  0  0
   16.6740  -45.9186  -31.8036 C   0  0  0  0  0  0  0  0  0  0  0  0
   16.5383  -47.3600  -32.0664 C   0  0  0  0  0  0  0  0  0  0  0  0
   16.4552  -48.3972  -31.0464 N   0  0  0  0  0  0  0  0  0  0  0  0
   16.7036  -45.3736  -33.0399 N   0  0  0  0  0  0  0  0  0  0  0  0
   16.5982  -46.3846  -33.9571 C   0  0  0  0  0  0  0  0  0  0  0  0
   16.4971  -47.5959  -33.3678 N   0  0  0  0  0  0  0  0  0  0  0  0
   16.3651  -48.9136  -34.0322 C   0  0  1  0  0  0  0  0  0  0  0  0
   15.1141  -48.9527  -34.8944 C   0  0  1  0  0  0  0  0  0  0  0  0
   15.5138  -49.8589  -36.0305 C   0  0  2  0  0  0  0  0  0  0  0  0
   15.3161  -51.2203  -35.6437 O   0  0  0  0  0  0  0  0  0  0  0  0
   14.0127  -49.5148  -34.1797 O   0  0  0  0  0  0  0  0  0  0  0  0
   17.4717  -49.1656  -34.9062 O   0  0  0  0  0  0  0  0  0  0  0  0
   16.9997  -49.5987  -36.1842 C   0  0  2  0  0  0  0  0  0  0  0  0
   17.2346  -48.5180  -37.2283 C   0  0  0  0  0  0  0  0  0  0  0  0
   16.5517  -47.3359  -36.8143 O   0  0  0  0  0  0  0  0  0  0  0  0
   16.6794  -45.9574  -37.6386 P   0  0  0  0  0  0  0  0  0  0  0  0
   18.0883  -45.4760  -37.3802 O   0  0  0  0  0  0  0  0  0  0  0  0
   15.6053  -45.0906  -37.0253 O   0  0  0  0  0  0  0  0  0  0  0  0
   16.4177  -46.3775  -39.0660 O   0  0  0  0  0  0  0  0  0  0  0  0
  1  2  2  0  0  0  0
  2  4  1  0  0  0  0
  2  3  1  0  0  0  0
  4  7  1  0  0  0  0
  5  9  1  0  0  0  0
  5  4  2  0  0  0  0
  6  5  1  0  0  0  0
  8  7  2  0  0  0  0
  9  8  1  0  0  0  0
 10 15  1  0  0  0  0
 10  9  1  6  0  0  0
 10 11  1  0  0  0  0
 11 14  1  1  0  0  0
 11 12  1  0  0  0  0
 12 13  1  1  0  0  0
 15 16  1  0  0  0  0
 16 12  1  0  0  0  0
 16 17  1  6  0  0  0
 17 18  1  0  0  0  0
 18 19  1  0  0  0  0
 19 21  1  0  0  0  0
 19 20  1  0  0  0  0
 22 19  2  0  0  0  0
M  END
>  <CHROM.1>
-179.75067742,120.28204405,58.58968670,175.41452556,-71.00984918,16.42226750
-47.31204958,-34.65747590,-1.49018392,-1.32853113,-1.70747352

>  <Name>
lig.pdb

>  <RI>
0

>  <Rbt.Current_Directory>
/home/itssahil/PROJECTS/Mol_Feturizer/New_Systems/rnas/5btp

>  <Rbt.Executable>
rbdock ($Id: //depot/dev/client3/rdock/2013.1/src/exe/rbdock.cxx#4 $)

>  <Rbt.Library>
libRbt.so (2013.1, Build901 2013/11/27)

>  <Rbt.Parameter_File>
/export/apps/rDock/src/rDock_2013.1_src/data/scripts/dock_solv.prm

>  <Rbt.Receptor>
prm/blind_docking_100.prm

>  <SCORE>
-3.91615

>  <SCORE.INTER>
-2.64114

>  <SCORE.INTER.CONST>
1

>  <SCORE.INTER.POLAR>
0

>  <SCORE.INTER.ROT>
5

>  <SCORE.INTER.SOLV>
12.227

>  <SCORE.INTER.VDW>
-12.7698

>  <SCORE.INTER.norm>
-0.120052

>  <SCORE.INTRA>
-1.27501

>  <SCORE.INTRA.DIHEDRAL>
-1.48942

>  <SCORE.INTRA.DIHEDRAL.0>
4.21161

>  <SCORE.INTRA.POLAR>
0

>  <SCORE.INTRA.POLAR.0>
0

>  <SCORE.INTRA.REPUL>
0

>  <SCORE.INTRA.REPUL.0>
0

>  <SCORE.INTRA.SOLV>
1.12296

>  <SCORE.INTRA.SOLV.lig_0>
-41.4168

>  <SCORE.INTRA.VDW>
-1.09178

>  <SCORE.INTRA.VDW.0>
-1.62533

>  <SCORE.INTRA.norm>
-0.0579548

>  <SCORE.RESTR>
0

>  <SCORE.RESTR.CAVITY>
0

>  <SCORE.RESTR.norm>
0

>  <SCORE.SYSTEM>
0

>  <SCORE.SYSTEM.CONST>
0

>  <SCORE.SYSTEM.DIHEDRAL>
0

>  <SCORE.SYSTEM.SOLV>
0

>  <SCORE.SYSTEM.norm>
0

>  <SCORE.heavy>
22

>  <SCORE.norm>
-0.178007

>  <RMSD>
12.827

$$$$
lig.pdb
 OpenBabel11021811523D
libRbt.so/2013.1/901 2013/11/27
 22 23  0  0  0  0  0  0  0  0999 V2000
    8.8510  -47.7973  -37.6187 O   0  0  0  0  0  0  0  0  0  0  0  0
    9.7456  -48.3918  -38.1995 C   0  0  0  0  0  0  0  0  0  0  0  0
    9.4965  -49.4282  -39.0000 N   0  0  0  0  0  0  0  0  0  0  0  0
   11.1596  -47.9642  -38.0026 C   0  0  0  0  0  0  0  0  0  0  0  0
   12.3168  -48.6169  -38.6349 C   0  0  0  0  0  0  0  0  0  0  0  0
   12.2504  -49.7646  -39.5302 N   0  0  0  0  0  0  0  0  0  0  0  0
   11.7153  -46.9654  -37.2816 N   0  0  0  0  0  0  0  0  0  0  0  0
   13.0721  -47.0115  -37.4593 C   0  0  0  0  0  0  0  0  0  0  0  0
   13.4422  -48.0160  -38.2832 N   0  0  0  0  0  0  0  0  0  0  0  0
   14.8154  -48.3733  -38.7091 C   0  0  1  0  0  0  0  0  0  0  0  0
   15.0798  -47.8816  -40.1227 C   0  0  1  0  0  0  0  0  0  0  0  0
   16.5518  -47.5585  -40.0993 C   0  0  2  0  0  0  0  0  0  0  0  0
   17.3028  -48.7482  -40.3494 O   0  0  0  0  0  0  0  0  0  0  0  0
   14.8152  -48.9055  -41.0826 O   0  0  0  0  0  0  0  0  0  0  0  0
   15.7958  -47.7512  -37.8701 O   0  0  0  0  0  0  0  0  0  0  0  0
   16.7930  -47.1119  -38.6705 C   0  0  2  0  0  0  0  0  0  0  0  0
   16.6638  -45.6000  -38.5678 C   0  0  0  0  0  0  0  0  0  0  0  0
   17.6451  -45.0056  -39.4156 O   0  0  0  0  0  0  0  0  0  0  0  0
   17.6694  -43.4183  -39.6913 P   0  0  0  0  0  0  0  0  0  0  0  0
   17.4180  -42.7832  -38.3434 O   0  0  0  0  0  0  0  0  0  0  0  0
   16.5494  -43.2261  -40.6862 O   0  0  0  0  0  0  0  0  0  0  0  0
   19.0557  -43.1798  -40.2423 O   0  0  0  0  0  0  0  0  0  0  0  0
  1  2  2  0  0  0  0
  2  4  1  0  0  0  0
  2  3  1  0  0  0  0
  4  7  1  0  0  0  0
  5  9  1  0  0  0  0
  5  4  2  0  0  0  0
  6  5  1  0  0  0  0
  8  7  2  0  0  0  0
  9  8  1  0  0  0  0
 10 15  1  0  0  0  0
 10  9  1  1  0  0  0
 10 11  1  0  0  0  0
 11 14  1  6  0  0  0
 11 12  1  0  0  0  0
 12 13  1  1  0  0  0
 15 16  1  0  0  0  0
 16 12  1  0  0  0  0
 16 17  1  6  0  0  0
 17 18  1  0  0  0  0
 18 19  1  0  0  0  0
 19 21  1  0  0  0  0
 19 20  1  0  0  0  0
 22 19  2  0  0  0  0
M  END
>  <CHROM.1>
179.12248020,77.36297870,-60.70474406,172.20544922,42.74727760,14.74900815
-46.70985069,-39.06424066,2.64062681,-0.32924785,-2.89147329

>  <Name>
lig.pdb

>  <RI>
0

>  <Rbt.Current_Directory>
/home/itssahil/PROJECTS/Mol_Feturizer/New_Systems/rnas/5btp

>  <Rbt.Executable>
rbdock ($Id: //depot/dev/client3/rdock/2013.1/src/exe/rbdock.cxx#4 $)

>  <Rbt.Library>
libRbt.so (2013.1, Build901 2013/11/27)

>  <Rbt.Parameter_File>
/export/apps/rDock/src/rDock_2013.1_src/data/scripts/dock_solv.prm

>  <Rbt.Receptor>
prm/blind_docking_80.prm

>  <SCORE>
-9.26825

>  <SCORE.INTER>
-8.66848

>  <SCORE.INTER.CONST>
1

>  <SCORE.INTER.POLAR>
0

>  <SCORE.INTER.ROT>
5

>  <SCORE.INTER.SOLV>
16.3793

>  <SCORE.INTER.VDW>
-18.1721

>  <SCORE.INTER.norm>
-0.394022

>  <SCORE.INTRA>
-0.599772

>  <SCORE.INTRA.DIHEDRAL>
-1.03204

>  <SCORE.INTRA.DIHEDRAL.0>
4.21161

>  <SCORE.INTRA.POLAR>
0

>  <SCORE.INTRA.POLAR.0>
0

>  <SCORE.INTRA.REPUL>
0

>  <SCORE.INTRA.REPUL.0>
0

>  <SCORE.INTRA.SOLV>
0.426161

>  <SCORE.INTRA.SOLV.lig_0>
-41.4168

>  <SCORE.INTRA.VDW>
-0.29683

>  <SCORE.INTRA.VDW.0>
-1.62533

>  <SCORE.INTRA.norm>
-0.0272623

>  <SCORE.RESTR>
0

>  <SCORE.RESTR.CAVITY>
0

>  <SCORE.RESTR.norm>
0

>  <SCORE.SYSTEM>
0

>  <SCORE.SYSTEM.CONST>
0

>  <SCORE.SYSTEM.DIHEDRAL>
0

>  <SCORE.SYSTEM.SOLV>
0

>  <SCORE.SYSTEM.norm>
0

>  <SCORE.heavy>
22

>  <SCORE.norm>
-0.421284

>  <RMSD>
12.953

$$$$
lig.pdb
 OpenBabel11021811523D
libRbt.so/2013.1/901 2013/11/27
 22 23  0  0  0  0  0  0  0  0999 V2000
    8.4442  -55.3763  -49.5378 O   0  0  0  0  0  0  0  0  0  0  0  0
    9.0321  -55.4228  -48.4686 C   0  0  0  0  0  0  0  0  0  0  0  0
    9.3638  -56.5812  -47.8986 N   0  0  0  0  0  0  0  0  0  0  0  0
    9.3796  -54.1551  -47.7661 C   0  0  0  0  0  0  0  0  0  0  0  0
   10.1456  -54.0877  -46.5117 C   0  0  0  0  0  0  0  0  0  0  0  0
   10.6653  -55.2358  -45.7802 N   0  0  0  0  0  0  0  0  0  0  0  0
    9.1297  -52.8586  -48.0538 N   0  0  0  0  0  0  0  0  0  0  0  0
    9.6873  -52.0859  -47.0706 C   0  0  0  0  0  0  0  0  0  0  0  0
   10.3072  -52.8311  -46.1298 N   0  0  0  0  0  0  0  0  0  0  0  0
   11.0211  -52.3496  -44.9241 C   0  0  1  0  0  0  0  0  0  0  0  0
   10.0726  -52.2711  -43.7391 C   0  0  1  0  0  0  0  0  0  0  0  0
   10.9663  -52.5903  -42.5681 C   0  0  2  0  0  0  0  0  0  0  0  0
   11.6326  -51.4003  -42.1415 O   0  0  0  0  0  0  0  0  0  0  0  0
    9.5286  -50.9579  -43.6003 O   0  0  0  0  0  0  0  0  0  0  0  0
   12.0696  -53.2508  -44.5492 O   0  0  0  0  0  0  0  0  0  0  0  0
   11.9872  -53.5468  -43.1530 C   0  0  2  0  0  0  0  0  0  0  0  0
   11.5356  -54.9839  -42.9433 C   0  0  0  0  0  0  0  0  0  0  0  0
   11.5476  -55.2599  -41.5437 O   0  0  0  0  0  0  0  0  0  0  0  0
   11.0112  -56.6615  -40.9574 P   0  0  0  0  0  0  0  0  0  0  0  0
   12.1910  -57.2559  -40.2236 O   0  0  0  0  0  0  0  0  0  0  0  0
   10.6067  -57.4201  -42.1991 O   0  0  0  0  0  0  0  0  0  0  0  0
    9.8651  -56.2511  -40.0628 O   0  0  0  0  0  0  0  0  0  0  0  0
  1  2  2  0  0  0  0
  2  4  1  0  0  0  0
  2  3  1  0  0  0  0
  4  7  1  0  0  0  0
  5  9  1  0  0  0  0
  5  4  2  0  0  0  0
  6  5  1  0  0  0  0
  8  7  2  0  0  0  0
  9  8  1  0  0  0  0
 10 15  1  0  0  0  0
 10  9  1  6  0  0  0
 10 11  1  0  0  0  0
 11 14  1  1  0  0  0
 11 12  1  0  0  0  0
 12 13  1  6  0  0  0
 15 16  1  0  0  0  0
 16 12  1  0  0  0  0
 16 17  1  6  0  0  0
 17 18  1  0  0  0  0
 18 19  1  0  0  0  0
 19 21  1  0  0  0  0
 19 20  1  0  0  0  0
 22 19  2  0  0  0  0
M  END
>  <CHROM.1>
-176.70106037,-88.98369875,-66.25285987,175.09944706,120.96462573,10.51745217
-54.38446234,-44.22667678,2.60363327,-1.27232358,-0.28537342

>  <Name>
lig.pdb

>  <RI>
0

>  <Rbt.Current_Directory>
/home/itssahil/PROJECTS/Mol_Feturizer/New_Systems/rnas/5btp

>  <Rbt.Executable>
rbdock ($Id: //depot/dev/client3/rdock/2013.1/src/exe/rbdock.cxx#4 $)

>  <Rbt.Library>
libRbt.so (2013.1, Build901 2013/11/27)

>  <Rbt.Parameter_File>
/export/apps/rDock/src/rDock_2013.1_src/data/scripts/dock_solv.prm

>  <Rbt.Receptor>
prm/blind_docking_80.prm

>  <SCORE>
-11.0146

>  <SCORE.INTER>
-12.335

>  <SCORE.INTER.CONST>
1

>  <SCORE.INTER.POLAR>
0

>  <SCORE.INTER.ROT>
5

>  <SCORE.INTER.SOLV>
15.1093

>  <SCORE.INTER.VDW>
-20.1931

>  <SCORE.INTER.norm>
-0.560683

>  <SCORE.INTRA>
1.32047

>  <SCORE.INTRA.DIHEDRAL>
0.898327

>  <SCORE.INTRA.DIHEDRAL.0>
4.21161

>  <SCORE.INTRA.POLAR>
0

>  <SCORE.INTRA.POLAR.0>
0

>  <SCORE.INTRA.REPUL>
0

>  <SCORE.INTRA.REPUL.0>
0

>  <SCORE.INTRA.SOLV>
1.23666

>  <SCORE.INTRA.SOLV.lig_0>
-41.4168

>  <SCORE.INTRA.VDW>
0.252982

>  <SCORE.INTRA.VDW.0>
-1.62533

>  <SCORE.INTRA.norm>
0.0600215

>  <SCORE.RESTR>
0

>  <SCORE.RESTR.CAVITY>
0

>  <SCORE.RESTR.norm>
0

>  <SCORE.SYSTEM>
0

>  <SCORE.SYSTEM.CONST>
0

>  <SCORE.SYSTEM.DIHEDRAL>
0

>  <SCORE.SYSTEM.SOLV>
0

>  <SCORE.SYSTEM.norm>
0

>  <SCORE.heavy>
22

>  <SCORE.norm>
-0.500662

>  <RMSD>
12.999

$$$$
lig.pdb
 OpenBabel11021811523D
libRbt.so/2013.1/901 2013/11/27
 22 23  0  0  0  0  0  0  0  0999 V2000
   11.2372  -49.5572  -38.1007 O   0  0  0  0  0  0  0  0  0  0  0  0
   11.5868  -49.7097  -39.2607 C   0  0  0  0  0  0  0  0  0  0  0  0
   12.6696  -49.1084  -39.7533 N   0  0  0  0  0  0  0  0  0  0  0  0
   10.7785  -50.5780  -40.1629 C   0  0  0  0  0  0  0  0  0  0  0  0
   11.0318  -50.7366  -41.6036 C   0  0  0  0  0  0  0  0  0  0  0  0
   12.0928  -50.0726  -42.3497 N   0  0  0  0  0  0  0  0  0  0  0  0
    9.7156  -51.3818  -39.9386 N   0  0  0  0  0  0  0  0  0  0  0  0
    9.3612  -51.9656  -41.1253 C   0  0  0  0  0  0  0  0  0  0  0  0
   10.1609  -51.5752  -42.1416 N   0  0  0  0  0  0  0  0  0  0  0  0
   10.0859  -51.9952  -43.5604 C   0  0  1  0  0  0  0  0  0  0  0  0
   11.4690  -51.9932  -44.1905 C   0  0  1  0  0  0  0  0  0  0  0  0
   11.3879  -53.1190  -45.1894 C   0  0  2  0  0  0  0  0  0  0  0  0
   10.8102  -52.6354  -46.4036 O   0  0  0  0  0  0  0  0  0  0  0  0
   11.7290  -50.7585  -44.8596 O   0  0  0  0  0  0  0  0  0  0  0  0
    9.5850  -53.3320  -43.6786 O   0  0  0  0  0  0  0  0  0  0  0  0
   10.4293  -54.0986  -44.5408 C   0  0  2  0  0  0  0  0  0  0  0  0
   11.2038  -55.1331  -43.7389 C   0  0  0  0  0  0  0  0  0  0  0  0
   12.0808  -55.8258  -44.6256 O   0  0  0  0  0  0  0  0  0  0  0  0
   11.5148  -56.7562  -45.8130 P   0  0  0  0  0  0  0  0  0  0  0  0
   10.5402  -57.6965  -45.1426 O   0  0  0  0  0  0  0  0  0  0  0  0
   12.7587  -57.4277  -46.3448 O   0  0  0  0  0  0  0  0  0  0  0  0
   10.8743  -55.7668  -46.7581 O   0  0  0  0  0  0  0  0  0  0  0  0
  1  2  2  0  0  0  0
  2  4  1  0  0  0  0
  2  3  1  0  0  0  0
  4  7  1  0  0  0  0
  5  9  1  0  0  0  0
  5  4  2  0  0  0  0
  6  5  1  0  0  0  0
  8  7  2  0  0  0  0
  9  8  1  0  0  0  0
 10 15  1  0  0  0  0
 10  9  1  1  0  0  0
 10 11  1  0  0  0  0
 11 14  1  6  0  0  0
 11 12  1  0  0  0  0
 12 13  1  6  0  0  0
 15 16  1  0  0  0  0
 16 12  1  0  0  0  0
 16 17  1  1  0  0  0
 17 18  1  0  0  0  0
 18 19  1  0  0  0  0
 19 21  1  0  0  0  0
 19 20  1  0  0  0  0
 22 19  2  0  0  0  0
M  END
>  <CHROM.1>
174.16270411,30.77939463,-59.75102824,-65.17632553,-52.14564298,11.08741321
-53.09851515,-43.39316449,1.76910573,1.40371386,0.54669651

>  <Name>
lig.pdb

>  <RI>
0

>  <Rbt.Current_Directory>
/home/itssahil/PROJECTS/Mol_Feturizer/New_Systems/rnas/5btp

>  <Rbt.Executable>
rbdock ($Id: //depot/dev/client3/rdock/2013.1/src/exe/rbdock.cxx#4 $)

>  <Rbt.Library>
libRbt.so (2013.1, Build901 2013/11/27)

>  <Rbt.Parameter_File>
/export/apps/rDock/src/rDock_2013.1_src/data/scripts/dock_solv.prm

>  <Rbt.Receptor>
prm/blind_docking_80.prm

>  <SCORE>
-10.174

>  <SCORE.INTER>
-11.5983

>  <SCORE.INTER.CONST>
1

>  <SCORE.INTER.POLAR>
0

>  <SCORE.INTER.ROT>
5

>  <SCORE.INTER.SOLV>
15.7835

>  <SCORE.INTER.VDW>
-19.9267

>  <SCORE.INTER.norm>
-0.527196

>  <SCORE.INTRA>
1.42434

>  <SCORE.INTRA.DIHEDRAL>
-1.45097

>  <SCORE.INTRA.DIHEDRAL.0>
4.21161

>  <SCORE.INTRA.POLAR>
0

>  <SCORE.INTRA.POLAR.0>
0

>  <SCORE.INTRA.REPUL>
0

>  <SCORE.INTRA.REPUL.0>
0

>  <SCORE.INTRA.SOLV>
2.8654

>  <SCORE.INTRA.SOLV.lig_0>
-41.4168

>  <SCORE.INTRA.VDW>
0.717124

>  <SCORE.INTRA.VDW.0>
-1.62533

>  <SCORE.INTRA.norm>
0.0647428

>  <SCORE.RESTR>
0

>  <SCORE.RESTR.CAVITY>
0

>  <SCORE.RESTR.norm>
0

>  <SCORE.SYSTEM>
0

>  <SCORE.SYSTEM.CONST>
0

>  <SCORE.SYSTEM.DIHEDRAL>
0

>  <SCORE.SYSTEM.SOLV>
0

>  <SCORE.SYSTEM.norm>
0

>  <SCORE.heavy>
22

>  <SCORE.norm>
-0.462454

>  <RMSD>
13.125

$$$$
lig.pdb
 OpenBabel11021811523D
libRbt.so/2013.1/901 2013/11/27
 22 23  0  0  0  0  0  0  0  0999 V2000
   10.9704  -55.4632  -46.4147 O   0  0  0  0  0  0  0  0  0  0  0  0
   10.4592  -54.4817  -46.9308 C   0  0  0  0  0  0  0  0  0  0  0  0
   10.4408  -54.3120  -48.2528 N   0  0  0  0  0  0  0  0  0  0  0  0
    9.8497  -53.4315  -46.0666 C   0  0  0  0  0  0  0  0  0  0  0  0
    9.7056  -53.5426  -44.6066 C   0  0  0  0  0  0  0  0  0  0  0  0
   10.1278  -54.6829  -43.8036 N   0  0  0  0  0  0  0  0  0  0  0  0
    9.3283  -52.2159  -46.3439 N   0  0  0  0  0  0  0  0  0  0  0  0
    8.9096  -51.6506  -45.1693 C   0  0  0  0  0  0  0  0  0  0  0  0
    9.1381  -52.4557  -44.1089 N   0  0  0  0  0  0  0  0  0  0  0  0
    8.8244  -52.1843  -42.6866 C   0  0  1  0  0  0  0  0  0  0  0  0
    9.6915  -53.0393  -41.7772 C   0  0  1  0  0  0  0  0  0  0  0  0
    9.8860  -52.1593  -40.5691 C   0  0  2  0  0  0  0  0  0  0  0  0
    8.7723  -52.3117  -39.6867 O   0  0  0  0  0  0  0  0  0  0  0  0
    9.0190  -54.2435  -41.4065 O   0  0  0  0  0  0  0  0  0  0  0  0
    9.0982  -50.8197  -42.3476 O   0  0  0  0  0  0  0  0  0  0  0  0
    9.8717  -50.7575  -41.1469 C   0  0  2  0  0  0  0  0  0  0  0  0
   11.2909  -50.3060  -41.4554 C   0  0  0  0  0  0  0  0  0  0  0  0
   12.0714  -50.4313  -40.2679 O   0  0  0  0  0  0  0  0  0  0  0  0
   11.7959  -49.5063  -38.9778 P   0  0  0  0  0  0  0  0  0  0  0  0
   12.9352  -49.8055  -38.0312 O   0  0  0  0  0  0  0  0  0  0  0  0
   10.4468  -49.9841  -38.4953 O   0  0  0  0  0  0  0  0  0  0  0  0
   11.8082  -48.1052  -39.5425 O   0  0  0  0  0  0  0  0  0  0  0  0
  1  2  2  0  0  0  0
  2  4  1  0  0  0  0
  2  3  1  0  0  0  0
  4  7  1  0  0  0  0
  5  9  1  0  0  0  0
  5  4  2  0  0  0  0
  6  5  1  0  0  0  0
  8  7  2  0  0  0  0
  9  8  1  0  0  0  0
 10 15  1  0  0  0  0
 10  9  1  6  0  0  0
 10 11  1  0  0  0  0
 11 14  1  1  0  0  0
 11 12  1  0  0  0  0
 12 13  1  1  0  0  0
 15 16  1  0  0  0  0
 16 12  1  0  0  0  0
 16 17  1  6  0  0  0
 17 18  1  0  0  0  0
 18 19  1  0  0  0  0
 19 21  1  0  0  0  0
 19 20  1  0  0  0  0
 22 19  2  0  0  0  0
M  END
>  <CHROM.1>
-5.80778375,22.05789715,-54.95347590,-66.97232491,-172.24777033,10.32003845
-51.89037630,-42.30893426,-1.88342051,0.94314313,1.28961947

>  <Name>
lig.pdb

>  <RI>
0

>  <Rbt.Current_Directory>
/home/itssahil/PROJECTS/Mol_Feturizer/New_Systems/rnas/5btp

>  <Rbt.Executable>
rbdock ($Id: //depot/dev/client3/rdock/2013.1/src/exe/rbdock.cxx#4 $)

>  <Rbt.Library>
libRbt.so (2013.1, Build901 2013/11/27)

>  <Rbt.Parameter_File>
/export/apps/rDock/src/rDock_2013.1_src/data/scripts/dock_solv.prm

>  <Rbt.Receptor>
prm/blind_docking_100.prm

>  <SCORE>
-9.32815

>  <SCORE.INTER>
-10.8663

>  <SCORE.INTER.CONST>
1

>  <SCORE.INTER.POLAR>
0

>  <SCORE.INTER.ROT>
5

>  <SCORE.INTER.SOLV>
16.7505

>  <SCORE.INTER.VDW>
-19.761

>  <SCORE.INTER.norm>
-0.493922

>  <SCORE.INTRA>
1.53815

>  <SCORE.INTRA.DIHEDRAL>
-1.26164

>  <SCORE.INTRA.DIHEDRAL.0>
4.21161

>  <SCORE.INTRA.POLAR>
0

>  <SCORE.INTRA.POLAR.0>
0

>  <SCORE.INTRA.REPUL>
0

>  <SCORE.INTRA.REPUL.0>
0

>  <SCORE.INTRA.SOLV>
2.03763

>  <SCORE.INTRA.SOLV.lig_0>
-41.4168

>  <SCORE.INTRA.VDW>
1.15015

>  <SCORE.INTRA.VDW.0>
-1.62533

>  <SCORE.INTRA.norm>
0.0699157

>  <SCORE.RESTR>
0

>  <SCORE.RESTR.CAVITY>
0

>  <SCORE.RESTR.norm>
0

>  <SCORE.SYSTEM>
0

>  <SCORE.SYSTEM.CONST>
0

>  <SCORE.SYSTEM.DIHEDRAL>
0

>  <SCORE.SYSTEM.SOLV>
0

>  <SCORE.SYSTEM.norm>
0

>  <SCORE.heavy>
22

>  <SCORE.norm>
-0.424007

>  <RMSD>
13.217

$$$$
lig.pdb
 OpenBabel11021811523D
libRbt.so/2013.1/901 2013/11/27
 22 23  0  0  0  0  0  0  0  0999 V2000
    9.7013  -52.2241  -47.9063 O   0  0  0  0  0  0  0  0  0  0  0  0
   10.1763  -53.2740  -47.5023 C   0  0  0  0  0  0  0  0  0  0  0  0
   10.7431  -54.1531  -48.3286 N   0  0  0  0  0  0  0  0  0  0  0  0
   10.1119  -53.5977  -46.0490 C   0  0  0  0  0  0  0  0  0  0  0  0
    9.4638  -52.7455  -45.0397 C   0  0  0  0  0  0  0  0  0  0  0  0
    8.8034  -51.4750  -45.3095 N   0  0  0  0  0  0  0  0  0  0  0  0
   10.5663  -54.6483  -45.3306 N   0  0  0  0  0  0  0  0  0  0  0  0
   10.2283  -54.4495  -44.0189 C   0  0  0  0  0  0  0  0  0  0  0  0
    9.5564  -53.2916  -43.8378 N   0  0  0  0  0  0  0  0  0  0  0  0
    9.0294  -52.7442  -42.5659 C   0  0  1  0  0  0  0  0  0  0  0  0
    9.8115  -53.2944  -41.3846 C   0  0  1  0  0  0  0  0  0  0  0  0
    9.7791  -52.1562  -40.3971 C   0  0  2  0  0  0  0  0  0  0  0  0
    8.5640  -52.2130  -39.6471 O   0  0  0  0  0  0  0  0  0  0  0  0
    9.1697  -54.4445  -40.8320 O   0  0  0  0  0  0  0  0  0  0  0  0
    9.1675  -51.3192  -42.5193 O   0  0  0  0  0  0  0  0  0  0  0  0
    9.7590  -50.9232  -41.2795 C   0  0  2  0  0  0  0  0  0  0  0  0
   11.1766  -50.4214  -41.5068 C   0  0  0  0  0  0  0  0  0  0  0  0
   11.3752  -49.2560  -40.7083 O   0  0  0  0  0  0  0  0  0  0  0  0
   11.2728  -49.3091  -39.1013 P   0  0  0  0  0  0  0  0  0  0  0  0
   12.1427  -50.4749  -38.6920 O   0  0  0  0  0  0  0  0  0  0  0  0
    9.7972  -49.5209  -38.8587 O   0  0  0  0  0  0  0  0  0  0  0  0
   11.7991  -47.9596  -38.6721 O   0  0  0  0  0  0  0  0  0  0  0  0
  1  2  2  0  0  0  0
  2  4  1  0  0  0  0
  2  3  1  0  0  0  0
  4  7  1  0  0  0  0
  5  9  1  0  0  0  0
  5  4  2  0  0  0  0
  6  5  1  0  0  0  0
  8  7  2  0  0  0  0
  9  8  1  0  0  0  0
 10 15  1  0  0  0  0
 10  9  1  6  0  0  0
 10 11  1  0  0  0  0
 11 14  1  1  0  0  0
 11 12  1  0  0  0  0
 12 13  1  6  0  0  0
 15 16  1  0  0  0  0
 16 12  1  0  0  0  0
 16 17  1  6  0  0  0
 17 18  1  0  0  0  0
 18 19  1  0  0  0  0
 19 21  1  0  0  0  0
 19 20  1  0  0  0  0
 22 19  2  0  0  0  0
M  END
>  <CHROM.1>
2.08604475,-155.47601774,-104.85138864,61.65525479,49.59269864,10.17461905
-51.77279429,-42.38371454,-1.87366010,1.15673702,1.37185065

>  <Name>
lig.pdb

>  <RI>
0

>  <Rbt.Current_Directory>
/home/itssahil/PROJECTS/Mol_Feturizer/New_Systems/rnas/5btp

>  <Rbt.Executable>
rbdock ($Id: //depot/dev/client3/rdock/2013.1/src/exe/rbdock.cxx#4 $)

>  <Rbt.Library>
libRbt.so (2013.1, Build901 2013/11/27)

>  <Rbt.Parameter_File>
/export/apps/rDock/src/rDock_2013.1_src/data/scripts/dock_solv.prm

>  <Rbt.Receptor>
prm/blind_docking_80.prm

>  <SCORE>
-9.2064

>  <SCORE.INTER>
-11.1821

>  <SCORE.INTER.CONST>
1

>  <SCORE.INTER.POLAR>
0

>  <SCORE.INTER.ROT>
5

>  <SCORE.INTER.SOLV>
16.1432

>  <SCORE.INTER.VDW>
-19.7692

>  <SCORE.INTER.norm>
-0.508279

>  <SCORE.INTRA>
1.97573

>  <SCORE.INTRA.DIHEDRAL>
2.88905

>  <SCORE.INTRA.DIHEDRAL.0>
4.21161

>  <SCORE.INTRA.POLAR>
0

>  <SCORE.INTRA.POLAR.0>
0

>  <SCORE.INTRA.REPUL>
0

>  <SCORE.INTRA.REPUL.0>
0

>  <SCORE.INTRA.SOLV>
1.22103

>  <SCORE.INTRA.SOLV.lig_0>
-41.4168

>  <SCORE.INTRA.VDW>
-0.0793077

>  <SCORE.INTRA.VDW.0>
-1.62533

>  <SCORE.INTRA.norm>
0.0898061

>  <SCORE.RESTR>
0

>  <SCORE.RESTR.CAVITY>
0

>  <SCORE.RESTR.norm>
0

>  <SCORE.SYSTEM>
0

>  <SCORE.SYSTEM.CONST>
0

>  <SCORE.SYSTEM.DIHEDRAL>
0

>  <SCORE.SYSTEM.SOLV>
0

>  <SCORE.SYSTEM.norm>
0

>  <SCORE.heavy>
22

>  <SCORE.norm>
-0.418473

>  <RMSD>
13.357

$$$$
lig.pdb
 OpenBabel11021811523D
libRbt.so/2013.1/901 2013/11/27
 22 23  0  0  0  0  0  0  0  0999 V2000
   13.1473  -50.3737  -47.0082 O   0  0  0  0  0  0  0  0  0  0  0  0
   12.0684  -50.8463  -46.6861 C   0  0  0  0  0  0  0  0  0  0  0  0
   10.9932  -50.7402  -47.4667 N   0  0  0  0  0  0  0  0  0  0  0  0
   11.9361  -51.5499  -45.3789 C   0  0  0  0  0  0  0  0  0  0  0  0
   10.6576  -52.0039  -44.8096 C   0  0  0  0  0  0  0  0  0  0  0  0
    9.3508  -51.8299  -45.4304 N   0  0  0  0  0  0  0  0  0  0  0  0
   12.8468  -51.9364  -44.4583 N   0  0  0  0  0  0  0  0  0  0  0  0
   12.1845  -52.5597  -43.4349 C   0  0  0  0  0  0  0  0  0  0  0  0
   10.8508  -52.6029  -43.6456 N   0  0  0  0  0  0  0  0  0  0  0  0
    9.8177  -53.1962  -42.7649 C   0  0  1  0  0  0  0  0  0  0  0  0
   10.4550  -54.1331  -41.7520 C   0  0  1  0  0  0  0  0  0  0  0  0
    9.5632  -53.9857  -40.5459 C   0  0  2  0  0  0  0  0  0  0  0  0
    8.4388  -54.8578  -40.6777 O   0  0  0  0  0  0  0  0  0  0  0  0
   10.4367  -55.4837  -42.2162 O   0  0  0  0  0  0  0  0  0  0  0  0
    9.1356  -52.1852  -42.0135 O   0  0  0  0  0  0  0  0  0  0  0  0
    9.0876  -52.5484  -40.6316 C   0  0  2  0  0  0  0  0  0  0  0  0
   10.0020  -51.6471  -39.8163 C   0  0  0  0  0  0  0  0  0  0  0  0
    9.3115  -50.4274  -39.5503 O   0  0  0  0  0  0  0  0  0  0  0  0
   10.0844  -49.1250  -39.0005 P   0  0  0  0  0  0  0  0  0  0  0  0
   10.6381  -48.4491  -40.2334 O   0  0  0  0  0  0  0  0  0  0  0  0
   11.1364  -49.7104  -38.0885 O   0  0  0  0  0  0  0  0  0  0  0  0
    8.9986  -48.3441  -38.2978 O   0  0  0  0  0  0  0  0  0  0  0  0
  1  2  2  0  0  0  0
  2  4  1  0  0  0  0
  2  3  1  0  0  0  0
  4  7  1  0  0  0  0
  5  9  1  0  0  0  0
  5  4  2  0  0  0  0
  6  5  1  0  0  0  0
  8  7  2  0  0  0  0
  9  8  1  0  0  0  0
 10 15  1  0  0  0  0
 10  9  1  6  0  0  0
 10 11  1  0  0  0  0
 11 14  1  6  0  0  0
 11 12  1  0  0  0  0
 12 13  1  6  0  0  0
 15 16  1  0  0  0  0
 16 12  1  0  0  0  0
 16 17  1  1  0  0  0
 17 18  1  0  0  0  0
 18 19  1  0  0  0  0
 19 21  1  0  0  0  0
 19 20  1  0  0  0  0
 22 19  2  0  0  0  0
M  END
>  <CHROM.1>
171.77657087,163.10623328,-161.12235937,-166.12939386,84.25417969,10.45300908
-51.57364842,-42.15513947,-0.85116365,1.17154556,0.65541760

>  <Name>
lig.pdb

>  <RI>
0

>  <Rbt.Current_Directory>
/home/itssahil/PROJECTS/Mol_Feturizer/New_Systems/rnas/5btp

>  <Rbt.Executable>
rbdock ($Id: //depot/dev/client3/rdock/2013.1/src/exe/rbdock.cxx#4 $)

>  <Rbt.Library>
libRbt.so (2013.1, Build901 2013/11/27)

>  <Rbt.Parameter_File>
/export/apps/rDock/src/rDock_2013.1_src/data/scripts/dock_solv.prm

>  <Rbt.Receptor>
prm/blind_docking_100.prm

>  <SCORE>
-12.254

>  <SCORE.INTER>
-13.2361

>  <SCORE.INTER.CONST>
1

>  <SCORE.INTER.POLAR>
0

>  <SCORE.INTER.ROT>
5

>  <SCORE.INTER.SOLV>
20.3887

>  <SCORE.INTER.VDW>
-22.5536

>  <SCORE.INTER.norm>
-0.601641

>  <SCORE.INTRA>
0.973328

>  <SCORE.INTRA.DIHEDRAL>
1.35501

>  <SCORE.INTRA.DIHEDRAL.0>
4.21161

>  <SCORE.INTRA.POLAR>
0

>  <SCORE.INTRA.POLAR.0>
0

>  <SCORE.INTRA.REPUL>
0

>  <SCORE.INTRA.REPUL.0>
0

>  <SCORE.INTRA.SOLV>
-0.266832

>  <SCORE.INTRA.SOLV.lig_0>
-41.4168

>  <SCORE.INTRA.VDW>
0.429241

>  <SCORE.INTRA.VDW.0>
-1.62533

>  <SCORE.INTRA.norm>
0.0442422

>  <SCORE.RESTR>
0.00878236

>  <SCORE.RESTR.CAVITY>
0.00878236

>  <SCORE.RESTR.norm>
0.000399198

>  <SCORE.SYSTEM>
0

>  <SCORE.SYSTEM.CONST>
0

>  <SCORE.SYSTEM.DIHEDRAL>
0

>  <SCORE.SYSTEM.SOLV>
0

>  <SCORE.SYSTEM.norm>
0

>  <SCORE.heavy>
22

>  <SCORE.norm>
-0.557

>  <RMSD>
13.420

$$$$
lig.pdb
 OpenBabel11021811523D
libRbt.so/2013.1/901 2013/11/27
 22 23  0  0  0  0  0  0  0  0999 V2000
    9.4562  -51.3900  -38.5746 O   0  0  0  0  0  0  0  0  0  0  0  0
   10.0844  -51.2641  -39.6141 C   0  0  0  0  0  0  0  0  0  0  0  0
   11.1270  -50.4392  -39.7098 N   0  0  0  0  0  0  0  0  0  0  0  0
    9.6724  -52.0383  -40.8191 C   0  0  0  0  0  0  0  0  0  0  0  0
   10.1542  -51.7652  -42.1823 C   0  0  0  0  0  0  0  0  0  0  0  0
   11.0883  -50.7088  -42.5490 N   0  0  0  0  0  0  0  0  0  0  0  0
    8.8457  -53.0949  -40.9820 N   0  0  0  0  0  0  0  0  0  0  0  0
    8.8285  -53.4254  -42.3105 C   0  0  0  0  0  0  0  0  0  0  0  0
    9.6246  -52.6179  -43.0447 N   0  0  0  0  0  0  0  0  0  0  0  0
    9.8612  -52.6716  -44.5062 C   0  0  1  0  0  0  0  0  0  0  0  0
   11.2248  -53.2734  -44.8035 C   0  0  1  0  0  0  0  0  0  0  0  0
   11.0014  -53.9897  -46.1107 C   0  0  2  0  0  0  0  0  0  0  0  0
   11.1500  -53.0650  -47.1900 O   0  0  0  0  0  0  0  0  0  0  0  0
   12.2141  -52.2555  -44.9622 O   0  0  0  0  0  0  0  0  0  0  0  0
    8.8957  -53.5065  -45.1564 O   0  0  0  0  0  0  0  0  0  0  0  0
    9.5520  -54.4281  -46.0303 C   0  0  2  0  0  0  0  0  0  0  0  0
    9.4644  -55.8399  -45.4716 C   0  0  0  0  0  0  0  0  0  0  0  0
   10.3403  -56.6772  -46.2245 O   0  0  0  0  0  0  0  0  0  0  0  0
   10.4960  -58.2464  -45.8935 P   0  0  0  0  0  0  0  0  0  0  0  0
    9.2994  -58.9035  -46.5416 O   0  0  0  0  0  0  0  0  0  0  0  0
   10.4809  -58.2813  -44.3836 O   0  0  0  0  0  0  0  0  0  0  0  0
   11.8208  -58.6074  -46.5234 O   0  0  0  0  0  0  0  0  0  0  0  0
  1  2  2  0  0  0  0
  2  4  1  0  0  0  0
  2  3  1  0  0  0  0
  4  7  1  0  0  0  0
  5  9  1  0  0  0  0
  5  4  2  0  0  0  0
  6  5  1  0  0  0  0
  8  7  2  0  0  0  0
  9  8  1  0  0  0  0
 10 15  1  0  0  0  0
 10  9  1  1  0  0  0
 10 11  1  0  0  0  0
 11 14  1  6  0  0  0
 11 12  1  0  0  0  0
 12 13  1  6  0  0  0
 15 16  1  0  0  0  0
 16 12  1  0  0  0  0
 16 17  1  1  0  0  0
 17 18  1  0  0  0  0
 18 19  1  0  0  0  0
 19 21  1  0  0  0  0
 19 20  1  0  0  0  0
 22 19  2  0  0  0  0
M  END
>  <CHROM.1>
166.34152804,75.46309143,-51.61704154,179.84785881,80.21699843,10.24531678
-54.26727692,-44.00112360,1.72249353,1.26599205,0.57671862

>  <Name>
lig.pdb

>  <RI>
0

>  <Rbt.Current_Directory>
/home/itssahil/PROJECTS/Mol_Feturizer/New_Systems/rnas/5btp

>  <Rbt.Executable>
rbdock ($Id: //depot/dev/client3/rdock/2013.1/src/exe/rbdock.cxx#4 $)

>  <Rbt.Library>
libRbt.so (2013.1, Build901 2013/11/27)

>  <Rbt.Parameter_File>
/export/apps/rDock/src/rDock_2013.1_src/data/scripts/dock_solv.prm

>  <Rbt.Receptor>
prm/blind_docking_100.prm

>  <SCORE>
-6.72355

>  <SCORE.INTER>
-6.79939

>  <SCORE.INTER.CONST>
1

>  <SCORE.INTER.POLAR>
0

>  <SCORE.INTER.ROT>
5

>  <SCORE.INTER.SOLV>
17.1384

>  <SCORE.INTER.VDW>
-17.1791

>  <SCORE.INTER.norm>
-0.309063

>  <SCORE.INTRA>
0.0758326

>  <SCORE.INTRA.DIHEDRAL>
-0.297671

>  <SCORE.INTRA.DIHEDRAL.0>
4.21161

>  <SCORE.INTRA.POLAR>
0

>  <SCORE.INTRA.POLAR.0>
0

>  <SCORE.INTRA.REPUL>
0

>  <SCORE.INTRA.REPUL.0>
0

>  <SCORE.INTRA.SOLV>
0.45124

>  <SCORE.INTRA.SOLV.lig_0>
-41.4168

>  <SCORE.INTRA.VDW>
-0.000952075

>  <SCORE.INTRA.VDW.0>
-1.62533

>  <SCORE.INTRA.norm>
0.00344694

>  <SCORE.RESTR>
0

>  <SCORE.RESTR.CAVITY>
0

>  <SCORE.RESTR.norm>
0

>  <SCORE.SYSTEM>
0

>  <SCORE.SYSTEM.CONST>
0

>  <SCORE.SYSTEM.DIHEDRAL>
0

>  <SCORE.SYSTEM.SOLV>
0

>  <SCORE.SYSTEM.norm>
0

>  <SCORE.heavy>
22

>  <SCORE.norm>
-0.305616

>  <RMSD>
13.508

$$$$
lig.pdb
 OpenBabel11021811523D
libRbt.so/2013.1/901 2013/11/27
 22 23  0  0  0  0  0  0  0  0999 V2000
    7.3523  -47.4584  -35.5346 O   0  0  0  0  0  0  0  0  0  0  0  0
    8.2073  -47.7509  -34.7133 C   0  0  0  0  0  0  0  0  0  0  0  0
    7.9057  -47.9762  -33.4346 N   0  0  0  0  0  0  0  0  0  0  0  0
    9.6323  -47.8461  -35.1392 C   0  0  0  0  0  0  0  0  0  0  0  0
   10.0993  -47.6354  -36.5185 C   0  0  0  0  0  0  0  0  0  0  0  0
    9.2472  -47.3119  -37.6553 N   0  0  0  0  0  0  0  0  0  0  0  0
   10.7691  -48.1101  -34.4577 N   0  0  0  0  0  0  0  0  0  0  0  0
   11.8171  -48.0652  -35.3376 C   0  0  0  0  0  0  0  0  0  0  0  0
   11.4130  -47.7760  -36.5937 N   0  0  0  0  0  0  0  0  0  0  0  0
   12.2570  -47.6409  -37.8038 C   0  0  1  0  0  0  0  0  0  0  0  0
   13.4256  -48.6112  -37.7494 C   0  0  1  0  0  0  0  0  0  0  0  0
   13.6478  -48.9558  -39.1998 C   0  0  2  0  0  0  0  0  0  0  0  0
   14.4753  -47.9590  -39.8029 O   0  0  0  0  0  0  0  0  0  0  0  0
   14.5899  -47.9862  -37.2074 O   0  0  0  0  0  0  0  0  0  0  0  0
   11.5173  -47.9583  -38.9888 O   0  0  0  0  0  0  0  0  0  0  0  0
   12.2574  -48.8742  -39.7994 C   0  0  2  0  0  0  0  0  0  0  0  0
   11.6005  -50.2458  -39.7816 C   0  0  0  0  0  0  0  0  0  0  0  0
   10.4701  -50.2149  -40.6514 O   0  0  0  0  0  0  0  0  0  0  0  0
    9.6662  -51.5574  -41.0351 P   0  0  0  0  0  0  0  0  0  0  0  0
   10.6967  -52.4628  -41.6692 O   0  0  0  0  0  0  0  0  0  0  0  0
    8.6056  -51.0610  -41.9890 O   0  0  0  0  0  0  0  0  0  0  0  0
    9.1443  -52.0456  -39.7041 O   0  0  0  0  0  0  0  0  0  0  0  0
  1  2  2  0  0  0  0
  2  4  1  0  0  0  0
  2  3  1  0  0  0  0
  4  7  1  0  0  0  0
  5  9  1  0  0  0  0
  5  4  2  0  0  0  0
  6  5  1  0  0  0  0
  8  7  2  0  0  0  0
  9  8  1  0  0  0  0
 10 15  1  0  0  0  0
 10  9  1  1  0  0  0
 10 11  1  0  0  0  0
 11 14  1  6  0  0  0
 11 12  1  0  0  0  0
 12 13  1  6  0  0  0
 15 16  1  0  0  0  0
 16 12  1  0  0  0  0
 16 17  1  1  0  0  0
 17 18  1  0  0  0  0
 18 19  1  0  0  0  0
 19 21  1  0  0  0  0
 19 20  1  0  0  0  0
 22 19  2  0  0  0  0
M  END
>  <CHROM.1>
-1.32302065,-145.74644990,-164.89520445,171.08205698,-58.29900434,10.79412576
-49.08796238,-38.21989905,1.67685338,0.27960703,1.01113947

>  <Name>
lig.pdb

>  <RI>
0

>  <Rbt.Current_Directory>
/home/itssahil/PROJECTS/Mol_Feturizer/New_Systems/rnas/5btp

>  <Rbt.Executable>
rbdock ($Id: //depot/dev/client3/rdock/2013.1/src/exe/rbdock.cxx#4 $)

>  <Rbt.Library>
libRbt.so (2013.1, Build901 2013/11/27)

>  <Rbt.Parameter_File>
/export/apps/rDock/src/rDock_2013.1_src/data/scripts/dock_solv.prm

>  <Rbt.Receptor>
prm/blind_docking_80.prm

>  <SCORE>
-9.9359

>  <SCORE.INTER>
-9.70301

>  <SCORE.INTER.CONST>
1

>  <SCORE.INTER.POLAR>
0

>  <SCORE.INTER.ROT>
5

>  <SCORE.INTER.SOLV>
18.6558

>  <SCORE.INTER.VDW>
-19.6206

>  <SCORE.INTER.norm>
-0.441046

>  <SCORE.INTRA>
-0.232884

>  <SCORE.INTRA.DIHEDRAL>
-0.622765

>  <SCORE.INTRA.DIHEDRAL.0>
4.21161

>  <SCORE.INTRA.POLAR>
0

>  <SCORE.INTRA.POLAR.0>
0

>  <SCORE.INTRA.REPUL>
0

>  <SCORE.INTRA.REPUL.0>
0

>  <SCORE.INTRA.SOLV>
0.126871

>  <SCORE.INTRA.SOLV.lig_0>
-41.4168

>  <SCORE.INTRA.VDW>
0.0150632

>  <SCORE.INTRA.VDW.0>
-1.62533

>  <SCORE.INTRA.norm>
-0.0105856

>  <SCORE.RESTR>
0

>  <SCORE.RESTR.CAVITY>
0

>  <SCORE.RESTR.norm>
0

>  <SCORE.SYSTEM>
0

>  <SCORE.SYSTEM.CONST>
0

>  <SCORE.SYSTEM.DIHEDRAL>
0

>  <SCORE.SYSTEM.SOLV>
0

>  <SCORE.SYSTEM.norm>
0

>  <SCORE.heavy>
22

>  <SCORE.norm>
-0.451632

>  <RMSD>
13.542

$$$$
lig.pdb
 OpenBabel11021811523D
libRbt.so/2013.1/901 2013/11/27
 22 23  0  0  0  0  0  0  0  0999 V2000
   18.0476  -46.4838  -38.4613 O   0  0  0  0  0  0  0  0  0  0  0  0
   17.6948  -46.9188  -39.5464 C   0  0  0  0  0  0  0  0  0  0  0  0
   18.4926  -46.8771  -40.6135 N   0  0  0  0  0  0  0  0  0  0  0  0
   16.3310  -47.5008  -39.6958 C   0  0  0  0  0  0  0  0  0  0  0  0
   15.3429  -47.5827  -38.6086 C   0  0  0  0  0  0  0  0  0  0  0  0
   15.5527  -47.1172  -37.2439 N   0  0  0  0  0  0  0  0  0  0  0  0
   15.6851  -48.0441  -40.7512 N   0  0  0  0  0  0  0  0  0  0  0  0
   14.4333  -48.4183  -40.3419 C   0  0  0  0  0  0  0  0  0  0  0  0
   14.2212  -48.1385  -39.0374 N   0  0  0  0  0  0  0  0  0  0  0  0
   12.9937  -48.3948  -38.2483 C   0  0  1  0  0  0  0  0  0  0  0  0
   11.9484  -47.3274  -38.5274 C   0  0  1  0  0  0  0  0  0  0  0  0
   10.6500  -48.0802  -38.3886 C   0  0  2  0  0  0  0  0  0  0  0  0
   10.2708  -48.1224  -37.0114 O   0  0  0  0  0  0  0  0  0  0  0  0
   12.0142  -46.2765  -37.5624 O   0  0  0  0  0  0  0  0  0  0  0  0
   12.4018  -49.6495  -38.6050 O   0  0  0  0  0  0  0  0  0  0  0  0
   11.0030  -49.4814  -38.8481 C   0  0  2  0  0  0  0  0  0  0  0  0
   10.7021  -49.6353  -40.3310 C   0  0  0  0  0  0  0  0  0  0  0  0
   10.9525  -50.9896  -40.7030 O   0  0  0  0  0  0  0  0  0  0  0  0
   10.7956  -51.4866  -42.2276 P   0  0  0  0  0  0  0  0  0  0  0  0
   10.9552  -52.9881  -42.1681 O   0  0  0  0  0  0  0  0  0  0  0  0
   11.9195  -50.7710  -42.9388 O   0  0  0  0  0  0  0  0  0  0  0  0
    9.4083  -51.0232  -42.6059 O   0  0  0  0  0  0  0  0  0  0  0  0
  1  2  2  0  0  0  0
  2  4  1  0  0  0  0
  2  3  1  0  0  0  0
  4  7  1  0  0  0  0
  5  9  1  0  0  0  0
  5  4  2  0  0  0  0
  6  5  1  0  0  0  0
  8  7  2  0  0  0  0
  9  8  1  0  0  0  0
 10 15  1  0  0  0  0
 10  9  1  6  0  0  0
 10 11  1  0  0  0  0
 11 14  1  1  0  0  0
 11 12  1  0  0  0  0
 12 13  1  1  0  0  0
 15 16  1  0  0  0  0
 16 12  1  0  0  0  0
 16 17  1  6  0  0  0
 17 18  1  0  0  0  0
 18 19  1  0  0  0  0
 19 21  1  0  0  0  0
 19 20  1  0  0  0  0
 22 19  2  0  0  0  0
M  END
>  <CHROM.1>
0.62379610,100.51220216,-175.76398596,-177.29129746,-172.34974975,13.03405200
-48.90995037,-39.82506887,-0.62758053,-0.28455921,-2.21008383

>  <Name>
lig.pdb

>  <RI>
0

>  <Rbt.Current_Directory>
/home/itssahil/PROJECTS/Mol_Feturizer/New_Systems/rnas/5btp

>  <Rbt.Executable>
rbdock ($Id: //depot/dev/client3/rdock/2013.1/src/exe/rbdock.cxx#4 $)

>  <Rbt.Library>
libRbt.so (2013.1, Build901 2013/11/27)

>  <Rbt.Parameter_File>
/export/apps/rDock/src/rDock_2013.1_src/data/scripts/dock_solv.prm

>  <Rbt.Receptor>
prm/blind_docking_100.prm

>  <SCORE>
-11.6299

>  <SCORE.INTER>
-10.1979

>  <SCORE.INTER.CONST>
1

>  <SCORE.INTER.POLAR>
0

>  <SCORE.INTER.ROT>
5

>  <SCORE.INTER.SOLV>
14.5894

>  <SCORE.INTER.VDW>
-18.5951

>  <SCORE.INTER.norm>
-0.463542

>  <SCORE.INTRA>
-1.43195

>  <SCORE.INTRA.DIHEDRAL>
-1.59159

>  <SCORE.INTRA.DIHEDRAL.0>
4.21161

>  <SCORE.INTRA.POLAR>
0

>  <SCORE.INTRA.POLAR.0>
0

>  <SCORE.INTRA.REPUL>
0

>  <SCORE.INTRA.REPUL.0>
0

>  <SCORE.INTRA.SOLV>
-0.11435

>  <SCORE.INTRA.SOLV.lig_0>
-41.4168

>  <SCORE.INTRA.VDW>
-0.578985

>  <SCORE.INTRA.VDW.0>
-1.62533

>  <SCORE.INTRA.norm>
-0.0650888

>  <SCORE.RESTR>
0

>  <SCORE.RESTR.CAVITY>
0

>  <SCORE.RESTR.norm>
0

>  <SCORE.SYSTEM>
0

>  <SCORE.SYSTEM.CONST>
0

>  <SCORE.SYSTEM.DIHEDRAL>
0

>  <SCORE.SYSTEM.SOLV>
0

>  <SCORE.SYSTEM.norm>
0

>  <SCORE.heavy>
22

>  <SCORE.norm>
-0.52863

>  <RMSD>
13.573

$$$$
lig.pdb
 OpenBabel11021811523D
libRbt.so/2013.1/901 2013/11/27
 22 23  0  0  0  0  0  0  0  0999 V2000
   10.5734  -56.8878  -39.2383 O   0  0  0  0  0  0  0  0  0  0  0  0
   10.6944  -56.5594  -40.4082 C   0  0  0  0  0  0  0  0  0  0  0  0
   11.2496  -57.3675  -41.3113 N   0  0  0  0  0  0  0  0  0  0  0  0
   10.2252  -55.2141  -40.8453 C   0  0  0  0  0  0  0  0  0  0  0  0
   10.6640  -54.5462  -42.0808 C   0  0  0  0  0  0  0  0  0  0  0  0
   11.6126  -55.0933  -43.0420 N   0  0  0  0  0  0  0  0  0  0  0  0
    9.3563  -54.3334  -40.3016 N   0  0  0  0  0  0  0  0  0  0  0  0
    9.2796  -53.2423  -41.1251 C   0  0  0  0  0  0  0  0  0  0  0  0
   10.0746  -53.3684  -42.2100 N   0  0  0  0  0  0  0  0  0  0  0  0
   10.2517  -52.3984  -43.3157 C   0  0  1  0  0  0  0  0  0  0  0  0
   11.7210  -52.2726  -43.6839 C   0  0  1  0  0  0  0  0  0  0  0  0
   11.6768  -51.9986  -45.1653 C   0  0  2  0  0  0  0  0  0  0  0  0
   11.4800  -50.6001  -45.3835 O   0  0  0  0  0  0  0  0  0  0  0  0
   12.3325  -51.1790  -42.9985 O   0  0  0  0  0  0  0  0  0  0  0  0
    9.5698  -52.8318  -44.4986 O   0  0  0  0  0  0  0  0  0  0  0  0
   10.4435  -52.7501  -45.6272 C   0  0  2  0  0  0  0  0  0  0  0  0
   10.8283  -54.1437  -46.0995 C   0  0  0  0  0  0  0  0  0  0  0  0
    9.7209  -54.7020  -46.8045 O   0  0  0  0  0  0  0  0  0  0  0  0
    9.2004  -54.0689  -48.1917 P   0  0  0  0  0  0  0  0  0  0  0  0
   10.4471  -53.8653  -49.0211 O   0  0  0  0  0  0  0  0  0  0  0  0
    8.5305  -52.7880  -47.7538 O   0  0  0  0  0  0  0  0  0  0  0  0
    8.2621  -55.1245  -48.7281 O   0  0  0  0  0  0  0  0  0  0  0  0
  1  2  2  0  0  0  0
  2  4  1  0  0  0  0
  2  3  1  0  0  0  0
  4  7  1  0  0  0  0
  5  9  1  0  0  0  0
  5  4  2  0  0  0  0
  6  5  1  0  0  0  0
  8  7  2  0  0  0  0
  9  8  1  0  0  0  0
 10 15  1  0  0  0  0
 10  9  1  1  0  0  0
 10 11  1  0  0  0  0
 11 14  1  1  0  0  0
 11 12  1  0  0  0  0
 12 13  1  1  0  0  0
 15 16  1  0  0  0  0
 16 12  1  0  0  0  0
 16 17  1  1  0  0  0
 17 18  1  0  0  0  0
 18 19  1  0  0  0  0
 19 21  1  0  0  0  0
 19 20  1  0  0  0  0
 22 19  2  0  0  0  0
M  END
>  <CHROM.1>
160.66276289,-43.25672372,-166.76185798,65.20204751,47.42352346,10.29247031
-53.86206889,-44.33914908,1.20894921,1.19114439,2.13677990

>  <Name>
lig.pdb

>  <RI>
0

>  <Rbt.Current_Directory>
/home/itssahil/PROJECTS/Mol_Feturizer/New_Systems/rnas/5btp

>  <Rbt.Executable>
rbdock ($Id: //depot/dev/client3/rdock/2013.1/src/exe/rbdock.cxx#4 $)

>  <Rbt.Library>
libRbt.so (2013.1, Build901 2013/11/27)

>  <Rbt.Parameter_File>
/export/apps/rDock/src/rDock_2013.1_src/data/scripts/dock_solv.prm

>  <Rbt.Receptor>
prm/blind_docking_80.prm

>  <SCORE>
-9.54688

>  <SCORE.INTER>
-10.1228

>  <SCORE.INTER.CONST>
1

>  <SCORE.INTER.POLAR>
0

>  <SCORE.INTER.ROT>
5

>  <SCORE.INTER.SOLV>
16.6812

>  <SCORE.INTER.VDW>
-19.2423

>  <SCORE.INTER.norm>
-0.460129

>  <SCORE.INTRA>
0.575962

>  <SCORE.INTRA.DIHEDRAL>
0.434275

>  <SCORE.INTRA.DIHEDRAL.0>
4.21161

>  <SCORE.INTRA.POLAR>
0

>  <SCORE.INTRA.POLAR.0>
0

>  <SCORE.INTRA.REPUL>
0

>  <SCORE.INTRA.REPUL.0>
0

>  <SCORE.INTRA.SOLV>
1.88532

>  <SCORE.INTRA.SOLV.lig_0>
-41.4168

>  <SCORE.INTRA.VDW>
-0.583834

>  <SCORE.INTRA.VDW.0>
-1.62533

>  <SCORE.INTRA.norm>
0.0261801

>  <SCORE.RESTR>
0

>  <SCORE.RESTR.CAVITY>
0

>  <SCORE.RESTR.norm>
0

>  <SCORE.SYSTEM>
0

>  <SCORE.SYSTEM.CONST>
0

>  <SCORE.SYSTEM.DIHEDRAL>
0

>  <SCORE.SYSTEM.SOLV>
0

>  <SCORE.SYSTEM.norm>
0

>  <SCORE.heavy>
22

>  <SCORE.norm>
-0.433949

>  <RMSD>
13.636

$$$$
lig.pdb
 OpenBabel11021811523D
libRbt.so/2013.1/901 2013/11/27
 22 23  0  0  0  0  0  0  0  0999 V2000
   11.2281  -50.1701  -48.7691 O   0  0  0  0  0  0  0  0  0  0  0  0
   11.4352  -50.5467  -47.6261 C   0  0  0  0  0  0  0  0  0  0  0  0
   12.6265  -50.4062  -47.0448 N   0  0  0  0  0  0  0  0  0  0  0  0
   10.3366  -51.1965  -46.8568 C   0  0  0  0  0  0  0  0  0  0  0  0
   10.4557  -51.6400  -45.4589 C   0  0  0  0  0  0  0  0  0  0  0  0
   11.6510  -51.5147  -44.6351 N   0  0  0  0  0  0  0  0  0  0  0  0
    9.0641  -51.5149  -47.1819 N   0  0  0  0  0  0  0  0  0  0  0  0
    8.4746  -52.0943  -46.0904 C   0  0  0  0  0  0  0  0  0  0  0  0
    9.3191  -52.1719  -45.0389 N   0  0  0  0  0  0  0  0  0  0  0  0
    9.0379  -52.7308  -43.6960 C   0  0  1  0  0  0  0  0  0  0  0  0
   10.2916  -53.3547  -43.1053 C   0  0  1  0  0  0  0  0  0  0  0  0
   10.1268  -53.1120  -41.6269 C   0  0  2  0  0  0  0  0  0  0  0  0
    9.3195  -54.1476  -41.0631 O   0  0  0  0  0  0  0  0  0  0  0  0
   10.3443  -54.7570  -43.3716 O   0  0  0  0  0  0  0  0  0  0  0  0
    8.6237  -51.7057  -42.7852 O   0  0  0  0  0  0  0  0  0  0  0  0
    9.3651  -51.8022  -41.5666 C   0  0  2  0  0  0  0  0  0  0  0  0
   10.3371  -50.6387  -41.4459 C   0  0  0  0  0  0  0  0  0  0  0  0
   11.0158  -50.7470  -40.1958 O   0  0  0  0  0  0  0  0  0  0  0  0
   11.9586  -49.5625  -39.6443 P   0  0  0  0  0  0  0  0  0  0  0  0
   12.6338  -50.1372  -38.4207 O   0  0  0  0  0  0  0  0  0  0  0  0
   10.9772  -48.4533  -39.3479 O   0  0  0  0  0  0  0  0  0  0  0  0
   12.8926  -49.2913  -40.8004 O   0  0  0  0  0  0  0  0  0  0  0  0
  1  2  2  0  0  0  0
  2  4  1  0  0  0  0
  2  3  1  0  0  0  0
  4  7  1  0  0  0  0
  5  9  1  0  0  0  0
  5  4  2  0  0  0  0
  6  5  1  0  0  0  0
  8  7  2  0  0  0  0
  9  8  1  0  0  0  0
 10 15  1  0  0  0  0
 10  9  1  6  0  0  0
 10 11  1  0  0  0  0
 11 14  1  1  0  0  0
 11 12  1  0  0  0  0
 12 13  1  6  0  0  0
 15 16  1  0  0  0  0
 16 12  1  0  0  0  0
 16 17  1  6  0  0  0
 17 18  1  0  0  0  0
 18 19  1  0  0  0  0
 19 21  1  0  0  0  0
 19 20  1  0  0  0  0
 22 19  2  0  0  0  0
M  END
>  <CHROM.1>
-177.47177854,-32.38643325,-64.91242961,-170.79879362,-172.09047190,10.62628434
-51.31939049,-43.11681543,-1.84235256,0.95152417,1.61995793

>  <Name>
lig.pdb

>  <RI>
0

>  <Rbt.Current_Directory>
/home/itssahil/PROJECTS/Mol_Feturizer/New_Systems/rnas/5btp

>  <Rbt.Executable>
rbdock ($Id: //depot/dev/client3/rdock/2013.1/src/exe/rbdock.cxx#4 $)

>  <Rbt.Library>
libRbt.so (2013.1, Build901 2013/11/27)

>  <Rbt.Parameter_File>
/export/apps/rDock/src/rDock_2013.1_src/data/scripts/dock_solv.prm

>  <Rbt.Receptor>
prm/blind_docking_80.prm

>  <SCORE>
-14.0168

>  <SCORE.INTER>
-14.192

>  <SCORE.INTER.CONST>
1

>  <SCORE.INTER.POLAR>
0

>  <SCORE.INTER.ROT>
5

>  <SCORE.INTER.SOLV>
18.6239

>  <SCORE.INTER.VDW>
-22.6026

>  <SCORE.INTER.norm>
-0.645091

>  <SCORE.INTRA>
0.175245

>  <SCORE.INTRA.DIHEDRAL>
-1.15914

>  <SCORE.INTRA.DIHEDRAL.0>
4.21161

>  <SCORE.INTRA.POLAR>
0

>  <SCORE.INTRA.POLAR.0>
0

>  <SCORE.INTRA.REPUL>
0

>  <SCORE.INTRA.REPUL.0>
0

>  <SCORE.INTRA.SOLV>
1.38984

>  <SCORE.INTRA.SOLV.lig_0>
-41.4168

>  <SCORE.INTRA.VDW>
0.0598979

>  <SCORE.INTRA.VDW.0>
-1.62533

>  <SCORE.INTRA.norm>
0.00796566

>  <SCORE.RESTR>
0

>  <SCORE.RESTR.CAVITY>
0

>  <SCORE.RESTR.norm>
0

>  <SCORE.SYSTEM>
0

>  <SCORE.SYSTEM.CONST>
0

>  <SCORE.SYSTEM.DIHEDRAL>
0

>  <SCORE.SYSTEM.SOLV>
0

>  <SCORE.SYSTEM.norm>
0

>  <SCORE.heavy>
22

>  <SCORE.norm>
-0.637125

>  <RMSD>
13.802

$$$$
lig.pdb
 OpenBabel11021811523D
libRbt.so/2013.1/901 2013/11/27
 22 23  0  0  0  0  0  0  0  0999 V2000
   18.5873  -42.6651  -30.7767 O   0  0  0  0  0  0  0  0  0  0  0  0
   17.6398  -43.3820  -30.4949 C   0  0  0  0  0  0  0  0  0  0  0  0
   16.7704  -43.0545  -29.5391 N   0  0  0  0  0  0  0  0  0  0  0  0
   17.4501  -44.6681  -31.2237 C   0  0  0  0  0  0  0  0  0  0  0  0
   16.3569  -45.6163  -30.9574 C   0  0  0  0  0  0  0  0  0  0  0  0
   15.3167  -45.4407  -29.9522 N   0  0  0  0  0  0  0  0  0  0  0  0
   18.1399  -45.2549  -32.2267 N   0  0  0  0  0  0  0  0  0  0  0  0
   17.5260  -46.4395  -32.5339 C   0  0  0  0  0  0  0  0  0  0  0  0
   16.4394  -46.6628  -31.7630 N   0  0  0  0  0  0  0  0  0  0  0  0
   15.5271  -47.8294  -31.8068 C   0  0  1  0  0  0  0  0  0  0  0  0
   14.2823  -47.5023  -32.6150 C   0  0  1  0  0  0  0  0  0  0  0  0
   13.9271  -48.8265  -33.2412 C   0  0  2  0  0  0  0  0  0  0  0  0
   13.1526  -49.5952  -32.3186 O   0  0  0  0  0  0  0  0  0  0  0  0
   13.2209  -47.0567  -31.7695 O   0  0  0  0  0  0  0  0  0  0  0  0
   16.1489  -48.9487  -32.4491 O   0  0  0  0  0  0  0  0  0  0  0  0
   15.2730  -49.4971  -33.4371 C   0  0  2  0  0  0  0  0  0  0  0  0
   15.8025  -49.2061  -34.8328 C   0  0  0  0  0  0  0  0  0  0  0  0
   16.0076  -47.7994  -34.9523 O   0  0  0  0  0  0  0  0  0  0  0  0
   16.5243  -47.1379  -36.3276 P   0  0  0  0  0  0  0  0  0  0  0  0
   16.6238  -45.6583  -36.0369 O   0  0  0  0  0  0  0  0  0  0  0  0
   15.4402  -47.5050  -37.3130 O   0  0  0  0  0  0  0  0  0  0  0  0
   17.8535  -47.8158  -36.5646 O   0  0  0  0  0  0  0  0  0  0  0  0
  1  2  2  0  0  0  0
  2  4  1  0  0  0  0
  2  3  1  0  0  0  0
  4  7  1  0  0  0  0
  5  9  1  0  0  0  0
  5  4  2  0  0  0  0
  6  5  1  0  0  0  0
  8  7  2  0  0  0  0
  9  8  1  0  0  0  0
 10 15  1  0  0  0  0
 10  9  1  6  0  0  0
 10 11  1  0  0  0  0
 11 14  1  1  0  0  0
 11 12  1  0  0  0  0
 12 13  1  1  0  0  0
 15 16  1  0  0  0  0
 16 12  1  0  0  0  0
 16 17  1  6  0  0  0
 17 18  1  0  0  0  0
 18 19  1  0  0  0  0
 19 21  1  0  0  0  0
 19 20  1  0  0  0  0
 22 19  2  0  0  0  0
M  END
>  <CHROM.1>
179.21642816,81.63989867,62.91392635,-178.10946299,-179.39209177,16.09592171
-46.76948757,-33.14113958,-1.23204643,-0.82407672,-2.01417894

>  <Name>
lig.pdb

>  <RI>
0

>  <Rbt.Current_Directory>
/home/itssahil/PROJECTS/Mol_Feturizer/New_Systems/rnas/5btp

>  <Rbt.Executable>
rbdock ($Id: //depot/dev/client3/rdock/2013.1/src/exe/rbdock.cxx#4 $)

>  <Rbt.Library>
libRbt.so (2013.1, Build901 2013/11/27)

>  <Rbt.Parameter_File>
/export/apps/rDock/src/rDock_2013.1_src/data/scripts/dock_solv.prm

>  <Rbt.Receptor>
prm/blind_docking_100.prm

>  <SCORE>
-5.37862

>  <SCORE.INTER>
-4.01876

>  <SCORE.INTER.CONST>
1

>  <SCORE.INTER.POLAR>
0

>  <SCORE.INTER.ROT>
5

>  <SCORE.INTER.SOLV>
7.86266

>  <SCORE.INTER.VDW>
-12.2334

>  <SCORE.INTER.norm>
-0.182671

>  <SCORE.INTRA>
-1.35986

>  <SCORE.INTRA.DIHEDRAL>
-1.73757

>  <SCORE.INTRA.DIHEDRAL.0>
4.21161

>  <SCORE.INTRA.POLAR>
0

>  <SCORE.INTRA.POLAR.0>
0

>  <SCORE.INTRA.REPUL>
0

>  <SCORE.INTRA.REPUL.0>
0

>  <SCORE.INTRA.SOLV>
1.46353

>  <SCORE.INTRA.SOLV.lig_0>
-41.4168

>  <SCORE.INTRA.VDW>
-1.22284

>  <SCORE.INTRA.VDW.0>
-1.62533

>  <SCORE.INTRA.norm>
-0.0618119

>  <SCORE.RESTR>
0

>  <SCORE.RESTR.CAVITY>
0

>  <SCORE.RESTR.norm>
0

>  <SCORE.SYSTEM>
0

>  <SCORE.SYSTEM.CONST>
0

>  <SCORE.SYSTEM.DIHEDRAL>
0

>  <SCORE.SYSTEM.SOLV>
0

>  <SCORE.SYSTEM.norm>
0

>  <SCORE.heavy>
22

>  <SCORE.norm>
-0.244483

>  <RMSD>
13.865

$$$$
lig.pdb
 OpenBabel11021811523D
libRbt.so/2013.1/901 2013/11/27
 22 23  0  0  0  0  0  0  0  0999 V2000
   10.0949  -49.8996  -49.0891 O   0  0  0  0  0  0  0  0  0  0  0  0
   11.2443  -49.8790  -48.6776 C   0  0  0  0  0  0  0  0  0  0  0  0
   12.2172  -49.2539  -49.3406 N   0  0  0  0  0  0  0  0  0  0  0  0
   11.5822  -50.5822  -47.4077 C   0  0  0  0  0  0  0  0  0  0  0  0
   10.6500  -51.4477  -46.6682 C   0  0  0  0  0  0  0  0  0  0  0  0
    9.2770  -51.7360  -47.0618 N   0  0  0  0  0  0  0  0  0  0  0  0
   12.7117  -50.6292  -46.6674 N   0  0  0  0  0  0  0  0  0  0  0  0
   12.4839  -51.4402  -45.5881 C   0  0  0  0  0  0  0  0  0  0  0  0
   11.2292  -51.9408  -45.5854 N   0  0  0  0  0  0  0  0  0  0  0  0
   10.6240  -52.8518  -44.5859 C   0  0  1  0  0  0  0  0  0  0  0  0
   11.6250  -53.1820  -43.4910 C   0  0  1  0  0  0  0  0  0  0  0  0
   10.7527  -53.3477  -42.2731 C   0  0  2  0  0  0  0  0  0  0  0  0
   10.2387  -54.6806  -42.2353 O   0  0  0  0  0  0  0  0  0  0  0  0
   12.3142  -54.4008  -43.7730 O   0  0  0  0  0  0  0  0  0  0  0  0
    9.5006  -52.2399  -43.9414 O   0  0  0  0  0  0  0  0  0  0  0  0
    9.6097  -52.3832  -42.5232 C   0  0  2  0  0  0  0  0  0  0  0  0
    9.9107  -51.0393  -41.8778 C   0  0  0  0  0  0  0  0  0  0  0  0
   10.1411  -51.2498  -40.4858 O   0  0  0  0  0  0  0  0  0  0  0  0
   10.4838  -50.0266  -39.4947 P   0  0  0  0  0  0  0  0  0  0  0  0
    9.2220  -49.8077  -38.6925 O   0  0  0  0  0  0  0  0  0  0  0  0
   10.8189  -48.9003  -40.4436 O   0  0  0  0  0  0  0  0  0  0  0  0
   11.6512  -50.5456  -38.6885 O   0  0  0  0  0  0  0  0  0  0  0  0
  1  2  2  0  0  0  0
  2  4  1  0  0  0  0
  2  3  1  0  0  0  0
  4  7  1  0  0  0  0
  5  9  1  0  0  0  0
  5  4  2  0  0  0  0
  6  5  1  0  0  0  0
  8  7  2  0  0  0  0
  9  8  1  0  0  0  0
 10 15  1  0  0  0  0
 10  9  1  6  0  0  0
 10 11  1  0  0  0  0
 11 14  1  6  0  0  0
 11 12  1  0  0  0  0
 12 13  1  6  0  0  0
 15 16  1  0  0  0  0
 16 12  1  0  0  0  0
 16 17  1  1  0  0  0
 17 18  1  0  0  0  0
 18 19  1  0  0  0  0
 19 21  1  0  0  0  0
 19 20  1  0  0  0  0
 22 19  2  0  0  0  0
M  END
>  <CHROM.1>
7.33865764,-179.92921675,-57.05263716,-179.74261234,105.96238938,10.79252000
-51.35600565,-43.64459775,0.16267651,1.46692490,-0.15907467

>  <Name>
lig.pdb

>  <RI>
0

>  <Rbt.Current_Directory>
/home/itssahil/PROJECTS/Mol_Feturizer/New_Systems/rnas/5btp

>  <Rbt.Executable>
rbdock ($Id: //depot/dev/client3/rdock/2013.1/src/exe/rbdock.cxx#4 $)

>  <Rbt.Library>
libRbt.so (2013.1, Build901 2013/11/27)

>  <Rbt.Parameter_File>
/export/apps/rDock/src/rDock_2013.1_src/data/scripts/dock_solv.prm

>  <Rbt.Receptor>
prm/blind_docking_100.prm

>  <SCORE>
-13.1721

>  <SCORE.INTER>
-14.4578

>  <SCORE.INTER.CONST>
1

>  <SCORE.INTER.POLAR>
0

>  <SCORE.INTER.ROT>
5

>  <SCORE.INTER.SOLV>
19.299

>  <SCORE.INTER.VDW>
-23.0049

>  <SCORE.INTER.norm>
-0.657171

>  <SCORE.INTRA>
1.28568

>  <SCORE.INTRA.DIHEDRAL>
0.516

>  <SCORE.INTRA.DIHEDRAL.0>
4.21161

>  <SCORE.INTRA.POLAR>
0

>  <SCORE.INTRA.POLAR.0>
0

>  <SCORE.INTRA.REPUL>
0

>  <SCORE.INTRA.REPUL.0>
0

>  <SCORE.INTRA.SOLV>
-0.193242

>  <SCORE.INTRA.SOLV.lig_0>
-41.4168

>  <SCORE.INTRA.VDW>
1.1243

>  <SCORE.INTRA.VDW.0>
-1.62533

>  <SCORE.INTRA.norm>
0.05844

>  <SCORE.RESTR>
0

>  <SCORE.RESTR.CAVITY>
0

>  <SCORE.RESTR.norm>
0

>  <SCORE.SYSTEM>
0

>  <SCORE.SYSTEM.CONST>
0

>  <SCORE.SYSTEM.DIHEDRAL>
0

>  <SCORE.SYSTEM.SOLV>
0

>  <SCORE.SYSTEM.norm>
0

>  <SCORE.heavy>
22

>  <SCORE.norm>
-0.598731

>  <RMSD>
14.016

$$$$
lig.pdb
 OpenBabel11021811523D
libRbt.so/2013.1/901 2013/11/27
 22 23  0  0  0  0  0  0  0  0999 V2000
    8.9091  -49.0461  -38.1377 O   0  0  0  0  0  0  0  0  0  0  0  0
    9.7898  -49.2530  -38.9579 C   0  0  0  0  0  0  0  0  0  0  0  0
   10.7250  -48.3429  -39.2299 N   0  0  0  0  0  0  0  0  0  0  0  0
    9.8198  -50.5500  -39.6915 C   0  0  0  0  0  0  0  0  0  0  0  0
   10.6989  -50.8321  -40.8371 C   0  0  0  0  0  0  0  0  0  0  0  0
   11.6525  -49.8953  -41.4170 N   0  0  0  0  0  0  0  0  0  0  0  0
    9.1371  -51.7043  -39.5254 N   0  0  0  0  0  0  0  0  0  0  0  0
    9.5602  -52.5937  -40.4765 C   0  0  0  0  0  0  0  0  0  0  0  0
   10.5117  -52.0660  -41.2772 N   0  0  0  0  0  0  0  0  0  0  0  0
   11.2049  -52.7248  -42.4087 C   0  0  1  0  0  0  0  0  0  0  0  0
   10.3158  -53.7882  -43.0320 C   0  0  1  0  0  0  0  0  0  0  0  0
   10.7124  -53.7521  -44.4857 C   0  0  2  0  0  0  0  0  0  0  0  0
   11.8669  -54.5708  -44.6830 O   0  0  0  0  0  0  0  0  0  0  0  0
   10.5877  -55.0766  -42.4789 O   0  0  0  0  0  0  0  0  0  0  0  0
   11.5081  -51.7857  -43.4471 O   0  0  0  0  0  0  0  0  0  0  0  0
   11.0895  -52.3012  -44.7132 C   0  0  2  0  0  0  0  0  0  0  0  0
    9.8877  -51.5246  -45.2287 C   0  0  0  0  0  0  0  0  0  0  0  0
    9.6729  -51.8810  -46.5933 O   0  0  0  0  0  0  0  0  0  0  0  0
   10.6793  -51.4021  -47.7568 P   0  0  0  0  0  0  0  0  0  0  0  0
   11.9801  -51.1004  -47.0494 O   0  0  0  0  0  0  0  0  0  0  0  0
    9.9881  -50.1873  -48.3293 O   0  0  0  0  0  0  0  0  0  0  0  0
   10.7369  -52.5946  -48.6826 O   0  0  0  0  0  0  0  0  0  0  0  0
  1  2  2  0  0  0  0
  2  4  1  0  0  0  0
  2  3  1  0  0  0  0
  4  7  1  0  0  0  0
  5  9  1  0  0  0  0
  5  4  2  0  0  0  0
  6  5  1  0  0  0  0
  8  7  2  0  0  0  0
  9  8  1  0  0  0  0
 10 15  1  0  0  0  0
 10  9  1  1  0  0  0
 10 11  1  0  0  0  0
 11 14  1  1  0  0  0
 11 12  1  0  0  0  0
 12 13  1  1  0  0  0
 15 16  1  0  0  0  0
 16 12  1  0  0  0  0
 16 17  1  1  0  0  0
 17 18  1  0  0  0  0
 18 19  1  0  0  0  0
 19 21  1  0  0  0  0
 19 20  1  0  0  0  0
 22 19  2  0  0  0  0
M  END
>  <CHROM.1>
170.30998132,-152.05346908,-74.30522279,-71.10492341,22.19210574,10.52424733
-51.68957425,-43.49819870,2.37134224,-1.43292919,2.16710106

>  <Name>
lig.pdb

>  <RI>
0

>  <Rbt.Current_Directory>
/home/itssahil/PROJECTS/Mol_Feturizer/New_Systems/rnas/5btp

>  <Rbt.Executable>
rbdock ($Id: //depot/dev/client3/rdock/2013.1/src/exe/rbdock.cxx#4 $)

>  <Rbt.Library>
libRbt.so (2013.1, Build901 2013/11/27)

>  <Rbt.Parameter_File>
/export/apps/rDock/src/rDock_2013.1_src/data/scripts/dock_solv.prm

>  <Rbt.Receptor>
prm/blind_docking_100.prm

>  <SCORE>
-9.42673

>  <SCORE.INTER>
-11.2585

>  <SCORE.INTER.CONST>
1

>  <SCORE.INTER.POLAR>
0

>  <SCORE.INTER.ROT>
5

>  <SCORE.INTER.SOLV>
16.1506

>  <SCORE.INTER.VDW>
-19.8225

>  <SCORE.INTER.norm>
-0.51175

>  <SCORE.INTRA>
1.83178

>  <SCORE.INTRA.DIHEDRAL>
1.51411

>  <SCORE.INTRA.DIHEDRAL.0>
4.21161

>  <SCORE.INTRA.POLAR>
0

>  <SCORE.INTRA.POLAR.0>
0

>  <SCORE.INTRA.REPUL>
0

>  <SCORE.INTRA.REPUL.0>
0

>  <SCORE.INTRA.SOLV>
1.05414

>  <SCORE.INTRA.SOLV.lig_0>
-41.4168

>  <SCORE.INTRA.VDW>
0.547657

>  <SCORE.INTRA.VDW.0>
-1.62533

>  <SCORE.INTRA.norm>
0.0832628

>  <SCORE.RESTR>
0

>  <SCORE.RESTR.CAVITY>
0

>  <SCORE.RESTR.norm>
0

>  <SCORE.SYSTEM>
0

>  <SCORE.SYSTEM.CONST>
0

>  <SCORE.SYSTEM.DIHEDRAL>
0

>  <SCORE.SYSTEM.SOLV>
0

>  <SCORE.SYSTEM.norm>
0

>  <SCORE.heavy>
22

>  <SCORE.norm>
-0.428488

>  <RMSD>
14.096

$$$$
lig.pdb
 OpenBabel11021811523D
libRbt.so/2013.1/901 2013/11/27
 22 23  0  0  0  0  0  0  0  0999 V2000
   10.1936  -50.6514  -49.5960 O   0  0  0  0  0  0  0  0  0  0  0  0
   11.2399  -50.4048  -49.0167 C   0  0  0  0  0  0  0  0  0  0  0  0
   12.2845  -49.8704  -49.6491 N   0  0  0  0  0  0  0  0  0  0  0  0
   11.3677  -50.7205  -47.5658 C   0  0  0  0  0  0  0  0  0  0  0  0
   10.2874  -51.2895  -46.7447 C   0  0  0  0  0  0  0  0  0  0  0  0
    8.9509  -51.6185  -47.2230 N   0  0  0  0  0  0  0  0  0  0  0  0
   12.3951  -50.5996  -46.6962 N   0  0  0  0  0  0  0  0  0  0  0  0
   11.9766  -51.0487  -45.4724 C   0  0  0  0  0  0  0  0  0  0  0  0
   10.6933  -51.4700  -45.4982 N   0  0  0  0  0  0  0  0  0  0  0  0
    9.9025  -52.0211  -44.3731 C   0  0  1  0  0  0  0  0  0  0  0  0
   10.6668  -53.1378  -43.6812 C   0  0  1  0  0  0  0  0  0  0  0  0
   10.2240  -53.0128  -42.2459 C   0  0  2  0  0  0  0  0  0  0  0  0
    8.9924  -53.7149  -42.0664 O   0  0  0  0  0  0  0  0  0  0  0  0
   10.2966  -54.4153  -44.2015 O   0  0  0  0  0  0  0  0  0  0  0  0
    9.6509  -51.0211  -43.3788 O   0  0  0  0  0  0  0  0  0  0  0  0
    9.9749  -51.5261  -42.0811 C   0  0  2  0  0  0  0  0  0  0  0  0
   11.2244  -50.8442  -41.5455 C   0  0  0  0  0  0  0  0  0  0  0  0
   10.8247  -49.7073  -40.7821 O   0  0  0  0  0  0  0  0  0  0  0  0
   10.3357  -49.8492  -39.2535 P   0  0  0  0  0  0  0  0  0  0  0  0
    9.7224  -48.5108  -38.9129 O   0  0  0  0  0  0  0  0  0  0  0  0
   11.6155  -50.1522  -38.5110 O   0  0  0  0  0  0  0  0  0  0  0  0
    9.3474  -50.9907  -39.3066 O   0  0  0  0  0  0  0  0  0  0  0  0
  1  2  2  0  0  0  0
  2  4  1  0  0  0  0
  2  3  1  0  0  0  0
  4  7  1  0  0  0  0
  5  9  1  0  0  0  0
  5  4  2  0  0  0  0
  6  5  1  0  0  0  0
  8  7  2  0  0  0  0
  9  8  1  0  0  0  0
 10 15  1  0  0  0  0
 10  9  1  6  0  0  0
 10 11  1  0  0  0  0
 11 14  1  6  0  0  0
 11 12  1  0  0  0  0
 12 13  1  6  0  0  0
 15 16  1  0  0  0  0
 16 12  1  0  0  0  0
 16 17  1  6  0  0  0
 17 18  1  0  0  0  0
 18 19  1  0  0  0  0
 19 21  1  0  0  0  0
 19 20  1  0  0  0  0
 22 19  2  0  0  0  0
M  END
>  <CHROM.1>
-1.77007590,129.16634714,-150.69494607,81.49172257,-167.77797504,10.51169930
-51.12840353,-43.59343523,-1.34327673,1.19740600,1.28624877

>  <Name>
lig.pdb

>  <RI>
0

>  <Rbt.Current_Directory>
/home/itssahil/PROJECTS/Mol_Feturizer/New_Systems/rnas/5btp

>  <Rbt.Executable>
rbdock ($Id: //depot/dev/client3/rdock/2013.1/src/exe/rbdock.cxx#4 $)

>  <Rbt.Library>
libRbt.so (2013.1, Build901 2013/11/27)

>  <Rbt.Parameter_File>
/export/apps/rDock/src/rDock_2013.1_src/data/scripts/dock_solv.prm

>  <Rbt.Receptor>
prm/blind_docking_100.prm

>  <SCORE>
-12.0784

>  <SCORE.INTER>
-13.6209

>  <SCORE.INTER.CONST>
1

>  <SCORE.INTER.POLAR>
0

>  <SCORE.INTER.ROT>
5

>  <SCORE.INTER.SOLV>
18.6768

>  <SCORE.INTER.VDW>
-22.2396

>  <SCORE.INTER.norm>
-0.619133

>  <SCORE.INTRA>
1.54255

>  <SCORE.INTRA.DIHEDRAL>
3.01234

>  <SCORE.INTRA.DIHEDRAL.0>
4.21161

>  <SCORE.INTRA.POLAR>
0

>  <SCORE.INTRA.POLAR.0>
0

>  <SCORE.INTRA.REPUL>
0

>  <SCORE.INTRA.REPUL.0>
0

>  <SCORE.INTRA.SOLV>
0.811827

>  <SCORE.INTRA.SOLV.lig_0>
-41.4168

>  <SCORE.INTRA.VDW>
-0.369537

>  <SCORE.INTRA.VDW.0>
-1.62533

>  <SCORE.INTRA.norm>
0.0701158

>  <SCORE.RESTR>
0

>  <SCORE.RESTR.CAVITY>
0

>  <SCORE.RESTR.norm>
0

>  <SCORE.SYSTEM>
0

>  <SCORE.SYSTEM.CONST>
0

>  <SCORE.SYSTEM.DIHEDRAL>
0

>  <SCORE.SYSTEM.SOLV>
0

>  <SCORE.SYSTEM.norm>
0

>  <SCORE.heavy>
22

>  <SCORE.norm>
-0.549017

>  <RMSD>
14.262

$$$$
lig.pdb
 OpenBabel11021811523D
libRbt.so/2013.1/901 2013/11/27
 22 23  0  0  0  0  0  0  0  0999 V2000
   10.7390  -58.8378  -47.3777 O   0  0  0  0  0  0  0  0  0  0  0  0
   10.7645  -58.2117  -46.3297 C   0  0  0  0  0  0  0  0  0  0  0  0
   10.8281  -58.8232  -45.1469 N   0  0  0  0  0  0  0  0  0  0  0  0
   10.7079  -56.7228  -46.3624 C   0  0  0  0  0  0  0  0  0  0  0  0
   10.8401  -55.8637  -45.1752 C   0  0  0  0  0  0  0  0  0  0  0  0
   11.0380  -56.3372  -43.8115 N   0  0  0  0  0  0  0  0  0  0  0  0
   10.5499  -55.8411  -47.3743 N   0  0  0  0  0  0  0  0  0  0  0  0
   10.5815  -54.5766  -46.8505 C   0  0  0  0  0  0  0  0  0  0  0  0
   10.7584  -54.5863  -45.5113 N   0  0  0  0  0  0  0  0  0  0  0  0
   10.8459  -53.4178  -44.6048 C   0  0  1  0  0  0  0  0  0  0  0  0
   12.2808  -53.1992  -44.1542 C   0  0  1  0  0  0  0  0  0  0  0  0
   12.3635  -51.7021  -44.0004 C   0  0  2  0  0  0  0  0  0  0  0  0
   11.8783  -51.3303  -42.7088 O   0  0  0  0  0  0  0  0  0  0  0  0
   12.5308  -53.8378  -42.9014 O   0  0  0  0  0  0  0  0  0  0  0  0
   10.4387  -52.2158  -45.2692 O   0  0  0  0  0  0  0  0  0  0  0  0
   11.4062  -51.1850  -45.0566 C   0  0  2  0  0  0  0  0  0  0  0  0
   12.1595  -50.8933  -46.3453 C   0  0  0  0  0  0  0  0  0  0  0  0
   11.2829  -50.2004  -47.2323 O   0  0  0  0  0  0  0  0  0  0  0  0
   11.7369  -49.8062  -48.7270 P   0  0  0  0  0  0  0  0  0  0  0  0
   13.1840  -49.3902  -48.5996 O   0  0  0  0  0  0  0  0  0  0  0  0
   10.7967  -48.6796  -49.0848 O   0  0  0  0  0  0  0  0  0  0  0  0
   11.5230  -51.0828  -49.5061 O   0  0  0  0  0  0  0  0  0  0  0  0
  1  2  2  0  0  0  0
  2  4  1  0  0  0  0
  2  3  1  0  0  0  0
  4  7  1  0  0  0  0
  5  9  1  0  0  0  0
  5  4  2  0  0  0  0
  6  5  1  0  0  0  0
  8  7  2  0  0  0  0
  9  8  1  0  0  0  0
 10 15  1  0  0  0  0
 10  9  1  6  0  0  0
 10 11  1  0  0  0  0
 11 14  1  1  0  0  0
 11 12  1  0  0  0  0
 12 13  1  1  0  0  0
 15 16  1  0  0  0  0
 16 12  1  0  0  0  0
 16 17  1  6  0  0  0
 17 18  1  0  0  0  0
 18 19  1  0  0  0  0
 19 21  1  0  0  0  0
 19 20  1  0  0  0  0
 22 19  2  0  0  0  0
M  END
>  <CHROM.1>
-174.87903144,74.01045051,-170.20979278,-176.64173494,-38.72401702,11.36800505
-53.17198461,-46.19069725,2.16986497,1.37076218,2.23423070

>  <Name>
lig.pdb

>  <RI>
0

>  <Rbt.Current_Directory>
/home/itssahil/PROJECTS/Mol_Feturizer/New_Systems/rnas/5btp

>  <Rbt.Executable>
rbdock ($Id: //depot/dev/client3/rdock/2013.1/src/exe/rbdock.cxx#4 $)

>  <Rbt.Library>
libRbt.so (2013.1, Build901 2013/11/27)

>  <Rbt.Parameter_File>
/export/apps/rDock/src/rDock_2013.1_src/data/scripts/dock_solv.prm

>  <Rbt.Receptor>
prm/blind_docking_100.prm

>  <SCORE>
-13.0614

>  <SCORE.INTER>
-12.4773

>  <SCORE.INTER.CONST>
1

>  <SCORE.INTER.POLAR>
0

>  <SCORE.INTER.ROT>
5

>  <SCORE.INTER.SOLV>
14.1705

>  <SCORE.INTER.VDW>
-19.975

>  <SCORE.INTER.norm>
-0.567148

>  <SCORE.INTRA>
-0.584141

>  <SCORE.INTRA.DIHEDRAL>
-0.637445

>  <SCORE.INTRA.DIHEDRAL.0>
4.21161

>  <SCORE.INTRA.POLAR>
0

>  <SCORE.INTRA.POLAR.0>
0

>  <SCORE.INTRA.REPUL>
0

>  <SCORE.INTRA.REPUL.0>
0

>  <SCORE.INTRA.SOLV>
0.379738

>  <SCORE.INTRA.SOLV.lig_0>
-41.4168

>  <SCORE.INTRA.VDW>
-0.455287

>  <SCORE.INTRA.VDW.0>
-1.62533

>  <SCORE.INTRA.norm>
-0.0265518

>  <SCORE.RESTR>
0

>  <SCORE.RESTR.CAVITY>
0

>  <SCORE.RESTR.norm>
0

>  <SCORE.SYSTEM>
0

>  <SCORE.SYSTEM.CONST>
0

>  <SCORE.SYSTEM.DIHEDRAL>
0

>  <SCORE.SYSTEM.SOLV>
0

>  <SCORE.SYSTEM.norm>
0

>  <SCORE.heavy>
22

>  <SCORE.norm>
-0.5937

>  <RMSD>
14.280

$$$$
lig.pdb
 OpenBabel11021811523D
libRbt.so/2013.1/901 2013/11/27
 22 23  0  0  0  0  0  0  0  0999 V2000
   10.2170  -51.7471  -50.7584 O   0  0  0  0  0  0  0  0  0  0  0  0
   10.7477  -51.1428  -49.8396 C   0  0  0  0  0  0  0  0  0  0  0  0
   11.5476  -50.0983  -50.0544 N   0  0  0  0  0  0  0  0  0  0  0  0
   10.5130  -51.5867  -48.4364 C   0  0  0  0  0  0  0  0  0  0  0  0
   11.2461  -51.0677  -47.2710 C   0  0  0  0  0  0  0  0  0  0  0  0
   12.2981  -50.0606  -47.3187 N   0  0  0  0  0  0  0  0  0  0  0  0
    9.6530  -52.4787  -47.8969 N   0  0  0  0  0  0  0  0  0  0  0  0
    9.8485  -52.4977  -46.5420 C   0  0  0  0  0  0  0  0  0  0  0  0
   10.8179  -51.6393  -46.1570 N   0  0  0  0  0  0  0  0  0  0  0  0
   11.3024  -51.3849  -44.7802 C   0  0  1  0  0  0  0  0  0  0  0  0
   10.2797  -51.8567  -43.7598 C   0  0  1  0  0  0  0  0  0  0  0  0
   11.1362  -52.3010  -42.6019 C   0  0  2  0  0  0  0  0  0  0  0  0
   11.4584  -51.1708  -41.7889 O   0  0  0  0  0  0  0  0  0  0  0  0
    9.4224  -50.7878  -43.3568 O   0  0  0  0  0  0  0  0  0  0  0  0
   12.5092  -52.1094  -44.5142 O   0  0  0  0  0  0  0  0  0  0  0  0
   12.4000  -52.8062  -43.2706 C   0  0  2  0  0  0  0  0  0  0  0  0
   12.2994  -54.3045  -43.5114 C   0  0  0  0  0  0  0  0  0  0  0  0
   11.2351  -54.5423  -44.4311 O   0  0  0  0  0  0  0  0  0  0  0  0
   10.8843  -56.0279  -44.9469 P   0  0  0  0  0  0  0  0  0  0  0  0
   10.6677  -56.8376  -43.6895 O   0  0  0  0  0  0  0  0  0  0  0  0
   12.1145  -56.4176  -45.7316 O   0  0  0  0  0  0  0  0  0  0  0  0
    9.6392  -55.8250  -45.7781 O   0  0  0  0  0  0  0  0  0  0  0  0
  1  2  2  0  0  0  0
  2  4  1  0  0  0  0
  2  3  1  0  0  0  0
  4  7  1  0  0  0  0
  5  9  1  0  0  0  0
  5  4  2  0  0  0  0
  6  5  1  0  0  0  0
  8  7  2  0  0  0  0
  9  8  1  0  0  0  0
 10 15  1  0  0  0  0
 10  9  1  6  0  0  0
 10 11  1  0  0  0  0
 11 14  1  1  0  0  0
 11 12  1  0  0  0  0
 12 13  1  1  0  0  0
 15 16  1  0  0  0  0
 16 12  1  0  0  0  0
 16 17  1  6  0  0  0
 17 18  1  0  0  0  0
 18 19  1  0  0  0  0
 19 21  1  0  0  0  0
 19 20  1  0  0  0  0
 22 19  2  0  0  0  0
M  END
>  <CHROM.1>
170.65178462,160.77603006,64.04124427,177.90303331,54.73793392,11.00283800
-52.92230283,-45.64309290,2.07845338,-1.45352980,-0.47225115

>  <Name>
lig.pdb

>  <RI>
0

>  <Rbt.Current_Directory>
/home/itssahil/PROJECTS/Mol_Feturizer/New_Systems/rnas/5btp

>  <Rbt.Executable>
rbdock ($Id: //depot/dev/client3/rdock/2013.1/src/exe/rbdock.cxx#4 $)

>  <Rbt.Library>
libRbt.so (2013.1, Build901 2013/11/27)

>  <Rbt.Parameter_File>
/export/apps/rDock/src/rDock_2013.1_src/data/scripts/dock_solv.prm

>  <Rbt.Receptor>
prm/blind_docking_80.prm

>  <SCORE>
-11.486

>  <SCORE.INTER>
-10.6335

>  <SCORE.INTER.CONST>
1

>  <SCORE.INTER.POLAR>
0

>  <SCORE.INTER.ROT>
5

>  <SCORE.INTER.SOLV>
15.5061

>  <SCORE.INTER.VDW>
-19.191

>  <SCORE.INTER.norm>
-0.48334

>  <SCORE.INTRA>
-0.852542

>  <SCORE.INTRA.DIHEDRAL>
-1.37992

>  <SCORE.INTRA.DIHEDRAL.0>
4.21161

>  <SCORE.INTRA.POLAR>
0

>  <SCORE.INTRA.POLAR.0>
0

>  <SCORE.INTRA.REPUL>
0

>  <SCORE.INTRA.REPUL.0>
0

>  <SCORE.INTRA.SOLV>
1.02934

>  <SCORE.INTRA.SOLV.lig_0>
-41.4168

>  <SCORE.INTRA.VDW>
-0.677252

>  <SCORE.INTRA.VDW.0>
-1.62533

>  <SCORE.INTRA.norm>
-0.0387519

>  <SCORE.RESTR>
0

>  <SCORE.RESTR.CAVITY>
0

>  <SCORE.RESTR.norm>
0

>  <SCORE.SYSTEM>
0

>  <SCORE.SYSTEM.CONST>
0

>  <SCORE.SYSTEM.DIHEDRAL>
0

>  <SCORE.SYSTEM.SOLV>
0

>  <SCORE.SYSTEM.norm>
0

>  <SCORE.heavy>
22

>  <SCORE.norm>
-0.522092

>  <RMSD>
14.284

$$$$
lig.pdb
 OpenBabel11021811523D
libRbt.so/2013.1/901 2013/11/27
 22 23  0  0  0  0  0  0  0  0999 V2000
   10.3445  -50.0349  -50.2029 O   0  0  0  0  0  0  0  0  0  0  0  0
   10.8338  -49.9849  -49.0853 C   0  0  0  0  0  0  0  0  0  0  0  0
   11.6443  -48.9930  -48.7165 N   0  0  0  0  0  0  0  0  0  0  0  0
   10.5349  -51.0661  -48.1040 C   0  0  0  0  0  0  0  0  0  0  0  0
   11.0838  -51.1200  -46.7399 C   0  0  0  0  0  0  0  0  0  0  0  0
   11.9917  -50.1397  -46.1587 N   0  0  0  0  0  0  0  0  0  0  0  0
    9.7566  -52.1686  -48.1752 N   0  0  0  0  0  0  0  0  0  0  0  0
    9.8298  -52.8235  -46.9751 C   0  0  0  0  0  0  0  0  0  0  0  0
   10.6370  -52.1877  -46.0983 N   0  0  0  0  0  0  0  0  0  0  0  0
   10.9568  -52.5930  -44.7096 C   0  0  1  0  0  0  0  0  0  0  0  0
    9.7265  -53.1652  -44.0249 C   0  0  1  0  0  0  0  0  0  0  0  0
   10.3066  -54.1999  -43.0951 C   0  0  2  0  0  0  0  0  0  0  0  0
   10.7166  -53.5695  -41.8799 O   0  0  0  0  0  0  0  0  0  0  0  0
    9.0388  -52.1612  -43.2772 O   0  0  0  0  0  0  0  0  0  0  0  0
   11.9526  -53.6225  -44.6874 O   0  0  0  0  0  0  0  0  0  0  0  0
   11.5345  -54.6923  -43.8362 C   0  0  2  0  0  0  0  0  0  0  0  0
   11.1871  -55.9206  -44.6630 C   0  0  0  0  0  0  0  0  0  0  0  0
   12.3611  -56.3457  -45.3530 O   0  0  0  0  0  0  0  0  0  0  0  0
   12.2952  -57.4472  -46.5270 P   0  0  0  0  0  0  0  0  0  0  0  0
   13.7330  -57.8401  -46.7760 O   0  0  0  0  0  0  0  0  0  0  0  0
   11.6513  -56.6947  -47.6673 O   0  0  0  0  0  0  0  0  0  0  0  0
   11.4451  -58.5443  -45.9305 O   0  0  0  0  0  0  0  0  0  0  0  0
  1  2  2  0  0  0  0
  2  4  1  0  0  0  0
  2  3  1  0  0  0  0
  4  7  1  0  0  0  0
  5  9  1  0  0  0  0
  5  4  2  0  0  0  0
  6  5  1  0  0  0  0
  8  7  2  0  0  0  0
  9  8  1  0  0  0  0
 10 15  1  0  0  0  0
 10  9  1  6  0  0  0
 10 11  1  0  0  0  0
 11 14  1  1  0  0  0
 11 12  1  0  0  0  0
 12 13  1  1  0  0  0
 15 16  1  0  0  0  0
 16 12  1  0  0  0  0
 16 17  1  6  0  0  0
 17 18  1  0  0  0  0
 18 19  1  0  0  0  0
 19 21  1  0  0  0  0
 19 20  1  0  0  0  0
 22 19  2  0  0  0  0
M  END
>  <CHROM.1>
179.02316538,141.40795896,179.47590006,-168.46144294,-167.77688395,11.16363353
-53.74718674,-46.02872511,-2.18400033,-1.24391951,2.21701622

>  <Name>
lig.pdb

>  <RI>
0

>  <Rbt.Current_Directory>
/home/itssahil/PROJECTS/Mol_Feturizer/New_Systems/rnas/5btp

>  <Rbt.Executable>
rbdock ($Id: //depot/dev/client3/rdock/2013.1/src/exe/rbdock.cxx#4 $)

>  <Rbt.Library>
libRbt.so (2013.1, Build901 2013/11/27)

>  <Rbt.Parameter_File>
/export/apps/rDock/src/rDock_2013.1_src/data/scripts/dock_solv.prm

>  <Rbt.Receptor>
prm/blind_docking_100.prm

>  <SCORE>
-12.388

>  <SCORE.INTER>
-11.7067

>  <SCORE.INTER.CONST>
1

>  <SCORE.INTER.POLAR>
0

>  <SCORE.INTER.ROT>
5

>  <SCORE.INTER.SOLV>
18.4838

>  <SCORE.INTER.VDW>
-20.899

>  <SCORE.INTER.norm>
-0.532121

>  <SCORE.INTRA>
-0.681321

>  <SCORE.INTRA.DIHEDRAL>
-0.918328

>  <SCORE.INTRA.DIHEDRAL.0>
4.21161

>  <SCORE.INTRA.POLAR>
0

>  <SCORE.INTRA.POLAR.0>
0

>  <SCORE.INTRA.REPUL>
0

>  <SCORE.INTRA.REPUL.0>
0

>  <SCORE.INTRA.SOLV>
-0.0137428

>  <SCORE.INTRA.SOLV.lig_0>
-41.4168

>  <SCORE.INTRA.VDW>
-0.215286

>  <SCORE.INTRA.VDW.0>
-1.62533

>  <SCORE.INTRA.norm>
-0.0309692

>  <SCORE.RESTR>
0

>  <SCORE.RESTR.CAVITY>
0

>  <SCORE.RESTR.norm>
0

>  <SCORE.SYSTEM>
0

>  <SCORE.SYSTEM.CONST>
0

>  <SCORE.SYSTEM.DIHEDRAL>
0

>  <SCORE.SYSTEM.SOLV>
0

>  <SCORE.SYSTEM.norm>
0

>  <SCORE.heavy>
22

>  <SCORE.norm>
-0.56309

>  <RMSD>
14.314

$$$$
lig.pdb
 OpenBabel11021811523D
libRbt.so/2013.1/901 2013/11/27
 22 23  0  0  0  0  0  0  0  0999 V2000
   11.7082  -48.9020  -48.5990 O   0  0  0  0  0  0  0  0  0  0  0  0
   11.0628  -49.8552  -49.0065 C   0  0  0  0  0  0  0  0  0  0  0  0
   10.6320  -49.9256  -50.2659 N   0  0  0  0  0  0  0  0  0  0  0  0
   10.7293  -50.9686  -48.0736 C   0  0  0  0  0  0  0  0  0  0  0  0
   11.1920  -51.0459  -46.6790 C   0  0  0  0  0  0  0  0  0  0  0  0
   12.0366  -50.0605  -46.0166 N   0  0  0  0  0  0  0  0  0  0  0  0
    9.9848  -52.0866  -48.2218 N   0  0  0  0  0  0  0  0  0  0  0  0
    9.9981  -52.7713  -47.0362 C   0  0  0  0  0  0  0  0  0  0  0  0
   10.7322  -52.1402  -46.0940 N   0  0  0  0  0  0  0  0  0  0  0  0
   10.9734  -52.5747  -44.6983 C   0  0  1  0  0  0  0  0  0  0  0  0
    9.6996  -53.1344  -44.0867 C   0  0  1  0  0  0  0  0  0  0  0  0
   10.2126  -54.1954  -43.1472 C   0  0  2  0  0  0  0  0  0  0  0  0
   10.5717  -53.5932  -41.9020 O   0  0  0  0  0  0  0  0  0  0  0  0
    8.9933  -52.1299  -43.3573 O   0  0  0  0  0  0  0  0  0  0  0  0
   11.9478  -53.6233  -44.6438 O   0  0  0  0  0  0  0  0  0  0  0  0
   11.4674  -54.6989  -43.8338 C   0  0  2  0  0  0  0  0  0  0  0  0
   11.1399  -55.9064  -44.6985 C   0  0  0  0  0  0  0  0  0  0  0  0
   12.3343  -56.3266  -45.3558 O   0  0  0  0  0  0  0  0  0  0  0  0
   12.3078  -57.4421  -46.5181 P   0  0  0  0  0  0  0  0  0  0  0  0
   13.7569  -57.8063  -46.7441 O   0  0  0  0  0  0  0  0  0  0  0  0
   11.6628  -56.7163  -47.6750 O   0  0  0  0  0  0  0  0  0  0  0  0
   11.4739  -58.5509  -45.9203 O   0  0  0  0  0  0  0  0  0  0  0  0
  1  2  2  0  0  0  0
  2  4  1  0  0  0  0
  2  3  1  0  0  0  0
  4  7  1  0  0  0  0
  5  9  1  0  0  0  0
  5  4  2  0  0  0  0
  6  5  1  0  0  0  0
  8  7  2  0  0  0  0
  9  8  1  0  0  0  0
 10 15  1  0  0  0  0
 10  9  1  6  0  0  0
 10 11  1  0  0  0  0
 11 14  1  1  0  0  0
 11 12  1  0  0  0  0
 12 13  1  1  0  0  0
 15 16  1  0  0  0  0
 16 12  1  0  0  0  0
 16 17  1  6  0  0  0
 17 18  1  0  0  0  0
 18 19  1  0  0  0  0
 19 21  1  0  0  0  0
 19 20  1  0  0  0  0
 22 19  2  0  0  0  0
M  END
>  <CHROM.1>
-3.55531751,138.79654897,178.37044450,-170.73238571,-168.65281595,11.21313563
-53.70552591,-46.01463992,-2.05508552,-1.22903193,2.36465082

>  <Name>
lig.pdb

>  <RI>
0

>  <Rbt.Current_Directory>
/home/itssahil/PROJECTS/Mol_Feturizer/New_Systems/rnas/5btp

>  <Rbt.Executable>
rbdock ($Id: //depot/dev/client3/rdock/2013.1/src/exe/rbdock.cxx#4 $)

>  <Rbt.Library>
libRbt.so (2013.1, Build901 2013/11/27)

>  <Rbt.Parameter_File>
/export/apps/rDock/src/rDock_2013.1_src/data/scripts/dock_solv.prm

>  <Rbt.Receptor>
prm/blind_docking_100.prm

>  <SCORE>
-12.4103

>  <SCORE.INTER>
-11.4365

>  <SCORE.INTER.CONST>
1

>  <SCORE.INTER.POLAR>
0

>  <SCORE.INTER.ROT>
5

>  <SCORE.INTER.SOLV>
18.2352

>  <SCORE.INTER.VDW>
-20.636

>  <SCORE.INTER.norm>
-0.51984

>  <SCORE.INTRA>
-0.973826

>  <SCORE.INTRA.DIHEDRAL>
-1.12191

>  <SCORE.INTRA.DIHEDRAL.0>
4.21161

>  <SCORE.INTRA.POLAR>
0

>  <SCORE.INTRA.POLAR.0>
0

>  <SCORE.INTRA.REPUL>
0

>  <SCORE.INTRA.REPUL.0>
0

>  <SCORE.INTRA.SOLV>
-0.271504

>  <SCORE.INTRA.SOLV.lig_0>
-41.4168

>  <SCORE.INTRA.VDW>
-0.277117

>  <SCORE.INTRA.VDW.0>
-1.62533

>  <SCORE.INTRA.norm>
-0.0442648

>  <SCORE.RESTR>
0

>  <SCORE.RESTR.CAVITY>
0

>  <SCORE.RESTR.norm>
0

>  <SCORE.SYSTEM>
0

>  <SCORE.SYSTEM.CONST>
0

>  <SCORE.SYSTEM.DIHEDRAL>
0

>  <SCORE.SYSTEM.SOLV>
0

>  <SCORE.SYSTEM.norm>
0

>  <SCORE.heavy>
22

>  <SCORE.norm>
-0.564105

>  <RMSD>
14.326

$$$$
lig.pdb
 OpenBabel11021811523D
libRbt.so/2013.1/901 2013/11/27
 22 23  0  0  0  0  0  0  0  0999 V2000
   13.0803  -49.8405  -49.0502 O   0  0  0  0  0  0  0  0  0  0  0  0
   11.9650  -50.1877  -48.6941 C   0  0  0  0  0  0  0  0  0  0  0  0
   10.9127  -50.1157  -49.5091 N   0  0  0  0  0  0  0  0  0  0  0  0
   11.7616  -50.6930  -47.3068 C   0  0  0  0  0  0  0  0  0  0  0  0
   10.4618  -51.1179  -46.7636 C   0  0  0  0  0  0  0  0  0  0  0  0
    9.1997  -51.1022  -47.4916 N   0  0  0  0  0  0  0  0  0  0  0  0
   12.6145  -50.8928  -46.2779 N   0  0  0  0  0  0  0  0  0  0  0  0
   11.9011  -51.3868  -45.2189 C   0  0  0  0  0  0  0  0  0  0  0  0
   10.5895  -51.5256  -45.5111 N   0  0  0  0  0  0  0  0  0  0  0  0
    9.5162  -52.0294  -44.6228 C   0  0  1  0  0  0  0  0  0  0  0  0
    9.9158  -53.3596  -44.0057 C   0  0  1  0  0  0  0  0  0  0  0  0
    9.2491  -53.3203  -42.6546 C   0  0  2  0  0  0  0  0  0  0  0  0
    7.8954  -53.7606  -42.7804 O   0  0  0  0  0  0  0  0  0  0  0  0
    9.4130  -54.4552  -44.7717 O   0  0  0  0  0  0  0  0  0  0  0  0
    9.2799  -51.1286  -43.5344 O   0  0  0  0  0  0  0  0  0  0  0  0
    9.2592  -51.8464  -42.2982 C   0  0  2  0  0  0  0  0  0  0  0  0
   10.4952  -51.5173  -41.4753 C   0  0  0  0  0  0  0  0  0  0  0  0
   10.3352  -50.2107  -40.9254 O   0  0  0  0  0  0  0  0  0  0  0  0
   11.4462  -49.5643  -39.9540 P   0  0  0  0  0  0  0  0  0  0  0  0
   12.6714  -49.3909  -40.8215 O   0  0  0  0  0  0  0  0  0  0  0  0
   11.5973  -50.6026  -38.8675 O   0  0  0  0  0  0  0  0  0  0  0  0
   10.8108  -48.2680  -39.5090 O   0  0  0  0  0  0  0  0  0  0  0  0
  1  2  2  0  0  0  0
  2  4  1  0  0  0  0
  2  3  1  0  0  0  0
  4  7  1  0  0  0  0
  5  9  1  0  0  0  0
  5  4  2  0  0  0  0
  6  5  1  0  0  0  0
  8  7  2  0  0  0  0
  9  8  1  0  0  0  0
 10 15  1  0  0  0  0
 10  9  1  6  0  0  0
 10 11  1  0  0  0  0
 11 14  1  6  0  0  0
 11 12  1  0  0  0  0
 12 13  1  6  0  0  0
 15 16  1  0  0  0  0
 16 12  1  0  0  0  0
 16 17  1  1  0  0  0
 17 18  1  0  0  0  0
 18 19  1  0  0  0  0
 19 21  1  0  0  0  0
 19 20  1  0  0  0  0
 22 19  2  0  0  0  0
M  END
>  <CHROM.1>
179.00844243,128.77186126,-167.98648974,177.93251048,65.43449134,10.68987661
-51.09257318,-43.83112238,-1.50241151,0.86855494,1.42896340

>  <Name>
lig.pdb

>  <RI>
0

>  <Rbt.Current_Directory>
/home/itssahil/PROJECTS/Mol_Feturizer/New_Systems/rnas/5btp

>  <Rbt.Executable>
rbdock ($Id: //depot/dev/client3/rdock/2013.1/src/exe/rbdock.cxx#4 $)

>  <Rbt.Library>
libRbt.so (2013.1, Build901 2013/11/27)

>  <Rbt.Parameter_File>
/export/apps/rDock/src/rDock_2013.1_src/data/scripts/dock_solv.prm

>  <Rbt.Receptor>
prm/blind_docking_80.prm

>  <SCORE>
-13.9005

>  <SCORE.INTER>
-12.7694

>  <SCORE.INTER.CONST>
1

>  <SCORE.INTER.POLAR>
0

>  <SCORE.INTER.ROT>
5

>  <SCORE.INTER.SOLV>
19.7186

>  <SCORE.INTER.VDW>
-22.0191

>  <SCORE.INTER.norm>
-0.580429

>  <SCORE.INTRA>
-1.13108

>  <SCORE.INTRA.DIHEDRAL>
-1.23085

>  <SCORE.INTRA.DIHEDRAL.0>
4.21161

>  <SCORE.INTRA.POLAR>
0

>  <SCORE.INTRA.POLAR.0>
0

>  <SCORE.INTRA.REPUL>
0

>  <SCORE.INTRA.REPUL.0>
0

>  <SCORE.INTRA.SOLV>
-0.397082

>  <SCORE.INTRA.SOLV.lig_0>
-41.4168

>  <SCORE.INTRA.VDW>
-0.31711

>  <SCORE.INTRA.VDW.0>
-1.62533

>  <SCORE.INTRA.norm>
-0.0514126

>  <SCORE.RESTR>
0

>  <SCORE.RESTR.CAVITY>
0

>  <SCORE.RESTR.norm>
0

>  <SCORE.SYSTEM>
0

>  <SCORE.SYSTEM.CONST>
0

>  <SCORE.SYSTEM.DIHEDRAL>
0

>  <SCORE.SYSTEM.SOLV>
0

>  <SCORE.SYSTEM.norm>
0

>  <SCORE.heavy>
22

>  <SCORE.norm>
-0.631841

>  <RMSD>
14.332

$$$$
lig.pdb
 OpenBabel11021811523D
libRbt.so/2013.1/901 2013/11/27
 22 23  0  0  0  0  0  0  0  0999 V2000
    8.8348  -54.0305  -40.1720 O   0  0  0  0  0  0  0  0  0  0  0  0
    9.1820  -53.0551  -40.8195 C   0  0  0  0  0  0  0  0  0  0  0  0
    9.8453  -52.0417  -40.2629 N   0  0  0  0  0  0  0  0  0  0  0  0
    8.8462  -52.9792  -42.2695 C   0  0  0  0  0  0  0  0  0  0  0  0
    9.5316  -52.1030  -43.2325 C   0  0  0  0  0  0  0  0  0  0  0  0
   10.6212  -51.1901  -42.9123 N   0  0  0  0  0  0  0  0  0  0  0  0
    7.9322  -53.6262  -43.0261 N   0  0  0  0  0  0  0  0  0  0  0  0
    8.0524  -53.1836  -44.3161 C   0  0  0  0  0  0  0  0  0  0  0  0
    9.0258  -52.2560  -44.4458 N   0  0  0  0  0  0  0  0  0  0  0  0
    9.4453  -51.5559  -45.6823 C   0  0  1  0  0  0  0  0  0  0  0  0
   10.9318  -51.7541  -45.9286 C   0  0  1  0  0  0  0  0  0  0  0  0
   11.0282  -51.7601  -47.4328 C   0  0  2  0  0  0  0  0  0  0  0  0
   11.1065  -50.4149  -47.9086 O   0  0  0  0  0  0  0  0  0  0  0  0
   11.6925  -50.6717  -45.3904 O   0  0  0  0  0  0  0  0  0  0  0  0
    8.7674  -52.0812  -46.8297 O   0  0  0  0  0  0  0  0  0  0  0  0
    9.7074  -52.3635  -47.8692 C   0  0  2  0  0  0  0  0  0  0  0  0
    9.8559  -53.8658  -48.0536 C   0  0  0  0  0  0  0  0  0  0  0  0
   10.1698  -54.4459  -46.7887 O   0  0  0  0  0  0  0  0  0  0  0  0
   10.4504  -56.0248  -46.6329 P   0  0  0  0  0  0  0  0  0  0  0  0
   10.7062  -56.2332  -45.1582 O   0  0  0  0  0  0  0  0  0  0  0  0
   11.6601  -56.2461  -47.5097 O   0  0  0  0  0  0  0  0  0  0  0  0
    9.1756  -56.6586  -47.1386 O   0  0  0  0  0  0  0  0  0  0  0  0
  1  2  2  0  0  0  0
  2  4  1  0  0  0  0
  2  3  1  0  0  0  0
  4  7  1  0  0  0  0
  5  9  1  0  0  0  0
  5  4  2  0  0  0  0
  6  5  1  0  0  0  0
  8  7  2  0  0  0  0
  9  8  1  0  0  0  0
 10 15  1  0  0  0  0
 10  9  1  1  0  0  0
 10 11  1  0  0  0  0
 11 14  1  1  0  0  0
 11 12  1  0  0  0  0
 12 13  1  6  0  0  0
 15 16  1  0  0  0  0
 16 12  1  0  0  0  0
 16 17  1  1  0  0  0
 17 18  1  0  0  0  0
 18 19  1  0  0  0  0
 19 21  1  0  0  0  0
 19 20  1  0  0  0  0
 22 19  2  0  0  0  0
M  END
>  <CHROM.1>
-160.45123109,55.69590757,63.81762107,-177.66850071,-178.65970430,9.90756787
-53.32257027,-45.15021483,2.51154713,1.32602321,0.36276638

>  <Name>
lig.pdb

>  <RI>
0

>  <Rbt.Current_Directory>
/home/itssahil/PROJECTS/Mol_Feturizer/New_Systems/rnas/5btp

>  <Rbt.Executable>
rbdock ($Id: //depot/dev/client3/rdock/2013.1/src/exe/rbdock.cxx#4 $)

>  <Rbt.Library>
libRbt.so (2013.1, Build901 2013/11/27)

>  <Rbt.Parameter_File>
/export/apps/rDock/src/rDock_2013.1_src/data/scripts/dock_solv.prm

>  <Rbt.Receptor>
prm/blind_docking_100.prm

>  <SCORE>
-11.3423

>  <SCORE.INTER>
-10.9254

>  <SCORE.INTER.CONST>
1

>  <SCORE.INTER.POLAR>
0

>  <SCORE.INTER.ROT>
5

>  <SCORE.INTER.SOLV>
13.6206

>  <SCORE.INTER.VDW>
-18.7571

>  <SCORE.INTER.norm>
-0.496608

>  <SCORE.INTRA>
-0.416943

>  <SCORE.INTRA.DIHEDRAL>
-0.43722

>  <SCORE.INTRA.DIHEDRAL.0>
4.21161

>  <SCORE.INTRA.POLAR>
0

>  <SCORE.INTRA.POLAR.0>
0

>  <SCORE.INTRA.REPUL>
0

>  <SCORE.INTRA.REPUL.0>
0

>  <SCORE.INTRA.SOLV>
1.49876

>  <SCORE.INTRA.SOLV.lig_0>
-41.4168

>  <SCORE.INTRA.VDW>
-0.947716

>  <SCORE.INTRA.VDW.0>
-1.62533

>  <SCORE.INTRA.norm>
-0.018952

>  <SCORE.RESTR>
0

>  <SCORE.RESTR.CAVITY>
0

>  <SCORE.RESTR.norm>
0

>  <SCORE.SYSTEM>
0

>  <SCORE.SYSTEM.CONST>
0

>  <SCORE.SYSTEM.DIHEDRAL>
0

>  <SCORE.SYSTEM.SOLV>
0

>  <SCORE.SYSTEM.norm>
0

>  <SCORE.heavy>
22

>  <SCORE.norm>
-0.51556

>  <RMSD>
14.446

$$$$
lig.pdb
 OpenBabel11021811523D
libRbt.so/2013.1/901 2013/11/27
 22 23  0  0  0  0  0  0  0  0999 V2000
   15.0128  -50.2788  -32.8408 O   0  0  0  0  0  0  0  0  0  0  0  0
   16.2170  -50.0820  -32.8877 C   0  0  0  0  0  0  0  0  0  0  0  0
   17.0653  -51.0148  -33.3202 N   0  0  0  0  0  0  0  0  0  0  0  0
   16.7648  -48.7713  -32.4369 C   0  0  0  0  0  0  0  0  0  0  0  0
   15.9484  -47.6809  -31.8806 C   0  0  0  0  0  0  0  0  0  0  0  0
   14.5036  -47.7210  -31.6963 N   0  0  0  0  0  0  0  0  0  0  0  0
   18.0210  -48.2742  -32.4034 N   0  0  0  0  0  0  0  0  0  0  0  0
   17.9682  -47.0098  -31.8810 C   0  0  0  0  0  0  0  0  0  0  0  0
   16.7074  -46.6450  -31.5612 N   0  0  0  0  0  0  0  0  0  0  0  0
   16.2621  -45.3597  -30.9742 C   0  0  1  0  0  0  0  0  0  0  0  0
   16.7434  -45.2346  -29.5380 C   0  0  1  0  0  0  0  0  0  0  0  0
   16.9677  -43.7522  -29.3837 C   0  0  2  0  0  0  0  0  0  0  0  0
   15.7321  -43.1177  -29.0479 O   0  0  0  0  0  0  0  0  0  0  0  0
   15.7450  -45.6802  -28.6190 O   0  0  0  0  0  0  0  0  0  0  0  0
   16.8127  -44.2465  -31.6881 O   0  0  0  0  0  0  0  0  0  0  0  0
   17.3889  -43.3120  -30.7723 C   0  0  2  0  0  0  0  0  0  0  0  0
   18.9054  -43.3268  -30.8865 C   0  0  0  0  0  0  0  0  0  0  0  0
   19.4395  -42.4390  -29.9058 O   0  0  0  0  0  0  0  0  0  0  0  0
   21.0204  -42.1433  -29.8097 P   0  0  0  0  0  0  0  0  0  0  0  0
   21.3637  -41.4284  -31.0960 O   0  0  0  0  0  0  0  0  0  0  0  0
   21.6204  -43.5240  -29.6881 O   0  0  0  0  0  0  0  0  0  0  0  0
   21.1418  -41.2872  -28.5709 O   0  0  0  0  0  0  0  0  0  0  0  0
  1  2  2  0  0  0  0
  2  4  1  0  0  0  0
  2  3  1  0  0  0  0
  4  7  1  0  0  0  0
  5  9  1  0  0  0  0
  5  4  2  0  0  0  0
  6  5  1  0  0  0  0
  8  7  2  0  0  0  0
  9  8  1  0  0  0  0
 10 15  1  0  0  0  0
 10  9  1  6  0  0  0
 10 11  1  0  0  0  0
 11 14  1  1  0  0  0
 11 12  1  0  0  0  0
 12 13  1  6  0  0  0
 15 16  1  0  0  0  0
 16 12  1  0  0  0  0
 16 17  1  1  0  0  0
 17 18  1  0  0  0  0
 18 19  1  0  0  0  0
 19 21  1  0  0  0  0
 19 20  1  0  0  0  0
 22 19  2  0  0  0  0
M  END
>  <CHROM.1>
2.24128571,110.59714183,-59.44439069,-176.14631978,65.53986802,17.85030160
-45.25915321,-30.83406476,-2.11924022,0.25264565,0.51330216

>  <Name>
lig.pdb

>  <RI>
0

>  <Rbt.Current_Directory>
/home/itssahil/PROJECTS/Mol_Feturizer/New_Systems/rnas/5btp

>  <Rbt.Executable>
rbdock ($Id: //depot/dev/client3/rdock/2013.1/src/exe/rbdock.cxx#4 $)

>  <Rbt.Library>
libRbt.so (2013.1, Build901 2013/11/27)

>  <Rbt.Parameter_File>
/export/apps/rDock/src/rDock_2013.1_src/data/scripts/dock_solv.prm

>  <Rbt.Receptor>
prm/blind_docking_100.prm

>  <SCORE>
-11.9693

>  <SCORE.INTER>
-10.7082

>  <SCORE.INTER.CONST>
1

>  <SCORE.INTER.POLAR>
0

>  <SCORE.INTER.ROT>
5

>  <SCORE.INTER.SOLV>
11.8571

>  <SCORE.INTER.VDW>
-18.0245

>  <SCORE.INTER.norm>
-0.486737

>  <SCORE.INTRA>
-1.26108

>  <SCORE.INTRA.DIHEDRAL>
-1.6465

>  <SCORE.INTRA.DIHEDRAL.0>
4.21161

>  <SCORE.INTRA.POLAR>
0

>  <SCORE.INTRA.POLAR.0>
0

>  <SCORE.INTRA.REPUL>
0

>  <SCORE.INTRA.REPUL.0>
0

>  <SCORE.INTRA.SOLV>
-0.266361

>  <SCORE.INTRA.SOLV.lig_0>
-41.4168

>  <SCORE.INTRA.VDW>
-0.304653

>  <SCORE.INTRA.VDW.0>
-1.62533

>  <SCORE.INTRA.norm>
-0.057322

>  <SCORE.RESTR>
0

>  <SCORE.RESTR.CAVITY>
0

>  <SCORE.RESTR.norm>
0

>  <SCORE.SYSTEM>
0

>  <SCORE.SYSTEM.CONST>
0

>  <SCORE.SYSTEM.DIHEDRAL>
0

>  <SCORE.SYSTEM.SOLV>
0

>  <SCORE.SYSTEM.norm>
0

>  <SCORE.heavy>
22

>  <SCORE.norm>
-0.544059

>  <RMSD>
14.459

$$$$
lig.pdb
 OpenBabel11021811523D
libRbt.so/2013.1/901 2013/11/27
 22 23  0  0  0  0  0  0  0  0999 V2000
   10.2994  -50.0769  -50.1239 O   0  0  0  0  0  0  0  0  0  0  0  0
   10.8400  -49.9127  -49.0414 C   0  0  0  0  0  0  0  0  0  0  0  0
   11.4511  -48.7705  -48.7269 N   0  0  0  0  0  0  0  0  0  0  0  0
   10.8352  -51.0193  -48.0431 C   0  0  0  0  0  0  0  0  0  0  0  0
   10.2789  -52.3579  -48.2948 C   0  0  0  0  0  0  0  0  0  0  0  0
    9.6553  -52.7900  -49.5389 N   0  0  0  0  0  0  0  0  0  0  0  0
   11.2969  -51.1022  -46.7757 N   0  0  0  0  0  0  0  0  0  0  0  0
   11.0431  -52.3638  -46.3084 C   0  0  0  0  0  0  0  0  0  0  0  0
   10.4234  -53.1317  -47.2310 N   0  0  0  0  0  0  0  0  0  0  0  0
    9.9955  -54.5430  -47.0892 C   0  0  1  0  0  0  0  0  0  0  0  0
   11.0408  -55.4780  -47.6749 C   0  0  1  0  0  0  0  0  0  0  0  0
   10.9306  -56.7002  -46.7997 C   0  0  2  0  0  0  0  0  0  0  0  0
    9.8787  -57.5374  -47.2842 O   0  0  0  0  0  0  0  0  0  0  0  0
   10.7330  -55.8122  -49.0289 O   0  0  0  0  0  0  0  0  0  0  0  0
    9.8510  -54.9039  -45.7105 O   0  0  0  0  0  0  0  0  0  0  0  0
   10.5314  -56.1342  -45.4508 C   0  0  2  0  0  0  0  0  0  0  0  0
   11.7691  -55.8848  -44.6029 C   0  0  0  0  0  0  0  0  0  0  0  0
   11.3816  -55.8836  -43.2300 O   0  0  0  0  0  0  0  0  0  0  0  0
   10.9437  -54.5265  -42.4800 P   0  0  0  0  0  0  0  0  0  0  0  0
   12.1597  -53.6319  -42.5479 O   0  0  0  0  0  0  0  0  0  0  0  0
   10.5990  -55.0002  -41.0879 O   0  0  0  0  0  0  0  0  0  0  0  0
    9.7677  -54.0403  -43.2942 O   0  0  0  0  0  0  0  0  0  0  0  0
  1  2  2  0  0  0  0
  2  4  1  0  0  0  0
  2  3  1  0  0  0  0
  4  7  1  0  0  0  0
  5  9  1  0  0  0  0
  5  4  2  0  0  0  0
  6  5  1  0  0  0  0
  8  7  2  0  0  0  0
  9  8  1  0  0  0  0
 10 15  1  0  0  0  0
 10  9  1  1  0  0  0
 10 11  1  0  0  0  0
 11 14  1  6  0  0  0
 11 12  1  0  0  0  0
 12 13  1  6  0  0  0
 15 16  1  0  0  0  0
 16 12  1  0  0  0  0
 16 17  1  1  0  0  0
 17 18  1  0  0  0  0
 18 19  1  0  0  0  0
 19 21  1  0  0  0  0
 19 20  1  0  0  0  0
 22 19  2  0  0  0  0
M  END
>  <CHROM.1>
3.63745383,83.38496220,-156.87336874,-90.81645498,-61.20405699,10.72067515
-53.82222867,-46.08498786,-1.82958272,1.42016322,2.45665462

>  <Name>
lig.pdb

>  <RI>
0

>  <Rbt.Current_Directory>
/home/itssahil/PROJECTS/Mol_Feturizer/New_Systems/rnas/5btp

>  <Rbt.Executable>
rbdock ($Id: //depot/dev/client3/rdock/2013.1/src/exe/rbdock.cxx#4 $)

>  <Rbt.Library>
libRbt.so (2013.1, Build901 2013/11/27)

>  <Rbt.Parameter_File>
/export/apps/rDock/src/rDock_2013.1_src/data/scripts/dock_solv.prm

>  <Rbt.Receptor>
prm/blind_docking_100.prm

>  <SCORE>
-6.44375

>  <SCORE.INTER>
-8.24919

>  <SCORE.INTER.CONST>
1

>  <SCORE.INTER.POLAR>
0

>  <SCORE.INTER.ROT>
5

>  <SCORE.INTER.SOLV>
12.5328

>  <SCORE.INTER.VDW>
-16.6104

>  <SCORE.INTER.norm>
-0.374963

>  <SCORE.INTRA>
1.80544

>  <SCORE.INTRA.DIHEDRAL>
3.69981

>  <SCORE.INTRA.DIHEDRAL.0>
4.21161

>  <SCORE.INTRA.POLAR>
0

>  <SCORE.INTRA.POLAR.0>
0

>  <SCORE.INTRA.REPUL>
0

>  <SCORE.INTRA.REPUL.0>
0

>  <SCORE.INTRA.SOLV>
2.01659

>  <SCORE.INTRA.SOLV.lig_0>
-41.4168

>  <SCORE.INTRA.VDW>
-1.05275

>  <SCORE.INTRA.VDW.0>
-1.62533

>  <SCORE.INTRA.norm>
0.0820657

>  <SCORE.RESTR>
0

>  <SCORE.RESTR.CAVITY>
0

>  <SCORE.RESTR.norm>
0

>  <SCORE.SYSTEM>
0

>  <SCORE.SYSTEM.CONST>
0

>  <SCORE.SYSTEM.DIHEDRAL>
0

>  <SCORE.SYSTEM.SOLV>
0

>  <SCORE.SYSTEM.norm>
0

>  <SCORE.heavy>
22

>  <SCORE.norm>
-0.292898

>  <RMSD>
14.529

$$$$
lig.pdb
 OpenBabel11021811523D
libRbt.so/2013.1/901 2013/11/27
 22 23  0  0  0  0  0  0  0  0999 V2000
    9.4409  -56.0538  -48.9218 O   0  0  0  0  0  0  0  0  0  0  0  0
   10.1264  -56.7525  -48.1916 C   0  0  0  0  0  0  0  0  0  0  0  0
   10.4305  -58.0116  -48.5063 N   0  0  0  0  0  0  0  0  0  0  0  0
   10.6290  -56.1962  -46.9035 C   0  0  0  0  0  0  0  0  0  0  0  0
   10.3603  -54.8285  -46.4323 C   0  0  0  0  0  0  0  0  0  0  0  0
    9.5779  -53.8298  -47.1490 N   0  0  0  0  0  0  0  0  0  0  0  0
   11.3767  -56.7306  -45.9127 N   0  0  0  0  0  0  0  0  0  0  0  0
   11.5442  -55.7803  -44.9415 C   0  0  0  0  0  0  0  0  0  0  0  0
   10.9263  -54.6204  -45.2543 N   0  0  0  0  0  0  0  0  0  0  0  0
   10.8849  -53.3758  -44.4518 C   0  0  1  0  0  0  0  0  0  0  0  0
   12.2815  -52.9925  -43.9906 C   0  0  1  0  0  0  0  0  0  0  0  0
   12.2289  -51.4863  -43.9666 C   0  0  2  0  0  0  0  0  0  0  0  0
   11.6752  -51.0507  -42.7233 O   0  0  0  0  0  0  0  0  0  0  0  0
   12.5489  -53.4972  -42.6816 O   0  0  0  0  0  0  0  0  0  0  0  0
   10.3946  -52.2759  -45.2275 O   0  0  0  0  0  0  0  0  0  0  0  0
   11.2620  -51.1485  -45.0847 C   0  0  2  0  0  0  0  0  0  0  0  0
   12.0248  -50.9016  -46.3771 C   0  0  0  0  0  0  0  0  0  0  0  0
   11.1378  -50.2933  -47.3142 O   0  0  0  0  0  0  0  0  0  0  0  0
   11.6205  -49.9078  -48.8023 P   0  0  0  0  0  0  0  0  0  0  0  0
   13.0186  -49.3605  -48.6308 O   0  0  0  0  0  0  0  0  0  0  0  0
   10.6017  -48.8814  -49.2380 O   0  0  0  0  0  0  0  0  0  0  0  0
   11.5538  -51.2224  -49.5436 O   0  0  0  0  0  0  0  0  0  0  0  0
  1  2  2  0  0  0  0
  2  4  1  0  0  0  0
  2  3  1  0  0  0  0
  4  7  1  0  0  0  0
  5  9  1  0  0  0  0
  5  4  2  0  0  0  0
  6  5  1  0  0  0  0
  8  7  2  0  0  0  0
  9  8  1  0  0  0  0
 10 15  1  0  0  0  0
 10  9  1  6  0  0  0
 10 11  1  0  0  0  0
 11 14  1  1  0  0  0
 11 12  1  0  0  0  0
 12 13  1  1  0  0  0
 15 16  1  0  0  0  0
 16 12  1  0  0  0  0
 16 17  1  6  0  0  0
 17 18  1  0  0  0  0
 18 19  1  0  0  0  0
 19 21  1  0  0  0  0
 19 20  1  0  0  0  0
 22 19  2  0  0  0  0
M  END
>  <CHROM.1>
-0.28080504,-131.11239524,-166.76415742,-179.36667143,-40.01753205,11.20271896
-52.85559870,-46.53306032,2.19937655,1.30395586,2.32916259

>  <Name>
lig.pdb

>  <RI>
0

>  <Rbt.Current_Directory>
/home/itssahil/PROJECTS/Mol_Feturizer/New_Systems/rnas/5btp

>  <Rbt.Executable>
rbdock ($Id: //depot/dev/client3/rdock/2013.1/src/exe/rbdock.cxx#4 $)

>  <Rbt.Library>
libRbt.so (2013.1, Build901 2013/11/27)

>  <Rbt.Parameter_File>
/export/apps/rDock/src/rDock_2013.1_src/data/scripts/dock_solv.prm

>  <Rbt.Receptor>
prm/blind_docking_100.prm

>  <SCORE>
-11.6369

>  <SCORE.INTER>
-11.5151

>  <SCORE.INTER.CONST>
1

>  <SCORE.INTER.POLAR>
0

>  <SCORE.INTER.ROT>
5

>  <SCORE.INTER.SOLV>
11.7206

>  <SCORE.INTER.VDW>
-18.5169

>  <SCORE.INTER.norm>
-0.523413

>  <SCORE.INTRA>
-0.12177

>  <SCORE.INTRA.DIHEDRAL>
-0.589866

>  <SCORE.INTRA.DIHEDRAL.0>
4.21161

>  <SCORE.INTRA.POLAR>
0

>  <SCORE.INTRA.POLAR.0>
0

>  <SCORE.INTRA.REPUL>
0

>  <SCORE.INTRA.REPUL.0>
0

>  <SCORE.INTRA.SOLV>
0.466581

>  <SCORE.INTRA.SOLV.lig_0>
-41.4168

>  <SCORE.INTRA.VDW>
-0.0601274

>  <SCORE.INTRA.VDW.0>
-1.62533

>  <SCORE.INTRA.norm>
-0.00553502

>  <SCORE.RESTR>
0

>  <SCORE.RESTR.CAVITY>
0

>  <SCORE.RESTR.norm>
0

>  <SCORE.SYSTEM>
0

>  <SCORE.SYSTEM.CONST>
0

>  <SCORE.SYSTEM.DIHEDRAL>
0

>  <SCORE.SYSTEM.SOLV>
0

>  <SCORE.SYSTEM.norm>
0

>  <SCORE.heavy>
22

>  <SCORE.norm>
-0.528948

>  <RMSD>
14.593

$$$$
lig.pdb
 OpenBabel11021811523D
libRbt.so/2013.1/901 2013/11/27
 22 23  0  0  0  0  0  0  0  0999 V2000
    8.2825  -54.8890  -40.5115 O   0  0  0  0  0  0  0  0  0  0  0  0
    8.8082  -53.8503  -40.8802 C   0  0  0  0  0  0  0  0  0  0  0  0
    9.5257  -53.0927  -40.0507 N   0  0  0  0  0  0  0  0  0  0  0  0
    8.6361  -53.4008  -42.2907 C   0  0  0  0  0  0  0  0  0  0  0  0
    9.5326  -52.4539  -42.9723 C   0  0  0  0  0  0  0  0  0  0  0  0
   10.7014  -51.8220  -42.3740 N   0  0  0  0  0  0  0  0  0  0  0  0
    7.7222  -53.7081  -43.2376 N   0  0  0  0  0  0  0  0  0  0  0  0
    8.0345  -53.0147  -44.3762 C   0  0  0  0  0  0  0  0  0  0  0  0
    9.1368  -52.2500  -44.2185 N   0  0  0  0  0  0  0  0  0  0  0  0
    9.7745  -51.3689  -45.2245 C   0  0  1  0  0  0  0  0  0  0  0  0
   11.1833  -51.8471  -45.5349 C   0  0  1  0  0  0  0  0  0  0  0  0
   11.3553  -51.4759  -46.9856 C   0  0  2  0  0  0  0  0  0  0  0  0
   11.7737  -50.1128  -47.0801 O   0  0  0  0  0  0  0  0  0  0  0  0
   12.1481  -51.1637  -44.7337 O   0  0  0  0  0  0  0  0  0  0  0  0
    9.0537  -51.3904  -46.4622 O   0  0  0  0  0  0  0  0  0  0  0  0
    9.9544  -51.6042  -47.5516 C   0  0  2  0  0  0  0  0  0  0  0  0
    9.7541  -52.9930  -48.1382 C   0  0  0  0  0  0  0  0  0  0  0  0
    9.6755  -53.9284  -47.0639 O   0  0  0  0  0  0  0  0  0  0  0  0
    9.4778  -55.5047  -47.3328 P   0  0  0  0  0  0  0  0  0  0  0  0
    8.3094  -55.5953  -48.2868 O   0  0  0  0  0  0  0  0  0  0  0  0
    9.1975  -56.0550  -45.9545 O   0  0  0  0  0  0  0  0  0  0  0  0
   10.8006  -55.9270  -47.9279 O   0  0  0  0  0  0  0  0  0  0  0  0
  1  2  2  0  0  0  0
  2  4  1  0  0  0  0
  2  3  1  0  0  0  0
  4  7  1  0  0  0  0
  5  9  1  0  0  0  0
  5  4  2  0  0  0  0
  6  5  1  0  0  0  0
  8  7  2  0  0  0  0
  9  8  1  0  0  0  0
 10 15  1  0  0  0  0
 10  9  1  1  0  0  0
 10 11  1  0  0  0  0
 11 14  1  1  0  0  0
 11 12  1  0  0  0  0
 12 13  1  1  0  0  0
 15 16  1  0  0  0  0
 16 12  1  0  0  0  0
 16 17  1  1  0  0  0
 17 18  1  0  0  0  0
 18 19  1  0  0  0  0
 19 21  1  0  0  0  0
 19 20  1  0  0  0  0
 22 19  2  0  0  0  0
M  END
>  <CHROM.1>
-159.16436830,62.55383633,71.48832293,-179.40324396,-50.05477338,9.68208846
-53.23345750,-45.17361779,1.91344227,1.09764021,1.18357831

>  <Name>
lig.pdb

>  <RI>
0

>  <Rbt.Current_Directory>
/home/itssahil/PROJECTS/Mol_Feturizer/New_Systems/rnas/5btp

>  <Rbt.Executable>
rbdock ($Id: //depot/dev/client3/rdock/2013.1/src/exe/rbdock.cxx#4 $)

>  <Rbt.Library>
libRbt.so (2013.1, Build901 2013/11/27)

>  <Rbt.Parameter_File>
/export/apps/rDock/src/rDock_2013.1_src/data/scripts/dock_solv.prm

>  <Rbt.Receptor>
prm/blind_docking_100.prm

>  <SCORE>
-11.4481

>  <SCORE.INTER>
-11.0207

>  <SCORE.INTER.CONST>
1

>  <SCORE.INTER.POLAR>
0

>  <SCORE.INTER.ROT>
5

>  <SCORE.INTER.SOLV>
16.5274

>  <SCORE.INTER.VDW>
-19.7896

>  <SCORE.INTER.norm>
-0.500941

>  <SCORE.INTRA>
-0.427368

>  <SCORE.INTRA.DIHEDRAL>
0.266111

>  <SCORE.INTRA.DIHEDRAL.0>
4.21161

>  <SCORE.INTRA.POLAR>
0

>  <SCORE.INTRA.POLAR.0>
0

>  <SCORE.INTRA.REPUL>
0

>  <SCORE.INTRA.REPUL.0>
0

>  <SCORE.INTRA.SOLV>
1.47114

>  <SCORE.INTRA.SOLV.lig_0>
-41.4168

>  <SCORE.INTRA.VDW>
-1.29599

>  <SCORE.INTRA.VDW.0>
-1.62533

>  <SCORE.INTRA.norm>
-0.0194258

>  <SCORE.RESTR>
0

>  <SCORE.RESTR.CAVITY>
0

>  <SCORE.RESTR.norm>
0

>  <SCORE.SYSTEM>
0

>  <SCORE.SYSTEM.CONST>
0

>  <SCORE.SYSTEM.DIHEDRAL>
0

>  <SCORE.SYSTEM.SOLV>
0

>  <SCORE.SYSTEM.norm>
0

>  <SCORE.heavy>
22

>  <SCORE.norm>
-0.520367

>  <RMSD>
14.632

$$$$
lig.pdb
 OpenBabel11021811523D
libRbt.so/2013.1/901 2013/11/27
 22 23  0  0  0  0  0  0  0  0999 V2000
   16.8841  -43.2067  -27.6653 O   0  0  0  0  0  0  0  0  0  0  0  0
   17.5380  -42.8699  -28.6400 C   0  0  0  0  0  0  0  0  0  0  0  0
   18.2111  -41.7198  -28.6717 N   0  0  0  0  0  0  0  0  0  0  0  0
   17.5787  -43.7552  -29.8383 C   0  0  0  0  0  0  0  0  0  0  0  0
   16.9262  -45.0716  -29.9167 C   0  0  0  0  0  0  0  0  0  0  0  0
   16.1592  -45.6959  -28.8465 N   0  0  0  0  0  0  0  0  0  0  0  0
   18.1492  -43.6124  -31.0550 N   0  0  0  0  0  0  0  0  0  0  0  0
   17.8707  -44.7313  -31.7934 C   0  0  0  0  0  0  0  0  0  0  0  0
   17.1257  -45.6222  -31.1034 N   0  0  0  0  0  0  0  0  0  0  0  0
   16.6311  -46.9381  -31.5712 C   0  0  1  0  0  0  0  0  0  0  0  0
   15.1413  -46.8736  -31.8646 C   0  0  1  0  0  0  0  0  0  0  0  0
   14.9775  -47.8485  -33.0024 C   0  0  2  0  0  0  0  0  0  0  0  0
   14.8392  -49.1707  -32.4781 O   0  0  0  0  0  0  0  0  0  0  0  0
   14.3748  -47.2990  -30.7370 O   0  0  0  0  0  0  0  0  0  0  0  0
   17.2715  -47.3274  -32.7919 O   0  0  0  0  0  0  0  0  0  0  0  0
   16.2942  -47.7466  -33.7475 C   0  0  2  0  0  0  0  0  0  0  0  0
   16.1808  -46.7264  -34.8697 C   0  0  0  0  0  0  0  0  0  0  0  0
   17.3188  -46.8629  -35.7190 O   0  0  0  0  0  0  0  0  0  0  0  0
   17.3784  -46.1578  -37.1665 P   0  0  0  0  0  0  0  0  0  0  0  0
   17.0409  -44.7075  -36.9095 O   0  0  0  0  0  0  0  0  0  0  0  0
   16.3321  -46.9078  -37.9564 O   0  0  0  0  0  0  0  0  0  0  0  0
   18.8019  -46.3953  -37.6133 O   0  0  0  0  0  0  0  0  0  0  0  0
  1  2  2  0  0  0  0
  2  4  1  0  0  0  0
  2  3  1  0  0  0  0
  4  7  1  0  0  0  0
  5  9  1  0  0  0  0
  5  4  2  0  0  0  0
  6  5  1  0  0  0  0
  8  7  2  0  0  0  0
  9  8  1  0  0  0  0
 10 15  1  0  0  0  0
 10  9  1  6  0  0  0
 10 11  1  0  0  0  0
 11 14  1  1  0  0  0
 11 12  1  0  0  0  0
 12 13  1  1  0  0  0
 15 16  1  0  0  0  0
 16 12  1  0  0  0  0
 16 17  1  6  0  0  0
 17 18  1  0  0  0  0
 18 19  1  0  0  0  0
 19 21  1  0  0  0  0
 19 20  1  0  0  0  0
 22 19  2  0  0  0  0
M  END
>  <CHROM.1>
-3.16624825,74.20752131,-167.61001404,167.15060499,52.03499790,16.79532813
-45.85562264,-32.82398979,-1.57092917,-0.96453597,-1.90033313

>  <Name>
lig.pdb

>  <RI>
0

>  <Rbt.Current_Directory>
/home/itssahil/PROJECTS/Mol_Feturizer/New_Systems/rnas/5btp

>  <Rbt.Executable>
rbdock ($Id: //depot/dev/client3/rdock/2013.1/src/exe/rbdock.cxx#4 $)

>  <Rbt.Library>
libRbt.so (2013.1, Build901 2013/11/27)

>  <Rbt.Parameter_File>
/export/apps/rDock/src/rDock_2013.1_src/data/scripts/dock_solv.prm

>  <Rbt.Receptor>
prm/blind_docking_100.prm

>  <SCORE>
-6.95118

>  <SCORE.INTER>
-6.25555

>  <SCORE.INTER.CONST>
1

>  <SCORE.INTER.POLAR>
0

>  <SCORE.INTER.ROT>
5

>  <SCORE.INTER.SOLV>
11.851

>  <SCORE.INTER.VDW>
-15.054

>  <SCORE.INTER.norm>
-0.284343

>  <SCORE.INTRA>
-0.695637

>  <SCORE.INTRA.DIHEDRAL>
-0.345207

>  <SCORE.INTRA.DIHEDRAL.0>
4.21161

>  <SCORE.INTRA.POLAR>
0

>  <SCORE.INTRA.POLAR.0>
0

>  <SCORE.INTRA.REPUL>
0

>  <SCORE.INTRA.REPUL.0>
0

>  <SCORE.INTRA.SOLV>
-0.0891802

>  <SCORE.INTRA.SOLV.lig_0>
-41.4168

>  <SCORE.INTRA.VDW>
-0.478443

>  <SCORE.INTRA.VDW.0>
-1.62533

>  <SCORE.INTRA.norm>
-0.0316199

>  <SCORE.RESTR>
0

>  <SCORE.RESTR.CAVITY>
0

>  <SCORE.RESTR.norm>
0

>  <SCORE.SYSTEM>
0

>  <SCORE.SYSTEM.CONST>
0

>  <SCORE.SYSTEM.DIHEDRAL>
0

>  <SCORE.SYSTEM.SOLV>
0

>  <SCORE.SYSTEM.norm>
0

>  <SCORE.heavy>
22

>  <SCORE.norm>
-0.315963

>  <RMSD>
14.775

$$$$
lig.pdb
 OpenBabel11021811523D
libRbt.so/2013.1/901 2013/11/27
 22 23  0  0  0  0  0  0  0  0999 V2000
    9.9366  -49.9717  -39.7808 O   0  0  0  0  0  0  0  0  0  0  0  0
   10.6577  -50.2559  -40.7245 C   0  0  0  0  0  0  0  0  0  0  0  0
   11.8433  -49.6737  -40.9035 N   0  0  0  0  0  0  0  0  0  0  0  0
   10.2018  -51.2696  -41.7174 C   0  0  0  0  0  0  0  0  0  0  0  0
   11.0035  -51.7217  -42.8654 C   0  0  0  0  0  0  0  0  0  0  0  0
   12.3405  -51.2470  -43.1974 N   0  0  0  0  0  0  0  0  0  0  0  0
    9.0615  -51.9865  -41.8264 N   0  0  0  0  0  0  0  0  0  0  0  0
    9.1636  -52.7896  -42.9306 C   0  0  0  0  0  0  0  0  0  0  0  0
   10.3452  -52.6312  -43.5658 N   0  0  0  0  0  0  0  0  0  0  0  0
   10.8127  -53.3273  -44.7873 C   0  0  1  0  0  0  0  0  0  0  0  0
    9.6403  -53.9493  -45.5278 C   0  0  1  0  0  0  0  0  0  0  0  0
   10.0633  -53.8560  -46.9714 C   0  0  2  0  0  0  0  0  0  0  0  0
   10.8906  -54.9748  -47.2968 O   0  0  0  0  0  0  0  0  0  0  0  0
    9.4611  -55.3162  -45.1542 O   0  0  0  0  0  0  0  0  0  0  0  0
   11.4328  -52.4126  -45.6988 O   0  0  0  0  0  0  0  0  0  0  0  0
   10.9005  -52.5924  -47.0134 C   0  0  2  0  0  0  0  0  0  0  0  0
   10.0328  -51.4044  -47.3991 C   0  0  0  0  0  0  0  0  0  0  0  0
   10.8822  -50.2805  -47.6237 O   0  0  0  0  0  0  0  0  0  0  0  0
   11.5234  -49.9859  -49.0722 P   0  0  0  0  0  0  0  0  0  0  0  0
   11.6328  -51.3398  -49.7344 O   0  0  0  0  0  0  0  0  0  0  0  0
   12.8517  -49.3505  -48.7362 O   0  0  0  0  0  0  0  0  0  0  0  0
   10.5208  -49.0576  -49.7168 O   0  0  0  0  0  0  0  0  0  0  0  0
  1  2  2  0  0  0  0
  2  4  1  0  0  0  0
  2  3  1  0  0  0  0
  4  7  1  0  0  0  0
  5  9  1  0  0  0  0
  5  4  2  0  0  0  0
  6  5  1  0  0  0  0
  8  7  2  0  0  0  0
  9  8  1  0  0  0  0
 10 15  1  0  0  0  0
 10  9  1  1  0  0  0
 10 11  1  0  0  0  0
 11 14  1  1  0  0  0
 11 12  1  0  0  0  0
 12 13  1  1  0  0  0
 15 16  1  0  0  0  0
 16 12  1  0  0  0  0
 16 17  1  1  0  0  0
 17 18  1  0  0  0  0
 18 19  1  0  0  0  0
 19 21  1  0  0  0  0
 19 20  1  0  0  0  0
 22 19  2  0  0  0  0
M  END
>  <CHROM.1>
-177.89123115,-162.19188467,-171.42194529,88.50152938,-27.71229795,10.75602437
-51.67829824,-45.43949188,-2.00581223,-1.26149776,-1.91420706

>  <Name>
lig.pdb

>  <RI>
0

>  <Rbt.Current_Directory>
/home/itssahil/PROJECTS/Mol_Feturizer/New_Systems/rnas/5btp

>  <Rbt.Executable>
rbdock ($Id: //depot/dev/client3/rdock/2013.1/src/exe/rbdock.cxx#4 $)

>  <Rbt.Library>
libRbt.so (2013.1, Build901 2013/11/27)

>  <Rbt.Parameter_File>
/export/apps/rDock/src/rDock_2013.1_src/data/scripts/dock_solv.prm

>  <Rbt.Receptor>
prm/blind_docking_80.prm

>  <SCORE>
-7.98788

>  <SCORE.INTER>
-10.0902

>  <SCORE.INTER.CONST>
1

>  <SCORE.INTER.POLAR>
0

>  <SCORE.INTER.ROT>
5

>  <SCORE.INTER.SOLV>
15.5292

>  <SCORE.INTER.VDW>
-18.8365

>  <SCORE.INTER.norm>
-0.458644

>  <SCORE.INTRA>
2.10229

>  <SCORE.INTRA.DIHEDRAL>
3.1471

>  <SCORE.INTRA.DIHEDRAL.0>
4.21161

>  <SCORE.INTRA.POLAR>
0

>  <SCORE.INTRA.POLAR.0>
0

>  <SCORE.INTRA.REPUL>
0

>  <SCORE.INTRA.REPUL.0>
0

>  <SCORE.INTRA.SOLV>
0.604101

>  <SCORE.INTRA.SOLV.lig_0>
-41.4168

>  <SCORE.INTRA.VDW>
0.226687

>  <SCORE.INTRA.VDW.0>
-1.62533

>  <SCORE.INTRA.norm>
0.0955584

>  <SCORE.RESTR>
0

>  <SCORE.RESTR.CAVITY>
0

>  <SCORE.RESTR.norm>
0

>  <SCORE.SYSTEM>
0

>  <SCORE.SYSTEM.CONST>
0

>  <SCORE.SYSTEM.DIHEDRAL>
0

>  <SCORE.SYSTEM.SOLV>
0

>  <SCORE.SYSTEM.norm>
0

>  <SCORE.heavy>
22

>  <SCORE.norm>
-0.363086

>  <RMSD>
14.986

$$$$
lig.pdb
 OpenBabel11021811523D
libRbt.so/2013.1/901 2013/11/27
 22 23  0  0  0  0  0  0  0  0999 V2000
   14.9659  -48.4476  -33.5665 O   0  0  0  0  0  0  0  0  0  0  0  0
   14.1566  -48.8374  -32.7394 C   0  0  0  0  0  0  0  0  0  0  0  0
   13.4698  -49.9675  -32.9062 N   0  0  0  0  0  0  0  0  0  0  0  0
   13.9117  -48.0265  -31.5132 C   0  0  0  0  0  0  0  0  0  0  0  0
   14.5196  -46.7115  -31.2560 C   0  0  0  0  0  0  0  0  0  0  0  0
   15.4415  -46.0214  -32.1488 N   0  0  0  0  0  0  0  0  0  0  0  0
   13.1426  -48.2377  -30.4222 N   0  0  0  0  0  0  0  0  0  0  0  0
   13.2744  -47.1593  -29.5890 C   0  0  0  0  0  0  0  0  0  0  0  0
   14.1121  -46.2275  -30.0937 N   0  0  0  0  0  0  0  0  0  0  0  0
   14.4959  -44.9339  -29.4818 C   0  0  1  0  0  0  0  0  0  0  0  0
   15.6068  -45.1346  -28.4642 C   0  0  1  0  0  0  0  0  0  0  0  0
   16.3956  -43.8544  -28.5667 C   0  0  2  0  0  0  0  0  0  0  0  0
   15.7904  -42.8568  -27.7416 O   0  0  0  0  0  0  0  0  0  0  0  0
   15.0779  -45.2833  -27.1459 O   0  0  0  0  0  0  0  0  0  0  0  0
   15.0032  -44.0258  -30.4667 O   0  0  0  0  0  0  0  0  0  0  0  0
   16.2368  -43.4568  -30.0214 C   0  0  2  0  0  0  0  0  0  0  0  0
   17.3964  -44.0019  -30.8406 C   0  0  0  0  0  0  0  0  0  0  0  0
   18.3165  -42.9387  -31.0815 O   0  0  0  0  0  0  0  0  0  0  0  0
   19.0444  -42.1646  -29.8704 P   0  0  0  0  0  0  0  0  0  0  0  0
   17.9707  -41.2925  -29.2619 O   0  0  0  0  0  0  0  0  0  0  0  0
   20.1454  -41.3992  -30.5653 O   0  0  0  0  0  0  0  0  0  0  0  0
   19.5183  -43.2843  -28.9737 O   0  0  0  0  0  0  0  0  0  0  0  0
  1  2  2  0  0  0  0
  2  4  1  0  0  0  0
  2  3  1  0  0  0  0
  4  7  1  0  0  0  0
  5  9  1  0  0  0  0
  5  4  2  0  0  0  0
  6  5  1  0  0  0  0
  8  7  2  0  0  0  0
  9  8  1  0  0  0  0
 10 15  1  0  0  0  0
 10  9  1  6  0  0  0
 10 11  1  0  0  0  0
 11 14  1  1  0  0  0
 11 12  1  0  0  0  0
 12 13  1  1  0  0  0
 15 16  1  0  0  0  0
 16 12  1  0  0  0  0
 16 17  1  6  0  0  0
 17 18  1  0  0  0  0
 18 19  1  0  0  0  0
 19 21  1  0  0  0  0
 19 20  1  0  0  0  0
 22 19  2  0  0  0  0
M  END
>  <CHROM.1>
4.37193141,-97.96059711,-101.75404548,60.56462381,-73.67749879,16.08422468
-44.92142566,-30.24943160,-2.43744243,0.66968321,0.97318346

>  <Name>
lig.pdb

>  <RI>
0

>  <Rbt.Current_Directory>
/home/itssahil/PROJECTS/Mol_Feturizer/New_Systems/rnas/5btp

>  <Rbt.Executable>
rbdock ($Id: //depot/dev/client3/rdock/2013.1/src/exe/rbdock.cxx#4 $)

>  <Rbt.Library>
libRbt.so (2013.1, Build901 2013/11/27)

>  <Rbt.Parameter_File>
/export/apps/rDock/src/rDock_2013.1_src/data/scripts/dock_solv.prm

>  <Rbt.Receptor>
prm/blind_docking_80.prm

>  <SCORE>
-8.7736

>  <SCORE.INTER>
-10.8349

>  <SCORE.INTER.CONST>
1

>  <SCORE.INTER.POLAR>
0

>  <SCORE.INTER.ROT>
5

>  <SCORE.INTER.SOLV>
12.1815

>  <SCORE.INTER.VDW>
-18.2171

>  <SCORE.INTER.norm>
-0.492496

>  <SCORE.INTRA>
2.0613

>  <SCORE.INTRA.DIHEDRAL>
2.71023

>  <SCORE.INTRA.DIHEDRAL.0>
4.21161

>  <SCORE.INTRA.POLAR>
0

>  <SCORE.INTRA.POLAR.0>
0

>  <SCORE.INTRA.REPUL>
0

>  <SCORE.INTRA.REPUL.0>
0

>  <SCORE.INTRA.SOLV>
2.94049

>  <SCORE.INTRA.SOLV.lig_0>
-41.4168

>  <SCORE.INTRA.VDW>
-0.764054

>  <SCORE.INTRA.VDW.0>
-1.62533

>  <SCORE.INTRA.norm>
0.0936957

>  <SCORE.RESTR>
0

>  <SCORE.RESTR.CAVITY>
0

>  <SCORE.RESTR.norm>
0

>  <SCORE.SYSTEM>
0

>  <SCORE.SYSTEM.CONST>
0

>  <SCORE.SYSTEM.DIHEDRAL>
0

>  <SCORE.SYSTEM.SOLV>
0

>  <SCORE.SYSTEM.norm>
0

>  <SCORE.heavy>
22

>  <SCORE.norm>
-0.3988

>  <RMSD>
15.182

$$$$
lig.pdb
 OpenBabel11021811523D
libRbt.so/2013.1/901 2013/11/27
 22 23  0  0  0  0  0  0  0  0999 V2000
   17.7168  -50.0894  -32.4559 O   0  0  0  0  0  0  0  0  0  0  0  0
   17.4492  -48.9793  -32.8885 C   0  0  0  0  0  0  0  0  0  0  0  0
   17.5224  -48.6952  -34.1888 N   0  0  0  0  0  0  0  0  0  0  0  0
   17.0430  -47.9012  -31.9430 C   0  0  0  0  0  0  0  0  0  0  0  0
   16.7235  -46.5232  -32.3477 C   0  0  0  0  0  0  0  0  0  0  0  0
   16.7617  -46.0168  -33.7135 N   0  0  0  0  0  0  0  0  0  0  0  0
   16.8622  -47.8871  -30.6038 N   0  0  0  0  0  0  0  0  0  0  0  0
   16.4742  -46.6265  -30.2365 C   0  0  0  0  0  0  0  0  0  0  0  0
   16.3884  -45.7930  -31.2962 N   0  0  0  0  0  0  0  0  0  0  0  0
   15.9994  -44.3635  -31.2897 C   0  0  1  0  0  0  0  0  0  0  0  0
   15.0741  -44.0683  -30.1206 C   0  0  1  0  0  0  0  0  0  0  0  0
   15.4262  -42.6478  -29.7600 C   0  0  2  0  0  0  0  0  0  0  0  0
   14.6924  -41.7503  -30.5956 O   0  0  0  0  0  0  0  0  0  0  0  0
   13.7037  -44.1516  -30.5140 O   0  0  0  0  0  0  0  0  0  0  0  0
   17.1436  -43.5166  -31.1290 O   0  0  0  0  0  0  0  0  0  0  0  0
   16.9000  -42.5509  -30.1034 C   0  0  2  0  0  0  0  0  0  0  0  0
   17.7429  -42.8598  -28.8757 C   0  0  0  0  0  0  0  0  0  0  0  0
   17.6537  -41.7542  -27.9785 O   0  0  0  0  0  0  0  0  0  0  0  0
   18.2558  -41.8305  -26.4860 P   0  0  0  0  0  0  0  0  0  0  0  0
   18.3075  -40.3968  -26.0112 O   0  0  0  0  0  0  0  0  0  0  0  0
   19.6108  -42.4641  -26.6951 O   0  0  0  0  0  0  0  0  0  0  0  0
   17.2583  -42.6938  -25.7498 O   0  0  0  0  0  0  0  0  0  0  0  0
  1  2  2  0  0  0  0
  2  4  1  0  0  0  0
  2  3  1  0  0  0  0
  4  7  1  0  0  0  0
  5  9  1  0  0  0  0
  5  4  2  0  0  0  0
  6  5  1  0  0  0  0
  8  7  2  0  0  0  0
  9  8  1  0  0  0  0
 10 15  1  0  0  0  0
 10  9  1  1  0  0  0
 10 11  1  0  0  0  0
 11 14  1  6  0  0  0
 11 12  1  0  0  0  0
 12 13  1  6  0  0  0
 15 16  1  0  0  0  0
 16 12  1  0  0  0  0
 16 17  1  1  0  0  0
 17 18  1  0  0  0  0
 18 19  1  0  0  0  0
 19 21  1  0  0  0  0
 19 20  1  0  0  0  0
 22 19  2  0  0  0  0
M  END
>  <CHROM.1>
178.78863599,152.21261300,-72.91293002,171.21813519,164.97725775,16.93954788
-44.44757621,-29.92926869,-1.70426354,-0.71628974,0.64238122

>  <Name>
lig.pdb

>  <RI>
0

>  <Rbt.Current_Directory>
/home/itssahil/PROJECTS/Mol_Feturizer/New_Systems/rnas/5btp

>  <Rbt.Executable>
rbdock ($Id: //depot/dev/client3/rdock/2013.1/src/exe/rbdock.cxx#4 $)

>  <Rbt.Library>
libRbt.so (2013.1, Build901 2013/11/27)

>  <Rbt.Parameter_File>
/export/apps/rDock/src/rDock_2013.1_src/data/scripts/dock_solv.prm

>  <Rbt.Receptor>
prm/blind_docking_80.prm

>  <SCORE>
-14.0946

>  <SCORE.INTER>
-14.0627

>  <SCORE.INTER.CONST>
1

>  <SCORE.INTER.POLAR>
0

>  <SCORE.INTER.ROT>
5

>  <SCORE.INTER.SOLV>
17.0777

>  <SCORE.INTER.VDW>
-22.0011

>  <SCORE.INTER.norm>
-0.639215

>  <SCORE.INTRA>
-0.0341427

>  <SCORE.INTRA.DIHEDRAL>
-0.484905

>  <SCORE.INTRA.DIHEDRAL.0>
4.21161

>  <SCORE.INTRA.POLAR>
0

>  <SCORE.INTRA.POLAR.0>
0

>  <SCORE.INTRA.REPUL>
0

>  <SCORE.INTRA.REPUL.0>
0

>  <SCORE.INTRA.SOLV>
0.0652289

>  <SCORE.INTRA.SOLV.lig_0>
-41.4168

>  <SCORE.INTRA.VDW>
0.175696

>  <SCORE.INTRA.VDW.0>
-1.62533

>  <SCORE.INTRA.norm>
-0.00155194

>  <SCORE.RESTR>
0.00226789

>  <SCORE.RESTR.CAVITY>
0.00226789

>  <SCORE.RESTR.norm>
0.000103086

>  <SCORE.SYSTEM>
0

>  <SCORE.SYSTEM.CONST>
0

>  <SCORE.SYSTEM.DIHEDRAL>
0

>  <SCORE.SYSTEM.SOLV>
0

>  <SCORE.SYSTEM.norm>
0

>  <SCORE.heavy>
22

>  <SCORE.norm>
-0.640664

>  <RMSD>
15.616

$$$$
lig.pdb
 OpenBabel11021811523D
libRbt.so/2013.1/901 2013/11/27
 22 23  0  0  0  0  0  0  0  0999 V2000
   16.0516  -47.9167  -34.6289 O   0  0  0  0  0  0  0  0  0  0  0  0
   15.4818  -47.1441  -33.8742 C   0  0  0  0  0  0  0  0  0  0  0  0
   14.1522  -47.0683  -33.8185 N   0  0  0  0  0  0  0  0  0  0  0  0
   16.2864  -46.2461  -32.9983 C   0  0  0  0  0  0  0  0  0  0  0  0
   15.7094  -45.2464  -32.0857 C   0  0  0  0  0  0  0  0  0  0  0  0
   14.2859  -44.9887  -31.9112 N   0  0  0  0  0  0  0  0  0  0  0  0
   17.6179  -46.1176  -32.8064 N   0  0  0  0  0  0  0  0  0  0  0  0
   17.8243  -45.1374  -31.8730 C   0  0  0  0  0  0  0  0  0  0  0  0
   16.6640  -44.6047  -31.4315 N   0  0  0  0  0  0  0  0  0  0  0  0
   16.4899  -43.5306  -30.4260 C   0  0  1  0  0  0  0  0  0  0  0  0
   16.8659  -44.0313  -29.0411 C   0  0  1  0  0  0  0  0  0  0  0  0
   17.4228  -42.7993  -28.3750 C   0  0  2  0  0  0  0  0  0  0  0  0
   16.3500  -42.0290  -27.8291 O   0  0  0  0  0  0  0  0  0  0  0  0
   15.7172  -44.4982  -28.3322 O   0  0  0  0  0  0  0  0  0  0  0  0
   17.3470  -42.4172  -30.7045 O   0  0  0  0  0  0  0  0  0  0  0  0
   18.0507  -42.0308  -29.5215 C   0  0  2  0  0  0  0  0  0  0  0  0
   19.5243  -42.3871  -29.6431 C   0  0  0  0  0  0  0  0  0  0  0  0
   20.1614  -42.0983  -28.3998 O   0  0  0  0  0  0  0  0  0  0  0  0
   21.7580  -42.2222  -28.2232 P   0  0  0  0  0  0  0  0  0  0  0  0
   22.3281  -41.0464  -28.9821 O   0  0  0  0  0  0  0  0  0  0  0  0
   22.0676  -43.5665  -28.8381 O   0  0  0  0  0  0  0  0  0  0  0  0
   21.9515  -42.1493  -26.7266 O   0  0  0  0  0  0  0  0  0  0  0  0
  1  2  2  0  0  0  0
  2  4  1  0  0  0  0
  2  3  1  0  0  0  0
  4  7  1  0  0  0  0
  5  9  1  0  0  0  0
  5  4  2  0  0  0  0
  6  5  1  0  0  0  0
  8  7  2  0  0  0  0
  9  8  1  0  0  0  0
 10 15  1  0  0  0  0
 10  9  1  6  0  0  0
 10 11  1  0  0  0  0
 11 14  1  1  0  0  0
 11 12  1  0  0  0  0
 12 13  1  6  0  0  0
 15 16  1  0  0  0  0
 16 12  1  0  0  0  0
 16 17  1  6  0  0  0
 17 18  1  0  0  0  0
 18 19  1  0  0  0  0
 19 21  1  0  0  0  0
 19 20  1  0  0  0  0
 22 19  2  0  0  0  0
M  END
>  <CHROM.1>
177.85384455,110.18616745,-57.44366513,-173.92427796,72.54663112,18.04084106
-43.89203995,-30.26742501,-2.28437612,0.06095463,0.90314018

>  <Name>
lig.pdb

>  <RI>
0

>  <Rbt.Current_Directory>
/home/itssahil/PROJECTS/Mol_Feturizer/New_Systems/rnas/5btp

>  <Rbt.Executable>
rbdock ($Id: //depot/dev/client3/rdock/2013.1/src/exe/rbdock.cxx#4 $)

>  <Rbt.Library>
libRbt.so (2013.1, Build901 2013/11/27)

>  <Rbt.Parameter_File>
/export/apps/rDock/src/rDock_2013.1_src/data/scripts/dock_solv.prm

>  <Rbt.Receptor>
prm/blind_docking_100.prm

>  <SCORE>
-14.3889

>  <SCORE.INTER>
-13.5278

>  <SCORE.INTER.CONST>
1

>  <SCORE.INTER.POLAR>
0

>  <SCORE.INTER.ROT>
5

>  <SCORE.INTER.SOLV>
15.4441

>  <SCORE.INTER.VDW>
-21.0999

>  <SCORE.INTER.norm>
-0.6149

>  <SCORE.INTRA>
-0.861137

>  <SCORE.INTRA.DIHEDRAL>
-1.31949

>  <SCORE.INTRA.DIHEDRAL.0>
4.21161

>  <SCORE.INTRA.POLAR>
0

>  <SCORE.INTRA.POLAR.0>
0

>  <SCORE.INTRA.REPUL>
0

>  <SCORE.INTRA.REPUL.0>
0

>  <SCORE.INTRA.SOLV>
-0.0159764

>  <SCORE.INTRA.SOLV.lig_0>
-41.4168

>  <SCORE.INTRA.VDW>
-0.193404

>  <SCORE.INTRA.VDW.0>
-1.62533

>  <SCORE.INTRA.norm>
-0.0391426

>  <SCORE.RESTR>
0

>  <SCORE.RESTR.CAVITY>
0

>  <SCORE.RESTR.norm>
0

>  <SCORE.SYSTEM>
0

>  <SCORE.SYSTEM.CONST>
0

>  <SCORE.SYSTEM.DIHEDRAL>
0

>  <SCORE.SYSTEM.SOLV>
0

>  <SCORE.SYSTEM.norm>
0

>  <SCORE.heavy>
22

>  <SCORE.norm>
-0.654043

>  <RMSD>
15.774

$$$$
lig.pdb
 OpenBabel11021811523D
libRbt.so/2013.1/901 2013/11/27
 22 23  0  0  0  0  0  0  0  0999 V2000
   12.0308  -48.4308  -29.5802 O   0  0  0  0  0  0  0  0  0  0  0  0
   12.9521  -48.0279  -30.2729 C   0  0  0  0  0  0  0  0  0  0  0  0
   13.1230  -48.4452  -31.5273 N   0  0  0  0  0  0  0  0  0  0  0  0
   13.9267  -47.0542  -29.7045 C   0  0  0  0  0  0  0  0  0  0  0  0
   15.1484  -46.6090  -30.3930 C   0  0  0  0  0  0  0  0  0  0  0  0
   15.5805  -47.0530  -31.7119 N   0  0  0  0  0  0  0  0  0  0  0  0
   13.9562  -46.3739  -28.5372 N   0  0  0  0  0  0  0  0  0  0  0  0
   15.0836  -45.5972  -28.5217 C   0  0  0  0  0  0  0  0  0  0  0  0
   15.8121  -45.7375  -29.6506 N   0  0  0  0  0  0  0  0  0  0  0  0
   17.0846  -45.0602  -29.9926 C   0  0  1  0  0  0  0  0  0  0  0  0
   16.9060  -44.1774  -31.2168 C   0  0  1  0  0  0  0  0  0  0  0  0
   17.8607  -43.0404  -30.9569 C   0  0  2  0  0  0  0  0  0  0  0  0
   19.1709  -43.4126  -31.3894 O   0  0  0  0  0  0  0  0  0  0  0  0
   17.2769  -44.8693  -32.4099 O   0  0  0  0  0  0  0  0  0  0  0  0
   17.5161  -44.2023  -28.9297 O   0  0  0  0  0  0  0  0  0  0  0  0
   17.8557  -42.9131  -29.4459 C   0  0  2  0  0  0  0  0  0  0  0  0
   16.8250  -41.8821  -29.0128 C   0  0  0  0  0  0  0  0  0  0  0  0
   16.6548  -41.9816  -27.5999 O   0  0  0  0  0  0  0  0  0  0  0  0
   17.8503  -41.6241  -26.5806 P   0  0  0  0  0  0  0  0  0  0  0  0
   18.2176  -40.1924  -26.8950 O   0  0  0  0  0  0  0  0  0  0  0  0
   18.9177  -42.6312  -26.9377 O   0  0  0  0  0  0  0  0  0  0  0  0
   17.2218  -41.8207  -25.2210 O   0  0  0  0  0  0  0  0  0  0  0  0
  1  2  2  0  0  0  0
  2  4  1  0  0  0  0
  2  3  1  0  0  0  0
  4  7  1  0  0  0  0
  5  9  1  0  0  0  0
  5  4  2  0  0  0  0
  6  5  1  0  0  0  0
  8  7  2  0  0  0  0
  9  8  1  0  0  0  0
 10 15  1  0  0  0  0
 10  9  1  1  0  0  0
 10 11  1  0  0  0  0
 11 14  1  6  0  0  0
 11 12  1  0  0  0  0
 12 13  1  1  0  0  0
 15 16  1  0  0  0  0
 16 12  1  0  0  0  0
 16 17  1  6  0  0  0
 17 18  1  0  0  0  0
 18 19  1  0  0  0  0
 19 21  1  0  0  0  0
 19 20  1  0  0  0  0
 22 19  2  0  0  0  0
M  END
>  <CHROM.1>
173.36276648,62.98827244,168.41815736,65.36536671,57.99686096,16.38218584
-44.34721810,-29.18166925,2.34242643,-0.71122574,-2.06859508

>  <Name>
lig.pdb

>  <RI>
0

>  <Rbt.Current_Directory>
/home/itssahil/PROJECTS/Mol_Feturizer/New_Systems/rnas/5btp

>  <Rbt.Executable>
rbdock ($Id: //depot/dev/client3/rdock/2013.1/src/exe/rbdock.cxx#4 $)

>  <Rbt.Library>
libRbt.so (2013.1, Build901 2013/11/27)

>  <Rbt.Parameter_File>
/export/apps/rDock/src/rDock_2013.1_src/data/scripts/dock_solv.prm

>  <Rbt.Receptor>
prm/blind_docking_100.prm

>  <SCORE>
-15.6528

>  <SCORE.INTER>
-15.5427

>  <SCORE.INTER.CONST>
1

>  <SCORE.INTER.POLAR>
0

>  <SCORE.INTER.ROT>
5

>  <SCORE.INTER.SOLV>
21.3646

>  <SCORE.INTER.VDW>
-24.4167

>  <SCORE.INTER.norm>
-0.706485

>  <SCORE.INTRA>
-0.110119

>  <SCORE.INTRA.DIHEDRAL>
-1.01625

>  <SCORE.INTRA.DIHEDRAL.0>
4.21161

>  <SCORE.INTRA.POLAR>
0

>  <SCORE.INTRA.POLAR.0>
0

>  <SCORE.INTRA.REPUL>
0

>  <SCORE.INTRA.REPUL.0>
0

>  <SCORE.INTRA.SOLV>
1.33646

>  <SCORE.INTRA.SOLV.lig_0>
-41.4168

>  <SCORE.INTRA.VDW>
-0.270224

>  <SCORE.INTRA.VDW.0>
-1.62533

>  <SCORE.INTRA.norm>
-0.00500542

>  <SCORE.RESTR>
0

>  <SCORE.RESTR.CAVITY>
0

>  <SCORE.RESTR.norm>
0

>  <SCORE.SYSTEM>
0

>  <SCORE.SYSTEM.CONST>
0

>  <SCORE.SYSTEM.DIHEDRAL>
0

>  <SCORE.SYSTEM.SOLV>
0

>  <SCORE.SYSTEM.norm>
0

>  <SCORE.heavy>
22

>  <SCORE.norm>
-0.71149

>  <RMSD>
15.885

$$$$
lig.pdb
 OpenBabel11021811523D
libRbt.so/2013.1/901 2013/11/27
 22 23  0  0  0  0  0  0  0  0999 V2000
   15.6650  -48.9620  -33.0078 O   0  0  0  0  0  0  0  0  0  0  0  0
   16.8144  -48.5572  -32.9292 C   0  0  0  0  0  0  0  0  0  0  0  0
   17.8559  -49.3386  -33.2145 N   0  0  0  0  0  0  0  0  0  0  0  0
   17.0709  -47.1568  -32.4883 C   0  0  0  0  0  0  0  0  0  0  0  0
   16.0148  -46.1867  -32.1589 C   0  0  0  0  0  0  0  0  0  0  0  0
   14.5827  -46.4487  -32.2196 N   0  0  0  0  0  0  0  0  0  0  0  0
   18.2124  -46.4645  -32.2786 N   0  0  0  0  0  0  0  0  0  0  0  0
   17.8790  -45.2024  -31.8658 C   0  0  0  0  0  0  0  0  0  0  0  0
   16.5413  -45.0296  -31.7915 N   0  0  0  0  0  0  0  0  0  0  0  0
   15.8114  -43.8066  -31.3832 C   0  0  1  0  0  0  0  0  0  0  0  0
   15.0560  -44.0451  -30.0861 C   0  0  1  0  0  0  0  0  0  0  0  0
   15.0947  -42.6944  -29.4182 C   0  0  2  0  0  0  0  0  0  0  0  0
   14.0264  -41.8873  -29.9175 O   0  0  0  0  0  0  0  0  0  0  0  0
   13.7044  -44.4306  -30.3400 O   0  0  0  0  0  0  0  0  0  0  0  0
   16.7150  -42.7228  -31.1364 O   0  0  0  0  0  0  0  0  0  0  0  0
   16.4151  -42.1093  -29.8805 C   0  0  2  0  0  0  0  0  0  0  0  0
   17.5061  -42.4191  -28.8671 C   0  0  0  0  0  0  0  0  0  0  0  0
   17.2382  -41.6796  -27.6769 O   0  0  0  0  0  0  0  0  0  0  0  0
   18.1710  -41.8200  -26.3707 P   0  0  0  0  0  0  0  0  0  0  0  0
   18.4597  -40.4001  -25.9417 O   0  0  0  0  0  0  0  0  0  0  0  0
   19.3760  -42.5687  -26.8889 O   0  0  0  0  0  0  0  0  0  0  0  0
   17.3073  -42.5978  -25.4056 O   0  0  0  0  0  0  0  0  0  0  0  0
  1  2  2  0  0  0  0
  2  4  1  0  0  0  0
  2  3  1  0  0  0  0
  4  7  1  0  0  0  0
  5  9  1  0  0  0  0
  5  4  2  0  0  0  0
  6  5  1  0  0  0  0
  8  7  2  0  0  0  0
  9  8  1  0  0  0  0
 10 15  1  0  0  0  0
 10  9  1  1  0  0  0
 10 11  1  0  0  0  0
 11 14  1  6  0  0  0
 11 12  1  0  0  0  0
 12 13  1  6  0  0  0
 15 16  1  0  0  0  0
 16 12  1  0  0  0  0
 16 17  1  1  0  0  0
 17 18  1  0  0  0  0
 18 19  1  0  0  0  0
 19 21  1  0  0  0  0
 19 20  1  0  0  0  0
 22 19  2  0  0  0  0
M  END
>  <CHROM.1>
-1.43521236,65.57761916,-68.54454082,177.51018426,132.15735732,16.70001361
-44.15546777,-29.92474202,-1.74360728,-0.44839549,0.71195454

>  <Name>
lig.pdb

>  <RI>
0

>  <Rbt.Current_Directory>
/home/itssahil/PROJECTS/Mol_Feturizer/New_Systems/rnas/5btp

>  <Rbt.Executable>
rbdock ($Id: //depot/dev/client3/rdock/2013.1/src/exe/rbdock.cxx#4 $)

>  <Rbt.Library>
libRbt.so (2013.1, Build901 2013/11/27)

>  <Rbt.Parameter_File>
/export/apps/rDock/src/rDock_2013.1_src/data/scripts/dock_solv.prm

>  <Rbt.Receptor>
prm/blind_docking_80.prm

>  <SCORE>
-13.0123

>  <SCORE.INTER>
-13.8613

>  <SCORE.INTER.CONST>
1

>  <SCORE.INTER.POLAR>
0

>  <SCORE.INTER.ROT>
5

>  <SCORE.INTER.SOLV>
16.9755

>  <SCORE.INTER.VDW>
-21.8327

>  <SCORE.INTER.norm>
-0.630059

>  <SCORE.INTRA>
0.848983

>  <SCORE.INTRA.DIHEDRAL>
0.674735

>  <SCORE.INTRA.DIHEDRAL.0>
4.21161

>  <SCORE.INTRA.POLAR>
0

>  <SCORE.INTRA.POLAR.0>
0

>  <SCORE.INTRA.REPUL>
0

>  <SCORE.INTRA.REPUL.0>
0

>  <SCORE.INTRA.SOLV>
0.337201

>  <SCORE.INTRA.SOLV.lig_0>
-41.4168

>  <SCORE.INTRA.VDW>
0.343015

>  <SCORE.INTRA.VDW.0>
-1.62533

>  <SCORE.INTRA.norm>
0.0385901

>  <SCORE.RESTR>
0

>  <SCORE.RESTR.CAVITY>
0

>  <SCORE.RESTR.norm>
0

>  <SCORE.SYSTEM>
0

>  <SCORE.SYSTEM.CONST>
0

>  <SCORE.SYSTEM.DIHEDRAL>
0

>  <SCORE.SYSTEM.SOLV>
0

>  <SCORE.SYSTEM.norm>
0

>  <SCORE.heavy>
22

>  <SCORE.norm>
-0.591469

>  <RMSD>
15.924

$$$$
lig.pdb
 OpenBabel11021811523D
libRbt.so/2013.1/901 2013/11/27
 22 23  0  0  0  0  0  0  0  0999 V2000
   16.7730  -46.5095  -34.0253 O   0  0  0  0  0  0  0  0  0  0  0  0
   17.0212  -47.2518  -33.0880 C   0  0  0  0  0  0  0  0  0  0  0  0
   17.4453  -48.5017  -33.2745 N   0  0  0  0  0  0  0  0  0  0  0  0
   16.8333  -46.7613  -31.6933 C   0  0  0  0  0  0  0  0  0  0  0  0
   16.2977  -45.4351  -31.3480 C   0  0  0  0  0  0  0  0  0  0  0  0
   15.8828  -44.4193  -32.3067 N   0  0  0  0  0  0  0  0  0  0  0  0
   17.0631  -47.3322  -30.4902 N   0  0  0  0  0  0  0  0  0  0  0  0
   16.7041  -46.4396  -29.5161 C   0  0  0  0  0  0  0  0  0  0  0  0
   16.2371  -45.2830  -30.0348 N   0  0  0  0  0  0  0  0  0  0  0  0
   15.7551  -44.0929  -29.2957 C   0  0  1  0  0  0  0  0  0  0  0  0
   15.9980  -44.2575  -27.8044 C   0  0  1  0  0  0  0  0  0  0  0  0
   16.2555  -42.8452  -27.3451 C   0  0  2  0  0  0  0  0  0  0  0  0
   15.0090  -42.1937  -27.0923 O   0  0  0  0  0  0  0  0  0  0  0  0
   14.8442  -44.7860  -27.1493 O   0  0  0  0  0  0  0  0  0  0  0  0
   16.4618  -42.9132  -29.6969 O   0  0  0  0  0  0  0  0  0  0  0  0
   16.9177  -42.1982  -28.5460 C   0  0  2  0  0  0  0  0  0  0  0  0
   18.4304  -42.3002  -28.4254 C   0  0  0  0  0  0  0  0  0  0  0  0
   19.0124  -41.8095  -29.6319 O   0  0  0  0  0  0  0  0  0  0  0  0
   20.6033  -41.8621  -29.8813 P   0  0  0  0  0  0  0  0  0  0  0  0
   20.9538  -43.3319  -29.8636 O   0  0  0  0  0  0  0  0  0  0  0  0
   21.1589  -41.0777  -28.7164 O   0  0  0  0  0  0  0  0  0  0  0  0
   20.7685  -41.1996  -31.2290 O   0  0  0  0  0  0  0  0  0  0  0  0
  1  2  2  0  0  0  0
  2  4  1  0  0  0  0
  2  3  1  0  0  0  0
  4  7  1  0  0  0  0
  5  9  1  0  0  0  0
  5  4  2  0  0  0  0
  6  5  1  0  0  0  0
  8  7  2  0  0  0  0
  9  8  1  0  0  0  0
 10 15  1  0  0  0  0
 10  9  1  6  0  0  0
 10 11  1  0  0  0  0
 11 14  1  1  0  0  0
 11 12  1  0  0  0  0
 12 13  1  6  0  0  0
 15 16  1  0  0  0  0
 16 12  1  0  0  0  0
 16 17  1  1  0  0  0
 17 18  1  0  0  0  0
 18 19  1  0  0  0  0
 19 21  1  0  0  0  0
 19 20  1  0  0  0  0
 22 19  2  0  0  0  0
M  END
>  <CHROM.1>
3.03835934,-173.46132828,174.01275933,-175.99092750,62.11586521,17.61217877
-43.99981716,-29.98277071,-2.13223664,0.52348981,0.81752955

>  <Name>
lig.pdb

>  <RI>
0

>  <Rbt.Current_Directory>
/home/itssahil/PROJECTS/Mol_Feturizer/New_Systems/rnas/5btp

>  <Rbt.Executable>
rbdock ($Id: //depot/dev/client3/rdock/2013.1/src/exe/rbdock.cxx#4 $)

>  <Rbt.Library>
libRbt.so (2013.1, Build901 2013/11/27)

>  <Rbt.Parameter_File>
/export/apps/rDock/src/rDock_2013.1_src/data/scripts/dock_solv.prm

>  <Rbt.Receptor>
prm/blind_docking_80.prm

>  <SCORE>
-11.9449

>  <SCORE.INTER>
-11.247

>  <SCORE.INTER.CONST>
1

>  <SCORE.INTER.POLAR>
0

>  <SCORE.INTER.ROT>
5

>  <SCORE.INTER.SOLV>
14.3474

>  <SCORE.INTER.VDW>
-19.2138

>  <SCORE.INTER.norm>
-0.511228

>  <SCORE.INTRA>
-0.697882

>  <SCORE.INTRA.DIHEDRAL>
-1.53791

>  <SCORE.INTRA.DIHEDRAL.0>
4.21161

>  <SCORE.INTRA.POLAR>
0

>  <SCORE.INTRA.POLAR.0>
0

>  <SCORE.INTRA.REPUL>
0

>  <SCORE.INTRA.REPUL.0>
0

>  <SCORE.INTRA.SOLV>
-0.307423

>  <SCORE.INTRA.SOLV.lig_0>
-41.4168

>  <SCORE.INTRA.VDW>
0.224785

>  <SCORE.INTRA.VDW.0>
-1.62533

>  <SCORE.INTRA.norm>
-0.0317219

>  <SCORE.RESTR>
0

>  <SCORE.RESTR.CAVITY>
0

>  <SCORE.RESTR.norm>
0

>  <SCORE.SYSTEM>
0

>  <SCORE.SYSTEM.CONST>
0

>  <SCORE.SYSTEM.DIHEDRAL>
0

>  <SCORE.SYSTEM.SOLV>
0

>  <SCORE.SYSTEM.norm>
0

>  <SCORE.heavy>
22

>  <SCORE.norm>
-0.54295

>  <RMSD>
16.039

$$$$
lig.pdb
 OpenBabel11021811523D
libRbt.so/2013.1/901 2013/11/27
 22 23  0  0  0  0  0  0  0  0999 V2000
   16.9271  -48.7278  -32.1330 O   0  0  0  0  0  0  0  0  0  0  0  0
   17.6662  -47.8468  -32.5436 C   0  0  0  0  0  0  0  0  0  0  0  0
   18.5890  -48.0815  -33.4765 N   0  0  0  0  0  0  0  0  0  0  0  0
   17.5516  -46.4712  -31.9817 C   0  0  0  0  0  0  0  0  0  0  0  0
   16.4936  -46.0425  -31.0533 C   0  0  0  0  0  0  0  0  0  0  0  0
   15.4149  -46.8878  -30.5583 N   0  0  0  0  0  0  0  0  0  0  0  0
   18.3049  -45.3601  -32.1370 N   0  0  0  0  0  0  0  0  0  0  0  0
   17.7558  -44.3602  -31.3799 C   0  0  0  0  0  0  0  0  0  0  0  0
   16.6525  -44.7722  -30.7182 N   0  0  0  0  0  0  0  0  0  0  0  0
   15.7980  -43.9762  -29.8065 C   0  0  1  0  0  0  0  0  0  0  0  0
   16.2516  -44.1474  -28.3660 C   0  0  1  0  0  0  0  0  0  0  0  0
   15.9372  -42.8081  -27.7503 C   0  0  2  0  0  0  0  0  0  0  0  0
   14.5687  -42.7842  -27.3395 O   0  0  0  0  0  0  0  0  0  0  0  0
   15.5098  -45.1772  -27.7109 O   0  0  0  0  0  0  0  0  0  0  0  0
   15.8905  -42.5772  -30.1004 O   0  0  0  0  0  0  0  0  0  0  0  0
   16.1261  -41.8375  -28.8999 C   0  0  2  0  0  0  0  0  0  0  0  0
   17.5432  -41.2854  -28.8889 C   0  0  0  0  0  0  0  0  0  0  0  0
   18.4356  -42.3279  -29.2786 O   0  0  0  0  0  0  0  0  0  0  0  0
   19.9901  -42.0349  -29.5846 P   0  0  0  0  0  0  0  0  0  0  0  0
   20.4949  -41.2923  -28.3692 O   0  0  0  0  0  0  0  0  0  0  0  0
   19.9405  -41.2026  -30.8440 O   0  0  0  0  0  0  0  0  0  0  0  0
   20.5789  -43.4152  -29.7590 O   0  0  0  0  0  0  0  0  0  0  0  0
  1  2  2  0  0  0  0
  2  4  1  0  0  0  0
  2  3  1  0  0  0  0
  4  7  1  0  0  0  0
  5  9  1  0  0  0  0
  5  4  2  0  0  0  0
  6  5  1  0  0  0  0
  8  7  2  0  0  0  0
  9  8  1  0  0  0  0
 10 15  1  0  0  0  0
 10  9  1  6  0  0  0
 10 11  1  0  0  0  0
 11 14  1  1  0  0  0
 11 12  1  0  0  0  0
 12 13  1  6  0  0  0
 15 16  1  0  0  0  0
 16 12  1  0  0  0  0
 16 17  1  6  0  0  0
 17 18  1  0  0  0  0
 18 19  1  0  0  0  0
 19 21  1  0  0  0  0
 19 20  1  0  0  0  0
 22 19  2  0  0  0  0
M  END
>  <CHROM.1>
-7.20329287,86.66909110,70.95064498,170.82681456,52.15824179,17.55432863
-44.05955282,-30.04292723,-1.79143418,0.43487163,0.60358419

>  <Name>
lig.pdb

>  <RI>
0

>  <Rbt.Current_Directory>
/home/itssahil/PROJECTS/Mol_Feturizer/New_Systems/rnas/5btp

>  <Rbt.Executable>
rbdock ($Id: //depot/dev/client3/rdock/2013.1/src/exe/rbdock.cxx#4 $)

>  <Rbt.Library>
libRbt.so (2013.1, Build901 2013/11/27)

>  <Rbt.Parameter_File>
/export/apps/rDock/src/rDock_2013.1_src/data/scripts/dock_solv.prm

>  <Rbt.Receptor>
prm/blind_docking_80.prm

>  <SCORE>
-11.679

>  <SCORE.INTER>
-10.5951

>  <SCORE.INTER.CONST>
1

>  <SCORE.INTER.POLAR>
0

>  <SCORE.INTER.ROT>
5

>  <SCORE.INTER.SOLV>
13.5437

>  <SCORE.INTER.VDW>
-18.5113

>  <SCORE.INTER.norm>
-0.481597

>  <SCORE.INTRA>
-1.08387

>  <SCORE.INTRA.DIHEDRAL>
-0.691741

>  <SCORE.INTRA.DIHEDRAL.0>
4.21161

>  <SCORE.INTRA.POLAR>
0

>  <SCORE.INTRA.POLAR.0>
0

>  <SCORE.INTRA.REPUL>
0

>  <SCORE.INTRA.REPUL.0>
0

>  <SCORE.INTRA.SOLV>
1.37094

>  <SCORE.INTRA.SOLV.lig_0>
-41.4168

>  <SCORE.INTRA.VDW>
-1.42347

>  <SCORE.INTRA.VDW.0>
-1.62533

>  <SCORE.INTRA.norm>
-0.0492667

>  <SCORE.RESTR>
0

>  <SCORE.RESTR.CAVITY>
0

>  <SCORE.RESTR.norm>
0

>  <SCORE.SYSTEM>
0

>  <SCORE.SYSTEM.CONST>
0

>  <SCORE.SYSTEM.DIHEDRAL>
0

>  <SCORE.SYSTEM.SOLV>
0

>  <SCORE.SYSTEM.norm>
0

>  <SCORE.heavy>
22

>  <SCORE.norm>
-0.530864

>  <RMSD>
16.065

$$$$
lig.pdb
 OpenBabel11021811523D
libRbt.so/2013.1/901 2013/11/27
 22 23  0  0  0  0  0  0  0  0999 V2000
   18.5507  -46.7388  -32.4225 O   0  0  0  0  0  0  0  0  0  0  0  0
   17.7711  -47.5972  -32.0398 C   0  0  0  0  0  0  0  0  0  0  0  0
   17.9016  -48.8748  -32.3968 N   0  0  0  0  0  0  0  0  0  0  0  0
   16.6299  -47.2134  -31.1614 C   0  0  0  0  0  0  0  0  0  0  0  0
   16.3724  -45.8432  -30.6912 C   0  0  0  0  0  0  0  0  0  0  0  0
   17.1876  -44.6777  -31.0077 N   0  0  0  0  0  0  0  0  0  0  0  0
   15.6190  -47.9284  -30.6201 N   0  0  0  0  0  0  0  0  0  0  0  0
   14.8311  -47.0758  -29.8943 C   0  0  0  0  0  0  0  0  0  0  0  0
   15.2867  -45.8048  -29.9355 N   0  0  0  0  0  0  0  0  0  0  0  0
   14.6987  -44.6143  -29.2781 C   0  0  1  0  0  0  0  0  0  0  0  0
   15.0930  -44.5666  -27.8111 C   0  0  1  0  0  0  0  0  0  0  0  0
   15.1756  -43.0880  -27.5303 C   0  0  2  0  0  0  0  0  0  0  0  0
   13.8726  -42.5907  -27.2188 O   0  0  0  0  0  0  0  0  0  0  0  0
   14.0929  -45.1692  -26.9886 O   0  0  0  0  0  0  0  0  0  0  0  0
   15.1832  -43.4036  -29.8710 O   0  0  0  0  0  0  0  0  0  0  0  0
   15.6260  -42.5015  -28.8541 C   0  0  2  0  0  0  0  0  0  0  0  0
   17.1416  -42.3777  -28.8810 C   0  0  0  0  0  0  0  0  0  0  0  0
   17.5288  -41.3815  -27.9361 O   0  0  0  0  0  0  0  0  0  0  0  0
   18.2792  -41.7691  -26.5640 P   0  0  0  0  0  0  0  0  0  0  0  0
   17.2823  -42.6053  -25.7955 O   0  0  0  0  0  0  0  0  0  0  0  0
   18.5714  -40.4243  -25.9416 O   0  0  0  0  0  0  0  0  0  0  0  0
   19.4973  -42.5292  -27.0337 O   0  0  0  0  0  0  0  0  0  0  0  0
  1  2  2  0  0  0  0
  2  4  1  0  0  0  0
  2  3  1  0  0  0  0
  4  7  1  0  0  0  0
  5  9  1  0  0  0  0
  5  4  2  0  0  0  0
  6  5  1  0  0  0  0
  8  7  2  0  0  0  0
  9  8  1  0  0  0  0
 10 15  1  0  0  0  0
 10  9  1  6  0  0  0
 10 11  1  0  0  0  0
 11 14  1  1  0  0  0
 11 12  1  0  0  0  0
 12 13  1  6  0  0  0
 15 16  1  0  0  0  0
 16 12  1  0  0  0  0
 16 17  1  1  0  0  0
 17 18  1  0  0  0  0
 18 19  1  0  0  0  0
 19 21  1  0  0  0  0
 19 20  1  0  0  0  0
 22 19  2  0  0  0  0
M  END
>  <CHROM.1>
-0.87117837,-99.86848891,-67.86942650,109.08644926,-63.77678298,16.58626919
-44.24134899,-28.86440551,-1.67107323,0.24555780,0.72761131

>  <Name>
lig.pdb

>  <RI>
0

>  <Rbt.Current_Directory>
/home/itssahil/PROJECTS/Mol_Feturizer/New_Systems/rnas/5btp

>  <Rbt.Executable>
rbdock ($Id: //depot/dev/client3/rdock/2013.1/src/exe/rbdock.cxx#4 $)

>  <Rbt.Library>
libRbt.so (2013.1, Build901 2013/11/27)

>  <Rbt.Parameter_File>
/export/apps/rDock/src/rDock_2013.1_src/data/scripts/dock_solv.prm

>  <Rbt.Receptor>
prm/blind_docking_80.prm

>  <SCORE>
-12.0265

>  <SCORE.INTER>
-14.793

>  <SCORE.INTER.CONST>
1

>  <SCORE.INTER.POLAR>
0

>  <SCORE.INTER.ROT>
5

>  <SCORE.INTER.SOLV>
15.7706

>  <SCORE.INTER.VDW>
-22.0522

>  <SCORE.INTER.norm>
-0.672411

>  <SCORE.INTRA>
2.76656

>  <SCORE.INTRA.DIHEDRAL>
5.07955

>  <SCORE.INTRA.DIHEDRAL.0>
4.21161

>  <SCORE.INTRA.POLAR>
0

>  <SCORE.INTRA.POLAR.0>
0

>  <SCORE.INTRA.REPUL>
0

>  <SCORE.INTRA.REPUL.0>
0

>  <SCORE.INTRA.SOLV>
1.91144

>  <SCORE.INTRA.SOLV.lig_0>
-41.4168

>  <SCORE.INTRA.VDW>
-0.728934

>  <SCORE.INTRA.VDW.0>
-1.62533

>  <SCORE.INTRA.norm>
0.125753

>  <SCORE.RESTR>
0

>  <SCORE.RESTR.CAVITY>
0

>  <SCORE.RESTR.norm>
0

>  <SCORE.SYSTEM>
0

>  <SCORE.SYSTEM.CONST>
0

>  <SCORE.SYSTEM.DIHEDRAL>
0

>  <SCORE.SYSTEM.SOLV>
0

>  <SCORE.SYSTEM.norm>
0

>  <SCORE.heavy>
22

>  <SCORE.norm>
-0.546658

>  <RMSD>
16.380

$$$$
lig.pdb
 OpenBabel11021811523D
libRbt.so/2013.1/901 2013/11/27
 22 23  0  0  0  0  0  0  0  0999 V2000
   18.8762  -47.0374  -33.4660 O   0  0  0  0  0  0  0  0  0  0  0  0
   17.8721  -47.1616  -32.7824 C   0  0  0  0  0  0  0  0  0  0  0  0
   17.1516  -48.2831  -32.7889 N   0  0  0  0  0  0  0  0  0  0  0  0
   17.4227  -46.0282  -31.9252 C   0  0  0  0  0  0  0  0  0  0  0  0
   16.2271  -46.0626  -31.0683 C   0  0  0  0  0  0  0  0  0  0  0  0
   15.3172  -47.1932  -30.9382 N   0  0  0  0  0  0  0  0  0  0  0  0
   17.9322  -44.7957  -31.7074 N   0  0  0  0  0  0  0  0  0  0  0  0
   17.1242  -44.1499  -30.8104 C   0  0  0  0  0  0  0  0  0  0  0  0
   16.0847  -44.9186  -30.4186 N   0  0  0  0  0  0  0  0  0  0  0  0
   15.0104  -44.5632  -29.4623 C   0  0  1  0  0  0  0  0  0  0  0  0
   15.0083  -45.5217  -28.2829 C   0  0  1  0  0  0  0  0  0  0  0  0
   14.5475  -44.6528  -27.1408 C   0  0  2  0  0  0  0  0  0  0  0  0
   13.1194  -44.6017  -27.1297 O   0  0  0  0  0  0  0  0  0  0  0  0
   14.0864  -46.5926  -28.4905 O   0  0  0  0  0  0  0  0  0  0  0  0
   15.2113  -43.2516  -28.9225 O   0  0  0  0  0  0  0  0  0  0  0  0
   15.0892  -43.2824  -27.4984 C   0  0  2  0  0  0  0  0  0  0  0  0
   16.4474  -43.0722  -26.8470 C   0  0  0  0  0  0  0  0  0  0  0  0
   17.1251  -42.0291  -27.5453 O   0  0  0  0  0  0  0  0  0  0  0  0
   18.5317  -41.4420  -27.0230 P   0  0  0  0  0  0  0  0  0  0  0  0
   19.1750  -40.8242  -28.2429 O   0  0  0  0  0  0  0  0  0  0  0  0
   19.2422  -42.6683  -26.5010 O   0  0  0  0  0  0  0  0  0  0  0  0
   18.1236  -40.4457  -25.9633 O   0  0  0  0  0  0  0  0  0  0  0  0
  1  2  2  0  0  0  0
  2  4  1  0  0  0  0
  2  3  1  0  0  0  0
  4  7  1  0  0  0  0
  5  9  1  0  0  0  0
  5  4  2  0  0  0  0
  6  5  1  0  0  0  0
  8  7  2  0  0  0  0
  9  8  1  0  0  0  0
 10 15  1  0  0  0  0
 10  9  1  6  0  0  0
 10 11  1  0  0  0  0
 11 14  1  6  0  0  0
 11 12  1  0  0  0  0
 12 13  1  6  0  0  0
 15 16  1  0  0  0  0
 16 12  1  0  0  0  0
 16 17  1  1  0  0  0
 17 18  1  0  0  0  0
 18 19  1  0  0  0  0
 19 21  1  0  0  0  0
 19 20  1  0  0  0  0
 22 19  2  0  0  0  0
M  END
>  <CHROM.1>
179.65908970,59.86788121,160.03610388,173.52350434,157.52972009,16.70036635
-44.23945638,-29.11104207,-1.69601736,0.47122723,0.83922700

>  <Name>
lig.pdb

>  <RI>
0

>  <Rbt.Current_Directory>
/home/itssahil/PROJECTS/Mol_Feturizer/New_Systems/rnas/5btp

>  <Rbt.Executable>
rbdock ($Id: //depot/dev/client3/rdock/2013.1/src/exe/rbdock.cxx#4 $)

>  <Rbt.Library>
libRbt.so (2013.1, Build901 2013/11/27)

>  <Rbt.Parameter_File>
/export/apps/rDock/src/rDock_2013.1_src/data/scripts/dock_solv.prm

>  <Rbt.Receptor>
prm/blind_docking_80.prm

>  <SCORE>
-12.5744

>  <SCORE.INTER>
-12.9735

>  <SCORE.INTER.CONST>
1

>  <SCORE.INTER.POLAR>
0

>  <SCORE.INTER.ROT>
5

>  <SCORE.INTER.SOLV>
16.839

>  <SCORE.INTER.VDW>
-21.1954

>  <SCORE.INTER.norm>
-0.589707

>  <SCORE.INTRA>
0.399146

>  <SCORE.INTRA.DIHEDRAL>
0.469107

>  <SCORE.INTRA.DIHEDRAL.0>
4.21161

>  <SCORE.INTRA.POLAR>
0

>  <SCORE.INTRA.POLAR.0>
0

>  <SCORE.INTRA.REPUL>
0

>  <SCORE.INTRA.REPUL.0>
0

>  <SCORE.INTRA.SOLV>
0.628013

>  <SCORE.INTRA.SOLV.lig_0>
-41.4168

>  <SCORE.INTRA.VDW>
-0.149414

>  <SCORE.INTRA.VDW.0>
-1.62533

>  <SCORE.INTRA.norm>
0.018143

>  <SCORE.RESTR>
0

>  <SCORE.RESTR.CAVITY>
0

>  <SCORE.RESTR.norm>
0

>  <SCORE.SYSTEM>
0

>  <SCORE.SYSTEM.CONST>
0

>  <SCORE.SYSTEM.DIHEDRAL>
0

>  <SCORE.SYSTEM.SOLV>
0

>  <SCORE.SYSTEM.norm>
0

>  <SCORE.heavy>
22

>  <SCORE.norm>
-0.571564

>  <RMSD>
16.388

$$$$
lig.pdb
 OpenBabel11021811523D
libRbt.so/2013.1/901 2013/11/27
 22 23  0  0  0  0  0  0  0  0999 V2000
   17.3932  -47.6529  -33.3378 O   0  0  0  0  0  0  0  0  0  0  0  0
   17.3598  -48.0075  -32.1698 C   0  0  0  0  0  0  0  0  0  0  0  0
   17.6346  -49.2605  -31.8074 N   0  0  0  0  0  0  0  0  0  0  0  0
   16.9878  -47.0233  -31.1142 C   0  0  0  0  0  0  0  0  0  0  0  0
   16.5467  -45.6462  -31.3858 C   0  0  0  0  0  0  0  0  0  0  0  0
   16.4155  -45.0499  -32.7088 N   0  0  0  0  0  0  0  0  0  0  0  0
   16.9434  -47.1093  -29.7663 N   0  0  0  0  0  0  0  0  0  0  0  0
   16.5198  -45.9043  -29.2733 C   0  0  0  0  0  0  0  0  0  0  0  0
   16.2769  -45.0107  -30.2568 N   0  0  0  0  0  0  0  0  0  0  0  0
   15.8055  -43.6139  -30.1097 C   0  0  1  0  0  0  0  0  0  0  0  0
   14.4930  -43.5722  -29.3444 C   0  0  1  0  0  0  0  0  0  0  0  0
   14.5769  -42.2650  -28.5988 C   0  0  2  0  0  0  0  0  0  0  0  0
   14.1392  -41.2041  -29.4503 O   0  0  0  0  0  0  0  0  0  0  0  0
   13.3768  -43.5606  -30.2354 O   0  0  0  0  0  0  0  0  0  0  0  0
   16.7403  -42.8284  -29.3606 O   0  0  0  0  0  0  0  0  0  0  0  0
   16.0609  -42.1051  -28.3315 C   0  0  2  0  0  0  0  0  0  0  0  0
   16.4094  -42.6764  -26.9658 C   0  0  0  0  0  0  0  0  0  0  0  0
   17.8278  -42.8015  -26.8786 O   0  0  0  0  0  0  0  0  0  0  0  0
   18.7901  -41.5096  -26.9048 P   0  0  0  0  0  0  0  0  0  0  0  0
   20.1073  -41.9913  -26.3422 O   0  0  0  0  0  0  0  0  0  0  0  0
   18.0627  -40.5225  -26.0229 O   0  0  0  0  0  0  0  0  0  0  0  0
   18.8377  -41.1379  -28.3683 O   0  0  0  0  0  0  0  0  0  0  0  0
  1  2  2  0  0  0  0
  2  4  1  0  0  0  0
  2  3  1  0  0  0  0
  4  7  1  0  0  0  0
  5  9  1  0  0  0  0
  5  4  2  0  0  0  0
  6  5  1  0  0  0  0
  8  7  2  0  0  0  0
  9  8  1  0  0  0  0
 10 15  1  0  0  0  0
 10  9  1  1  0  0  0
 10 11  1  0  0  0  0
 11 14  1  6  0  0  0
 11 12  1  0  0  0  0
 12 13  1  6  0  0  0
 15 16  1  0  0  0  0
 16 12  1  0  0  0  0
 16 17  1  1  0  0  0
 17 18  1  0  0  0  0
 18 19  1  0  0  0  0
 19 21  1  0  0  0  0
 19 20  1  0  0  0  0
 22 19  2  0  0  0  0
M  END
>  <CHROM.1>
4.97415897,123.04303629,166.39953958,64.84897305,161.73571238,16.83407556
-43.86896547,-29.28714033,-1.72729914,-0.38806651,0.63451984

>  <Name>
lig.pdb

>  <RI>
0

>  <Rbt.Current_Directory>
/home/itssahil/PROJECTS/Mol_Feturizer/New_Systems/rnas/5btp

>  <Rbt.Executable>
rbdock ($Id: //depot/dev/client3/rdock/2013.1/src/exe/rbdock.cxx#4 $)

>  <Rbt.Library>
libRbt.so (2013.1, Build901 2013/11/27)

>  <Rbt.Parameter_File>
/export/apps/rDock/src/rDock_2013.1_src/data/scripts/dock_solv.prm

>  <Rbt.Receptor>
prm/blind_docking_80.prm

>  <SCORE>
-12.4099

>  <SCORE.INTER>
-12.3891

>  <SCORE.INTER.CONST>
1

>  <SCORE.INTER.POLAR>
0

>  <SCORE.INTER.ROT>
5

>  <SCORE.INTER.SOLV>
16.5777

>  <SCORE.INTER.VDW>
-20.7187

>  <SCORE.INTER.norm>
-0.563142

>  <SCORE.INTRA>
-0.0207588

>  <SCORE.INTRA.DIHEDRAL>
-0.439136

>  <SCORE.INTRA.DIHEDRAL.0>
4.21161

>  <SCORE.INTRA.POLAR>
0

>  <SCORE.INTRA.POLAR.0>
0

>  <SCORE.INTRA.REPUL>
0

>  <SCORE.INTRA.REPUL.0>
0

>  <SCORE.INTRA.SOLV>
1.25509

>  <SCORE.INTRA.SOLV.lig_0>
-41.4168

>  <SCORE.INTRA.VDW>
-0.428737

>  <SCORE.INTRA.VDW.0>
-1.62533

>  <SCORE.INTRA.norm>
-0.000943581

>  <SCORE.RESTR>
0

>  <SCORE.RESTR.CAVITY>
0

>  <SCORE.RESTR.norm>
0

>  <SCORE.SYSTEM>
0

>  <SCORE.SYSTEM.CONST>
0

>  <SCORE.SYSTEM.DIHEDRAL>
0

>  <SCORE.SYSTEM.SOLV>
0

>  <SCORE.SYSTEM.norm>
0

>  <SCORE.heavy>
22

>  <SCORE.norm>
-0.564086

>  <RMSD>
16.431

$$$$
lig.pdb
 OpenBabel11021811523D
libRbt.so/2013.1/901 2013/11/27
 22 23  0  0  0  0  0  0  0  0999 V2000
   14.5727  -47.8008  -30.3089 O   0  0  0  0  0  0  0  0  0  0  0  0
   14.6264  -46.7986  -29.6133 C   0  0  0  0  0  0  0  0  0  0  0  0
   13.8241  -46.6284  -28.5626 N   0  0  0  0  0  0  0  0  0  0  0  0
   15.6022  -45.7234  -29.9493 C   0  0  0  0  0  0  0  0  0  0  0  0
   15.8155  -44.5162  -29.1356 C   0  0  0  0  0  0  0  0  0  0  0  0
   15.1096  -44.1976  -27.9013 N   0  0  0  0  0  0  0  0  0  0  0  0
   16.4749  -45.5743  -30.9703 N   0  0  0  0  0  0  0  0  0  0  0  0
   17.1463  -44.3946  -30.7921 C   0  0  0  0  0  0  0  0  0  0  0  0
   16.7476  -43.7474  -29.6754 N   0  0  0  0  0  0  0  0  0  0  0  0
   17.2460  -42.4519  -29.1574 C   0  0  1  0  0  0  0  0  0  0  0  0
   17.8271  -42.6235  -27.7636 C   0  0  1  0  0  0  0  0  0  0  0  0
   18.9320  -41.5989  -27.7286 C   0  0  2  0  0  0  0  0  0  0  0  0
   18.3886  -40.3270  -27.3692 O   0  0  0  0  0  0  0  0  0  0  0  0
   16.8536  -42.3327  -26.7597 O   0  0  0  0  0  0  0  0  0  0  0  0
   18.3004  -41.9373  -29.9791 O   0  0  0  0  0  0  0  0  0  0  0  0
   19.4094  -41.5448  -29.1668 C   0  0  2  0  0  0  0  0  0  0  0  0
   20.5749  -42.5014  -29.3658 C   0  0  0  0  0  0  0  0  0  0  0  0
   21.7657  -41.8611  -28.9106 O   0  0  0  0  0  0  0  0  0  0  0  0
   23.1755  -42.6397  -28.8647 P   0  0  0  0  0  0  0  0  0  0  0  0
   24.2245  -41.5536  -28.9222 O   0  0  0  0  0  0  0  0  0  0  0  0
   23.1227  -43.5168  -30.0932 O   0  0  0  0  0  0  0  0  0  0  0  0
   23.1220  -43.3838  -27.5510 O   0  0  0  0  0  0  0  0  0  0  0  0
  1  2  2  0  0  0  0
  2  4  1  0  0  0  0
  2  3  1  0  0  0  0
  4  7  1  0  0  0  0
  5  9  1  0  0  0  0
  5  4  2  0  0  0  0
  6  5  1  0  0  0  0
  8  7  2  0  0  0  0
  9  8  1  0  0  0  0
 10 15  1  0  0  0  0
 10  9  1  6  0  0  0
 10 11  1  0  0  0  0
 11 14  1  1  0  0  0
 11 12  1  0  0  0  0
 12 13  1  6  0  0  0
 15 16  1  0  0  0  0
 16 12  1  0  0  0  0
 16 17  1  1  0  0  0
 17 18  1  0  0  0  0
 18 19  1  0  0  0  0
 19 21  1  0  0  0  0
 19 20  1  0  0  0  0
 22 19  2  0  0  0  0
M  END
>  <CHROM.1>
-175.86472721,59.31403718,-81.48071861,174.93390758,156.39137158,18.70235080
-43.42664578,-28.99419764,-2.73212549,0.15280949,0.52515016

>  <Name>
lig.pdb

>  <RI>
0

>  <Rbt.Current_Directory>
/home/itssahil/PROJECTS/Mol_Feturizer/New_Systems/rnas/5btp

>  <Rbt.Executable>
rbdock ($Id: //depot/dev/client3/rdock/2013.1/src/exe/rbdock.cxx#4 $)

>  <Rbt.Library>
libRbt.so (2013.1, Build901 2013/11/27)

>  <Rbt.Parameter_File>
/export/apps/rDock/src/rDock_2013.1_src/data/scripts/dock_solv.prm

>  <Rbt.Receptor>
prm/blind_docking_100.prm

>  <SCORE>
-14.8757

>  <SCORE.INTER>
-15.5374

>  <SCORE.INTER.CONST>
1

>  <SCORE.INTER.POLAR>
0

>  <SCORE.INTER.ROT>
5

>  <SCORE.INTER.SOLV>
14.7426

>  <SCORE.INTER.VDW>
-22.2058

>  <SCORE.INTER.norm>
-0.706247

>  <SCORE.INTRA>
0.661727

>  <SCORE.INTRA.DIHEDRAL>
0.700875

>  <SCORE.INTRA.DIHEDRAL.0>
4.21161

>  <SCORE.INTRA.POLAR>
0

>  <SCORE.INTRA.POLAR.0>
0

>  <SCORE.INTRA.REPUL>
0

>  <SCORE.INTRA.REPUL.0>
0

>  <SCORE.INTRA.SOLV>
0.651297

>  <SCORE.INTRA.SOLV.lig_0>
-41.4168

>  <SCORE.INTRA.VDW>
-0.0143592

>  <SCORE.INTRA.VDW.0>
-1.62533

>  <SCORE.INTRA.norm>
0.0300785

>  <SCORE.RESTR>
0

>  <SCORE.RESTR.CAVITY>
0

>  <SCORE.RESTR.norm>
0

>  <SCORE.SYSTEM>
0

>  <SCORE.SYSTEM.CONST>
0

>  <SCORE.SYSTEM.DIHEDRAL>
0

>  <SCORE.SYSTEM.SOLV>
0

>  <SCORE.SYSTEM.norm>
0

>  <SCORE.heavy>
22

>  <SCORE.norm>
-0.676168

>  <RMSD>
16.727

$$$$
lig.pdb
 OpenBabel11021811523D
libRbt.so/2013.1/901 2013/11/27
 22 23  0  0  0  0  0  0  0  0999 V2000
   14.2512  -45.6606  -32.4046 O   0  0  0  0  0  0  0  0  0  0  0  0
   15.4697  -45.7250  -32.4532 C   0  0  0  0  0  0  0  0  0  0  0  0
   16.0966  -46.7250  -33.0726 N   0  0  0  0  0  0  0  0  0  0  0  0
   16.2875  -44.6692  -31.7917 C   0  0  0  0  0  0  0  0  0  0  0  0
   17.7530  -44.7140  -31.6686 C   0  0  0  0  0  0  0  0  0  0  0  0
   18.6070  -45.7854  -32.1646 N   0  0  0  0  0  0  0  0  0  0  0  0
   15.9561  -43.5017  -31.1973 N   0  0  0  0  0  0  0  0  0  0  0  0
   17.1060  -42.9025  -30.7576 C   0  0  0  0  0  0  0  0  0  0  0  0
   18.2026  -43.6379  -31.0432 N   0  0  0  0  0  0  0  0  0  0  0  0
   19.6133  -43.3130  -30.7279 C   0  0  1  0  0  0  0  0  0  0  0  0
   19.9365  -41.8864  -31.1404 C   0  0  1  0  0  0  0  0  0  0  0  0
   20.9523  -41.4583  -30.1124 C   0  0  2  0  0  0  0  0  0  0  0  0
   22.2513  -41.8933  -30.5192 O   0  0  0  0  0  0  0  0  0  0  0  0
   20.5106  -41.8450  -32.4474 O   0  0  0  0  0  0  0  0  0  0  0  0
   19.8615  -43.3974  -29.3196 O   0  0  0  0  0  0  0  0  0  0  0  0
   20.5409  -42.2229  -28.8692 C   0  0  2  0  0  0  0  0  0  0  0  0
   19.6142  -41.3709  -28.0157 C   0  0  0  0  0  0  0  0  0  0  0  0
   18.9668  -42.2195  -27.0692 O   0  0  0  0  0  0  0  0  0  0  0  0
   17.7004  -41.7124  -26.2119 P   0  0  0  0  0  0  0  0  0  0  0  0
   17.6902  -42.5828  -24.9767 O   0  0  0  0  0  0  0  0  0  0  0  0
   16.5375  -41.9479  -27.1464 O   0  0  0  0  0  0  0  0  0  0  0  0
   18.0167  -40.2592  -25.9461 O   0  0  0  0  0  0  0  0  0  0  0  0
  1  2  2  0  0  0  0
  2  4  1  0  0  0  0
  2  3  1  0  0  0  0
  4  7  1  0  0  0  0
  5  9  1  0  0  0  0
  5  4  2  0  0  0  0
  6  5  1  0  0  0  0
  8  7  2  0  0  0  0
  9  8  1  0  0  0  0
 10 15  1  0  0  0  0
 10  9  1  1  0  0  0
 10 11  1  0  0  0  0
 11 14  1  6  0  0  0
 11 12  1  0  0  0  0
 12 13  1  6  0  0  0
 15 16  1  0  0  0  0
 16 12  1  0  0  0  0
 16 17  1  1  0  0  0
 17 18  1  0  0  0  0
 18 19  1  0  0  0  0
 19 21  1  0  0  0  0
 19 20  1  0  0  0  0
 22 19  2  0  0  0  0
M  END
>  <CHROM.1>
173.57522034,131.58002848,164.46542148,-167.19377815,-156.06656563,18.26336365
-43.02663467,-29.66318756,1.91599542,-0.41236961,-2.01008463

>  <Name>
lig.pdb

>  <RI>
0

>  <Rbt.Current_Directory>
/home/itssahil/PROJECTS/Mol_Feturizer/New_Systems/rnas/5btp

>  <Rbt.Executable>
rbdock ($Id: //depot/dev/client3/rdock/2013.1/src/exe/rbdock.cxx#4 $)

>  <Rbt.Library>
libRbt.so (2013.1, Build901 2013/11/27)

>  <Rbt.Parameter_File>
/export/apps/rDock/src/rDock_2013.1_src/data/scripts/dock_solv.prm

>  <Rbt.Receptor>
prm/blind_docking_100.prm

>  <SCORE>
-16.6706

>  <SCORE.INTER>
-16.7843

>  <SCORE.INTER.CONST>
1

>  <SCORE.INTER.POLAR>
0

>  <SCORE.INTER.ROT>
5

>  <SCORE.INTER.SOLV>
24.7095

>  <SCORE.INTER.VDW>
-26.3593

>  <SCORE.INTER.norm>
-0.762921

>  <SCORE.INTRA>
0.113704

>  <SCORE.INTRA.DIHEDRAL>
0.785315

>  <SCORE.INTRA.DIHEDRAL.0>
4.21161

>  <SCORE.INTRA.POLAR>
0

>  <SCORE.INTRA.POLAR.0>
0

>  <SCORE.INTRA.REPUL>
0

>  <SCORE.INTRA.REPUL.0>
0

>  <SCORE.INTRA.SOLV>
0.059537

>  <SCORE.INTRA.SOLV.lig_0>
-41.4168

>  <SCORE.INTRA.VDW>
-0.308722

>  <SCORE.INTRA.VDW.0>
-1.62533

>  <SCORE.INTRA.norm>
0.00516838

>  <SCORE.RESTR>
0

>  <SCORE.RESTR.CAVITY>
0

>  <SCORE.RESTR.norm>
0

>  <SCORE.SYSTEM>
0

>  <SCORE.SYSTEM.CONST>
0

>  <SCORE.SYSTEM.DIHEDRAL>
0

>  <SCORE.SYSTEM.SOLV>
0

>  <SCORE.SYSTEM.norm>
0

>  <SCORE.heavy>
22

>  <SCORE.norm>
-0.757752

>  <RMSD>
16.745

$$$$
lig.pdb
 OpenBabel11021811523D
libRbt.so/2013.1/901 2013/11/27
 22 23  0  0  0  0  0  0  0  0999 V2000
   20.2969  -41.8806  -26.3485 O   0  0  0  0  0  0  0  0  0  0  0  0
   20.1994  -42.1063  -27.5446 C   0  0  0  0  0  0  0  0  0  0  0  0
   21.2302  -41.9512  -28.3754 N   0  0  0  0  0  0  0  0  0  0  0  0
   18.8920  -42.5532  -28.1032 C   0  0  0  0  0  0  0  0  0  0  0  0
   18.7097  -43.0726  -29.4677 C   0  0  0  0  0  0  0  0  0  0  0  0
   19.7660  -43.2193  -30.4605 N   0  0  0  0  0  0  0  0  0  0  0  0
   17.6500  -42.6129  -27.5738 N   0  0  0  0  0  0  0  0  0  0  0  0
   16.8024  -43.1162  -28.5240 C   0  0  0  0  0  0  0  0  0  0  0  0
   17.4443  -43.3976  -29.6788 N   0  0  0  0  0  0  0  0  0  0  0  0
   16.8616  -43.9548  -30.9218 C   0  0  1  0  0  0  0  0  0  0  0  0
   17.4673  -45.3138  -31.2317 C   0  0  1  0  0  0  0  0  0  0  0  0
   16.3305  -46.0483  -31.8949 C   0  0  2  0  0  0  0  0  0  0  0  0
   16.3006  -45.7202  -33.2854 O   0  0  0  0  0  0  0  0  0  0  0  0
   18.5689  -45.1939  -32.1329 O   0  0  0  0  0  0  0  0  0  0  0  0
   15.4501  -44.1580  -30.7857 O   0  0  0  0  0  0  0  0  0  0  0  0
   15.0985  -45.4727  -31.2238 C   0  0  2  0  0  0  0  0  0  0  0  0
   14.6996  -46.3362  -30.0371 C   0  0  0  0  0  0  0  0  0  0  0  0
   13.3135  -46.1260  -29.7731 O   0  0  0  0  0  0  0  0  0  0  0  0
   12.1707  -46.8618  -30.6383 P   0  0  0  0  0  0  0  0  0  0  0  0
   10.8717  -46.2415  -30.1787 O   0  0  0  0  0  0  0  0  0  0  0  0
   12.3339  -48.3141  -30.2571 O   0  0  0  0  0  0  0  0  0  0  0  0
   12.5459  -46.5341  -32.0646 O   0  0  0  0  0  0  0  0  0  0  0  0
  1  2  2  0  0  0  0
  2  4  1  0  0  0  0
  2  3  1  0  0  0  0
  4  7  1  0  0  0  0
  5  9  1  0  0  0  0
  5  4  2  0  0  0  0
  6  5  1  0  0  0  0
  8  7  2  0  0  0  0
  9  8  1  0  0  0  0
 10 15  1  0  0  0  0
 10  9  1  1  0  0  0
 10 11  1  0  0  0  0
 11 14  1  6  0  0  0
 11 12  1  0  0  0  0
 12 13  1  6  0  0  0
 15 16  1  0  0  0  0
 16 12  1  0  0  0  0
 16 17  1  1  0  0  0
 17 18  1  0  0  0  0
 18 19  1  0  0  0  0
 19 21  1  0  0  0  0
 19 20  1  0  0  0  0
 22 19  2  0  0  0  0
M  END
>  <CHROM.1>
-169.04211665,62.93552407,-156.74937011,80.13387689,-172.60955401,16.15283595
-44.75173954,-30.10138921,0.48798322,0.38532274,1.14340962

>  <Name>
lig.pdb

>  <RI>
0

>  <Rbt.Current_Directory>
/home/itssahil/PROJECTS/Mol_Feturizer/New_Systems/rnas/5btp

>  <Rbt.Executable>
rbdock ($Id: //depot/dev/client3/rdock/2013.1/src/exe/rbdock.cxx#4 $)

>  <Rbt.Library>
libRbt.so (2013.1, Build901 2013/11/27)

>  <Rbt.Parameter_File>
/export/apps/rDock/src/rDock_2013.1_src/data/scripts/dock_solv.prm

>  <Rbt.Receptor>
prm/blind_docking_80.prm

>  <SCORE>
-9.07269

>  <SCORE.INTER>
-10.6342

>  <SCORE.INTER.CONST>
1

>  <SCORE.INTER.POLAR>
0

>  <SCORE.INTER.ROT>
5

>  <SCORE.INTER.SOLV>
16.052

>  <SCORE.INTER.VDW>
-19.3734

>  <SCORE.INTER.norm>
-0.483371

>  <SCORE.INTRA>
1.56147

>  <SCORE.INTRA.DIHEDRAL>
2.2327

>  <SCORE.INTRA.DIHEDRAL.0>
4.21161

>  <SCORE.INTRA.POLAR>
0

>  <SCORE.INTRA.POLAR.0>
0

>  <SCORE.INTRA.REPUL>
0

>  <SCORE.INTRA.REPUL.0>
0

>  <SCORE.INTRA.SOLV>
1.7339

>  <SCORE.INTRA.SOLV.lig_0>
-41.4168

>  <SCORE.INTRA.VDW>
-0.421825

>  <SCORE.INTRA.VDW.0>
-1.62533

>  <SCORE.INTRA.norm>
0.0709761

>  <SCORE.RESTR>
0

>  <SCORE.RESTR.CAVITY>
0

>  <SCORE.RESTR.norm>
0

>  <SCORE.SYSTEM>
0

>  <SCORE.SYSTEM.CONST>
0

>  <SCORE.SYSTEM.DIHEDRAL>
0

>  <SCORE.SYSTEM.SOLV>
0

>  <SCORE.SYSTEM.norm>
0

>  <SCORE.heavy>
22

>  <SCORE.norm>
-0.412395

>  <RMSD>
16.777

$$$$
lig.pdb
 OpenBabel11021811523D
libRbt.so/2013.1/901 2013/11/27
 22 23  0  0  0  0  0  0  0  0999 V2000
   18.1840  -47.4761  -33.3516 O   0  0  0  0  0  0  0  0  0  0  0  0
   18.0924  -46.4305  -32.7276 C   0  0  0  0  0  0  0  0  0  0  0  0
   19.1684  -45.7355  -32.3587 N   0  0  0  0  0  0  0  0  0  0  0  0
   16.7454  -45.9165  -32.3500 C   0  0  0  0  0  0  0  0  0  0  0  0
   16.5164  -44.6840  -31.5796 C   0  0  0  0  0  0  0  0  0  0  0  0
   17.5597  -43.8003  -31.0759 N   0  0  0  0  0  0  0  0  0  0  0  0
   15.4972  -46.3756  -32.5899 N   0  0  0  0  0  0  0  0  0  0  0  0
   14.6042  -45.5084  -32.0198 C   0  0  0  0  0  0  0  0  0  0  0  0
   15.2213  -44.4766  -31.4038 N   0  0  0  0  0  0  0  0  0  0  0  0
   14.5881  -43.3471  -30.6840 C   0  0  1  0  0  0  0  0  0  0  0  0
   14.2517  -43.7464  -29.2567 C   0  0  1  0  0  0  0  0  0  0  0  0
   14.4230  -42.4573  -28.4948 C   0  0  2  0  0  0  0  0  0  0  0  0
   13.2216  -41.6889  -28.5861 O   0  0  0  0  0  0  0  0  0  0  0  0
   12.9027  -44.2041  -29.1537 O   0  0  0  0  0  0  0  0  0  0  0  0
   15.4761  -42.2265  -30.5962 O   0  0  0  0  0  0  0  0  0  0  0  0
   15.5261  -41.7433  -29.2516 C   0  0  2  0  0  0  0  0  0  0  0  0
   16.8761  -42.0589  -28.6265 C   0  0  0  0  0  0  0  0  0  0  0  0
   16.8286  -41.6994  -27.2468 O   0  0  0  0  0  0  0  0  0  0  0  0
   18.1227  -41.8342  -26.2966 P   0  0  0  0  0  0  0  0  0  0  0  0
   17.6256  -42.5400  -25.0563 O   0  0  0  0  0  0  0  0  0  0  0  0
   18.5333  -40.3984  -26.0709 O   0  0  0  0  0  0  0  0  0  0  0  0
   19.0861  -42.6462  -27.1301 O   0  0  0  0  0  0  0  0  0  0  0  0
  1  2  2  0  0  0  0
  2  4  1  0  0  0  0
  2  3  1  0  0  0  0
  4  7  1  0  0  0  0
  5  9  1  0  0  0  0
  5  4  2  0  0  0  0
  6  5  1  0  0  0  0
  8  7  2  0  0  0  0
  9  8  1  0  0  0  0
 10 15  1  0  0  0  0
 10  9  1  1  0  0  0
 10 11  1  0  0  0  0
 11 14  1  6  0  0  0
 11 12  1  0  0  0  0
 12 13  1  6  0  0  0
 15 16  1  0  0  0  0
 16 12  1  0  0  0  0
 16 17  1  1  0  0  0
 17 18  1  0  0  0  0
 18 19  1  0  0  0  0
 19 21  1  0  0  0  0
 19 20  1  0  0  0  0
 22 19  2  0  0  0  0
M  END
>  <CHROM.1>
178.85185811,-96.84336096,-56.14608061,-176.91777090,-132.06599524,16.43104758
-43.51546670,-29.51925974,-1.67172292,-0.17025175,0.92379562

>  <Name>
lig.pdb

>  <RI>
0

>  <Rbt.Current_Directory>
/home/itssahil/PROJECTS/Mol_Feturizer/New_Systems/rnas/5btp

>  <Rbt.Executable>
rbdock ($Id: //depot/dev/client3/rdock/2013.1/src/exe/rbdock.cxx#4 $)

>  <Rbt.Library>
libRbt.so (2013.1, Build901 2013/11/27)

>  <Rbt.Parameter_File>
/export/apps/rDock/src/rDock_2013.1_src/data/scripts/dock_solv.prm

>  <Rbt.Receptor>
prm/blind_docking_80.prm

>  <SCORE>
-10.9264

>  <SCORE.INTER>
-12.2269

>  <SCORE.INTER.CONST>
1

>  <SCORE.INTER.POLAR>
0

>  <SCORE.INTER.ROT>
5

>  <SCORE.INTER.SOLV>
21.2141

>  <SCORE.INTER.VDW>
-22.156

>  <SCORE.INTER.norm>
-0.55577

>  <SCORE.INTRA>
1.29889

>  <SCORE.INTRA.DIHEDRAL>
0.47135

>  <SCORE.INTRA.DIHEDRAL.0>
4.21161

>  <SCORE.INTRA.POLAR>
0

>  <SCORE.INTRA.POLAR.0>
0

>  <SCORE.INTRA.REPUL>
0

>  <SCORE.INTRA.REPUL.0>
0

>  <SCORE.INTRA.SOLV>
1.45108

>  <SCORE.INTRA.SOLV.lig_0>
-41.4168

>  <SCORE.INTRA.VDW>
0.337676

>  <SCORE.INTRA.VDW.0>
-1.62533

>  <SCORE.INTRA.norm>
0.0590406

>  <SCORE.RESTR>
0.0015975

>  <SCORE.RESTR.CAVITY>
0.0015975

>  <SCORE.RESTR.norm>
7.26137e-05

>  <SCORE.SYSTEM>
0

>  <SCORE.SYSTEM.CONST>
0

>  <SCORE.SYSTEM.DIHEDRAL>
0

>  <SCORE.SYSTEM.SOLV>
0

>  <SCORE.SYSTEM.norm>
0

>  <SCORE.heavy>
22

>  <SCORE.norm>
-0.496656

>  <RMSD>
16.803

$$$$
lig.pdb
 OpenBabel11021811523D
libRbt.so/2013.1/901 2013/11/27
 22 23  0  0  0  0  0  0  0  0999 V2000
   13.7115  -45.4037  -31.8654 O   0  0  0  0  0  0  0  0  0  0  0  0
   14.8455  -45.6716  -32.2307 C   0  0  0  0  0  0  0  0  0  0  0  0
   15.0895  -46.6425  -33.1108 N   0  0  0  0  0  0  0  0  0  0  0  0
   15.9966  -44.9078  -31.6715 C   0  0  0  0  0  0  0  0  0  0  0  0
   15.8705  -43.8362  -30.6711 C   0  0  0  0  0  0  0  0  0  0  0  0
   14.6178  -43.3682  -30.0924 N   0  0  0  0  0  0  0  0  0  0  0  0
   17.3283  -44.9815  -31.8894 N   0  0  0  0  0  0  0  0  0  0  0  0
   17.9443  -44.0469  -31.1011 C   0  0  0  0  0  0  0  0  0  0  0  0
   17.0596  -43.3475  -30.3574 N   0  0  0  0  0  0  0  0  0  0  0  0
   17.3522  -42.2633  -29.3911 C   0  0  1  0  0  0  0  0  0  0  0  0
   17.7355  -42.8431  -28.0396 C   0  0  1  0  0  0  0  0  0  0  0  0
   18.7218  -41.8360  -27.5061 C   0  0  2  0  0  0  0  0  0  0  0  0
   18.0141  -40.7687  -26.8719 O   0  0  0  0  0  0  0  0  0  0  0  0
   16.6020  -42.9285  -27.1749 O   0  0  0  0  0  0  0  0  0  0  0  0
   18.4628  -41.4693  -29.8249 O   0  0  0  0  0  0  0  0  0  0  0  0
   19.3983  -41.3075  -28.7560 C   0  0  2  0  0  0  0  0  0  0  0  0
   20.6653  -42.1001  -29.0382 C   0  0  0  0  0  0  0  0  0  0  0  0
   21.6193  -41.8014  -28.0204 O   0  0  0  0  0  0  0  0  0  0  0  0
   23.1369  -42.3356  -28.1061 P   0  0  0  0  0  0  0  0  0  0  0  0
   23.0312  -43.7208  -28.7007 O   0  0  0  0  0  0  0  0  0  0  0  0
   23.5905  -42.3117  -26.6657 O   0  0  0  0  0  0  0  0  0  0  0  0
   23.8139  -41.3245  -29.0015 O   0  0  0  0  0  0  0  0  0  0  0  0
  1  2  2  0  0  0  0
  2  4  1  0  0  0  0
  2  3  1  0  0  0  0
  4  7  1  0  0  0  0
  5  9  1  0  0  0  0
  5  4  2  0  0  0  0
  6  5  1  0  0  0  0
  8  7  2  0  0  0  0
  9  8  1  0  0  0  0
 10 15  1  0  0  0  0
 10  9  1  6  0  0  0
 10 11  1  0  0  0  0
 11 14  1  1  0  0  0
 11 12  1  0  0  0  0
 12 13  1  6  0  0  0
 15 16  1  0  0  0  0
 16 12  1  0  0  0  0
 16 17  1  6  0  0  0
 17 18  1  0  0  0  0
 18 19  1  0  0  0  0
 19 21  1  0  0  0  0
 19 20  1  0  0  0  0
 22 19  2  0  0  0  0
M  END
>  <CHROM.1>
0.84584585,96.55934523,-68.61649951,-172.66281834,-37.34479189,18.75955738
-43.05182126,-29.39830062,-2.59305570,-0.01208398,0.87423634

>  <Name>
lig.pdb

>  <RI>
0

>  <Rbt.Current_Directory>
/home/itssahil/PROJECTS/Mol_Feturizer/New_Systems/rnas/5btp

>  <Rbt.Executable>
rbdock ($Id: //depot/dev/client3/rdock/2013.1/src/exe/rbdock.cxx#4 $)

>  <Rbt.Library>
libRbt.so (2013.1, Build901 2013/11/27)

>  <Rbt.Parameter_File>
/export/apps/rDock/src/rDock_2013.1_src/data/scripts/dock_solv.prm

>  <Rbt.Receptor>
prm/blind_docking_100.prm

>  <SCORE>
-15.6591

>  <SCORE.INTER>
-15.1057

>  <SCORE.INTER.CONST>
1

>  <SCORE.INTER.POLAR>
0

>  <SCORE.INTER.ROT>
5

>  <SCORE.INTER.SOLV>
16.745

>  <SCORE.INTER.VDW>
-22.5854

>  <SCORE.INTER.norm>
-0.686621

>  <SCORE.INTRA>
-0.553401

>  <SCORE.INTRA.DIHEDRAL>
-0.497289

>  <SCORE.INTRA.DIHEDRAL.0>
4.21161

>  <SCORE.INTRA.POLAR>
0

>  <SCORE.INTRA.POLAR.0>
0

>  <SCORE.INTRA.REPUL>
0

>  <SCORE.INTRA.REPUL.0>
0

>  <SCORE.INTRA.SOLV>
-0.0137154

>  <SCORE.INTRA.SOLV.lig_0>
-41.4168

>  <SCORE.INTRA.VDW>
-0.297899

>  <SCORE.INTRA.VDW.0>
-1.62533

>  <SCORE.INTRA.norm>
-0.0251546

>  <SCORE.RESTR>
0

>  <SCORE.RESTR.CAVITY>
0

>  <SCORE.RESTR.norm>
0

>  <SCORE.SYSTEM>
0

>  <SCORE.SYSTEM.CONST>
0

>  <SCORE.SYSTEM.DIHEDRAL>
0

>  <SCORE.SYSTEM.SOLV>
0

>  <SCORE.SYSTEM.norm>
0

>  <SCORE.heavy>
22

>  <SCORE.norm>
-0.711776

>  <RMSD>
16.830

$$$$
lig.pdb
 OpenBabel11021811523D
libRbt.so/2013.1/901 2013/11/27
 22 23  0  0  0  0  0  0  0  0999 V2000
   13.8124  -44.7056  -32.0476 O   0  0  0  0  0  0  0  0  0  0  0  0
   14.9961  -45.0042  -32.0768 C   0  0  0  0  0  0  0  0  0  0  0  0
   15.4220  -46.1356  -32.6384 N   0  0  0  0  0  0  0  0  0  0  0  0
   15.9987  -44.0925  -31.4565 C   0  0  0  0  0  0  0  0  0  0  0  0
   17.4490  -44.3404  -31.4487 C   0  0  0  0  0  0  0  0  0  0  0  0
   18.1075  -45.5008  -32.0343 N   0  0  0  0  0  0  0  0  0  0  0  0
   15.8767  -42.9114  -30.8112 N   0  0  0  0  0  0  0  0  0  0  0  0
   17.1276  -42.4895  -30.4484 C   0  0  0  0  0  0  0  0  0  0  0  0
   18.0879  -43.3573  -30.8353 N   0  0  0  0  0  0  0  0  0  0  0  0
   19.5494  -43.2382  -30.6232 C   0  0  1  0  0  0  0  0  0  0  0  0
   20.0277  -41.8409  -30.9818 C   0  0  1  0  0  0  0  0  0  0  0  0
   21.1675  -41.6161  -30.0215 C   0  0  2  0  0  0  0  0  0  0  0  0
   22.3616  -42.1868  -30.5604 O   0  0  0  0  0  0  0  0  0  0  0  0
   20.5003  -41.7874  -32.3285 O   0  0  0  0  0  0  0  0  0  0  0  0
   19.8913  -43.4468  -29.2479 O   0  0  0  0  0  0  0  0  0  0  0  0
   20.7542  -42.4019  -28.7922 C   0  0  2  0  0  0  0  0  0  0  0  0
   20.0179  -41.4960  -27.8173 C   0  0  0  0  0  0  0  0  0  0  0  0
   19.1533  -42.3022  -27.0188 O   0  0  0  0  0  0  0  0  0  0  0  0
   17.8500  -41.6836  -26.3014 P   0  0  0  0  0  0  0  0  0  0  0  0
   16.7664  -41.7269  -27.3537 O   0  0  0  0  0  0  0  0  0  0  0  0
   18.2946  -40.2899  -25.9257 O   0  0  0  0  0  0  0  0  0  0  0  0
   17.6194  -42.6127  -25.1327 O   0  0  0  0  0  0  0  0  0  0  0  0
  1  2  2  0  0  0  0
  2  4  1  0  0  0  0
  2  3  1  0  0  0  0
  4  7  1  0  0  0  0
  5  9  1  0  0  0  0
  5  4  2  0  0  0  0
  6  5  1  0  0  0  0
  8  7  2  0  0  0  0
  9  8  1  0  0  0  0
 10 15  1  0  0  0  0
 10  9  1  1  0  0  0
 10 11  1  0  0  0  0
 11 14  1  6  0  0  0
 11 12  1  0  0  0  0
 12 13  1  6  0  0  0
 15 16  1  0  0  0  0
 16 12  1  0  0  0  0
 16 17  1  1  0  0  0
 17 18  1  0  0  0  0
 18 19  1  0  0  0  0
 19 21  1  0  0  0  0
 19 20  1  0  0  0  0
 22 19  2  0  0  0  0
M  END
>  <CHROM.1>
-179.10846887,133.49272782,154.36206111,-156.29195681,84.82149411,18.23172688
-42.85046885,-29.54054795,2.08979710,-0.30336462,-1.95476758

>  <Name>
lig.pdb

>  <RI>
0

>  <Rbt.Current_Directory>
/home/itssahil/PROJECTS/Mol_Feturizer/New_Systems/rnas/5btp

>  <Rbt.Executable>
rbdock ($Id: //depot/dev/client3/rdock/2013.1/src/exe/rbdock.cxx#4 $)

>  <Rbt.Library>
libRbt.so (2013.1, Build901 2013/11/27)

>  <Rbt.Parameter_File>
/export/apps/rDock/src/rDock_2013.1_src/data/scripts/dock_solv.prm

>  <Rbt.Receptor>
prm/blind_docking_60.prm

>  <SCORE>
-16.2932

>  <SCORE.INTER>
-17.6651

>  <SCORE.INTER.CONST>
1

>  <SCORE.INTER.POLAR>
0

>  <SCORE.INTER.ROT>
5

>  <SCORE.INTER.SOLV>
24.701

>  <SCORE.INTER.VDW>
-26.9437

>  <SCORE.INTER.norm>
-0.802959

>  <SCORE.INTRA>
1.37177

>  <SCORE.INTRA.DIHEDRAL>
3.56746

>  <SCORE.INTRA.DIHEDRAL.0>
4.21161

>  <SCORE.INTRA.POLAR>
0

>  <SCORE.INTRA.POLAR.0>
0

>  <SCORE.INTRA.REPUL>
0

>  <SCORE.INTRA.REPUL.0>
0

>  <SCORE.INTRA.SOLV>
0.106981

>  <SCORE.INTRA.SOLV.lig_0>
-41.4168

>  <SCORE.INTRA.VDW>
-0.46545

>  <SCORE.INTRA.VDW.0>
-1.62533

>  <SCORE.INTRA.norm>
0.0623531

>  <SCORE.RESTR>
0.00017216

>  <SCORE.RESTR.CAVITY>
0.00017216

>  <SCORE.RESTR.norm>
7.82548e-06

>  <SCORE.SYSTEM>
0

>  <SCORE.SYSTEM.CONST>
0

>  <SCORE.SYSTEM.DIHEDRAL>
0

>  <SCORE.SYSTEM.SOLV>
0

>  <SCORE.SYSTEM.norm>
0

>  <SCORE.heavy>
22

>  <SCORE.norm>
-0.740598

>  <RMSD>
16.920

$$$$
lig.pdb
 OpenBabel11021811523D
libRbt.so/2013.1/901 2013/11/27
 22 23  0  0  0  0  0  0  0  0999 V2000
   15.2043  -46.9733  -29.9207 O   0  0  0  0  0  0  0  0  0  0  0  0
   15.9815  -46.6459  -30.8038 C   0  0  0  0  0  0  0  0  0  0  0  0
   16.1939  -47.4128  -31.8731 N   0  0  0  0  0  0  0  0  0  0  0  0
   16.7296  -45.3624  -30.6847 C   0  0  0  0  0  0  0  0  0  0  0  0
   16.6075  -44.4363  -29.5479 C   0  0  0  0  0  0  0  0  0  0  0  0
   15.7450  -44.6339  -28.3902 N   0  0  0  0  0  0  0  0  0  0  0  0
   17.6355  -44.7604  -31.4867 N   0  0  0  0  0  0  0  0  0  0  0  0
   18.0203  -43.5875  -30.8945 C   0  0  0  0  0  0  0  0  0  0  0  0
   17.3965  -43.3868  -29.7132 N   0  0  0  0  0  0  0  0  0  0  0  0
   17.5586  -42.2382  -28.7916 C   0  0  1  0  0  0  0  0  0  0  0  0
   17.7131  -42.7222  -27.3592 C   0  0  1  0  0  0  0  0  0  0  0  0
   18.6262  -41.6896  -26.7493 C   0  0  2  0  0  0  0  0  0  0  0  0
   17.8520  -40.5713  -26.3110 O   0  0  0  0  0  0  0  0  0  0  0  0
   16.4569  -42.7318  -26.6798 O   0  0  0  0  0  0  0  0  0  0  0  0
   18.7407  -41.4902  -29.0999 O   0  0  0  0  0  0  0  0  0  0  0  0
   19.5012  -41.2611  -27.9112 C   0  0  2  0  0  0  0  0  0  0  0  0
   20.7787  -42.0861  -27.9340 C   0  0  0  0  0  0  0  0  0  0  0  0
   21.6680  -41.5126  -28.8908 O   0  0  0  0  0  0  0  0  0  0  0  0
   23.1196  -42.1497  -29.1787 P   0  0  0  0  0  0  0  0  0  0  0  0
   23.8005  -42.1971  -27.8305 O   0  0  0  0  0  0  0  0  0  0  0  0
   23.7361  -41.1723  -30.1511 O   0  0  0  0  0  0  0  0  0  0  0  0
   22.7975  -43.5061  -29.7607 O   0  0  0  0  0  0  0  0  0  0  0  0
  1  2  2  0  0  0  0
  2  4  1  0  0  0  0
  2  3  1  0  0  0  0
  4  7  1  0  0  0  0
  5  9  1  0  0  0  0
  5  4  2  0  0  0  0
  6  5  1  0  0  0  0
  8  7  2  0  0  0  0
  9  8  1  0  0  0  0
 10 15  1  0  0  0  0
 10  9  1  6  0  0  0
 10 11  1  0  0  0  0
 11 14  1  1  0  0  0
 11 12  1  0  0  0  0
 12 13  1  6  0  0  0
 15 16  1  0  0  0  0
 16 12  1  0  0  0  0
 16 17  1  6  0  0  0
 17 18  1  0  0  0  0
 18 19  1  0  0  0  0
 19 21  1  0  0  0  0
 19 20  1  0  0  0  0
 22 19  2  0  0  0  0
M  END
>  <CHROM.1>
0.43971537,45.84088621,-170.45148948,-179.52942530,-55.58987190,19.05845056
-43.17545209,-29.05758251,-2.65712928,0.26154542,0.78684216

>  <Name>
lig.pdb

>  <RI>
0

>  <Rbt.Current_Directory>
/home/itssahil/PROJECTS/Mol_Feturizer/New_Systems/rnas/5btp

>  <Rbt.Executable>
rbdock ($Id: //depot/dev/client3/rdock/2013.1/src/exe/rbdock.cxx#4 $)

>  <Rbt.Library>
libRbt.so (2013.1, Build901 2013/11/27)

>  <Rbt.Parameter_File>
/export/apps/rDock/src/rDock_2013.1_src/data/scripts/dock_solv.prm

>  <Rbt.Receptor>
prm/blind_docking_60.prm

>  <SCORE>
-18.6857

>  <SCORE.INTER>
-18.2229

>  <SCORE.INTER.CONST>
1

>  <SCORE.INTER.POLAR>
0

>  <SCORE.INTER.ROT>
5

>  <SCORE.INTER.SOLV>
14.8122

>  <SCORE.INTER.VDW>
-24.0194

>  <SCORE.INTER.norm>
-0.828315

>  <SCORE.INTRA>
-0.462769

>  <SCORE.INTRA.DIHEDRAL>
-1.4508

>  <SCORE.INTRA.DIHEDRAL.0>
4.21161

>  <SCORE.INTRA.POLAR>
0

>  <SCORE.INTRA.POLAR.0>
0

>  <SCORE.INTRA.REPUL>
0

>  <SCORE.INTRA.REPUL.0>
0

>  <SCORE.INTRA.SOLV>
0.494024

>  <SCORE.INTRA.SOLV.lig_0>
-41.4168

>  <SCORE.INTRA.VDW>
0.0156168

>  <SCORE.INTRA.VDW.0>
-1.62533

>  <SCORE.INTRA.norm>
-0.021035

>  <SCORE.RESTR>
0

>  <SCORE.RESTR.CAVITY>
0

>  <SCORE.RESTR.norm>
0

>  <SCORE.SYSTEM>
0

>  <SCORE.SYSTEM.CONST>
0

>  <SCORE.SYSTEM.DIHEDRAL>
0

>  <SCORE.SYSTEM.SOLV>
0

>  <SCORE.SYSTEM.norm>
0

>  <SCORE.heavy>
22

>  <SCORE.norm>
-0.84935

>  <RMSD>
16.980

$$$$
lig.pdb
 OpenBabel11021811523D
libRbt.so/2013.1/901 2013/11/27
 22 23  0  0  0  0  0  0  0  0999 V2000
   15.8420  -47.3309  -31.3987 O   0  0  0  0  0  0  0  0  0  0  0  0
   15.7016  -46.5674  -30.4562 C   0  0  0  0  0  0  0  0  0  0  0  0
   14.8336  -46.8139  -29.4751 N   0  0  0  0  0  0  0  0  0  0  0  0
   16.5075  -45.3149  -30.3996 C   0  0  0  0  0  0  0  0  0  0  0  0
   16.4931  -44.3723  -29.2700 C   0  0  0  0  0  0  0  0  0  0  0  0
   15.6956  -44.5214  -28.0596 N   0  0  0  0  0  0  0  0  0  0  0  0
   17.3866  -44.7599  -31.2630 N   0  0  0  0  0  0  0  0  0  0  0  0
   17.8546  -43.5977  -30.7108 C   0  0  0  0  0  0  0  0  0  0  0  0
   17.3128  -43.3585  -29.4967 N   0  0  0  0  0  0  0  0  0  0  0  0
   17.5778  -42.2078  -28.6019 C   0  0  1  0  0  0  0  0  0  0  0  0
   17.7297  -42.6751  -27.1637 C   0  0  1  0  0  0  0  0  0  0  0  0
   18.7280  -41.7001  -26.5942 C   0  0  2  0  0  0  0  0  0  0  0  0
   18.0463  -40.5209  -26.1620 O   0  0  0  0  0  0  0  0  0  0  0  0
   16.4917  -42.5815  -26.4577 O   0  0  0  0  0  0  0  0  0  0  0  0
   18.8032  -41.5529  -28.9503 O   0  0  0  0  0  0  0  0  0  0  0  0
   19.6050  -41.3574  -27.7829 C   0  0  2  0  0  0  0  0  0  0  0  0
   20.8191  -42.2727  -27.8163 C   0  0  0  0  0  0  0  0  0  0  0  0
   21.7218  -41.7872  -28.8086 O   0  0  0  0  0  0  0  0  0  0  0  0
   23.1059  -42.5462  -29.1313 P   0  0  0  0  0  0  0  0  0  0  0  0
   23.8848  -41.5868  -30.0009 O   0  0  0  0  0  0  0  0  0  0  0  0
   22.6520  -43.7992  -29.8421 O   0  0  0  0  0  0  0  0  0  0  0  0
   23.7070  -42.7746  -27.7642 O   0  0  0  0  0  0  0  0  0  0  0  0
  1  2  2  0  0  0  0
  2  4  1  0  0  0  0
  2  3  1  0  0  0  0
  4  7  1  0  0  0  0
  5  9  1  0  0  0  0
  5  4  2  0  0  0  0
  6  5  1  0  0  0  0
  8  7  2  0  0  0  0
  9  8  1  0  0  0  0
 10 15  1  0  0  0  0
 10  9  1  6  0  0  0
 10 11  1  0  0  0  0
 11 14  1  1  0  0  0
 11 12  1  0  0  0  0
 12 13  1  6  0  0  0
 15 16  1  0  0  0  0
 16 12  1  0  0  0  0
 16 17  1  6  0  0  0
 17 18  1  0  0  0  0
 18 19  1  0  0  0  0
 19 21  1  0  0  0  0
 19 20  1  0  0  0  0
 22 19  2  0  0  0  0
M  END
>  <CHROM.1>
-175.42298861,42.97275571,-170.78544916,-178.60474492,-168.57391644,19.00878986
-43.27005022,-28.88281782,-2.72215091,0.23006557,0.77833500

>  <Name>
lig.pdb

>  <RI>
0

>  <Rbt.Current_Directory>
/home/itssahil/PROJECTS/Mol_Feturizer/New_Systems/rnas/5btp

>  <Rbt.Executable>
rbdock ($Id: //depot/dev/client3/rdock/2013.1/src/exe/rbdock.cxx#4 $)

>  <Rbt.Library>
libRbt.so (2013.1, Build901 2013/11/27)

>  <Rbt.Parameter_File>
/export/apps/rDock/src/rDock_2013.1_src/data/scripts/dock_solv.prm

>  <Rbt.Receptor>
prm/blind_docking_60.prm

>  <SCORE>
-18.7639

>  <SCORE.INTER>
-18.7585

>  <SCORE.INTER.CONST>
1

>  <SCORE.INTER.POLAR>
0

>  <SCORE.INTER.ROT>
5

>  <SCORE.INTER.SOLV>
14.7024

>  <SCORE.INTER.VDW>
-24.3398

>  <SCORE.INTER.norm>
-0.852661

>  <SCORE.INTRA>
-0.00538199

>  <SCORE.INTRA.DIHEDRAL>
-1.21395

>  <SCORE.INTRA.DIHEDRAL.0>
4.21161

>  <SCORE.INTRA.POLAR>
0

>  <SCORE.INTRA.POLAR.0>
0

>  <SCORE.INTRA.REPUL>
0

>  <SCORE.INTRA.REPUL.0>
0

>  <SCORE.INTRA.SOLV>
0.807657

>  <SCORE.INTRA.SOLV.lig_0>
-41.4168

>  <SCORE.INTRA.VDW>
0.197765

>  <SCORE.INTRA.VDW.0>
-1.62533

>  <SCORE.INTRA.norm>
-0.000244636

>  <SCORE.RESTR>
0

>  <SCORE.RESTR.CAVITY>
0

>  <SCORE.RESTR.norm>
0

>  <SCORE.SYSTEM>
0

>  <SCORE.SYSTEM.CONST>
0

>  <SCORE.SYSTEM.DIHEDRAL>
0

>  <SCORE.SYSTEM.SOLV>
0

>  <SCORE.SYSTEM.norm>
0

>  <SCORE.heavy>
22

>  <SCORE.norm>
-0.852905

>  <RMSD>
16.983

$$$$
lig.pdb
 OpenBabel11021811523D
libRbt.so/2013.1/901 2013/11/27
 22 23  0  0  0  0  0  0  0  0999 V2000
   20.3712  -41.1357  -28.3666 O   0  0  0  0  0  0  0  0  0  0  0  0
   20.0954  -41.8277  -29.3341 C   0  0  0  0  0  0  0  0  0  0  0  0
   21.0396  -42.3563  -30.1124 N   0  0  0  0  0  0  0  0  0  0  0  0
   18.6661  -42.0816  -29.6715 C   0  0  0  0  0  0  0  0  0  0  0  0
   18.2131  -43.0705  -30.6623 C   0  0  0  0  0  0  0  0  0  0  0  0
   19.0847  -43.9311  -31.4516 N   0  0  0  0  0  0  0  0  0  0  0  0
   17.5141  -41.5472  -29.2091 N   0  0  0  0  0  0  0  0  0  0  0  0
   16.4704  -42.1515  -29.8571 C   0  0  0  0  0  0  0  0  0  0  0  0
   16.8923  -43.0801  -30.7429 N   0  0  0  0  0  0  0  0  0  0  0  0
   16.0580  -43.9340  -31.6202 C   0  0  1  0  0  0  0  0  0  0  0  0
   16.2438  -45.4010  -31.2689 C   0  0  1  0  0  0  0  0  0  0  0  0
   14.8904  -45.9945  -31.5654 C   0  0  2  0  0  0  0  0  0  0  0  0
   14.8073  -46.3155  -32.9554 O   0  0  0  0  0  0  0  0  0  0  0  0
   17.2392  -46.0069  -32.0947 O   0  0  0  0  0  0  0  0  0  0  0  0
   14.6651  -43.6463  -31.4495 O   0  0  0  0  0  0  0  0  0  0  0  0
   13.9323  -44.8593  -31.2612 C   0  0  2  0  0  0  0  0  0  0  0  0
   13.4407  -44.9623  -29.8256 C   0  0  0  0  0  0  0  0  0  0  0  0
   14.5510  -44.7572  -28.9537 O   0  0  0  0  0  0  0  0  0  0  0  0
   14.3887  -44.8305  -27.3524 P   0  0  0  0  0  0  0  0  0  0  0  0
   15.7660  -44.5348  -26.8055 O   0  0  0  0  0  0  0  0  0  0  0  0
   13.9200  -46.2473  -27.1199 O   0  0  0  0  0  0  0  0  0  0  0  0
   13.3598  -43.7649  -27.0556 O   0  0  0  0  0  0  0  0  0  0  0  0
  1  2  2  0  0  0  0
  2  4  1  0  0  0  0
  2  3  1  0  0  0  0
  4  7  1  0  0  0  0
  5  9  1  0  0  0  0
  5  4  2  0  0  0  0
  6  5  1  0  0  0  0
  8  7  2  0  0  0  0
  9  8  1  0  0  0  0
 10 15  1  0  0  0  0
 10  9  1  1  0  0  0
 10 11  1  0  0  0  0
 11 14  1  6  0  0  0
 11 12  1  0  0  0  0
 12 13  1  6  0  0  0
 15 16  1  0  0  0  0
 16 12  1  0  0  0  0
 16 17  1  1  0  0  0
 17 18  1  0  0  0  0
 18 19  1  0  0  0  0
 19 21  1  0  0  0  0
 19 20  1  0  0  0  0
 22 19  2  0  0  0  0
M  END
>  <CHROM.1>
-169.25174047,62.92836943,65.48841157,-178.69878507,-178.92318201,16.25761973
-44.02635698,-29.76423783,0.04246580,0.52018460,1.23220589

>  <Name>
lig.pdb

>  <RI>
0

>  <Rbt.Current_Directory>
/home/itssahil/PROJECTS/Mol_Feturizer/New_Systems/rnas/5btp

>  <Rbt.Executable>
rbdock ($Id: //depot/dev/client3/rdock/2013.1/src/exe/rbdock.cxx#4 $)

>  <Rbt.Library>
libRbt.so (2013.1, Build901 2013/11/27)

>  <Rbt.Parameter_File>
/export/apps/rDock/src/rDock_2013.1_src/data/scripts/dock_solv.prm

>  <Rbt.Receptor>
prm/blind_docking_60.prm

>  <SCORE>
-12.2867

>  <SCORE.INTER>
-11.2801

>  <SCORE.INTER.CONST>
1

>  <SCORE.INTER.POLAR>
0

>  <SCORE.INTER.ROT>
5

>  <SCORE.INTER.SOLV>
17.876

>  <SCORE.INTER.VDW>
-20.4121

>  <SCORE.INTER.norm>
-0.512732

>  <SCORE.INTRA>
-1.00657

>  <SCORE.INTRA.DIHEDRAL>
-1.28044

>  <SCORE.INTRA.DIHEDRAL.0>
4.21161

>  <SCORE.INTRA.POLAR>
0

>  <SCORE.INTRA.POLAR.0>
0

>  <SCORE.INTRA.REPUL>
0

>  <SCORE.INTRA.REPUL.0>
0

>  <SCORE.INTRA.SOLV>
1.52507

>  <SCORE.INTRA.SOLV.lig_0>
-41.4168

>  <SCORE.INTRA.VDW>
-1.12889

>  <SCORE.INTRA.VDW.0>
-1.62533

>  <SCORE.INTRA.norm>
-0.0457534

>  <SCORE.RESTR>
0

>  <SCORE.RESTR.CAVITY>
0

>  <SCORE.RESTR.norm>
0

>  <SCORE.SYSTEM>
0

>  <SCORE.SYSTEM.CONST>
0

>  <SCORE.SYSTEM.DIHEDRAL>
0

>  <SCORE.SYSTEM.SOLV>
0

>  <SCORE.SYSTEM.norm>
0

>  <SCORE.heavy>
22

>  <SCORE.norm>
-0.558486

>  <RMSD>
16.995

$$$$
lig.pdb
 OpenBabel11021811523D
libRbt.so/2013.1/901 2013/11/27
 22 23  0  0  0  0  0  0  0  0999 V2000
   15.7260  -47.2753  -31.4008 O   0  0  0  0  0  0  0  0  0  0  0  0
   15.6269  -46.5324  -30.4368 C   0  0  0  0  0  0  0  0  0  0  0  0
   14.7826  -46.7867  -29.4372 N   0  0  0  0  0  0  0  0  0  0  0  0
   16.4575  -45.2966  -30.3740 C   0  0  0  0  0  0  0  0  0  0  0  0
   16.4476  -44.3496  -29.2479 C   0  0  0  0  0  0  0  0  0  0  0  0
   15.6313  -44.4777  -28.0477 N   0  0  0  0  0  0  0  0  0  0  0  0
   17.3592  -44.7629  -31.2276 N   0  0  0  0  0  0  0  0  0  0  0  0
   17.8437  -43.6086  -30.6733 C   0  0  0  0  0  0  0  0  0  0  0  0
   17.2909  -43.3537  -29.4674 N   0  0  0  0  0  0  0  0  0  0  0  0
   17.5677  -42.2053  -28.5732 C   0  0  1  0  0  0  0  0  0  0  0  0
   17.7422  -42.6768  -27.1389 C   0  0  1  0  0  0  0  0  0  0  0  0
   18.7476  -41.7019  -26.5817 C   0  0  2  0  0  0  0  0  0  0  0  0
   18.0707  -40.5251  -26.1355 O   0  0  0  0  0  0  0  0  0  0  0  0
   16.5149  -42.5873  -26.4138 O   0  0  0  0  0  0  0  0  0  0  0  0
   18.7867  -41.5474  -28.9381 O   0  0  0  0  0  0  0  0  0  0  0  0
   19.6058  -41.3542  -27.7825 C   0  0  2  0  0  0  0  0  0  0  0  0
   20.8208  -42.2674  -27.8372 C   0  0  0  0  0  0  0  0  0  0  0  0
   21.7182  -41.7641  -28.8254 O   0  0  0  0  0  0  0  0  0  0  0  0
   23.0782  -42.5417  -29.2016 P   0  0  0  0  0  0  0  0  0  0  0  0
   22.6266  -43.8168  -29.8750 O   0  0  0  0  0  0  0  0  0  0  0  0
   23.7371  -42.7491  -27.8585 O   0  0  0  0  0  0  0  0  0  0  0  0
   23.7928  -41.5747  -30.1164 O   0  0  0  0  0  0  0  0  0  0  0  0
  1  2  2  0  0  0  0
  2  4  1  0  0  0  0
  2  3  1  0  0  0  0
  4  7  1  0  0  0  0
  5  9  1  0  0  0  0
  5  4  2  0  0  0  0
  6  5  1  0  0  0  0
  8  7  2  0  0  0  0
  9  8  1  0  0  0  0
 10 15  1  0  0  0  0
 10  9  1  6  0  0  0
 10 11  1  0  0  0  0
 11 14  1  1  0  0  0
 11 12  1  0  0  0  0
 12 13  1  6  0  0  0
 15 16  1  0  0  0  0
 16 12  1  0  0  0  0
 16 17  1  6  0  0  0
 17 18  1  0  0  0  0
 18 19  1  0  0  0  0
 19 21  1  0  0  0  0
 19 20  1  0  0  0  0
 22 19  2  0  0  0  0
M  END
>  <CHROM.1>
-178.29679267,45.07292913,-169.79081126,-176.57909478,67.71268155,18.98504274
-43.25931590,-28.88759201,-2.73560781,0.24018939,0.78908211

>  <Name>
lig.pdb

>  <RI>
0

>  <Rbt.Current_Directory>
/home/itssahil/PROJECTS/Mol_Feturizer/New_Systems/rnas/5btp

>  <Rbt.Executable>
rbdock ($Id: //depot/dev/client3/rdock/2013.1/src/exe/rbdock.cxx#4 $)

>  <Rbt.Library>
libRbt.so (2013.1, Build901 2013/11/27)

>  <Rbt.Parameter_File>
/export/apps/rDock/src/rDock_2013.1_src/data/scripts/dock_solv.prm

>  <Rbt.Receptor>
prm/blind_docking_60.prm

>  <SCORE>
-18.8619

>  <SCORE.INTER>
-18.5782

>  <SCORE.INTER.CONST>
1

>  <SCORE.INTER.POLAR>
0

>  <SCORE.INTER.ROT>
5

>  <SCORE.INTER.SOLV>
14.558

>  <SCORE.INTER.VDW>
-24.1715

>  <SCORE.INTER.norm>
-0.844463

>  <SCORE.INTRA>
-0.283663

>  <SCORE.INTRA.DIHEDRAL>
-1.27523

>  <SCORE.INTRA.DIHEDRAL.0>
4.21161

>  <SCORE.INTRA.POLAR>
0

>  <SCORE.INTRA.POLAR.0>
0

>  <SCORE.INTRA.REPUL>
0

>  <SCORE.INTRA.REPUL.0>
0

>  <SCORE.INTRA.SOLV>
0.541719

>  <SCORE.INTRA.SOLV.lig_0>
-41.4168

>  <SCORE.INTRA.VDW>
0.083092

>  <SCORE.INTRA.VDW.0>
-1.62533

>  <SCORE.INTRA.norm>
-0.0128938

>  <SCORE.RESTR>
0

>  <SCORE.RESTR.CAVITY>
0

>  <SCORE.RESTR.norm>
0

>  <SCORE.SYSTEM>
0

>  <SCORE.SYSTEM.CONST>
0

>  <SCORE.SYSTEM.DIHEDRAL>
0

>  <SCORE.SYSTEM.SOLV>
0

>  <SCORE.SYSTEM.norm>
0

>  <SCORE.heavy>
22

>  <SCORE.norm>
-0.857357

>  <RMSD>
16.998

$$$$
lig.pdb
 OpenBabel11021811523D
libRbt.so/2013.1/901 2013/11/27
 22 23  0  0  0  0  0  0  0  0999 V2000
   14.4910  -45.2137  -31.8694 O   0  0  0  0  0  0  0  0  0  0  0  0
   15.6584  -45.3262  -32.2095 C   0  0  0  0  0  0  0  0  0  0  0  0
   16.0321  -46.1696  -33.1717 N   0  0  0  0  0  0  0  0  0  0  0  0
   16.7038  -44.5135  -31.5254 C   0  0  0  0  0  0  0  0  0  0  0  0
   16.4363  -43.5894  -30.4122 C   0  0  0  0  0  0  0  0  0  0  0  0
   15.1267  -43.3336  -29.8269 N   0  0  0  0  0  0  0  0  0  0  0  0
   18.0397  -44.4147  -31.7040 N   0  0  0  0  0  0  0  0  0  0  0  0
   18.5294  -43.5193  -30.7913 C   0  0  0  0  0  0  0  0  0  0  0  0
   17.5557  -43.0147  -30.0026 N   0  0  0  0  0  0  0  0  0  0  0  0
   17.7034  -42.0283  -28.9071 C   0  0  1  0  0  0  0  0  0  0  0  0
   17.5566  -42.7073  -27.5553 C   0  0  1  0  0  0  0  0  0  0  0  0
   18.4763  -41.9045  -26.6712 C   0  0  2  0  0  0  0  0  0  0  0  0
   17.7845  -40.7501  -26.1908 O   0  0  0  0  0  0  0  0  0  0  0  0
   16.2135  -42.6199  -27.0775 O   0  0  0  0  0  0  0  0  0  0  0  0
   19.0036  -41.4274  -28.9235 O   0  0  0  0  0  0  0  0  0  0  0  0
   19.5785  -41.4642  -27.6150 C   0  0  2  0  0  0  0  0  0  0  0  0
   20.7299  -42.4569  -27.5714 C   0  0  0  0  0  0  0  0  0  0  0  0
   21.8125  -41.9244  -28.3328 O   0  0  0  0  0  0  0  0  0  0  0  0
   23.1646  -42.7661  -28.5762 P   0  0  0  0  0  0  0  0  0  0  0  0
   23.4873  -43.3845  -27.2357 O   0  0  0  0  0  0  0  0  0  0  0  0
   24.1482  -41.7118  -29.0259 O   0  0  0  0  0  0  0  0  0  0  0  0
   22.7703  -43.7618  -29.6417 O   0  0  0  0  0  0  0  0  0  0  0  0
  1  2  2  0  0  0  0
  2  4  1  0  0  0  0
  2  3  1  0  0  0  0
  4  7  1  0  0  0  0
  5  9  1  0  0  0  0
  5  4  2  0  0  0  0
  6  5  1  0  0  0  0
  8  7  2  0  0  0  0
  9  8  1  0  0  0  0
 10 15  1  0  0  0  0
 10  9  1  6  0  0  0
 10 11  1  0  0  0  0
 11 14  1  1  0  0  0
 11 12  1  0  0  0  0
 12 13  1  6  0  0  0
 15 16  1  0  0  0  0
 16 12  1  0  0  0  0
 16 17  1  6  0  0  0
 17 18  1  0  0  0  0
 18 19  1  0  0  0  0
 19 21  1  0  0  0  0
 19 20  1  0  0  0  0
 22 19  2  0  0  0  0
M  END
>  <CHROM.1>
1.99863146,73.56314308,-172.58228824,-175.98644246,-43.28678109,19.02283210
-43.03685019,-29.21299166,-2.64750989,0.00489120,0.97929455

>  <Name>
lig.pdb

>  <RI>
0

>  <Rbt.Current_Directory>
/home/itssahil/PROJECTS/Mol_Feturizer/New_Systems/rnas/5btp

>  <Rbt.Executable>
rbdock ($Id: //depot/dev/client3/rdock/2013.1/src/exe/rbdock.cxx#4 $)

>  <Rbt.Library>
libRbt.so (2013.1, Build901 2013/11/27)

>  <Rbt.Parameter_File>
/export/apps/rDock/src/rDock_2013.1_src/data/scripts/dock_solv.prm

>  <Rbt.Receptor>
prm/blind_docking_60.prm

>  <SCORE>
-19.912

>  <SCORE.INTER>
-18.9494

>  <SCORE.INTER.CONST>
1

>  <SCORE.INTER.POLAR>
0

>  <SCORE.INTER.ROT>
5

>  <SCORE.INTER.SOLV>
18.1176

>  <SCORE.INTER.VDW>
-25.6055

>  <SCORE.INTER.norm>
-0.861337

>  <SCORE.INTRA>
-0.962618

>  <SCORE.INTRA.DIHEDRAL>
-1.07153

>  <SCORE.INTRA.DIHEDRAL.0>
4.21161

>  <SCORE.INTRA.POLAR>
0

>  <SCORE.INTRA.POLAR.0>
0

>  <SCORE.INTRA.REPUL>
0

>  <SCORE.INTRA.REPUL.0>
0

>  <SCORE.INTRA.SOLV>
0.191209

>  <SCORE.INTRA.SOLV.lig_0>
-41.4168

>  <SCORE.INTRA.VDW>
-0.522456

>  <SCORE.INTRA.VDW.0>
-1.62533

>  <SCORE.INTRA.norm>
-0.0437553

>  <SCORE.RESTR>
0

>  <SCORE.RESTR.CAVITY>
0

>  <SCORE.RESTR.norm>
0

>  <SCORE.SYSTEM>
0

>  <SCORE.SYSTEM.CONST>
0

>  <SCORE.SYSTEM.DIHEDRAL>
0

>  <SCORE.SYSTEM.SOLV>
0

>  <SCORE.SYSTEM.norm>
0

>  <SCORE.heavy>
22

>  <SCORE.norm>
-0.905092

>  <RMSD>
17.002

$$$$
lig.pdb
 OpenBabel11021811523D
libRbt.so/2013.1/901 2013/11/27
 22 23  0  0  0  0  0  0  0  0999 V2000
   15.7603  -47.3849  -31.3098 O   0  0  0  0  0  0  0  0  0  0  0  0
   15.6242  -46.5978  -30.3862 C   0  0  0  0  0  0  0  0  0  0  0  0
   14.7568  -46.8168  -29.3980 N   0  0  0  0  0  0  0  0  0  0  0  0
   16.4348  -45.3474  -30.3617 C   0  0  0  0  0  0  0  0  0  0  0  0
   16.4176  -44.3719  -29.2604 C   0  0  0  0  0  0  0  0  0  0  0  0
   15.6124  -44.4821  -28.0510 N   0  0  0  0  0  0  0  0  0  0  0  0
   17.3212  -44.8215  -31.2358 N   0  0  0  0  0  0  0  0  0  0  0  0
   17.7906  -43.6453  -30.7153 C   0  0  0  0  0  0  0  0  0  0  0  0
   17.2427  -43.3684  -29.5120 N   0  0  0  0  0  0  0  0  0  0  0  0
   17.5071  -42.1928  -28.6500 C   0  0  1  0  0  0  0  0  0  0  0  0
   17.7497  -42.6287  -27.2143 C   0  0  1  0  0  0  0  0  0  0  0  0
   18.7365  -41.6062  -26.7119 C   0  0  2  0  0  0  0  0  0  0  0  0
   18.0316  -40.4467  -26.2637 O   0  0  0  0  0  0  0  0  0  0  0  0
   16.5463  -42.5705  -26.4474 O   0  0  0  0  0  0  0  0  0  0  0  0
   18.6867  -41.4974  -29.0707 O   0  0  0  0  0  0  0  0  0  0  0  0
   19.5381  -41.2509  -27.9490 C   0  0  2  0  0  0  0  0  0  0  0  0
   20.7841  -42.1192  -28.0303 C   0  0  0  0  0  0  0  0  0  0  0  0
   21.5652  -41.6829  -29.1415 O   0  0  0  0  0  0  0  0  0  0  0  0
   22.9792  -42.3684  -29.4975 P   0  0  0  0  0  0  0  0  0  0  0  0
   22.6483  -43.8101  -29.8067 O   0  0  0  0  0  0  0  0  0  0  0  0
   23.7824  -42.1736  -28.2334 O   0  0  0  0  0  0  0  0  0  0  0  0
   23.4644  -41.5730  -30.6867 O   0  0  0  0  0  0  0  0  0  0  0  0
  1  2  2  0  0  0  0
  2  4  1  0  0  0  0
  2  3  1  0  0  0  0
  4  7  1  0  0  0  0
  5  9  1  0  0  0  0
  5  4  2  0  0  0  0
  6  5  1  0  0  0  0
  8  7  2  0  0  0  0
  9  8  1  0  0  0  0
 10 15  1  0  0  0  0
 10  9  1  6  0  0  0
 10 11  1  0  0  0  0
 11 14  1  1  0  0  0
 11 12  1  0  0  0  0
 12 13  1  6  0  0  0
 15 16  1  0  0  0  0
 16 12  1  0  0  0  0
 16 17  1  6  0  0  0
 17 18  1  0  0  0  0
 18 19  1  0  0  0  0
 19 21  1  0  0  0  0
 19 20  1  0  0  0  0
 22 19  2  0  0  0  0
M  END
>  <CHROM.1>
-175.92819043,47.11690710,-175.29856194,178.50312311,61.92365498,18.93568995
-43.20362994,-29.00946117,-2.74023966,0.28889205,0.77193658

>  <Name>
lig.pdb

>  <RI>
0

>  <Rbt.Current_Directory>
/home/itssahil/PROJECTS/Mol_Feturizer/New_Systems/rnas/5btp

>  <Rbt.Executable>
rbdock ($Id: //depot/dev/client3/rdock/2013.1/src/exe/rbdock.cxx#4 $)

>  <Rbt.Library>
libRbt.so (2013.1, Build901 2013/11/27)

>  <Rbt.Parameter_File>
/export/apps/rDock/src/rDock_2013.1_src/data/scripts/dock_solv.prm

>  <Rbt.Receptor>
prm/blind_docking_100.prm

>  <SCORE>
-18.9861

>  <SCORE.INTER>
-18.4247

>  <SCORE.INTER.CONST>
1

>  <SCORE.INTER.POLAR>
0

>  <SCORE.INTER.ROT>
5

>  <SCORE.INTER.SOLV>
14.619

>  <SCORE.INTER.VDW>
-24.0895

>  <SCORE.INTER.norm>
-0.837487

>  <SCORE.INTRA>
-0.561424

>  <SCORE.INTRA.DIHEDRAL>
-1.64721

>  <SCORE.INTRA.DIHEDRAL.0>
4.21161

>  <SCORE.INTRA.POLAR>
0

>  <SCORE.INTRA.POLAR.0>
0

>  <SCORE.INTRA.REPUL>
0

>  <SCORE.INTRA.REPUL.0>
0

>  <SCORE.INTRA.SOLV>
0.524212

>  <SCORE.INTRA.SOLV.lig_0>
-41.4168

>  <SCORE.INTRA.VDW>
7.78445e-05

>  <SCORE.INTRA.VDW.0>
-1.62533

>  <SCORE.INTRA.norm>
-0.0255193

>  <SCORE.RESTR>
0

>  <SCORE.RESTR.CAVITY>
0

>  <SCORE.RESTR.norm>
0

>  <SCORE.SYSTEM>
0

>  <SCORE.SYSTEM.CONST>
0

>  <SCORE.SYSTEM.DIHEDRAL>
0

>  <SCORE.SYSTEM.SOLV>
0

>  <SCORE.SYSTEM.norm>
0

>  <SCORE.heavy>
22

>  <SCORE.norm>
-0.863007

>  <RMSD>
17.006

$$$$
lig.pdb
 OpenBabel11021811523D
libRbt.so/2013.1/901 2013/11/27
 22 23  0  0  0  0  0  0  0  0999 V2000
   15.6492  -47.2526  -31.3961 O   0  0  0  0  0  0  0  0  0  0  0  0
   15.5433  -46.4976  -30.4422 C   0  0  0  0  0  0  0  0  0  0  0  0
   14.6841  -46.7337  -29.4508 N   0  0  0  0  0  0  0  0  0  0  0  0
   16.3827  -45.2675  -30.3829 C   0  0  0  0  0  0  0  0  0  0  0  0
   16.3829  -44.3197  -29.2575 C   0  0  0  0  0  0  0  0  0  0  0  0
   15.5696  -44.4413  -28.0546 N   0  0  0  0  0  0  0  0  0  0  0  0
   17.2852  -44.7407  -31.2397 N   0  0  0  0  0  0  0  0  0  0  0  0
   17.7795  -43.5893  -30.6879 C   0  0  0  0  0  0  0  0  0  0  0  0
   17.2324  -43.3298  -29.4803 N   0  0  0  0  0  0  0  0  0  0  0  0
   17.5200  -42.1828  -28.5878 C   0  0  1  0  0  0  0  0  0  0  0  0
   17.6873  -42.6534  -27.1524 C   0  0  1  0  0  0  0  0  0  0  0  0
   18.7021  -41.6882  -26.5954 C   0  0  2  0  0  0  0  0  0  0  0  0
   18.0370  -40.5035  -26.1524 O   0  0  0  0  0  0  0  0  0  0  0  0
   16.4599  -42.5496  -26.4294 O   0  0  0  0  0  0  0  0  0  0  0  0
   18.7464  -41.5385  -28.9521 O   0  0  0  0  0  0  0  0  0  0  0  0
   19.5658  -41.3518  -27.7955 C   0  0  2  0  0  0  0  0  0  0  0  0
   20.7711  -42.2780  -27.8467 C   0  0  0  0  0  0  0  0  0  0  0  0
   21.6791  -41.7814  -28.8284 O   0  0  0  0  0  0  0  0  0  0  0  0
   23.0581  -42.5448  -29.1625 P   0  0  0  0  0  0  0  0  0  0  0  0
   22.6399  -43.8323  -29.8341 O   0  0  0  0  0  0  0  0  0  0  0  0
   23.6854  -42.7306  -27.8012 O   0  0  0  0  0  0  0  0  0  0  0  0
   23.7832  -41.5777  -30.0687 O   0  0  0  0  0  0  0  0  0  0  0  0
  1  2  2  0  0  0  0
  2  4  1  0  0  0  0
  2  3  1  0  0  0  0
  4  7  1  0  0  0  0
  5  9  1  0  0  0  0
  5  4  2  0  0  0  0
  6  5  1  0  0  0  0
  8  7  2  0  0  0  0
  9  8  1  0  0  0  0
 10 15  1  0  0  0  0
 10  9  1  6  0  0  0
 10 11  1  0  0  0  0
 11 14  1  1  0  0  0
 11 12  1  0  0  0  0
 12 13  1  6  0  0  0
 15 16  1  0  0  0  0
 16 12  1  0  0  0  0
 16 17  1  6  0  0  0
 17 18  1  0  0  0  0
 18 19  1  0  0  0  0
 19 21  1  0  0  0  0
 19 20  1  0  0  0  0
 22 19  2  0  0  0  0
M  END
>  <CHROM.1>
-177.16755357,44.72243360,-169.42892805,-178.78714420,68.47197457,18.93636995
-43.24411409,-28.88494951,-2.73766314,0.22979201,0.78740647

>  <Name>
lig.pdb

>  <RI>
0

>  <Rbt.Current_Directory>
/home/itssahil/PROJECTS/Mol_Feturizer/New_Systems/rnas/5btp

>  <Rbt.Executable>
rbdock ($Id: //depot/dev/client3/rdock/2013.1/src/exe/rbdock.cxx#4 $)

>  <Rbt.Library>
libRbt.so (2013.1, Build901 2013/11/27)

>  <Rbt.Parameter_File>
/export/apps/rDock/src/rDock_2013.1_src/data/scripts/dock_solv.prm

>  <Rbt.Receptor>
prm/blind_docking_60.prm

>  <SCORE>
-18.9307

>  <SCORE.INTER>
-18.689

>  <SCORE.INTER.CONST>
1

>  <SCORE.INTER.POLAR>
0

>  <SCORE.INTER.ROT>
5

>  <SCORE.INTER.SOLV>
14.3803

>  <SCORE.INTER.VDW>
-24.1861

>  <SCORE.INTER.norm>
-0.849498

>  <SCORE.INTRA>
-0.241739

>  <SCORE.INTRA.DIHEDRAL>
-1.26252

>  <SCORE.INTRA.DIHEDRAL.0>
4.21161

>  <SCORE.INTRA.POLAR>
0

>  <SCORE.INTRA.POLAR.0>
0

>  <SCORE.INTRA.REPUL>
0

>  <SCORE.INTRA.REPUL.0>
0

>  <SCORE.INTRA.SOLV>
0.531199

>  <SCORE.INTRA.SOLV.lig_0>
-41.4168

>  <SCORE.INTRA.VDW>
0.123919

>  <SCORE.INTRA.VDW.0>
-1.62533

>  <SCORE.INTRA.norm>
-0.0109881

>  <SCORE.RESTR>
0

>  <SCORE.RESTR.CAVITY>
0

>  <SCORE.RESTR.norm>
0

>  <SCORE.SYSTEM>
0

>  <SCORE.SYSTEM.CONST>
0

>  <SCORE.SYSTEM.DIHEDRAL>
0

>  <SCORE.SYSTEM.SOLV>
0

>  <SCORE.SYSTEM.norm>
0

>  <SCORE.heavy>
22

>  <SCORE.norm>
-0.860486

>  <RMSD>
17.010

$$$$
lig.pdb
 OpenBabel11021811523D
libRbt.so/2013.1/901 2013/11/27
 22 23  0  0  0  0  0  0  0  0999 V2000
   17.7537  -45.7911  -32.3698 O   0  0  0  0  0  0  0  0  0  0  0  0
   16.9992  -46.2453  -31.5239 C   0  0  0  0  0  0  0  0  0  0  0  0
   16.4073  -47.4303  -31.6734 N   0  0  0  0  0  0  0  0  0  0  0  0
   16.7138  -45.4538  -30.2937 C   0  0  0  0  0  0  0  0  0  0  0  0
   17.2878  -44.1290  -30.0108 C   0  0  0  0  0  0  0  0  0  0  0  0
   18.2109  -43.4090  -30.8784 N   0  0  0  0  0  0  0  0  0  0  0  0
   15.9293  -45.6941  -29.2199 N   0  0  0  0  0  0  0  0  0  0  0  0
   16.0219  -44.6226  -28.3726 C   0  0  0  0  0  0  0  0  0  0  0  0
   16.8483  -43.6671  -28.8512 N   0  0  0  0  0  0  0  0  0  0  0  0
   17.1922  -42.3726  -28.2181 C   0  0  1  0  0  0  0  0  0  0  0  0
   17.6540  -42.5860  -26.7859 C   0  0  1  0  0  0  0  0  0  0  0  0
   18.6660  -41.4865  -26.5888 C   0  0  2  0  0  0  0  0  0  0  0  0
   17.9924  -40.2829  -26.2153 O   0  0  0  0  0  0  0  0  0  0  0  0
   16.5721  -42.4303  -25.8666 O   0  0  0  0  0  0  0  0  0  0  0  0
   18.2737  -41.7318  -28.9049 O   0  0  0  0  0  0  0  0  0  0  0  0
   19.2683  -41.3089  -27.9690 C   0  0  2  0  0  0  0  0  0  0  0  0
   20.5196  -42.1626  -28.1058 C   0  0  0  0  0  0  0  0  0  0  0  0
   21.2222  -41.7473  -29.2759 O   0  0  0  0  0  0  0  0  0  0  0  0
   22.6635  -42.3601  -29.6543 P   0  0  0  0  0  0  0  0  0  0  0  0
   23.0652  -41.6564  -30.9298 O   0  0  0  0  0  0  0  0  0  0  0  0
   22.3760  -43.8333  -29.8226 O   0  0  0  0  0  0  0  0  0  0  0  0
   23.5170  -42.0128  -28.4571 O   0  0  0  0  0  0  0  0  0  0  0  0
  1  2  2  0  0  0  0
  2  4  1  0  0  0  0
  2  3  1  0  0  0  0
  4  7  1  0  0  0  0
  5  9  1  0  0  0  0
  5  4  2  0  0  0  0
  6  5  1  0  0  0  0
  8  7  2  0  0  0  0
  9  8  1  0  0  0  0
 10 15  1  0  0  0  0
 10  9  1  6  0  0  0
 10 11  1  0  0  0  0
 11 14  1  1  0  0  0
 11 12  1  0  0  0  0
 12 13  1  6  0  0  0
 15 16  1  0  0  0  0
 16 12  1  0  0  0  0
 16 17  1  1  0  0  0
 17 18  1  0  0  0  0
 18 19  1  0  0  0  0
 19 21  1  0  0  0  0
 19 20  1  0  0  0  0
 22 19  2  0  0  0  0
M  END
>  <CHROM.1>
-0.02710105,-128.43071512,-166.86375933,174.73658891,-179.23770972,19.00570201
-43.17848908,-29.10890713,-2.67739031,0.32376295,0.84693051

>  <Name>
lig.pdb

>  <RI>
0

>  <Rbt.Current_Directory>
/home/itssahil/PROJECTS/Mol_Feturizer/New_Systems/rnas/5btp

>  <Rbt.Executable>
rbdock ($Id: //depot/dev/client3/rdock/2013.1/src/exe/rbdock.cxx#4 $)

>  <Rbt.Library>
libRbt.so (2013.1, Build901 2013/11/27)

>  <Rbt.Parameter_File>
/export/apps/rDock/src/rDock_2013.1_src/data/scripts/dock_solv.prm

>  <Rbt.Receptor>
prm/blind_docking_80.prm

>  <SCORE>
-18.7139

>  <SCORE.INTER>
-18.3258

>  <SCORE.INTER.CONST>
1

>  <SCORE.INTER.POLAR>
0

>  <SCORE.INTER.ROT>
5

>  <SCORE.INTER.SOLV>
16.4533

>  <SCORE.INTER.VDW>
-24.635

>  <SCORE.INTER.norm>
-0.832991

>  <SCORE.INTRA>
-0.413153

>  <SCORE.INTRA.DIHEDRAL>
-1.0672

>  <SCORE.INTRA.DIHEDRAL.0>
4.21161

>  <SCORE.INTRA.POLAR>
0

>  <SCORE.INTRA.POLAR.0>
0

>  <SCORE.INTRA.REPUL>
0

>  <SCORE.INTRA.REPUL.0>
0

>  <SCORE.INTRA.SOLV>
0.50629

>  <SCORE.INTRA.SOLV.lig_0>
-41.4168

>  <SCORE.INTRA.VDW>
-0.132695

>  <SCORE.INTRA.VDW.0>
-1.62533

>  <SCORE.INTRA.norm>
-0.0187797

>  <SCORE.RESTR>
0.0250824

>  <SCORE.RESTR.CAVITY>
0.0250824

>  <SCORE.RESTR.norm>
0.00114011

>  <SCORE.SYSTEM>
0

>  <SCORE.SYSTEM.CONST>
0

>  <SCORE.SYSTEM.DIHEDRAL>
0

>  <SCORE.SYSTEM.SOLV>
0

>  <SCORE.SYSTEM.norm>
0

>  <SCORE.heavy>
22

>  <SCORE.norm>
-0.850631

>  <RMSD>
17.011

$$$$
lig.pdb
 OpenBabel11021811523D
libRbt.so/2013.1/901 2013/11/27
 22 23  0  0  0  0  0  0  0  0999 V2000
   14.8868  -46.8258  -29.5943 O   0  0  0  0  0  0  0  0  0  0  0  0
   15.6389  -46.5225  -30.5073 C   0  0  0  0  0  0  0  0  0  0  0  0
   15.7811  -47.2925  -31.5860 N   0  0  0  0  0  0  0  0  0  0  0  0
   16.4356  -45.2663  -30.4155 C   0  0  0  0  0  0  0  0  0  0  0  0
   16.4170  -44.3577  -29.2584 C   0  0  0  0  0  0  0  0  0  0  0  0
   15.6236  -44.5484  -28.0512 N   0  0  0  0  0  0  0  0  0  0  0  0
   17.3085  -44.6795  -31.2640 N   0  0  0  0  0  0  0  0  0  0  0  0
   17.7692  -43.5307  -30.6788 C   0  0  0  0  0  0  0  0  0  0  0  0
   17.2287  -43.3315  -29.4569 N   0  0  0  0  0  0  0  0  0  0  0  0
   17.4874  -42.2059  -28.5290 C   0  0  1  0  0  0  0  0  0  0  0  0
   17.6022  -42.7093  -27.0996 C   0  0  1  0  0  0  0  0  0  0  0  0
   18.5992  -41.7604  -26.4852 C   0  0  2  0  0  0  0  0  0  0  0  0
   17.9219  -40.5836  -26.0395 O   0  0  0  0  0  0  0  0  0  0  0  0
   16.3502  -42.6175  -26.4185 O   0  0  0  0  0  0  0  0  0  0  0  0
   18.7278  -41.5578  -28.8348 O   0  0  0  0  0  0  0  0  0  0  0  0
   19.5059  -41.4001  -27.6460 C   0  0  2  0  0  0  0  0  0  0  0  0
   20.7097  -42.3291  -27.6752 C   0  0  0  0  0  0  0  0  0  0  0  0
   21.6580  -41.8081  -28.6050 O   0  0  0  0  0  0  0  0  0  0  0  0
   23.0248  -42.5919  -28.9419 P   0  0  0  0  0  0  0  0  0  0  0  0
   23.8777  -41.5897  -29.6846 O   0  0  0  0  0  0  0  0  0  0  0  0
   22.5550  -43.7529  -29.7860 O   0  0  0  0  0  0  0  0  0  0  0  0
   23.5556  -42.9717  -27.5794 O   0  0  0  0  0  0  0  0  0  0  0  0
  1  2  2  0  0  0  0
  2  4  1  0  0  0  0
  2  3  1  0  0  0  0
  4  7  1  0  0  0  0
  5  9  1  0  0  0  0
  5  4  2  0  0  0  0
  6  5  1  0  0  0  0
  8  7  2  0  0  0  0
  9  8  1  0  0  0  0
 10 15  1  0  0  0  0
 10  9  1  6  0  0  0
 10 11  1  0  0  0  0
 11 14  1  1  0  0  0
 11 12  1  0  0  0  0
 12 13  1  6  0  0  0
 15 16  1  0  0  0  0
 16 12  1  0  0  0  0
 16 17  1  6  0  0  0
 17 18  1  0  0  0  0
 18 19  1  0  0  0  0
 19 21  1  0  0  0  0
 19 20  1  0  0  0  0
 22 19  2  0  0  0  0
M  END
>  <CHROM.1>
2.02465237,41.17035876,-168.98731535,-176.71145041,-166.98894648,18.91988283
-43.28138058,-28.79451695,-2.71311036,0.20976636,0.79656807

>  <Name>
lig.pdb

>  <RI>
0

>  <Rbt.Current_Directory>
/home/itssahil/PROJECTS/Mol_Feturizer/New_Systems/rnas/5btp

>  <Rbt.Executable>
rbdock ($Id: //depot/dev/client3/rdock/2013.1/src/exe/rbdock.cxx#4 $)

>  <Rbt.Library>
libRbt.so (2013.1, Build901 2013/11/27)

>  <Rbt.Parameter_File>
/export/apps/rDock/src/rDock_2013.1_src/data/scripts/dock_solv.prm

>  <Rbt.Receptor>
prm/blind_docking_60.prm

>  <SCORE>
-18.9623

>  <SCORE.INTER>
-18.9818

>  <SCORE.INTER.CONST>
1

>  <SCORE.INTER.POLAR>
0

>  <SCORE.INTER.ROT>
5

>  <SCORE.INTER.SOLV>
14.3327

>  <SCORE.INTER.VDW>
-24.3655

>  <SCORE.INTER.norm>
-0.86281

>  <SCORE.INTRA>
0.0194909

>  <SCORE.INTRA.DIHEDRAL>
-1.04654

>  <SCORE.INTRA.DIHEDRAL.0>
4.21161

>  <SCORE.INTRA.POLAR>
0

>  <SCORE.INTRA.POLAR.0>
0

>  <SCORE.INTRA.REPUL>
0

>  <SCORE.INTRA.REPUL.0>
0

>  <SCORE.INTRA.SOLV>
0.589274

>  <SCORE.INTRA.SOLV.lig_0>
-41.4168

>  <SCORE.INTRA.VDW>
0.248126

>  <SCORE.INTRA.VDW.0>
-1.62533

>  <SCORE.INTRA.norm>
0.00088595

>  <SCORE.RESTR>
0

>  <SCORE.RESTR.CAVITY>
0

>  <SCORE.RESTR.norm>
0

>  <SCORE.SYSTEM>
0

>  <SCORE.SYSTEM.CONST>
0

>  <SCORE.SYSTEM.DIHEDRAL>
0

>  <SCORE.SYSTEM.SOLV>
0

>  <SCORE.SYSTEM.norm>
0

>  <SCORE.heavy>
22

>  <SCORE.norm>
-0.861924

>  <RMSD>
17.013

$$$$
lig.pdb
 OpenBabel11021811523D
libRbt.so/2013.1/901 2013/11/27
 22 23  0  0  0  0  0  0  0  0999 V2000
   14.2542  -45.1703  -31.7915 O   0  0  0  0  0  0  0  0  0  0  0  0
   15.4137  -45.3520  -32.1287 C   0  0  0  0  0  0  0  0  0  0  0  0
   15.7439  -46.2547  -33.0522 N   0  0  0  0  0  0  0  0  0  0  0  0
   16.4984  -44.5582  -31.4850 C   0  0  0  0  0  0  0  0  0  0  0  0
   16.2798  -43.5796  -30.4082 C   0  0  0  0  0  0  0  0  0  0  0  0
   14.9871  -43.2446  -29.8251 N   0  0  0  0  0  0  0  0  0  0  0  0
   17.8358  -44.5241  -31.6761 N   0  0  0  0  0  0  0  0  0  0  0  0
   18.3708  -43.6147  -30.8036 C   0  0  0  0  0  0  0  0  0  0  0  0
   17.4261  -43.0376  -30.0295 N   0  0  0  0  0  0  0  0  0  0  0  0
   17.6247  -42.0153  -28.9757 C   0  0  1  0  0  0  0  0  0  0  0  0
   17.6048  -42.6585  -27.5988 C   0  0  1  0  0  0  0  0  0  0  0  0
   18.5626  -41.8020  -26.8108 C   0  0  2  0  0  0  0  0  0  0  0  0
   17.8719  -40.6559  -26.3094 O   0  0  0  0  0  0  0  0  0  0  0  0
   16.3002  -42.5986  -27.0206 O   0  0  0  0  0  0  0  0  0  0  0  0
   18.8993  -41.3753  -29.1093 O   0  0  0  0  0  0  0  0  0  0  0  0
   19.5738  -41.3558  -27.8489 C   0  0  2  0  0  0  0  0  0  0  0  0
   20.7574  -42.3107  -27.8682 C   0  0  0  0  0  0  0  0  0  0  0  0
   21.7517  -41.7777  -28.7415 O   0  0  0  0  0  0  0  0  0  0  0  0
   23.1178  -42.5750  -29.0480 P   0  0  0  0  0  0  0  0  0  0  0  0
   22.6883  -43.8110  -29.8038 O   0  0  0  0  0  0  0  0  0  0  0  0
   23.6701  -42.8513  -27.6697 O   0  0  0  0  0  0  0  0  0  0  0  0
   23.9204  -41.5922  -29.8680 O   0  0  0  0  0  0  0  0  0  0  0  0
  1  2  2  0  0  0  0
  2  4  1  0  0  0  0
  2  3  1  0  0  0  0
  4  7  1  0  0  0  0
  5  9  1  0  0  0  0
  5  4  2  0  0  0  0
  6  5  1  0  0  0  0
  8  7  2  0  0  0  0
  9  8  1  0  0  0  0
 10 15  1  0  0  0  0
 10  9  1  6  0  0  0
 10 11  1  0  0  0  0
 11 14  1  1  0  0  0
 11 12  1  0  0  0  0
 12 13  1  6  0  0  0
 15 16  1  0  0  0  0
 16 12  1  0  0  0  0
 16 17  1  6  0  0  0
 17 18  1  0  0  0  0
 18 19  1  0  0  0  0
 19 21  1  0  0  0  0
 19 20  1  0  0  0  0
 22 19  2  0  0  0  0
M  END
>  <CHROM.1>
2.43354067,79.47467226,-173.45507212,-177.16021878,66.16179927,18.94379617
-42.96678591,-29.37747861,-2.69116439,0.06081728,0.96462870

>  <Name>
lig.pdb

>  <RI>
0

>  <Rbt.Current_Directory>
/home/itssahil/PROJECTS/Mol_Feturizer/New_Systems/rnas/5btp

>  <Rbt.Executable>
rbdock ($Id: //depot/dev/client3/rdock/2013.1/src/exe/rbdock.cxx#4 $)

>  <Rbt.Library>
libRbt.so (2013.1, Build901 2013/11/27)

>  <Rbt.Parameter_File>
/export/apps/rDock/src/rDock_2013.1_src/data/scripts/dock_solv.prm

>  <Rbt.Receptor>
prm/blind_docking_60.prm

>  <SCORE>
-20.2836

>  <SCORE.INTER>
-18.9002

>  <SCORE.INTER.CONST>
1

>  <SCORE.INTER.POLAR>
0

>  <SCORE.INTER.ROT>
5

>  <SCORE.INTER.SOLV>
16.2609

>  <SCORE.INTER.VDW>
-24.9538

>  <SCORE.INTER.norm>
-0.859101

>  <SCORE.INTRA>
-1.38334

>  <SCORE.INTRA.DIHEDRAL>
-1.51557

>  <SCORE.INTRA.DIHEDRAL.0>
4.21161

>  <SCORE.INTRA.POLAR>
0

>  <SCORE.INTRA.POLAR.0>
0

>  <SCORE.INTRA.REPUL>
0

>  <SCORE.INTRA.REPUL.0>
0

>  <SCORE.INTRA.SOLV>
-0.0802985

>  <SCORE.INTRA.SOLV.lig_0>
-41.4168

>  <SCORE.INTRA.VDW>
-0.585406

>  <SCORE.INTRA.VDW.0>
-1.62533

>  <SCORE.INTRA.norm>
-0.062879

>  <SCORE.RESTR>
0

>  <SCORE.RESTR.CAVITY>
0

>  <SCORE.RESTR.norm>
0

>  <SCORE.SYSTEM>
0

>  <SCORE.SYSTEM.CONST>
0

>  <SCORE.SYSTEM.DIHEDRAL>
0

>  <SCORE.SYSTEM.SOLV>
0

>  <SCORE.SYSTEM.norm>
0

>  <SCORE.heavy>
22

>  <SCORE.norm>
-0.92198

>  <RMSD>
17.015

$$$$
lig.pdb
 OpenBabel11021811523D
libRbt.so/2013.1/901 2013/11/27
 22 23  0  0  0  0  0  0  0  0999 V2000
   16.0404  -46.0439  -33.1400 O   0  0  0  0  0  0  0  0  0  0  0  0
   15.7046  -45.2965  -32.2346 C   0  0  0  0  0  0  0  0  0  0  0  0
   14.4302  -45.1675  -31.8658 N   0  0  0  0  0  0  0  0  0  0  0  0
   16.7388  -44.4904  -31.5263 C   0  0  0  0  0  0  0  0  0  0  0  0
   16.4547  -43.5836  -30.4029 C   0  0  0  0  0  0  0  0  0  0  0  0
   15.1372  -43.3409  -29.8297 N   0  0  0  0  0  0  0  0  0  0  0  0
   18.0764  -44.3844  -31.6873 N   0  0  0  0  0  0  0  0  0  0  0  0
   18.5520  -43.5008  -30.7559 C   0  0  0  0  0  0  0  0  0  0  0  0
   17.5671  -43.0112  -29.9715 N   0  0  0  0  0  0  0  0  0  0  0  0
   17.6981  -42.0404  -28.8601 C   0  0  1  0  0  0  0  0  0  0  0  0
   17.5340  -42.7390  -27.5203 C   0  0  1  0  0  0  0  0  0  0  0  0
   18.4402  -41.9477  -26.6123 C   0  0  2  0  0  0  0  0  0  0  0  0
   17.7400  -40.8013  -26.1249 O   0  0  0  0  0  0  0  0  0  0  0  0
   16.1844  -42.6605  -27.0597 O   0  0  0  0  0  0  0  0  0  0  0  0
   18.9974  -41.4375  -28.8500 O   0  0  0  0  0  0  0  0  0  0  0  0
   19.5544  -41.4922  -27.5345 C   0  0  2  0  0  0  0  0  0  0  0  0
   20.7068  -42.4837  -27.4894 C   0  0  0  0  0  0  0  0  0  0  0  0
   21.7951  -41.9434  -28.2369 O   0  0  0  0  0  0  0  0  0  0  0  0
   23.1215  -42.8075  -28.5370 P   0  0  0  0  0  0  0  0  0  0  0  0
   22.7054  -43.8113  -29.5870 O   0  0  0  0  0  0  0  0  0  0  0  0
   23.4464  -43.4145  -27.1927 O   0  0  0  0  0  0  0  0  0  0  0  0
   24.1105  -41.7737  -29.0222 O   0  0  0  0  0  0  0  0  0  0  0  0
  1  2  2  0  0  0  0
  2  4  1  0  0  0  0
  2  3  1  0  0  0  0
  4  7  1  0  0  0  0
  5  9  1  0  0  0  0
  5  4  2  0  0  0  0
  6  5  1  0  0  0  0
  8  7  2  0  0  0  0
  9  8  1  0  0  0  0
 10 15  1  0  0  0  0
 10  9  1  6  0  0  0
 10 11  1  0  0  0  0
 11 14  1  1  0  0  0
 11 12  1  0  0  0  0
 12 13  1  6  0  0  0
 15 16  1  0  0  0  0
 16 12  1  0  0  0  0
 16 17  1  6  0  0  0
 17 18  1  0  0  0  0
 18 19  1  0  0  0  0
 19 21  1  0  0  0  0
 19 20  1  0  0  0  0
 22 19  2  0  0  0  0
M  END
>  <CHROM.1>
-178.49096029,73.41529268,-173.03211163,-172.96178537,73.58012700,19.01678171
-43.05283267,-29.18339381,-2.63738585,0.00061986,0.99453854

>  <Name>
lig.pdb

>  <RI>
0

>  <Rbt.Current_Directory>
/home/itssahil/PROJECTS/Mol_Feturizer/New_Systems/rnas/5btp

>  <Rbt.Executable>
rbdock ($Id: //depot/dev/client3/rdock/2013.1/src/exe/rbdock.cxx#4 $)

>  <Rbt.Library>
libRbt.so (2013.1, Build901 2013/11/27)

>  <Rbt.Parameter_File>
/export/apps/rDock/src/rDock_2013.1_src/data/scripts/dock_solv.prm

>  <Rbt.Receptor>
prm/blind_docking_60.prm

>  <SCORE>
-20.3079

>  <SCORE.INTER>
-19.4162

>  <SCORE.INTER.CONST>
1

>  <SCORE.INTER.POLAR>
0

>  <SCORE.INTER.ROT>
5

>  <SCORE.INTER.SOLV>
17.5426

>  <SCORE.INTER.VDW>
-25.725

>  <SCORE.INTER.norm>
-0.882554

>  <SCORE.INTRA>
-0.89169

>  <SCORE.INTRA.DIHEDRAL>
-1.07803

>  <SCORE.INTRA.DIHEDRAL.0>
4.21161

>  <SCORE.INTRA.POLAR>
0

>  <SCORE.INTRA.POLAR.0>
0

>  <SCORE.INTRA.REPUL>
0

>  <SCORE.INTRA.REPUL.0>
0

>  <SCORE.INTRA.SOLV>
0.250042

>  <SCORE.INTRA.SOLV.lig_0>
-41.4168

>  <SCORE.INTRA.VDW>
-0.477696

>  <SCORE.INTRA.VDW.0>
-1.62533

>  <SCORE.INTRA.norm>
-0.0405314

>  <SCORE.RESTR>
0

>  <SCORE.RESTR.CAVITY>
0

>  <SCORE.RESTR.norm>
0

>  <SCORE.SYSTEM>
0

>  <SCORE.SYSTEM.CONST>
0

>  <SCORE.SYSTEM.DIHEDRAL>
0

>  <SCORE.SYSTEM.SOLV>
0

>  <SCORE.SYSTEM.norm>
0

>  <SCORE.heavy>
22

>  <SCORE.norm>
-0.923085

>  <RMSD>
17.018

$$$$
lig.pdb
 OpenBabel11021811523D
libRbt.so/2013.1/901 2013/11/27
 22 23  0  0  0  0  0  0  0  0999 V2000
   15.5963  -47.2822  -31.3814 O   0  0  0  0  0  0  0  0  0  0  0  0
   15.4849  -46.5193  -30.4345 C   0  0  0  0  0  0  0  0  0  0  0  0
   14.6264  -46.7519  -29.4417 N   0  0  0  0  0  0  0  0  0  0  0  0
   16.3164  -45.2834  -30.3857 C   0  0  0  0  0  0  0  0  0  0  0  0
   16.3082  -44.3245  -29.2698 C   0  0  0  0  0  0  0  0  0  0  0  0
   15.4929  -44.4391  -28.0675 N   0  0  0  0  0  0  0  0  0  0  0  0
   17.2176  -44.7596  -31.2457 N   0  0  0  0  0  0  0  0  0  0  0  0
   17.7034  -43.5996  -30.7043 C   0  0  0  0  0  0  0  0  0  0  0  0
   17.1519  -43.3315  -29.5006 N   0  0  0  0  0  0  0  0  0  0  0  0
   17.4303  -42.1738  -28.6191 C   0  0  1  0  0  0  0  0  0  0  0  0
   17.6892  -42.6384  -27.1953 C   0  0  1  0  0  0  0  0  0  0  0  0
   18.6851  -41.6285  -26.6851 C   0  0  2  0  0  0  0  0  0  0  0  0
   17.9891  -40.4762  -26.2057 O   0  0  0  0  0  0  0  0  0  0  0  0
   16.4954  -42.5920  -26.4127 O   0  0  0  0  0  0  0  0  0  0  0  0
   18.6066  -41.4734  -29.0406 O   0  0  0  0  0  0  0  0  0  0  0  0
   19.4724  -41.2511  -27.9249 C   0  0  2  0  0  0  0  0  0  0  0  0
   20.7148  -42.1210  -28.0385 C   0  0  0  0  0  0  0  0  0  0  0  0
   21.4927  -41.6535  -29.1392 O   0  0  0  0  0  0  0  0  0  0  0  0
   22.8784  -42.3639  -29.5527 P   0  0  0  0  0  0  0  0  0  0  0  0
   22.5275  -43.8202  -29.7515 O   0  0  0  0  0  0  0  0  0  0  0  0
   23.7689  -42.0972  -28.3623 O   0  0  0  0  0  0  0  0  0  0  0  0
   23.2779  -41.6421  -30.8183 O   0  0  0  0  0  0  0  0  0  0  0  0
  1  2  2  0  0  0  0
  2  4  1  0  0  0  0
  2  3  1  0  0  0  0
  4  7  1  0  0  0  0
  5  9  1  0  0  0  0
  5  4  2  0  0  0  0
  6  5  1  0  0  0  0
  8  7  2  0  0  0  0
  9  8  1  0  0  0  0
 10 15  1  0  0  0  0
 10  9  1  6  0  0  0
 10 11  1  0  0  0  0
 11 14  1  1  0  0  0
 11 12  1  0  0  0  0
 12 13  1  6  0  0  0
 15 16  1  0  0  0  0
 16 12  1  0  0  0  0
 16 17  1  6  0  0  0
 17 18  1  0  0  0  0
 18 19  1  0  0  0  0
 19 21  1  0  0  0  0
 19 20  1  0  0  0  0
 22 19  2  0  0  0  0
M  END
>  <CHROM.1>
-177.26656242,48.50374994,-174.51040135,-179.42866925,54.67037418,18.84220766
-43.18136530,-29.02341020,-2.75484172,0.29385468,0.79814588

>  <Name>
lig.pdb

>  <RI>
0

>  <Rbt.Current_Directory>
/home/itssahil/PROJECTS/Mol_Feturizer/New_Systems/rnas/5btp

>  <Rbt.Executable>
rbdock ($Id: //depot/dev/client3/rdock/2013.1/src/exe/rbdock.cxx#4 $)

>  <Rbt.Library>
libRbt.so (2013.1, Build901 2013/11/27)

>  <Rbt.Parameter_File>
/export/apps/rDock/src/rDock_2013.1_src/data/scripts/dock_solv.prm

>  <Rbt.Receptor>
prm/blind_docking_80.prm

>  <SCORE>
-18.9052

>  <SCORE.INTER>
-18.3014

>  <SCORE.INTER.CONST>
1

>  <SCORE.INTER.POLAR>
0

>  <SCORE.INTER.ROT>
5

>  <SCORE.INTER.SOLV>
14.1639

>  <SCORE.INTER.VDW>
-23.8555

>  <SCORE.INTER.norm>
-0.831881

>  <SCORE.INTRA>
-0.603821

>  <SCORE.INTRA.DIHEDRAL>
-1.62127

>  <SCORE.INTRA.DIHEDRAL.0>
4.21161

>  <SCORE.INTRA.POLAR>
0

>  <SCORE.INTRA.POLAR.0>
0

>  <SCORE.INTRA.REPUL>
0

>  <SCORE.INTRA.REPUL.0>
0

>  <SCORE.INTRA.SOLV>
0.516359

>  <SCORE.INTRA.SOLV.lig_0>
-41.4168

>  <SCORE.INTRA.VDW>
-0.0513671

>  <SCORE.INTRA.VDW.0>
-1.62533

>  <SCORE.INTRA.norm>
-0.0274464

>  <SCORE.RESTR>
0

>  <SCORE.RESTR.CAVITY>
0

>  <SCORE.RESTR.norm>
0

>  <SCORE.SYSTEM>
0

>  <SCORE.SYSTEM.CONST>
0

>  <SCORE.SYSTEM.DIHEDRAL>
0

>  <SCORE.SYSTEM.SOLV>
0

>  <SCORE.SYSTEM.norm>
0

>  <SCORE.heavy>
22

>  <SCORE.norm>
-0.859327

>  <RMSD>
17.023

$$$$
lig.pdb
 OpenBabel11021811523D
libRbt.so/2013.1/901 2013/11/27
 22 23  0  0  0  0  0  0  0  0999 V2000
   14.4491  -45.1756  -31.8642 O   0  0  0  0  0  0  0  0  0  0  0  0
   15.6187  -45.2924  -32.1948 C   0  0  0  0  0  0  0  0  0  0  0  0
   15.9958  -46.1296  -33.1611 N   0  0  0  0  0  0  0  0  0  0  0  0
   16.6630  -44.4925  -31.4942 C   0  0  0  0  0  0  0  0  0  0  0  0
   16.3914  -43.5772  -30.3747 C   0  0  0  0  0  0  0  0  0  0  0  0
   15.0782  -43.3189  -29.7985 N   0  0  0  0  0  0  0  0  0  0  0  0
   18.0010  -44.4002  -31.6602 N   0  0  0  0  0  0  0  0  0  0  0  0
   18.4881  -43.5163  -30.7350 C   0  0  0  0  0  0  0  0  0  0  0  0
   17.5106  -43.0132  -29.9500 N   0  0  0  0  0  0  0  0  0  0  0  0
   17.6546  -42.0379  -28.8442 C   0  0  1  0  0  0  0  0  0  0  0  0
   17.5124  -42.7320  -27.4996 C   0  0  1  0  0  0  0  0  0  0  0  0
   18.4291  -41.9345  -26.6078 C   0  0  2  0  0  0  0  0  0  0  0  0
   17.7323  -40.7885  -26.1144 O   0  0  0  0  0  0  0  0  0  0  0  0
   16.1694  -42.6562  -27.0196 O   0  0  0  0  0  0  0  0  0  0  0  0
   18.9520  -41.4307  -28.8553 O   0  0  0  0  0  0  0  0  0  0  0  0
   19.5282  -41.4788  -27.5479 C   0  0  2  0  0  0  0  0  0  0  0  0
   20.6845  -42.4663  -27.5159 C   0  0  0  0  0  0  0  0  0  0  0  0
   21.7598  -41.9255  -28.2816 O   0  0  0  0  0  0  0  0  0  0  0  0
   23.0949  -42.7776  -28.5771 P   0  0  0  0  0  0  0  0  0  0  0  0
   24.0913  -41.7727  -29.1071 O   0  0  0  0  0  0  0  0  0  0  0  0
   22.6351  -43.7924  -29.5969 O   0  0  0  0  0  0  0  0  0  0  0  0
   23.4499  -43.3521  -27.2257 O   0  0  0  0  0  0  0  0  0  0  0  0
  1  2  2  0  0  0  0
  2  4  1  0  0  0  0
  2  3  1  0  0  0  0
  4  7  1  0  0  0  0
  5  9  1  0  0  0  0
  5  4  2  0  0  0  0
  6  5  1  0  0  0  0
  8  7  2  0  0  0  0
  9  8  1  0  0  0  0
 10 15  1  0  0  0  0
 10  9  1  6  0  0  0
 10 11  1  0  0  0  0
 11 14  1  1  0  0  0
 11 12  1  0  0  0  0
 12 13  1  6  0  0  0
 15 16  1  0  0  0  0
 16 12  1  0  0  0  0
 16 17  1  6  0  0  0
 17 18  1  0  0  0  0
 18 19  1  0  0  0  0
 19 21  1  0  0  0  0
 19 20  1  0  0  0  0
 22 19  2  0  0  0  0
M  END
>  <CHROM.1>
2.03018865,74.39920653,-173.04589923,-173.99597161,-166.88915248,18.97062734
-43.04073752,-29.17863117,-2.64892635,0.00870958,0.99258157

>  <Name>
lig.pdb

>  <RI>
0

>  <Rbt.Current_Directory>
/home/itssahil/PROJECTS/Mol_Feturizer/New_Systems/rnas/5btp

>  <Rbt.Executable>
rbdock ($Id: //depot/dev/client3/rdock/2013.1/src/exe/rbdock.cxx#4 $)

>  <Rbt.Library>
libRbt.so (2013.1, Build901 2013/11/27)

>  <Rbt.Parameter_File>
/export/apps/rDock/src/rDock_2013.1_src/data/scripts/dock_solv.prm

>  <Rbt.Receptor>
prm/blind_docking_80.prm

>  <SCORE>
-20.1545

>  <SCORE.INTER>
-19.1953

>  <SCORE.INTER.CONST>
1

>  <SCORE.INTER.POLAR>
0

>  <SCORE.INTER.ROT>
5

>  <SCORE.INTER.SOLV>
17.6146

>  <SCORE.INTER.VDW>
-25.6017

>  <SCORE.INTER.norm>
-0.872514

>  <SCORE.INTRA>
-0.959147

>  <SCORE.INTRA.DIHEDRAL>
-1.15621

>  <SCORE.INTRA.DIHEDRAL.0>
4.21161

>  <SCORE.INTRA.POLAR>
0

>  <SCORE.INTRA.POLAR.0>
0

>  <SCORE.INTRA.REPUL>
0

>  <SCORE.INTRA.REPUL.0>
0

>  <SCORE.INTRA.SOLV>
0.240771

>  <SCORE.INTRA.SOLV.lig_0>
-41.4168

>  <SCORE.INTRA.VDW>
-0.501427

>  <SCORE.INTRA.VDW.0>
-1.62533

>  <SCORE.INTRA.norm>
-0.0435976

>  <SCORE.RESTR>
0

>  <SCORE.RESTR.CAVITY>
0

>  <SCORE.RESTR.norm>
0

>  <SCORE.SYSTEM>
0

>  <SCORE.SYSTEM.CONST>
0

>  <SCORE.SYSTEM.DIHEDRAL>
0

>  <SCORE.SYSTEM.SOLV>
0

>  <SCORE.SYSTEM.norm>
0

>  <SCORE.heavy>
22

>  <SCORE.norm>
-0.916111

>  <RMSD>
17.025

$$$$
lig.pdb
 OpenBabel11021811523D
libRbt.so/2013.1/901 2013/11/27
 22 23  0  0  0  0  0  0  0  0999 V2000
   14.4951  -45.1936  -31.9049 O   0  0  0  0  0  0  0  0  0  0  0  0
   15.6702  -45.3110  -32.2156 C   0  0  0  0  0  0  0  0  0  0  0  0
   16.0642  -46.1551  -33.1690 N   0  0  0  0  0  0  0  0  0  0  0  0
   16.7017  -44.5037  -31.5046 C   0  0  0  0  0  0  0  0  0  0  0  0
   16.4138  -43.5980  -30.3814 C   0  0  0  0  0  0  0  0  0  0  0  0
   15.0948  -43.3576  -29.8108 N   0  0  0  0  0  0  0  0  0  0  0  0
   18.0394  -44.3956  -31.6628 N   0  0  0  0  0  0  0  0  0  0  0  0
   18.5117  -43.5118  -30.7298 C   0  0  0  0  0  0  0  0  0  0  0  0
   17.5244  -43.0241  -29.9473 N   0  0  0  0  0  0  0  0  0  0  0  0
   17.6515  -42.0537  -28.8350 C   0  0  1  0  0  0  0  0  0  0  0  0
   17.5103  -42.7574  -27.4953 C   0  0  1  0  0  0  0  0  0  0  0  0
   18.4132  -41.9548  -26.5941 C   0  0  2  0  0  0  0  0  0  0  0  0
   17.7009  -40.8197  -26.0977 O   0  0  0  0  0  0  0  0  0  0  0  0
   16.1640  -42.6996  -27.0220 O   0  0  0  0  0  0  0  0  0  0  0  0
   18.9420  -41.4319  -28.8358 O   0  0  0  0  0  0  0  0  0  0  0  0
   19.5120  -41.4811  -27.5256 C   0  0  2  0  0  0  0  0  0  0  0  0
   20.6791  -42.4557  -27.4934 C   0  0  0  0  0  0  0  0  0  0  0  0
   21.7651  -41.8818  -28.2190 O   0  0  0  0  0  0  0  0  0  0  0  0
   23.1083  -42.7173  -28.5248 P   0  0  0  0  0  0  0  0  0  0  0  0
   23.4867  -43.3470  -27.2043 O   0  0  0  0  0  0  0  0  0  0  0  0
   24.0702  -41.6563  -29.0045 O   0  0  0  0  0  0  0  0  0  0  0  0
   22.6734  -43.7045  -29.5825 O   0  0  0  0  0  0  0  0  0  0  0  0
  1  2  2  0  0  0  0
  2  4  1  0  0  0  0
  2  3  1  0  0  0  0
  4  7  1  0  0  0  0
  5  9  1  0  0  0  0
  5  4  2  0  0  0  0
  6  5  1  0  0  0  0
  8  7  2  0  0  0  0
  9  8  1  0  0  0  0
 10 15  1  0  0  0  0
 10  9  1  6  0  0  0
 10 11  1  0  0  0  0
 11 14  1  1  0  0  0
 11 12  1  0  0  0  0
 12 13  1  6  0  0  0
 15 16  1  0  0  0  0
 16 12  1  0  0  0  0
 16 17  1  6  0  0  0
 17 18  1  0  0  0  0
 18 19  1  0  0  0  0
 19 21  1  0  0  0  0
 19 20  1  0  0  0  0
 22 19  2  0  0  0  0
M  END
>  <CHROM.1>
3.16523854,74.41769264,-171.45710037,-173.08411403,-47.46238666,18.98385313
-43.03407736,-29.16343765,-2.63668626,0.01526304,0.99730984

>  <Name>
lig.pdb

>  <RI>
0

>  <Rbt.Current_Directory>
/home/itssahil/PROJECTS/Mol_Feturizer/New_Systems/rnas/5btp

>  <Rbt.Executable>
rbdock ($Id: //depot/dev/client3/rdock/2013.1/src/exe/rbdock.cxx#4 $)

>  <Rbt.Library>
libRbt.so (2013.1, Build901 2013/11/27)

>  <Rbt.Parameter_File>
/export/apps/rDock/src/rDock_2013.1_src/data/scripts/dock_solv.prm

>  <Rbt.Receptor>
prm/blind_docking_60.prm

>  <SCORE>
-19.9307

>  <SCORE.INTER>
-18.9617

>  <SCORE.INTER.CONST>
1

>  <SCORE.INTER.POLAR>
0

>  <SCORE.INTER.ROT>
5

>  <SCORE.INTER.SOLV>
18.2788

>  <SCORE.INTER.VDW>
-25.6674

>  <SCORE.INTER.norm>
-0.861895

>  <SCORE.INTRA>
-0.968963

>  <SCORE.INTRA.DIHEDRAL>
-1.01627

>  <SCORE.INTRA.DIHEDRAL.0>
4.21161

>  <SCORE.INTRA.POLAR>
0

>  <SCORE.INTRA.POLAR.0>
0

>  <SCORE.INTRA.REPUL>
0

>  <SCORE.INTRA.REPUL.0>
0

>  <SCORE.INTRA.SOLV>
0.222163

>  <SCORE.INTRA.SOLV.lig_0>
-41.4168

>  <SCORE.INTRA.VDW>
-0.571912

>  <SCORE.INTRA.VDW.0>
-1.62533

>  <SCORE.INTRA.norm>
-0.0440438

>  <SCORE.RESTR>
0

>  <SCORE.RESTR.CAVITY>
0

>  <SCORE.RESTR.norm>
0

>  <SCORE.SYSTEM>
0

>  <SCORE.SYSTEM.CONST>
0

>  <SCORE.SYSTEM.DIHEDRAL>
0

>  <SCORE.SYSTEM.SOLV>
0

>  <SCORE.SYSTEM.norm>
0

>  <SCORE.heavy>
22

>  <SCORE.norm>
-0.905939

>  <RMSD>
17.028

$$$$
lig.pdb
 OpenBabel11021811523D
libRbt.so/2013.1/901 2013/11/27
 22 23  0  0  0  0  0  0  0  0999 V2000
   16.0051  -46.0269  -33.1291 O   0  0  0  0  0  0  0  0  0  0  0  0
   15.6690  -45.2859  -32.2186 C   0  0  0  0  0  0  0  0  0  0  0  0
   14.3946  -45.1604  -31.8484 N   0  0  0  0  0  0  0  0  0  0  0  0
   16.7028  -44.4837  -31.5053 C   0  0  0  0  0  0  0  0  0  0  0  0
   16.4176  -43.5804  -30.3794 C   0  0  0  0  0  0  0  0  0  0  0  0
   15.0993  -43.3380  -29.8081 N   0  0  0  0  0  0  0  0  0  0  0  0
   18.0409  -44.3789  -31.6632 N   0  0  0  0  0  0  0  0  0  0  0  0
   18.5157  -43.4992  -30.7277 C   0  0  0  0  0  0  0  0  0  0  0  0
   17.5298  -43.0110  -29.9437 N   0  0  0  0  0  0  0  0  0  0  0  0
   17.6598  -42.0443  -28.8286 C   0  0  1  0  0  0  0  0  0  0  0  0
   17.5127  -42.7509  -27.4910 C   0  0  1  0  0  0  0  0  0  0  0  0
   18.4180  -41.9552  -26.5860 C   0  0  2  0  0  0  0  0  0  0  0  0
   17.7104  -40.8180  -26.0878 O   0  0  0  0  0  0  0  0  0  0  0  0
   16.1658  -42.6877  -27.0199 O   0  0  0  0  0  0  0  0  0  0  0  0
   18.9533  -41.4289  -28.8254 O   0  0  0  0  0  0  0  0  0  0  0  0
   19.5207  -41.4845  -27.5143 C   0  0  2  0  0  0  0  0  0  0  0  0
   20.6830  -42.4649  -27.4826 C   0  0  0  0  0  0  0  0  0  0  0  0
   21.7651  -41.9045  -28.2244 O   0  0  0  0  0  0  0  0  0  0  0  0
   23.1186  -42.7351  -28.4964 P   0  0  0  0  0  0  0  0  0  0  0  0
   23.4700  -43.3576  -27.1650 O   0  0  0  0  0  0  0  0  0  0  0  0
   24.0863  -41.6716  -28.9587 O   0  0  0  0  0  0  0  0  0  0  0  0
   22.7122  -43.7286  -29.5595 O   0  0  0  0  0  0  0  0  0  0  0  0
  1  2  2  0  0  0  0
  2  4  1  0  0  0  0
  2  3  1  0  0  0  0
  4  7  1  0  0  0  0
  5  9  1  0  0  0  0
  5  4  2  0  0  0  0
  6  5  1  0  0  0  0
  8  7  2  0  0  0  0
  9  8  1  0  0  0  0
 10 15  1  0  0  0  0
 10  9  1  6  0  0  0
 10 11  1  0  0  0  0
 11 14  1  1  0  0  0
 11 12  1  0  0  0  0
 12 13  1  6  0  0  0
 15 16  1  0  0  0  0
 16 12  1  0  0  0  0
 16 17  1  6  0  0  0
 17 18  1  0  0  0  0
 18 19  1  0  0  0  0
 19 21  1  0  0  0  0
 19 20  1  0  0  0  0
 22 19  2  0  0  0  0
M  END
>  <CHROM.1>
-178.75243337,74.25843523,-172.45063160,-174.92858246,-45.34578744,18.99200817
-43.03169045,-29.15609661,-2.63504022,0.00982813,1.00106392

>  <Name>
lig.pdb

>  <RI>
0

>  <Rbt.Current_Directory>
/home/itssahil/PROJECTS/Mol_Feturizer/New_Systems/rnas/5btp

>  <Rbt.Executable>
rbdock ($Id: //depot/dev/client3/rdock/2013.1/src/exe/rbdock.cxx#4 $)

>  <Rbt.Library>
libRbt.so (2013.1, Build901 2013/11/27)

>  <Rbt.Parameter_File>
/export/apps/rDock/src/rDock_2013.1_src/data/scripts/dock_solv.prm

>  <Rbt.Receptor>
prm/blind_docking_60.prm

>  <SCORE>
-19.8861

>  <SCORE.INTER>
-19.0133

>  <SCORE.INTER.CONST>
1

>  <SCORE.INTER.POLAR>
0

>  <SCORE.INTER.ROT>
5

>  <SCORE.INTER.SOLV>
18.2036

>  <SCORE.INTER.VDW>
-25.6768

>  <SCORE.INTER.norm>
-0.864241

>  <SCORE.INTRA>
-0.872843

>  <SCORE.INTRA.DIHEDRAL>
-1.12108

>  <SCORE.INTRA.DIHEDRAL.0>
4.21161

>  <SCORE.INTRA.POLAR>
0

>  <SCORE.INTRA.POLAR.0>
0

>  <SCORE.INTRA.REPUL>
0

>  <SCORE.INTRA.REPUL.0>
0

>  <SCORE.INTRA.SOLV>
0.442233

>  <SCORE.INTRA.SOLV.lig_0>
-41.4168

>  <SCORE.INTRA.VDW>
-0.53342

>  <SCORE.INTRA.VDW.0>
-1.62533

>  <SCORE.INTRA.norm>
-0.0396747

>  <SCORE.RESTR>
0

>  <SCORE.RESTR.CAVITY>
0

>  <SCORE.RESTR.norm>
0

>  <SCORE.SYSTEM>
0

>  <SCORE.SYSTEM.CONST>
0

>  <SCORE.SYSTEM.DIHEDRAL>
0

>  <SCORE.SYSTEM.SOLV>
0

>  <SCORE.SYSTEM.norm>
0

>  <SCORE.heavy>
22

>  <SCORE.norm>
-0.903916

>  <RMSD>
17.031

$$$$
lig.pdb
 OpenBabel11021811523D
libRbt.so/2013.1/901 2013/11/27
 22 23  0  0  0  0  0  0  0  0999 V2000
   14.4421  -45.0906  -31.9090 O   0  0  0  0  0  0  0  0  0  0  0  0
   15.6158  -45.2626  -32.1983 C   0  0  0  0  0  0  0  0  0  0  0  0
   15.9895  -46.1455  -33.1244 N   0  0  0  0  0  0  0  0  0  0  0  0
   16.6685  -44.4795  -31.4914 C   0  0  0  0  0  0  0  0  0  0  0  0
   16.4032  -43.5503  -30.3818 C   0  0  0  0  0  0  0  0  0  0  0  0
   15.0892  -43.2602  -29.8228 N   0  0  0  0  0  0  0  0  0  0  0  0
   18.0100  -44.4164  -31.6424 N   0  0  0  0  0  0  0  0  0  0  0  0
   18.5048  -43.5359  -30.7180 C   0  0  0  0  0  0  0  0  0  0  0  0
   17.5291  -43.0066  -29.9482 N   0  0  0  0  0  0  0  0  0  0  0  0
   17.6807  -42.0262  -28.8478 C   0  0  1  0  0  0  0  0  0  0  0  0
   17.5252  -42.7102  -27.4996 C   0  0  1  0  0  0  0  0  0  0  0  0
   18.4482  -41.9182  -26.6093 C   0  0  2  0  0  0  0  0  0  0  0  0
   17.7634  -40.7609  -26.1256 O   0  0  0  0  0  0  0  0  0  0  0  0
   16.1814  -42.6152  -27.0252 O   0  0  0  0  0  0  0  0  0  0  0  0
   18.9854  -41.4348  -28.8578 O   0  0  0  0  0  0  0  0  0  0  0  0
   19.5562  -41.4817  -27.5479 C   0  0  2  0  0  0  0  0  0  0  0  0
   20.7003  -42.4829  -27.5055 C   0  0  0  0  0  0  0  0  0  0  0  0
   21.7973  -41.9444  -28.2416 O   0  0  0  0  0  0  0  0  0  0  0  0
   23.1247  -42.8112  -28.5289 P   0  0  0  0  0  0  0  0  0  0  0  0
   22.7079  -43.8356  -29.5586 O   0  0  0  0  0  0  0  0  0  0  0  0
   23.4547  -43.3919  -27.1743 O   0  0  0  0  0  0  0  0  0  0  0  0
   24.1101  -41.7846  -29.0365 O   0  0  0  0  0  0  0  0  0  0  0  0
  1  2  2  0  0  0  0
  2  4  1  0  0  0  0
  2  3  1  0  0  0  0
  4  7  1  0  0  0  0
  5  9  1  0  0  0  0
  5  4  2  0  0  0  0
  6  5  1  0  0  0  0
  8  7  2  0  0  0  0
  9  8  1  0  0  0  0
 10 15  1  0  0  0  0
 10  9  1  6  0  0  0
 10 11  1  0  0  0  0
 11 14  1  1  0  0  0
 11 12  1  0  0  0  0
 12 13  1  6  0  0  0
 15 16  1  0  0  0  0
 16 12  1  0  0  0  0
 16 17  1  6  0  0  0
 17 18  1  0  0  0  0
 18 19  1  0  0  0  0
 19 21  1  0  0  0  0
 19 20  1  0  0  0  0
 22 19  2  0  0  0  0
M  END
>  <CHROM.1>
4.13244457,75.08243130,-171.56789769,-173.60763875,72.20171435,18.98988129
-43.03783460,-29.16552469,-2.64976513,-0.00565815,0.98648065

>  <Name>
lig.pdb

>  <RI>
0

>  <Rbt.Current_Directory>
/home/itssahil/PROJECTS/Mol_Feturizer/New_Systems/rnas/5btp

>  <Rbt.Executable>
rbdock ($Id: //depot/dev/client3/rdock/2013.1/src/exe/rbdock.cxx#4 $)

>  <Rbt.Library>
libRbt.so (2013.1, Build901 2013/11/27)

>  <Rbt.Parameter_File>
/export/apps/rDock/src/rDock_2013.1_src/data/scripts/dock_solv.prm

>  <Rbt.Receptor>
prm/blind_docking_100.prm

>  <SCORE>
-20.3325

>  <SCORE.INTER>
-19.2847

>  <SCORE.INTER.CONST>
1

>  <SCORE.INTER.POLAR>
0

>  <SCORE.INTER.ROT>
5

>  <SCORE.INTER.SOLV>
17.7857

>  <SCORE.INTER.VDW>
-25.7183

>  <SCORE.INTER.norm>
-0.876577

>  <SCORE.INTRA>
-1.04777

>  <SCORE.INTRA.DIHEDRAL>
-1.0444

>  <SCORE.INTRA.DIHEDRAL.0>
4.21161

>  <SCORE.INTRA.POLAR>
0

>  <SCORE.INTRA.POLAR.0>
0

>  <SCORE.INTRA.REPUL>
0

>  <SCORE.INTRA.REPUL.0>
0

>  <SCORE.INTRA.SOLV>
-0.0188774

>  <SCORE.INTRA.SOLV.lig_0>
-41.4168

>  <SCORE.INTRA.VDW>
-0.516128

>  <SCORE.INTRA.VDW.0>
-1.62533

>  <SCORE.INTRA.norm>
-0.0476258

>  <SCORE.RESTR>
0

>  <SCORE.RESTR.CAVITY>
0

>  <SCORE.RESTR.norm>
0

>  <SCORE.SYSTEM>
0

>  <SCORE.SYSTEM.CONST>
0

>  <SCORE.SYSTEM.DIHEDRAL>
0

>  <SCORE.SYSTEM.SOLV>
0

>  <SCORE.SYSTEM.norm>
0

>  <SCORE.heavy>
22

>  <SCORE.norm>
-0.924202

>  <RMSD>
17.038

$$$$
lig.pdb
 OpenBabel11021811523D
libRbt.so/2013.1/901 2013/11/27
 22 23  0  0  0  0  0  0  0  0999 V2000
   15.7691  -46.1168  -33.0175 O   0  0  0  0  0  0  0  0  0  0  0  0
   15.4604  -45.2870  -32.1765 C   0  0  0  0  0  0  0  0  0  0  0  0
   14.1875  -45.0373  -31.8695 N   0  0  0  0  0  0  0  0  0  0  0  0
   16.5284  -44.5161  -31.4792 C   0  0  0  0  0  0  0  0  0  0  0  0
   16.2800  -43.5558  -30.3925 C   0  0  0  0  0  0  0  0  0  0  0  0
   14.9702  -43.2191  -29.8498 N   0  0  0  0  0  0  0  0  0  0  0  0
   17.8720  -44.4914  -31.6216 N   0  0  0  0  0  0  0  0  0  0  0  0
   18.3835  -43.6038  -30.7132 C   0  0  0  0  0  0  0  0  0  0  0  0
   17.4167  -43.0321  -29.9626 N   0  0  0  0  0  0  0  0  0  0  0  0
   17.5865  -42.0318  -28.8831 C   0  0  1  0  0  0  0  0  0  0  0  0
   17.5355  -42.7039  -27.5209 C   0  0  1  0  0  0  0  0  0  0  0  0
   18.4712  -41.8617  -26.6921 C   0  0  2  0  0  0  0  0  0  0  0  0
   17.7649  -40.7283  -26.1835 O   0  0  0  0  0  0  0  0  0  0  0  0
   16.2171  -42.6600  -26.9733 O   0  0  0  0  0  0  0  0  0  0  0  0
   18.8618  -41.3856  -28.9723 O   0  0  0  0  0  0  0  0  0  0  0  0
   19.5057  -41.3908  -27.6958 C   0  0  2  0  0  0  0  0  0  0  0  0
   20.6926  -42.3418  -27.7066 C   0  0  0  0  0  0  0  0  0  0  0  0
   21.7029  -41.7914  -28.5501 O   0  0  0  0  0  0  0  0  0  0  0  0
   23.0539  -42.6028  -28.8851 P   0  0  0  0  0  0  0  0  0  0  0  0
   23.9320  -41.6151  -29.6180 O   0  0  0  0  0  0  0  0  0  0  0  0
   22.5630  -43.7485  -29.7381 O   0  0  0  0  0  0  0  0  0  0  0  0
   23.5698  -43.0018  -27.5224 O   0  0  0  0  0  0  0  0  0  0  0  0
  1  2  2  0  0  0  0
  2  4  1  0  0  0  0
  2  3  1  0  0  0  0
  4  7  1  0  0  0  0
  5  9  1  0  0  0  0
  5  4  2  0  0  0  0
  6  5  1  0  0  0  0
  8  7  2  0  0  0  0
  9  8  1  0  0  0  0
 10 15  1  0  0  0  0
 10  9  1  6  0  0  0
 10 11  1  0  0  0  0
 11 14  1  1  0  0  0
 11 12  1  0  0  0  0
 12 13  1  6  0  0  0
 15 16  1  0  0  0  0
 16 12  1  0  0  0  0
 16 17  1  6  0  0  0
 17 18  1  0  0  0  0
 18 19  1  0  0  0  0
 19 21  1  0  0  0  0
 19 20  1  0  0  0  0
 22 19  2  0  0  0  0
M  END
>  <CHROM.1>
-175.98236460,80.46364740,-173.77768531,-174.87577338,-171.79420390,18.91185586
-42.97623512,-29.29367400,-2.67061353,0.04766685,0.98692415

>  <Name>
lig.pdb

>  <RI>
0

>  <Rbt.Current_Directory>
/home/itssahil/PROJECTS/Mol_Feturizer/New_Systems/rnas/5btp

>  <Rbt.Executable>
rbdock ($Id: //depot/dev/client3/rdock/2013.1/src/exe/rbdock.cxx#4 $)

>  <Rbt.Library>
libRbt.so (2013.1, Build901 2013/11/27)

>  <Rbt.Parameter_File>
/export/apps/rDock/src/rDock_2013.1_src/data/scripts/dock_solv.prm

>  <Rbt.Receptor>
prm/blind_docking_60.prm

>  <SCORE>
-20.0765

>  <SCORE.INTER>
-19.0308

>  <SCORE.INTER.CONST>
1

>  <SCORE.INTER.POLAR>
0

>  <SCORE.INTER.ROT>
5

>  <SCORE.INTER.SOLV>
16.7716

>  <SCORE.INTER.VDW>
-25.2111

>  <SCORE.INTER.norm>
-0.865036

>  <SCORE.INTRA>
-1.04568

>  <SCORE.INTRA.DIHEDRAL>
-1.35733

>  <SCORE.INTRA.DIHEDRAL.0>
4.21161

>  <SCORE.INTRA.POLAR>
0

>  <SCORE.INTRA.POLAR.0>
0

>  <SCORE.INTRA.REPUL>
0

>  <SCORE.INTRA.REPUL.0>
0

>  <SCORE.INTRA.SOLV>
0.386822

>  <SCORE.INTRA.SOLV.lig_0>
-41.4168

>  <SCORE.INTRA.VDW>
-0.560426

>  <SCORE.INTRA.VDW.0>
-1.62533

>  <SCORE.INTRA.norm>
-0.047531

>  <SCORE.RESTR>
0

>  <SCORE.RESTR.CAVITY>
0

>  <SCORE.RESTR.norm>
0

>  <SCORE.SYSTEM>
0

>  <SCORE.SYSTEM.CONST>
0

>  <SCORE.SYSTEM.DIHEDRAL>
0

>  <SCORE.SYSTEM.SOLV>
0

>  <SCORE.SYSTEM.norm>
0

>  <SCORE.heavy>
22

>  <SCORE.norm>
-0.912567

>  <RMSD>
17.038

$$$$
lig.pdb
 OpenBabel11021811523D
libRbt.so/2013.1/901 2013/11/27
 22 23  0  0  0  0  0  0  0  0999 V2000
   14.3796  -45.0432  -31.9037 O   0  0  0  0  0  0  0  0  0  0  0  0
   15.5517  -45.2327  -32.1890 C   0  0  0  0  0  0  0  0  0  0  0  0
   15.9154  -46.1234  -33.1116 N   0  0  0  0  0  0  0  0  0  0  0  0
   16.6134  -44.4629  -31.4808 C   0  0  0  0  0  0  0  0  0  0  0  0
   16.3590  -43.5333  -30.3692 C   0  0  0  0  0  0  0  0  0  0  0  0
   15.0485  -43.2298  -29.8089 N   0  0  0  0  0  0  0  0  0  0  0  0
   17.9554  -44.4145  -31.6324 N   0  0  0  0  0  0  0  0  0  0  0  0
   18.4604  -43.5416  -30.7063 C   0  0  0  0  0  0  0  0  0  0  0  0
   17.4910  -43.0031  -29.9349 N   0  0  0  0  0  0  0  0  0  0  0  0
   17.6541  -42.0268  -28.8325 C   0  0  1  0  0  0  0  0  0  0  0  0
   17.5112  -42.7157  -27.4853 C   0  0  1  0  0  0  0  0  0  0  0  0
   18.4434  -41.9276  -26.6011 C   0  0  2  0  0  0  0  0  0  0  0  0
   17.7642  -40.7716  -26.1066 O   0  0  0  0  0  0  0  0  0  0  0  0
   16.1722  -42.6216  -26.9974 O   0  0  0  0  0  0  0  0  0  0  0  0
   18.9590  -41.4363  -28.8531 O   0  0  0  0  0  0  0  0  0  0  0  0
   19.5425  -41.4883  -27.5490 C   0  0  2  0  0  0  0  0  0  0  0  0
   20.6863  -42.4904  -27.5214 C   0  0  0  0  0  0  0  0  0  0  0  0
   21.7822  -41.9430  -28.2525 O   0  0  0  0  0  0  0  0  0  0  0  0
   23.1445  -42.7739  -28.4754 P   0  0  0  0  0  0  0  0  0  0  0  0
   23.4815  -43.3444  -27.1172 O   0  0  0  0  0  0  0  0  0  0  0  0
   24.1117  -41.7217  -28.9637 O   0  0  0  0  0  0  0  0  0  0  0  0
   22.7588  -43.8087  -29.5062 O   0  0  0  0  0  0  0  0  0  0  0  0
  1  2  2  0  0  0  0
  2  4  1  0  0  0  0
  2  3  1  0  0  0  0
  4  7  1  0  0  0  0
  5  9  1  0  0  0  0
  5  4  2  0  0  0  0
  6  5  1  0  0  0  0
  8  7  2  0  0  0  0
  9  8  1  0  0  0  0
 10 15  1  0  0  0  0
 10  9  1  6  0  0  0
 10 11  1  0  0  0  0
 11 14  1  1  0  0  0
 11 12  1  0  0  0  0
 12 13  1  6  0  0  0
 15 16  1  0  0  0  0
 16 12  1  0  0  0  0
 16 17  1  6  0  0  0
 17 18  1  0  0  0  0
 18 19  1  0  0  0  0
 19 21  1  0  0  0  0
 19 20  1  0  0  0  0
 22 19  2  0  0  0  0
M  END
>  <CHROM.1>
4.51607385,75.88969467,-170.87243446,-177.43370178,-46.25768201,18.97071251
-43.02288079,-29.14490304,-2.65181280,-0.00513546,0.99129223

>  <Name>
lig.pdb

>  <RI>
0

>  <Rbt.Current_Directory>
/home/itssahil/PROJECTS/Mol_Feturizer/New_Systems/rnas/5btp

>  <Rbt.Executable>
rbdock ($Id: //depot/dev/client3/rdock/2013.1/src/exe/rbdock.cxx#4 $)

>  <Rbt.Library>
libRbt.so (2013.1, Build901 2013/11/27)

>  <Rbt.Parameter_File>
/export/apps/rDock/src/rDock_2013.1_src/data/scripts/dock_solv.prm

>  <Rbt.Receptor>
prm/blind_docking_80.prm

>  <SCORE>
-19.9411

>  <SCORE.INTER>
-18.9084

>  <SCORE.INTER.CONST>
1

>  <SCORE.INTER.POLAR>
0

>  <SCORE.INTER.ROT>
5

>  <SCORE.INTER.SOLV>
18.5868

>  <SCORE.INTER.VDW>
-25.7345

>  <SCORE.INTER.norm>
-0.859472

>  <SCORE.INTRA>
-1.03271

>  <SCORE.INTRA.DIHEDRAL>
-1.09711

>  <SCORE.INTRA.DIHEDRAL.0>
4.21161

>  <SCORE.INTRA.POLAR>
0

>  <SCORE.INTRA.POLAR.0>
0

>  <SCORE.INTRA.REPUL>
0

>  <SCORE.INTRA.REPUL.0>
0

>  <SCORE.INTRA.SOLV>
0.143719

>  <SCORE.INTRA.SOLV.lig_0>
-41.4168

>  <SCORE.INTRA.VDW>
-0.556019

>  <SCORE.INTRA.VDW.0>
-1.62533

>  <SCORE.INTRA.norm>
-0.0469415

>  <SCORE.RESTR>
0

>  <SCORE.RESTR.CAVITY>
0

>  <SCORE.RESTR.norm>
0

>  <SCORE.SYSTEM>
0

>  <SCORE.SYSTEM.CONST>
0

>  <SCORE.SYSTEM.DIHEDRAL>
0

>  <SCORE.SYSTEM.SOLV>
0

>  <SCORE.SYSTEM.norm>
0

>  <SCORE.heavy>
22

>  <SCORE.norm>
-0.906414

>  <RMSD>
17.040

$$$$
lig.pdb
 OpenBabel11021811523D
libRbt.so/2013.1/901 2013/11/27
 22 23  0  0  0  0  0  0  0  0999 V2000
   14.4418  -45.1020  -31.9190 O   0  0  0  0  0  0  0  0  0  0  0  0
   15.6166  -45.2443  -32.2200 C   0  0  0  0  0  0  0  0  0  0  0  0
   16.0005  -46.0968  -33.1701 N   0  0  0  0  0  0  0  0  0  0  0  0
   16.6591  -44.4589  -31.5006 C   0  0  0  0  0  0  0  0  0  0  0  0
   16.3827  -43.5561  -30.3721 C   0  0  0  0  0  0  0  0  0  0  0  0
   15.0660  -43.2977  -29.8040 N   0  0  0  0  0  0  0  0  0  0  0  0
   17.9989  -44.3719  -31.6539 N   0  0  0  0  0  0  0  0  0  0  0  0
   18.4828  -43.5022  -30.7137 C   0  0  0  0  0  0  0  0  0  0  0  0
   17.5013  -43.0035  -29.9309 N   0  0  0  0  0  0  0  0  0  0  0  0
   17.6409  -42.0428  -28.8118 C   0  0  1  0  0  0  0  0  0  0  0  0
   17.5122  -42.7576  -27.4767 C   0  0  1  0  0  0  0  0  0  0  0  0
   18.4253  -41.9638  -26.5778 C   0  0  2  0  0  0  0  0  0  0  0  0
   17.7195  -40.8321  -26.0647 O   0  0  0  0  0  0  0  0  0  0  0  0
   16.1708  -42.7021  -26.9894 O   0  0  0  0  0  0  0  0  0  0  0  0
   18.9322  -41.4226  -28.8203 O   0  0  0  0  0  0  0  0  0  0  0  0
   19.5152  -41.4837  -27.5164 C   0  0  2  0  0  0  0  0  0  0  0  0
   20.6813  -42.4600  -27.5042 C   0  0  0  0  0  0  0  0  0  0  0  0
   21.7533  -41.8904  -28.2535 O   0  0  0  0  0  0  0  0  0  0  0  0
   23.1171  -42.7045  -28.5241 P   0  0  0  0  0  0  0  0  0  0  0  0
   24.0879  -41.6758  -29.0560 O   0  0  0  0  0  0  0  0  0  0  0  0
   22.6999  -43.7453  -29.5360 O   0  0  0  0  0  0  0  0  0  0  0  0
   23.4748  -43.2512  -27.1620 O   0  0  0  0  0  0  0  0  0  0  0  0
  1  2  2  0  0  0  0
  2  4  1  0  0  0  0
  2  3  1  0  0  0  0
  4  7  1  0  0  0  0
  5  9  1  0  0  0  0
  5  4  2  0  0  0  0
  6  5  1  0  0  0  0
  8  7  2  0  0  0  0
  9  8  1  0  0  0  0
 10 15  1  0  0  0  0
 10  9  1  6  0  0  0
 10 11  1  0  0  0  0
 11 14  1  1  0  0  0
 11 12  1  0  0  0  0
 12 13  1  6  0  0  0
 15 16  1  0  0  0  0
 16 12  1  0  0  0  0
 16 17  1  6  0  0  0
 17 18  1  0  0  0  0
 18 19  1  0  0  0  0
 19 21  1  0  0  0  0
 19 20  1  0  0  0  0
 22 19  2  0  0  0  0
M  END
>  <CHROM.1>
3.72398868,75.57349347,-172.35408313,-176.00750251,-167.54079847,18.97182136
-43.01476972,-29.15550853,-2.64337072,0.01534585,1.00868179

>  <Name>
lig.pdb

>  <RI>
0

>  <Rbt.Current_Directory>
/home/itssahil/PROJECTS/Mol_Feturizer/New_Systems/rnas/5btp

>  <Rbt.Executable>
rbdock ($Id: //depot/dev/client3/rdock/2013.1/src/exe/rbdock.cxx#4 $)

>  <Rbt.Library>
libRbt.so (2013.1, Build901 2013/11/27)

>  <Rbt.Parameter_File>
/export/apps/rDock/src/rDock_2013.1_src/data/scripts/dock_solv.prm

>  <Rbt.Receptor>
prm/blind_docking_100.prm

>  <SCORE>
-20.1693

>  <SCORE.INTER>
-19.1659

>  <SCORE.INTER.CONST>
1

>  <SCORE.INTER.POLAR>
0

>  <SCORE.INTER.ROT>
5

>  <SCORE.INTER.SOLV>
17.8854

>  <SCORE.INTER.VDW>
-25.6724

>  <SCORE.INTER.norm>
-0.871175

>  <SCORE.INTRA>
-1.00343

>  <SCORE.INTRA.DIHEDRAL>
-1.21052

>  <SCORE.INTRA.DIHEDRAL.0>
4.21161

>  <SCORE.INTRA.POLAR>
0

>  <SCORE.INTRA.POLAR.0>
0

>  <SCORE.INTRA.REPUL>
0

>  <SCORE.INTRA.REPUL.0>
0

>  <SCORE.INTRA.SOLV>
0.217683

>  <SCORE.INTRA.SOLV.lig_0>
-41.4168

>  <SCORE.INTRA.VDW>
-0.507014

>  <SCORE.INTRA.VDW.0>
-1.62533

>  <SCORE.INTRA.norm>
-0.0456106

>  <SCORE.RESTR>
0

>  <SCORE.RESTR.CAVITY>
0

>  <SCORE.RESTR.norm>
0

>  <SCORE.SYSTEM>
0

>  <SCORE.SYSTEM.CONST>
0

>  <SCORE.SYSTEM.DIHEDRAL>
0

>  <SCORE.SYSTEM.SOLV>
0

>  <SCORE.SYSTEM.norm>
0

>  <SCORE.heavy>
22

>  <SCORE.norm>
-0.916786

>  <RMSD>
17.055

$$$$
lig.pdb
 OpenBabel11021811523D
libRbt.so/2013.1/901 2013/11/27
 22 23  0  0  0  0  0  0  0  0999 V2000
   15.8510  -46.0171  -33.0558 O   0  0  0  0  0  0  0  0  0  0  0  0
   15.5330  -45.2161  -32.1906 C   0  0  0  0  0  0  0  0  0  0  0  0
   14.2576  -44.9928  -31.8739 N   0  0  0  0  0  0  0  0  0  0  0  0
   16.5921  -44.4508  -31.4738 C   0  0  0  0  0  0  0  0  0  0  0  0
   16.3340  -43.5308  -30.3549 C   0  0  0  0  0  0  0  0  0  0  0  0
   15.0219  -43.2338  -29.7950 N   0  0  0  0  0  0  0  0  0  0  0  0
   17.9344  -44.3992  -31.6220 N   0  0  0  0  0  0  0  0  0  0  0  0
   18.4362  -43.5334  -30.6876 C   0  0  0  0  0  0  0  0  0  0  0  0
   17.4644  -43.0027  -29.9138 N   0  0  0  0  0  0  0  0  0  0  0  0
   17.6237  -42.0355  -28.8029 C   0  0  1  0  0  0  0  0  0  0  0  0
   17.5160  -42.7422  -27.4616 C   0  0  1  0  0  0  0  0  0  0  0  0
   18.4448  -41.9443  -26.5827 C   0  0  2  0  0  0  0  0  0  0  0  0
   17.7491  -40.8086  -26.0648 O   0  0  0  0  0  0  0  0  0  0  0  0
   16.1830  -42.6819  -26.9526 O   0  0  0  0  0  0  0  0  0  0  0  0
   18.9154  -41.4172  -28.8364 O   0  0  0  0  0  0  0  0  0  0  0  0
   19.5198  -41.4714  -27.5419 C   0  0  2  0  0  0  0  0  0  0  0  0
   20.6847  -42.4492  -27.5430 C   0  0  0  0  0  0  0  0  0  0  0  0
   21.7454  -41.8850  -28.3123 O   0  0  0  0  0  0  0  0  0  0  0  0
   23.0905  -42.7142  -28.6270 P   0  0  0  0  0  0  0  0  0  0  0  0
   24.0460  -41.7016  -29.2145 O   0  0  0  0  0  0  0  0  0  0  0  0
   22.6236  -43.7665  -29.6046 O   0  0  0  0  0  0  0  0  0  0  0  0
   23.5005  -43.2434  -27.2727 O   0  0  0  0  0  0  0  0  0  0  0  0
  1  2  2  0  0  0  0
  2  4  1  0  0  0  0
  2  3  1  0  0  0  0
  4  7  1  0  0  0  0
  5  9  1  0  0  0  0
  5  4  2  0  0  0  0
  6  5  1  0  0  0  0
  8  7  2  0  0  0  0
  9  8  1  0  0  0  0
 10 15  1  0  0  0  0
 10  9  1  6  0  0  0
 10 11  1  0  0  0  0
 11 14  1  1  0  0  0
 11 12  1  0  0  0  0
 12 13  1  6  0  0  0
 15 16  1  0  0  0  0
 16 12  1  0  0  0  0
 16 17  1  6  0  0  0
 17 18  1  0  0  0  0
 18 19  1  0  0  0  0
 19 21  1  0  0  0  0
 19 20  1  0  0  0  0
 22 19  2  0  0  0  0
M  END
>  <CHROM.1>
-175.65502173,77.40523088,-172.30348511,-174.67346489,-169.39521321,18.94531965
-43.00724235,-29.17922568,-2.65680010,0.01903473,1.00706744

>  <Name>
lig.pdb

>  <RI>
0

>  <Rbt.Current_Directory>
/home/itssahil/PROJECTS/Mol_Feturizer/New_Systems/rnas/5btp

>  <Rbt.Executable>
rbdock ($Id: //depot/dev/client3/rdock/2013.1/src/exe/rbdock.cxx#4 $)

>  <Rbt.Library>
libRbt.so (2013.1, Build901 2013/11/27)

>  <Rbt.Parameter_File>
/export/apps/rDock/src/rDock_2013.1_src/data/scripts/dock_solv.prm

>  <Rbt.Receptor>
prm/blind_docking_80.prm

>  <SCORE>
-20.0546

>  <SCORE.INTER>
-19.1463

>  <SCORE.INTER.CONST>
1

>  <SCORE.INTER.POLAR>
0

>  <SCORE.INTER.ROT>
5

>  <SCORE.INTER.SOLV>
17.475

>  <SCORE.INTER.VDW>
-25.5225

>  <SCORE.INTER.norm>
-0.870288

>  <SCORE.INTRA>
-0.908281

>  <SCORE.INTRA.DIHEDRAL>
-1.19564

>  <SCORE.INTRA.DIHEDRAL.0>
4.21161

>  <SCORE.INTRA.POLAR>
0

>  <SCORE.INTRA.POLAR.0>
0

>  <SCORE.INTRA.REPUL>
0

>  <SCORE.INTRA.REPUL.0>
0

>  <SCORE.INTRA.SOLV>
0.429366

>  <SCORE.INTRA.SOLV.lig_0>
-41.4168

>  <SCORE.INTRA.VDW>
-0.525145

>  <SCORE.INTRA.VDW.0>
-1.62533

>  <SCORE.INTRA.norm>
-0.0412855

>  <SCORE.RESTR>
0

>  <SCORE.RESTR.CAVITY>
0

>  <SCORE.RESTR.norm>
0

>  <SCORE.SYSTEM>
0

>  <SCORE.SYSTEM.CONST>
0

>  <SCORE.SYSTEM.DIHEDRAL>
0

>  <SCORE.SYSTEM.SOLV>
0

>  <SCORE.SYSTEM.norm>
0

>  <SCORE.heavy>
22

>  <SCORE.norm>
-0.911574

>  <RMSD>
17.055

$$$$
lig.pdb
 OpenBabel11021811523D
libRbt.so/2013.1/901 2013/11/27
 22 23  0  0  0  0  0  0  0  0999 V2000
   15.2535  -47.4044  -30.8609 O   0  0  0  0  0  0  0  0  0  0  0  0
   15.1755  -46.5626  -29.9798 C   0  0  0  0  0  0  0  0  0  0  0  0
   14.2641  -46.6420  -29.0104 N   0  0  0  0  0  0  0  0  0  0  0  0
   16.1109  -45.4023  -29.9882 C   0  0  0  0  0  0  0  0  0  0  0  0
   16.1242  -44.3432  -28.9670 C   0  0  0  0  0  0  0  0  0  0  0  0
   15.2333  -44.2725  -27.8161 N   0  0  0  0  0  0  0  0  0  0  0  0
   17.1042  -45.0415  -30.8305 N   0  0  0  0  0  0  0  0  0  0  0  0
   17.6602  -43.8800  -30.3656 C   0  0  0  0  0  0  0  0  0  0  0  0
   17.0661  -43.4518  -29.2304 N   0  0  0  0  0  0  0  0  0  0  0  0
   17.3960  -42.2422  -28.4410 C   0  0  1  0  0  0  0  0  0  0  0  0
   17.7394  -42.6180  -27.0089 C   0  0  1  0  0  0  0  0  0  0  0  0
   18.7634  -41.5815  -26.6229 C   0  0  2  0  0  0  0  0  0  0  0  0
   18.0967  -40.3992  -26.1759 O   0  0  0  0  0  0  0  0  0  0  0  0
   16.5943  -42.5189  -26.1611 O   0  0  0  0  0  0  0  0  0  0  0  0
   18.5448  -41.5734  -28.9746 O   0  0  0  0  0  0  0  0  0  0  0  0
   19.4754  -41.2848  -27.9284 C   0  0  2  0  0  0  0  0  0  0  0  0
   20.7092  -42.1642  -28.0611 C   0  0  0  0  0  0  0  0  0  0  0  0
   21.4448  -41.7380  -29.2067 O   0  0  0  0  0  0  0  0  0  0  0  0
   22.8507  -42.4168  -29.6048 P   0  0  0  0  0  0  0  0  0  0  0  0
   23.3206  -41.6574  -30.8239 O   0  0  0  0  0  0  0  0  0  0  0  0
   22.4729  -43.8536  -29.8765 O   0  0  0  0  0  0  0  0  0  0  0  0
   23.7020  -42.2061  -28.3746 O   0  0  0  0  0  0  0  0  0  0  0  0
  1  2  2  0  0  0  0
  2  4  1  0  0  0  0
  2  3  1  0  0  0  0
  4  7  1  0  0  0  0
  5  9  1  0  0  0  0
  5  4  2  0  0  0  0
  6  5  1  0  0  0  0
  8  7  2  0  0  0  0
  9  8  1  0  0  0  0
 10 15  1  0  0  0  0
 10  9  1  6  0  0  0
 10 11  1  0  0  0  0
 11 14  1  1  0  0  0
 11 12  1  0  0  0  0
 12 13  1  6  0  0  0
 15 16  1  0  0  0  0
 16 12  1  0  0  0  0
 16 17  1  6  0  0  0
 17 18  1  0  0  0  0
 18 19  1  0  0  0  0
 19 21  1  0  0  0  0
 19 20  1  0  0  0  0
 22 19  2  0  0  0  0
M  END
>  <CHROM.1>
-178.86715699,57.24688789,-172.49728570,177.24293515,-177.86111553,18.76549273
-43.22773049,-28.86729427,-2.80223513,0.31549886,0.76836128

>  <Name>
lig.pdb

>  <RI>
0

>  <Rbt.Current_Directory>
/home/itssahil/PROJECTS/Mol_Feturizer/New_Systems/rnas/5btp

>  <Rbt.Executable>
rbdock ($Id: //depot/dev/client3/rdock/2013.1/src/exe/rbdock.cxx#4 $)

>  <Rbt.Library>
libRbt.so (2013.1, Build901 2013/11/27)

>  <Rbt.Parameter_File>
/export/apps/rDock/src/rDock_2013.1_src/data/scripts/dock_solv.prm

>  <Rbt.Receptor>
prm/blind_docking_60.prm

>  <SCORE>
-18.5124

>  <SCORE.INTER>
-17.7967

>  <SCORE.INTER.CONST>
1

>  <SCORE.INTER.POLAR>
0

>  <SCORE.INTER.ROT>
5

>  <SCORE.INTER.SOLV>
15.0555

>  <SCORE.INTER.VDW>
-23.8163

>  <SCORE.INTER.norm>
-0.808941

>  <SCORE.INTRA>
-0.715705

>  <SCORE.INTRA.DIHEDRAL>
-1.55072

>  <SCORE.INTRA.DIHEDRAL.0>
4.21161

>  <SCORE.INTRA.POLAR>
0

>  <SCORE.INTRA.POLAR.0>
0

>  <SCORE.INTRA.REPUL>
0

>  <SCORE.INTRA.REPUL.0>
0

>  <SCORE.INTRA.SOLV>
0.626016

>  <SCORE.INTRA.SOLV.lig_0>
-41.4168

>  <SCORE.INTRA.VDW>
-0.253355

>  <SCORE.INTRA.VDW.0>
-1.62533

>  <SCORE.INTRA.norm>
-0.032532

>  <SCORE.RESTR>
0

>  <SCORE.RESTR.CAVITY>
0

>  <SCORE.RESTR.norm>
0

>  <SCORE.SYSTEM>
0

>  <SCORE.SYSTEM.CONST>
0

>  <SCORE.SYSTEM.DIHEDRAL>
0

>  <SCORE.SYSTEM.SOLV>
0

>  <SCORE.SYSTEM.norm>
0

>  <SCORE.heavy>
22

>  <SCORE.norm>
-0.841473

>  <RMSD>
17.061

$$$$
lig.pdb
 OpenBabel11021811523D
libRbt.so/2013.1/901 2013/11/27
 22 23  0  0  0  0  0  0  0  0999 V2000
   14.9262  -46.8963  -29.5504 O   0  0  0  0  0  0  0  0  0  0  0  0
   15.6683  -46.5972  -30.4729 C   0  0  0  0  0  0  0  0  0  0  0  0
   15.8118  -47.3805  -31.5418 N   0  0  0  0  0  0  0  0  0  0  0  0
   16.4512  -45.3309  -30.4043 C   0  0  0  0  0  0  0  0  0  0  0  0
   16.4109  -44.3938  -29.2707 C   0  0  0  0  0  0  0  0  0  0  0  0
   15.6065  -44.5626  -28.0674 N   0  0  0  0  0  0  0  0  0  0  0  0
   17.3270  -44.7563  -31.2581 N   0  0  0  0  0  0  0  0  0  0  0  0
   17.7698  -43.5885  -30.6971 C   0  0  0  0  0  0  0  0  0  0  0  0
   17.2141  -43.3645  -29.4864 N   0  0  0  0  0  0  0  0  0  0  0  0
   17.4513  -42.2133  -28.5844 C   0  0  1  0  0  0  0  0  0  0  0  0
   17.6649  -42.6899  -27.1571 C   0  0  1  0  0  0  0  0  0  0  0  0
   18.6334  -41.6767  -26.6029 C   0  0  2  0  0  0  0  0  0  0  0  0
   17.9108  -40.5352  -26.1367 O   0  0  0  0  0  0  0  0  0  0  0  0
   16.4444  -42.6617  -26.4160 O   0  0  0  0  0  0  0  0  0  0  0  0
   18.6352  -41.4986  -28.9580 O   0  0  0  0  0  0  0  0  0  0  0  0
   19.4598  -41.2801  -27.8108 C   0  0  2  0  0  0  0  0  0  0  0  0
   20.7131  -42.1380  -27.8896 C   0  0  0  0  0  0  0  0  0  0  0  0
   21.5986  -41.5550  -28.8442 O   0  0  0  0  0  0  0  0  0  0  0  0
   23.0624  -42.1691  -29.1196 P   0  0  0  0  0  0  0  0  0  0  0  0
   23.7030  -42.2807  -27.7555 O   0  0  0  0  0  0  0  0  0  0  0  0
   23.7012  -41.1406  -30.0226 O   0  0  0  0  0  0  0  0  0  0  0  0
   22.7672  -43.4961  -29.7784 O   0  0  0  0  0  0  0  0  0  0  0  0
  1  2  2  0  0  0  0
  2  4  1  0  0  0  0
  2  3  1  0  0  0  0
  4  7  1  0  0  0  0
  5  9  1  0  0  0  0
  5  4  2  0  0  0  0
  6  5  1  0  0  0  0
  8  7  2  0  0  0  0
  9  8  1  0  0  0  0
 10 15  1  0  0  0  0
 10  9  1  6  0  0  0
 10 11  1  0  0  0  0
 11 14  1  1  0  0  0
 11 12  1  0  0  0  0
 12 13  1  6  0  0  0
 15 16  1  0  0  0  0
 16 12  1  0  0  0  0
 16 17  1  6  0  0  0
 17 18  1  0  0  0  0
 18 19  1  0  0  0  0
 19 21  1  0  0  0  0
 19 20  1  0  0  0  0
 22 19  2  0  0  0  0
M  END
>  <CHROM.1>
0.82187994,45.62316573,-167.42340264,176.67793304,-52.04838483,18.93376356
-43.16312469,-28.87978268,-2.69974362,0.27313966,0.79295718

>  <Name>
lig.pdb

>  <RI>
0

>  <Rbt.Current_Directory>
/home/itssahil/PROJECTS/Mol_Feturizer/New_Systems/rnas/5btp

>  <Rbt.Executable>
rbdock ($Id: //depot/dev/client3/rdock/2013.1/src/exe/rbdock.cxx#4 $)

>  <Rbt.Library>
libRbt.so (2013.1, Build901 2013/11/27)

>  <Rbt.Parameter_File>
/export/apps/rDock/src/rDock_2013.1_src/data/scripts/dock_solv.prm

>  <Rbt.Receptor>
prm/blind_docking_60.prm

>  <SCORE>
-18.5982

>  <SCORE.INTER>
-18.3275

>  <SCORE.INTER.CONST>
1

>  <SCORE.INTER.POLAR>
0

>  <SCORE.INTER.ROT>
5

>  <SCORE.INTER.SOLV>
15.2997

>  <SCORE.INTER.VDW>
-24.2516

>  <SCORE.INTER.norm>
-0.833068

>  <SCORE.INTRA>
-0.270742

>  <SCORE.INTRA.DIHEDRAL>
-1.09944

>  <SCORE.INTRA.DIHEDRAL.0>
4.21161

>  <SCORE.INTRA.POLAR>
0

>  <SCORE.INTRA.POLAR.0>
0

>  <SCORE.INTRA.REPUL>
0

>  <SCORE.INTRA.REPUL.0>
0

>  <SCORE.INTRA.SOLV>
0.444418

>  <SCORE.INTRA.SOLV.lig_0>
-41.4168

>  <SCORE.INTRA.VDW>
0.0567681

>  <SCORE.INTRA.VDW.0>
-1.62533

>  <SCORE.INTRA.norm>
-0.0123065

>  <SCORE.RESTR>
0

>  <SCORE.RESTR.CAVITY>
0

>  <SCORE.RESTR.norm>
0

>  <SCORE.SYSTEM>
0

>  <SCORE.SYSTEM.CONST>
0

>  <SCORE.SYSTEM.DIHEDRAL>
0

>  <SCORE.SYSTEM.SOLV>
0

>  <SCORE.SYSTEM.norm>
0

>  <SCORE.heavy>
22

>  <SCORE.norm>
-0.845375

>  <RMSD>
17.070

$$$$
lig.pdb
 OpenBabel11021811523D
libRbt.so/2013.1/901 2013/11/27
 22 23  0  0  0  0  0  0  0  0999 V2000
   15.4334  -46.1694  -32.7830 O   0  0  0  0  0  0  0  0  0  0  0  0
   15.2860  -45.2175  -32.0325 C   0  0  0  0  0  0  0  0  0  0  0  0
   14.0770  -44.7855  -31.6741 N   0  0  0  0  0  0  0  0  0  0  0  0
   16.4846  -44.5026  -31.5094 C   0  0  0  0  0  0  0  0  0  0  0  0
   16.4293  -43.3815  -30.5581 C   0  0  0  0  0  0  0  0  0  0  0  0
   15.2104  -42.8109  -29.9997 N   0  0  0  0  0  0  0  0  0  0  0  0
   17.8082  -44.6688  -31.7252 N   0  0  0  0  0  0  0  0  0  0  0  0
   18.4843  -43.7400  -30.9804 C   0  0  0  0  0  0  0  0  0  0  0  0
   17.6477  -42.9542  -30.2680 N   0  0  0  0  0  0  0  0  0  0  0  0
   18.0108  -41.8481  -29.3518 C   0  0  1  0  0  0  0  0  0  0  0  0
   17.6570  -42.2061  -27.9177 C   0  0  1  0  0  0  0  0  0  0  0  0
   18.7254  -41.5038  -27.1196 C   0  0  2  0  0  0  0  0  0  0  0  0
   18.3379  -40.1461  -26.8993 O   0  0  0  0  0  0  0  0  0  0  0  0
   16.3676  -41.7038  -27.5640 O   0  0  0  0  0  0  0  0  0  0  0  0
   19.4213  -41.5992  -29.3746 O   0  0  0  0  0  0  0  0  0  0  0  0
   19.9300  -41.5317  -28.0402 C   0  0  2  0  0  0  0  0  0  0  0  0
   20.7882  -42.7508  -27.7395 C   0  0  0  0  0  0  0  0  0  0  0  0
   21.6026  -43.0204  -28.8793 O   0  0  0  0  0  0  0  0  0  0  0  0
   22.8054  -42.0370  -29.3062 P   0  0  0  0  0  0  0  0  0  0  0  0
   22.1306  -40.7487  -29.7167 O   0  0  0  0  0  0  0  0  0  0  0  0
   23.4683  -42.7795  -30.4422 O   0  0  0  0  0  0  0  0  0  0  0  0
   23.6345  -41.9312  -28.0478 O   0  0  0  0  0  0  0  0  0  0  0  0
  1  2  2  0  0  0  0
  2  4  1  0  0  0  0
  2  3  1  0  0  0  0
  4  7  1  0  0  0  0
  5  9  1  0  0  0  0
  5  4  2  0  0  0  0
  6  5  1  0  0  0  0
  8  7  2  0  0  0  0
  9  8  1  0  0  0  0
 10 15  1  0  0  0  0
 10  9  1  6  0  0  0
 10 11  1  0  0  0  0
 11 14  1  1  0  0  0
 11 12  1  0  0  0  0
 12 13  1  6  0  0  0
 15 16  1  0  0  0  0
 16 12  1  0  0  0  0
 16 17  1  1  0  0  0
 17 18  1  0  0  0  0
 18 19  1  0  0  0  0
 19 21  1  0  0  0  0
 19 20  1  0  0  0  0
 22 19  2  0  0  0  0
M  END
>  <CHROM.1>
-177.36745544,66.78486050,159.30517055,69.35045109,-66.05311760,18.95569720
-42.73440016,-29.57874353,-2.64565443,0.06509735,0.89209409

>  <Name>
lig.pdb

>  <RI>
0

>  <Rbt.Current_Directory>
/home/itssahil/PROJECTS/Mol_Feturizer/New_Systems/rnas/5btp

>  <Rbt.Executable>
rbdock ($Id: //depot/dev/client3/rdock/2013.1/src/exe/rbdock.cxx#4 $)

>  <Rbt.Library>
libRbt.so (2013.1, Build901 2013/11/27)

>  <Rbt.Parameter_File>
/export/apps/rDock/src/rDock_2013.1_src/data/scripts/dock_solv.prm

>  <Rbt.Receptor>
prm/blind_docking_60.prm

>  <SCORE>
-18.5357

>  <SCORE.INTER>
-18.8311

>  <SCORE.INTER.CONST>
1

>  <SCORE.INTER.POLAR>
0

>  <SCORE.INTER.ROT>
5

>  <SCORE.INTER.SOLV>
17.6697

>  <SCORE.INTER.VDW>
-25.3773

>  <SCORE.INTER.norm>
-0.855961

>  <SCORE.INTRA>
0.29549

>  <SCORE.INTRA.DIHEDRAL>
0.125174

>  <SCORE.INTRA.DIHEDRAL.0>
4.21161

>  <SCORE.INTRA.POLAR>
0

>  <SCORE.INTRA.POLAR.0>
0

>  <SCORE.INTRA.REPUL>
0

>  <SCORE.INTRA.REPUL.0>
0

>  <SCORE.INTRA.SOLV>
1.6572

>  <SCORE.INTRA.SOLV.lig_0>
-41.4168

>  <SCORE.INTRA.VDW>
-0.595697

>  <SCORE.INTRA.VDW.0>
-1.62533

>  <SCORE.INTRA.norm>
0.0134314

>  <SCORE.RESTR>
0

>  <SCORE.RESTR.CAVITY>
0

>  <SCORE.RESTR.norm>
0

>  <SCORE.SYSTEM>
0

>  <SCORE.SYSTEM.CONST>
0

>  <SCORE.SYSTEM.DIHEDRAL>
0

>  <SCORE.SYSTEM.SOLV>
0

>  <SCORE.SYSTEM.norm>
0

>  <SCORE.heavy>
22

>  <SCORE.norm>
-0.84253

>  <RMSD>
17.097

$$$$
lig.pdb
 OpenBabel11021811523D
libRbt.so/2013.1/901 2013/11/27
 22 23  0  0  0  0  0  0  0  0999 V2000
   14.1689  -44.9206  -31.7075 O   0  0  0  0  0  0  0  0  0  0  0  0
   15.2909  -45.2595  -32.0500 C   0  0  0  0  0  0  0  0  0  0  0  0
   15.4934  -46.2825  -32.8803 N   0  0  0  0  0  0  0  0  0  0  0  0
   16.4739  -44.5252  -31.5186 C   0  0  0  0  0  0  0  0  0  0  0  0
   16.3945  -43.4153  -30.5558 C   0  0  0  0  0  0  0  0  0  0  0  0
   15.1636  -42.8761  -29.9926 N   0  0  0  0  0  0  0  0  0  0  0  0
   17.8009  -44.6614  -31.7349 N   0  0  0  0  0  0  0  0  0  0  0  0
   18.4569  -43.7263  -30.9800 C   0  0  0  0  0  0  0  0  0  0  0  0
   17.6035  -42.9657  -30.2602 N   0  0  0  0  0  0  0  0  0  0  0  0
   17.9428  -41.8617  -29.3324 C   0  0  1  0  0  0  0  0  0  0  0  0
   17.5946  -42.2414  -27.9025 C   0  0  1  0  0  0  0  0  0  0  0  0
   18.6475  -41.5255  -27.0958 C   0  0  2  0  0  0  0  0  0  0  0  0
   18.2320  -40.1783  -26.8623 O   0  0  0  0  0  0  0  0  0  0  0  0
   16.2948  -41.7691  -27.5457 O   0  0  0  0  0  0  0  0  0  0  0  0
   19.3480  -41.5838  -29.3506 O   0  0  0  0  0  0  0  0  0  0  0  0
   19.8535  -41.5195  -28.0149 C   0  0  2  0  0  0  0  0  0  0  0  0
   20.7360  -42.7238  -27.7252 C   0  0  0  0  0  0  0  0  0  0  0  0
   21.5242  -42.9934  -28.8834 O   0  0  0  0  0  0  0  0  0  0  0  0
   22.7174  -42.0105  -29.3371 P   0  0  0  0  0  0  0  0  0  0  0  0
   23.4438  -42.7564  -30.4324 O   0  0  0  0  0  0  0  0  0  0  0  0
   23.5186  -41.8358  -28.0688 O   0  0  0  0  0  0  0  0  0  0  0  0
   21.9913  -40.7710  -29.8048 O   0  0  0  0  0  0  0  0  0  0  0  0
  1  2  2  0  0  0  0
  2  4  1  0  0  0  0
  2  3  1  0  0  0  0
  4  7  1  0  0  0  0
  5  9  1  0  0  0  0
  5  4  2  0  0  0  0
  6  5  1  0  0  0  0
  8  7  2  0  0  0  0
  9  8  1  0  0  0  0
 10 15  1  0  0  0  0
 10  9  1  6  0  0  0
 10 11  1  0  0  0  0
 11 14  1  1  0  0  0
 11 12  1  0  0  0  0
 12 13  1  6  0  0  0
 15 16  1  0  0  0  0
 16 12  1  0  0  0  0
 16 17  1  1  0  0  0
 17 18  1  0  0  0  0
 18 19  1  0  0  0  0
 19 21  1  0  0  0  0
 19 20  1  0  0  0  0
 22 19  2  0  0  0  0
M  END
>  <CHROM.1>
1.84882014,66.73664289,157.33259728,70.36175884,170.36133905,18.89651055
-42.74006980,-29.57860995,-2.63990268,0.07981314,0.90188655

>  <Name>
lig.pdb

>  <RI>
0

>  <Rbt.Current_Directory>
/home/itssahil/PROJECTS/Mol_Feturizer/New_Systems/rnas/5btp

>  <Rbt.Executable>
rbdock ($Id: //depot/dev/client3/rdock/2013.1/src/exe/rbdock.cxx#4 $)

>  <Rbt.Library>
libRbt.so (2013.1, Build901 2013/11/27)

>  <Rbt.Parameter_File>
/export/apps/rDock/src/rDock_2013.1_src/data/scripts/dock_solv.prm

>  <Rbt.Receptor>
prm/blind_docking_100.prm

>  <SCORE>
-18.2311

>  <SCORE.INTER>
-18.887

>  <SCORE.INTER.CONST>
1

>  <SCORE.INTER.POLAR>
0

>  <SCORE.INTER.ROT>
5

>  <SCORE.INTER.SOLV>
17.8178

>  <SCORE.INTER.VDW>
-25.4639

>  <SCORE.INTER.norm>
-0.858499

>  <SCORE.INTRA>
0.655878

>  <SCORE.INTRA.DIHEDRAL>
0.542206

>  <SCORE.INTRA.DIHEDRAL.0>
4.21161

>  <SCORE.INTRA.POLAR>
0

>  <SCORE.INTRA.POLAR.0>
0

>  <SCORE.INTRA.REPUL>
0

>  <SCORE.INTRA.REPUL.0>
0

>  <SCORE.INTRA.SOLV>
1.92886

>  <SCORE.INTRA.SOLV.lig_0>
-41.4168

>  <SCORE.INTRA.VDW>
-0.579654

>  <SCORE.INTRA.VDW.0>
-1.62533

>  <SCORE.INTRA.norm>
0.0298126

>  <SCORE.RESTR>
0

>  <SCORE.RESTR.CAVITY>
0

>  <SCORE.RESTR.norm>
0

>  <SCORE.SYSTEM>
0

>  <SCORE.SYSTEM.CONST>
0

>  <SCORE.SYSTEM.DIHEDRAL>
0

>  <SCORE.SYSTEM.SOLV>
0

>  <SCORE.SYSTEM.norm>
0

>  <SCORE.heavy>
22

>  <SCORE.norm>
-0.828687

>  <RMSD>
17.099

$$$$
lig.pdb
 OpenBabel11021811523D
libRbt.so/2013.1/901 2013/11/27
 22 23  0  0  0  0  0  0  0  0999 V2000
   16.5916  -46.2013  -32.0421 O   0  0  0  0  0  0  0  0  0  0  0  0
   15.5349  -45.5900  -32.0160 C   0  0  0  0  0  0  0  0  0  0  0  0
   14.4434  -46.0465  -32.6302 N   0  0  0  0  0  0  0  0  0  0  0  0
   15.4570  -44.2891  -31.2929 C   0  0  0  0  0  0  0  0  0  0  0  0
   16.5305  -43.7492  -30.4439 C   0  0  0  0  0  0  0  0  0  0  0  0
   17.8078  -44.4012  -30.1856 N   0  0  0  0  0  0  0  0  0  0  0  0
   14.4961  -43.3411  -31.2285 N   0  0  0  0  0  0  0  0  0  0  0  0
   14.9438  -42.3308  -30.4201 C   0  0  0  0  0  0  0  0  0  0  0  0
   16.1827  -42.5758  -29.9406 N   0  0  0  0  0  0  0  0  0  0  0  0
   16.9884  -41.7157  -29.0427 C   0  0  1  0  0  0  0  0  0  0  0  0
   17.3078  -42.4472  -27.7494 C   0  0  1  0  0  0  0  0  0  0  0  0
   18.6620  -41.9006  -27.3764 C   0  0  2  0  0  0  0  0  0  0  0  0
   18.4983  -40.6714  -26.6662 O   0  0  0  0  0  0  0  0  0  0  0  0
   16.3541  -42.1370  -26.7325 O   0  0  0  0  0  0  0  0  0  0  0  0
   18.2449  -41.3765  -29.6412 O   0  0  0  0  0  0  0  0  0  0  0  0
   19.3095  -41.6152  -28.7174 C   0  0  2  0  0  0  0  0  0  0  0  0
   20.1370  -42.8113  -29.1622 C   0  0  0  0  0  0  0  0  0  0  0  0
   20.6540  -42.5420  -30.4642 O   0  0  0  0  0  0  0  0  0  0  0  0
   22.0099  -41.6971  -30.6734 P   0  0  0  0  0  0  0  0  0  0  0  0
   23.1213  -42.6299  -30.2512 O   0  0  0  0  0  0  0  0  0  0  0  0
   21.8174  -40.5087  -29.7614 O   0  0  0  0  0  0  0  0  0  0  0  0
   21.9966  -41.3735  -32.1490 O   0  0  0  0  0  0  0  0  0  0  0  0
  1  2  2  0  0  0  0
  2  4  1  0  0  0  0
  2  3  1  0  0  0  0
  4  7  1  0  0  0  0
  5  9  1  0  0  0  0
  5  4  2  0  0  0  0
  6  5  1  0  0  0  0
  8  7  2  0  0  0  0
  9  8  1  0  0  0  0
 10 15  1  0  0  0  0
 10  9  1  6  0  0  0
 10 11  1  0  0  0  0
 11 14  1  1  0  0  0
 11 12  1  0  0  0  0
 12 13  1  1  0  0  0
 15 16  1  0  0  0  0
 16 12  1  0  0  0  0
 16 17  1  6  0  0  0
 17 18  1  0  0  0  0
 18 19  1  0  0  0  0
 19 21  1  0  0  0  0
 19 20  1  0  0  0  0
 22 19  2  0  0  0  0
M  END
>  <CHROM.1>
-8.27015939,-60.38005351,176.09710738,84.21730585,73.03631969,18.38006196
-42.70861329,-29.95812449,-2.77437311,0.27283164,0.97208539

>  <Name>
lig.pdb

>  <RI>
0

>  <Rbt.Current_Directory>
/home/itssahil/PROJECTS/Mol_Feturizer/New_Systems/rnas/5btp

>  <Rbt.Executable>
rbdock ($Id: //depot/dev/client3/rdock/2013.1/src/exe/rbdock.cxx#4 $)

>  <Rbt.Library>
libRbt.so (2013.1, Build901 2013/11/27)

>  <Rbt.Parameter_File>
/export/apps/rDock/src/rDock_2013.1_src/data/scripts/dock_solv.prm

>  <Rbt.Receptor>
prm/blind_docking_60.prm

>  <SCORE>
-14.5304

>  <SCORE.INTER>
-15

>  <SCORE.INTER.CONST>
1

>  <SCORE.INTER.POLAR>
0

>  <SCORE.INTER.ROT>
5

>  <SCORE.INTER.SOLV>
17.7306

>  <SCORE.INTER.VDW>
-22.8435

>  <SCORE.INTER.norm>
-0.681819

>  <SCORE.INTRA>
0.469597

>  <SCORE.INTRA.DIHEDRAL>
1.29705

>  <SCORE.INTRA.DIHEDRAL.0>
4.21161

>  <SCORE.INTRA.POLAR>
0

>  <SCORE.INTRA.POLAR.0>
0

>  <SCORE.INTRA.REPUL>
0

>  <SCORE.INTRA.REPUL.0>
0

>  <SCORE.INTRA.SOLV>
1.55044

>  <SCORE.INTRA.SOLV.lig_0>
-41.4168

>  <SCORE.INTRA.VDW>
-0.954145

>  <SCORE.INTRA.VDW.0>
-1.62533

>  <SCORE.INTRA.norm>
0.0213453

>  <SCORE.RESTR>
0

>  <SCORE.RESTR.CAVITY>
0

>  <SCORE.RESTR.norm>
0

>  <SCORE.SYSTEM>
0

>  <SCORE.SYSTEM.CONST>
0

>  <SCORE.SYSTEM.DIHEDRAL>
0

>  <SCORE.SYSTEM.SOLV>
0

>  <SCORE.SYSTEM.norm>
0

>  <SCORE.heavy>
22

>  <SCORE.norm>
-0.660474

>  <RMSD>
17.099

$$$$
lig.pdb
 OpenBabel11021811523D
libRbt.so/2013.1/901 2013/11/27
 22 23  0  0  0  0  0  0  0  0999 V2000
   16.4248  -47.4993  -31.0991 O   0  0  0  0  0  0  0  0  0  0  0  0
   16.9015  -46.3757  -31.0622 C   0  0  0  0  0  0  0  0  0  0  0  0
   17.6713  -45.9062  -32.0439 N   0  0  0  0  0  0  0  0  0  0  0  0
   16.6337  -45.5030  -29.8841 C   0  0  0  0  0  0  0  0  0  0  0  0
   17.2545  -44.1860  -29.6722 C   0  0  0  0  0  0  0  0  0  0  0  0
   18.2129  -43.5532  -30.5689 N   0  0  0  0  0  0  0  0  0  0  0  0
   15.8297  -45.6502  -28.8079 N   0  0  0  0  0  0  0  0  0  0  0  0
   15.9541  -44.5348  -28.0238 C   0  0  0  0  0  0  0  0  0  0  0  0
   16.8209  -43.6406  -28.5472 N   0  0  0  0  0  0  0  0  0  0  0  0
   17.2070  -42.3246  -27.9867 C   0  0  1  0  0  0  0  0  0  0  0  0
   17.7487  -42.4846  -26.5757 C   0  0  1  0  0  0  0  0  0  0  0  0
   18.7759  -41.3857  -26.4805 C   0  0  2  0  0  0  0  0  0  0  0  0
   18.1308  -40.1633  -26.1176 O   0  0  0  0  0  0  0  0  0  0  0  0
   16.7218  -42.2848  -25.6034 O   0  0  0  0  0  0  0  0  0  0  0  0
   18.2508  -41.7194  -28.7589 O   0  0  0  0  0  0  0  0  0  0  0  0
   19.2993  -41.2672  -27.8987 C   0  0  2  0  0  0  0  0  0  0  0  0
   20.5363  -42.1348  -28.0722 C   0  0  0  0  0  0  0  0  0  0  0  0
   21.1876  -41.7533  -29.2828 O   0  0  0  0  0  0  0  0  0  0  0  0
   22.6271  -42.3523  -29.6892 P   0  0  0  0  0  0  0  0  0  0  0  0
   22.4039  -43.8392  -29.8399 O   0  0  0  0  0  0  0  0  0  0  0  0
   23.5000  -41.9717  -28.5169 O   0  0  0  0  0  0  0  0  0  0  0  0
   22.9516  -41.6381  -30.9803 O   0  0  0  0  0  0  0  0  0  0  0  0
  1  2  2  0  0  0  0
  2  4  1  0  0  0  0
  2  3  1  0  0  0  0
  4  7  1  0  0  0  0
  5  9  1  0  0  0  0
  5  4  2  0  0  0  0
  6  5  1  0  0  0  0
  8  7  2  0  0  0  0
  9  8  1  0  0  0  0
 10 15  1  0  0  0  0
 10  9  1  6  0  0  0
 10 11  1  0  0  0  0
 11 14  1  1  0  0  0
 11 12  1  0  0  0  0
 12 13  1  6  0  0  0
 15 16  1  0  0  0  0
 16 12  1  0  0  0  0
 16 17  1  1  0  0  0
 17 18  1  0  0  0  0
 18 19  1  0  0  0  0
 19 21  1  0  0  0  0
 19 20  1  0  0  0  0
 22 19  2  0  0  0  0
M  END
>  <CHROM.1>
174.01217683,-123.98864675,-165.74140893,172.75769365,62.42396203,18.99263716
-43.17570928,-28.92110312,-2.71965360,0.36043888,0.80347171

>  <Name>
lig.pdb

>  <RI>
0

>  <Rbt.Current_Directory>
/home/itssahil/PROJECTS/Mol_Feturizer/New_Systems/rnas/5btp

>  <Rbt.Executable>
rbdock ($Id: //depot/dev/client3/rdock/2013.1/src/exe/rbdock.cxx#4 $)

>  <Rbt.Library>
libRbt.so (2013.1, Build901 2013/11/27)

>  <Rbt.Parameter_File>
/export/apps/rDock/src/rDock_2013.1_src/data/scripts/dock_solv.prm

>  <Rbt.Receptor>
prm/blind_docking_60.prm

>  <SCORE>
-19.1152

>  <SCORE.INTER>
-18.8505

>  <SCORE.INTER.CONST>
1

>  <SCORE.INTER.POLAR>
0

>  <SCORE.INTER.ROT>
5

>  <SCORE.INTER.SOLV>
17.6709

>  <SCORE.INTER.VDW>
-25.3906

>  <SCORE.INTER.norm>
-0.856841

>  <SCORE.INTRA>
-0.264672

>  <SCORE.INTRA.DIHEDRAL>
-0.716596

>  <SCORE.INTRA.DIHEDRAL.0>
4.21161

>  <SCORE.INTRA.POLAR>
0

>  <SCORE.INTRA.POLAR.0>
0

>  <SCORE.INTRA.REPUL>
0

>  <SCORE.INTRA.REPUL.0>
0

>  <SCORE.INTRA.SOLV>
0.571038

>  <SCORE.INTRA.SOLV.lig_0>
-41.4168

>  <SCORE.INTRA.VDW>
-0.191893

>  <SCORE.INTRA.VDW.0>
-1.62533

>  <SCORE.INTRA.norm>
-0.0120306

>  <SCORE.RESTR>
0

>  <SCORE.RESTR.CAVITY>
0

>  <SCORE.RESTR.norm>
0

>  <SCORE.SYSTEM>
0

>  <SCORE.SYSTEM.CONST>
0

>  <SCORE.SYSTEM.DIHEDRAL>
0

>  <SCORE.SYSTEM.SOLV>
0

>  <SCORE.SYSTEM.norm>
0

>  <SCORE.heavy>
22

>  <SCORE.norm>
-0.868871

>  <RMSD>
17.121

$$$$
lig.pdb
 OpenBabel11021811523D
libRbt.so/2013.1/901 2013/11/27
 22 23  0  0  0  0  0  0  0  0999 V2000
   14.5895  -47.7139  -29.9619 O   0  0  0  0  0  0  0  0  0  0  0  0
   15.1892  -46.6678  -30.1545 C   0  0  0  0  0  0  0  0  0  0  0  0
   15.6760  -46.3470  -31.3532 N   0  0  0  0  0  0  0  0  0  0  0  0
   15.4014  -45.7238  -29.0209 C   0  0  0  0  0  0  0  0  0  0  0  0
   16.0396  -44.4045  -29.1514 C   0  0  0  0  0  0  0  0  0  0  0  0
   16.5549  -43.8378  -30.3910 N   0  0  0  0  0  0  0  0  0  0  0  0
   15.0935  -45.7972  -27.7071 N   0  0  0  0  0  0  0  0  0  0  0  0
   15.5060  -44.6391  -27.1044 C   0  0  0  0  0  0  0  0  0  0  0  0
   16.0825  -43.7883  -27.9811 N   0  0  0  0  0  0  0  0  0  0  0  0
   16.6439  -42.4465  -27.6992 C   0  0  1  0  0  0  0  0  0  0  0  0
   17.5187  -42.4852  -26.4570 C   0  0  1  0  0  0  0  0  0  0  0  0
   18.5747  -41.4515  -26.7539 C   0  0  2  0  0  0  0  0  0  0  0  0
   18.0858  -40.1573  -26.3958 O   0  0  0  0  0  0  0  0  0  0  0  0
   16.7787  -42.1135  -25.2934 O   0  0  0  0  0  0  0  0  0  0  0  0
   17.4791  -41.9989  -28.7734 O   0  0  0  0  0  0  0  0  0  0  0  0
   18.7264  -41.5239  -28.2609 C   0  0  2  0  0  0  0  0  0  0  0  0
   19.8480  -42.4837  -28.6266 C   0  0  0  0  0  0  0  0  0  0  0  0
   21.0922  -41.8695  -28.2952 O   0  0  0  0  0  0  0  0  0  0  0  0
   22.4853  -42.6694  -28.4192 P   0  0  0  0  0  0  0  0  0  0  0  0
   22.2902  -43.6176  -29.5795 O   0  0  0  0  0  0  0  0  0  0  0  0
   22.6107  -43.3495  -27.0765 O   0  0  0  0  0  0  0  0  0  0  0  0
   23.4958  -41.5754  -28.6733 O   0  0  0  0  0  0  0  0  0  0  0  0
  1  2  2  0  0  0  0
  2  4  1  0  0  0  0
  2  3  1  0  0  0  0
  4  7  1  0  0  0  0
  5  9  1  0  0  0  0
  5  4  2  0  0  0  0
  6  5  1  0  0  0  0
  8  7  2  0  0  0  0
  9  8  1  0  0  0  0
 10 15  1  0  0  0  0
 10  9  1  6  0  0  0
 10 11  1  0  0  0  0
 11 14  1  1  0  0  0
 11 12  1  0  0  0  0
 12 13  1  6  0  0  0
 15 16  1  0  0  0  0
 16 12  1  0  0  0  0
 16 17  1  1  0  0  0
 17 18  1  0  0  0  0
 18 19  1  0  0  0  0
 19 21  1  0  0  0  0
 19 20  1  0  0  0  0
 22 19  2  0  0  0  0
M  END
>  <CHROM.1>
-176.33854695,-133.90965012,-72.20482974,173.95998680,32.25251268,18.34911852
-43.38580513,-28.30934278,-2.68570947,0.22105148,0.71770397

>  <Name>
lig.pdb

>  <RI>
0

>  <Rbt.Current_Directory>
/home/itssahil/PROJECTS/Mol_Feturizer/New_Systems/rnas/5btp

>  <Rbt.Executable>
rbdock ($Id: //depot/dev/client3/rdock/2013.1/src/exe/rbdock.cxx#4 $)

>  <Rbt.Library>
libRbt.so (2013.1, Build901 2013/11/27)

>  <Rbt.Parameter_File>
/export/apps/rDock/src/rDock_2013.1_src/data/scripts/dock_solv.prm

>  <Rbt.Receptor>
prm/blind_docking_80.prm

>  <SCORE>
-19.5309

>  <SCORE.INTER>
-20.085

>  <SCORE.INTER.CONST>
1

>  <SCORE.INTER.POLAR>
0

>  <SCORE.INTER.ROT>
5

>  <SCORE.INTER.SOLV>
18.0379

>  <SCORE.INTER.VDW>
-26.336

>  <SCORE.INTER.norm>
-0.912955

>  <SCORE.INTRA>
0.536086

>  <SCORE.INTRA.DIHEDRAL>
0.0202406

>  <SCORE.INTRA.DIHEDRAL.0>
4.21161

>  <SCORE.INTRA.POLAR>
0

>  <SCORE.INTRA.POLAR.0>
0

>  <SCORE.INTRA.REPUL>
0

>  <SCORE.INTRA.REPUL.0>
0

>  <SCORE.INTRA.SOLV>
0.612296

>  <SCORE.INTRA.SOLV.lig_0>
-41.4168

>  <SCORE.INTRA.VDW>
0.219818

>  <SCORE.INTRA.VDW.0>
-1.62533

>  <SCORE.INTRA.norm>
0.0243676

>  <SCORE.RESTR>
0.0179637

>  <SCORE.RESTR.CAVITY>
0.0179637

>  <SCORE.RESTR.norm>
0.000816534

>  <SCORE.SYSTEM>
0

>  <SCORE.SYSTEM.CONST>
0

>  <SCORE.SYSTEM.DIHEDRAL>
0

>  <SCORE.SYSTEM.SOLV>
0

>  <SCORE.SYSTEM.norm>
0

>  <SCORE.heavy>
22

>  <SCORE.norm>
-0.88777

>  <RMSD>
17.126

$$$$
lig.pdb
 OpenBabel11021811523D
libRbt.so/2013.1/901 2013/11/27
 22 23  0  0  0  0  0  0  0  0999 V2000
   14.6718  -47.5728  -30.0084 O   0  0  0  0  0  0  0  0  0  0  0  0
   15.3763  -46.5847  -30.1441 C   0  0  0  0  0  0  0  0  0  0  0  0
   16.0231  -46.3334  -31.2822 N   0  0  0  0  0  0  0  0  0  0  0  0
   15.5359  -45.6351  -29.0066 C   0  0  0  0  0  0  0  0  0  0  0  0
   16.2244  -44.3382  -29.1020 C   0  0  0  0  0  0  0  0  0  0  0  0
   16.8466  -43.8023  -30.3057 N   0  0  0  0  0  0  0  0  0  0  0  0
   15.1310  -45.6837  -27.7182 N   0  0  0  0  0  0  0  0  0  0  0  0
   15.5360  -44.5325  -27.0975 C   0  0  0  0  0  0  0  0  0  0  0  0
   16.2020  -43.7104  -27.9373 N   0  0  0  0  0  0  0  0  0  0  0  0
   16.7846  -42.3840  -27.6272 C   0  0  1  0  0  0  0  0  0  0  0  0
   17.6391  -42.4575  -26.3725 C   0  0  1  0  0  0  0  0  0  0  0  0
   18.7193  -41.4404  -26.6380 C   0  0  2  0  0  0  0  0  0  0  0  0
   18.2498  -40.1422  -26.2685 O   0  0  0  0  0  0  0  0  0  0  0  0
   16.8884  -42.0882  -25.2150 O   0  0  0  0  0  0  0  0  0  0  0  0
   17.6450  -41.9373  -28.6819 O   0  0  0  0  0  0  0  0  0  0  0  0
   18.8930  -41.4941  -28.1435 C   0  0  2  0  0  0  0  0  0  0  0  0
   20.0015  -42.4702  -28.5061 C   0  0  0  0  0  0  0  0  0  0  0  0
   21.2565  -41.8357  -28.2663 O   0  0  0  0  0  0  0  0  0  0  0  0
   22.6481  -42.6273  -28.4465 P   0  0  0  0  0  0  0  0  0  0  0  0
   23.6789  -41.5529  -28.7046 O   0  0  0  0  0  0  0  0  0  0  0  0
   22.3800  -43.5269  -29.6297 O   0  0  0  0  0  0  0  0  0  0  0  0
   22.8155  -43.3458  -27.1281 O   0  0  0  0  0  0  0  0  0  0  0  0
  1  2  2  0  0  0  0
  2  4  1  0  0  0  0
  2  3  1  0  0  0  0
  4  7  1  0  0  0  0
  5  9  1  0  0  0  0
  5  4  2  0  0  0  0
  6  5  1  0  0  0  0
  8  7  2  0  0  0  0
  9  8  1  0  0  0  0
 10 15  1  0  0  0  0
 10  9  1  6  0  0  0
 10 11  1  0  0  0  0
 11 14  1  1  0  0  0
 11 12  1  0  0  0  0
 12 13  1  6  0  0  0
 15 16  1  0  0  0  0
 16 12  1  0  0  0  0
 16 17  1  1  0  0  0
 17 18  1  0  0  0  0
 18 19  1  0  0  0  0
 19 21  1  0  0  0  0
 19 20  1  0  0  0  0
 22 19  2  0  0  0  0
M  END
>  <CHROM.1>
-172.43941802,-130.24646074,-77.68902988,175.58528736,155.99851916,18.50326923
-43.33397017,-28.27332519,-2.70513285,0.22950126,0.73704742

>  <Name>
lig.pdb

>  <RI>
0

>  <Rbt.Current_Directory>
/home/itssahil/PROJECTS/Mol_Feturizer/New_Systems/rnas/5btp

>  <Rbt.Executable>
rbdock ($Id: //depot/dev/client3/rdock/2013.1/src/exe/rbdock.cxx#4 $)

>  <Rbt.Library>
libRbt.so (2013.1, Build901 2013/11/27)

>  <Rbt.Parameter_File>
/export/apps/rDock/src/rDock_2013.1_src/data/scripts/dock_solv.prm

>  <Rbt.Receptor>
prm/blind_docking_100.prm

>  <SCORE>
-19.78

>  <SCORE.INTER>
-20.6265

>  <SCORE.INTER.CONST>
1

>  <SCORE.INTER.POLAR>
0

>  <SCORE.INTER.ROT>
5

>  <SCORE.INTER.SOLV>
18.2852

>  <SCORE.INTER.VDW>
-26.7794

>  <SCORE.INTER.norm>
-0.937569

>  <SCORE.INTRA>
0.846549

>  <SCORE.INTRA.DIHEDRAL>
0.390835

>  <SCORE.INTRA.DIHEDRAL.0>
4.21161

>  <SCORE.INTRA.POLAR>
0

>  <SCORE.INTRA.POLAR.0>
0

>  <SCORE.INTRA.REPUL>
0

>  <SCORE.INTRA.REPUL.0>
0

>  <SCORE.INTRA.SOLV>
0.756107

>  <SCORE.INTRA.SOLV.lig_0>
-41.4168

>  <SCORE.INTRA.VDW>
0.273078

>  <SCORE.INTRA.VDW.0>
-1.62533

>  <SCORE.INTRA.norm>
0.0384795

>  <SCORE.RESTR>
0

>  <SCORE.RESTR.CAVITY>
0

>  <SCORE.RESTR.norm>
0

>  <SCORE.SYSTEM>
0

>  <SCORE.SYSTEM.CONST>
0

>  <SCORE.SYSTEM.DIHEDRAL>
0

>  <SCORE.SYSTEM.SOLV>
0

>  <SCORE.SYSTEM.norm>
0

>  <SCORE.heavy>
22

>  <SCORE.norm>
-0.899089

>  <RMSD>
17.180

$$$$
lig.pdb
 OpenBabel11021811523D
libRbt.so/2013.1/901 2013/11/27
 22 23  0  0  0  0  0  0  0  0999 V2000
   15.8288  -47.7199  -30.3016 O   0  0  0  0  0  0  0  0  0  0  0  0
   16.4081  -46.6464  -30.3578 C   0  0  0  0  0  0  0  0  0  0  0  0
   17.1986  -46.3270  -31.3824 N   0  0  0  0  0  0  0  0  0  0  0  0
   16.2455  -45.6656  -29.2475 C   0  0  0  0  0  0  0  0  0  0  0  0
   16.9276  -44.3633  -29.1878 C   0  0  0  0  0  0  0  0  0  0  0  0
   17.8533  -43.8513  -30.1899 N   0  0  0  0  0  0  0  0  0  0  0  0
   15.5033  -45.6855  -28.1184 N   0  0  0  0  0  0  0  0  0  0  0  0
   15.7172  -44.5136  -27.4436 C   0  0  0  0  0  0  0  0  0  0  0  0
   16.5840  -43.7055  -28.0921 N   0  0  0  0  0  0  0  0  0  0  0  0
   17.0531  -42.3644  -27.6723 C   0  0  1  0  0  0  0  0  0  0  0  0
   17.7162  -42.4352  -26.3065 C   0  0  1  0  0  0  0  0  0  0  0  0
   18.7758  -41.3664  -26.3884 C   0  0  2  0  0  0  0  0  0  0  0  0
   18.1979  -40.0997  -26.0663 O   0  0  0  0  0  0  0  0  0  0  0  0
   16.7871  -42.1293  -25.2658 O   0  0  0  0  0  0  0  0  0  0  0  0
   18.0379  -41.8535  -28.5785 O   0  0  0  0  0  0  0  0  0  0  0  0
   19.1714  -41.3723  -27.8522 C   0  0  2  0  0  0  0  0  0  0  0  0
   20.3648  -42.2904  -28.0663 C   0  0  0  0  0  0  0  0  0  0  0  0
   21.0464  -41.8747  -29.2486 O   0  0  0  0  0  0  0  0  0  0  0  0
   22.5338  -42.3921  -29.5889 P   0  0  0  0  0  0  0  0  0  0  0  0
   22.3788  -43.8676  -29.8757 O   0  0  0  0  0  0  0  0  0  0  0  0
   23.3015  -42.0830  -28.3255 O   0  0  0  0  0  0  0  0  0  0  0  0
   22.9268  -41.5631  -30.7892 O   0  0  0  0  0  0  0  0  0  0  0  0
  1  2  2  0  0  0  0
  2  4  1  0  0  0  0
  2  3  1  0  0  0  0
  4  7  1  0  0  0  0
  5  9  1  0  0  0  0
  5  4  2  0  0  0  0
  6  5  1  0  0  0  0
  8  7  2  0  0  0  0
  9  8  1  0  0  0  0
 10 15  1  0  0  0  0
 10  9  1  6  0  0  0
 10 11  1  0  0  0  0
 11 14  1  1  0  0  0
 11 12  1  0  0  0  0
 12 13  1  6  0  0  0
 15 16  1  0  0  0  0
 16 12  1  0  0  0  0
 16 17  1  1  0  0  0
 17 18  1  0  0  0  0
 18 19  1  0  0  0  0
 19 21  1  0  0  0  0
 19 20  1  0  0  0  0
 22 19  2  0  0  0  0
M  END
>  <CHROM.1>
177.94298605,-122.02488895,-156.16333786,165.44612761,67.77302860,18.80002835
-43.26079233,-28.61627871,-2.77059114,0.39256887,0.75320432

>  <Name>
lig.pdb

>  <RI>
0

>  <Rbt.Current_Directory>
/home/itssahil/PROJECTS/Mol_Feturizer/New_Systems/rnas/5btp

>  <Rbt.Executable>
rbdock ($Id: //depot/dev/client3/rdock/2013.1/src/exe/rbdock.cxx#4 $)

>  <Rbt.Library>
libRbt.so (2013.1, Build901 2013/11/27)

>  <Rbt.Parameter_File>
/export/apps/rDock/src/rDock_2013.1_src/data/scripts/dock_solv.prm

>  <Rbt.Receptor>
prm/blind_docking_60.prm

>  <SCORE>
-19.603

>  <SCORE.INTER>
-20.2865

>  <SCORE.INTER.CONST>
1

>  <SCORE.INTER.POLAR>
0

>  <SCORE.INTER.ROT>
5

>  <SCORE.INTER.SOLV>
18.8073

>  <SCORE.INTER.VDW>
-26.7268

>  <SCORE.INTER.norm>
-0.922113

>  <SCORE.INTRA>
0.683515

>  <SCORE.INTRA.DIHEDRAL>
1.09192

>  <SCORE.INTRA.DIHEDRAL.0>
4.21161

>  <SCORE.INTRA.POLAR>
0

>  <SCORE.INTRA.POLAR.0>
0

>  <SCORE.INTRA.REPUL>
0

>  <SCORE.INTRA.REPUL.0>
0

>  <SCORE.INTRA.SOLV>
0.584753

>  <SCORE.INTRA.SOLV.lig_0>
-41.4168

>  <SCORE.INTRA.VDW>
-0.154822

>  <SCORE.INTRA.VDW.0>
-1.62533

>  <SCORE.INTRA.norm>
0.0310689

>  <SCORE.RESTR>
0

>  <SCORE.RESTR.CAVITY>
0

>  <SCORE.RESTR.norm>
0

>  <SCORE.SYSTEM>
0

>  <SCORE.SYSTEM.CONST>
0

>  <SCORE.SYSTEM.DIHEDRAL>
0

>  <SCORE.SYSTEM.SOLV>
0

>  <SCORE.SYSTEM.norm>
0

>  <SCORE.heavy>
22

>  <SCORE.norm>
-0.891044

>  <RMSD>
17.185

$$$$
lig.pdb
 OpenBabel11021811523D
libRbt.so/2013.1/901 2013/11/27
 22 23  0  0  0  0  0  0  0  0999 V2000
   17.1797  -46.3729  -31.2782 O   0  0  0  0  0  0  0  0  0  0  0  0
   16.4051  -46.6229  -30.3679 C   0  0  0  0  0  0  0  0  0  0  0  0
   15.6770  -47.7393  -30.3512 N   0  0  0  0  0  0  0  0  0  0  0  0
   16.2510  -45.6521  -29.2477 C   0  0  0  0  0  0  0  0  0  0  0  0
   16.9209  -44.3434  -29.1892 C   0  0  0  0  0  0  0  0  0  0  0  0
   17.8247  -43.8145  -30.2024 N   0  0  0  0  0  0  0  0  0  0  0  0
   15.5277  -45.6880  -28.1067 N   0  0  0  0  0  0  0  0  0  0  0  0
   15.7410  -44.5191  -27.4265 C   0  0  0  0  0  0  0  0  0  0  0  0
   16.5889  -43.6974  -28.0830 N   0  0  0  0  0  0  0  0  0  0  0  0
   17.0513  -42.3548  -27.6607 C   0  0  1  0  0  0  0  0  0  0  0  0
   17.7146  -42.4248  -26.2950 C   0  0  1  0  0  0  0  0  0  0  0  0
   18.7689  -41.3507  -26.3748 C   0  0  2  0  0  0  0  0  0  0  0  0
   18.1849  -40.0875  -26.0505 O   0  0  0  0  0  0  0  0  0  0  0  0
   16.7839  -42.1254  -25.2538 O   0  0  0  0  0  0  0  0  0  0  0  0
   18.0337  -41.8374  -28.5659 O   0  0  0  0  0  0  0  0  0  0  0  0
   19.1647  -41.3520  -27.8386 C   0  0  2  0  0  0  0  0  0  0  0  0
   20.3626  -42.2639  -28.0542 C   0  0  0  0  0  0  0  0  0  0  0  0
   21.0749  -41.8076  -29.2029 O   0  0  0  0  0  0  0  0  0  0  0  0
   22.5348  -42.3812  -29.5710 P   0  0  0  0  0  0  0  0  0  0  0  0
   22.3290  -43.8617  -29.7932 O   0  0  0  0  0  0  0  0  0  0  0  0
   23.3536  -42.0455  -28.3471 O   0  0  0  0  0  0  0  0  0  0  0  0
   22.9097  -41.6118  -30.8159 O   0  0  0  0  0  0  0  0  0  0  0  0
  1  2  2  0  0  0  0
  2  4  1  0  0  0  0
  2  3  1  0  0  0  0
  4  7  1  0  0  0  0
  5  9  1  0  0  0  0
  5  4  2  0  0  0  0
  6  5  1  0  0  0  0
  8  7  2  0  0  0  0
  9  8  1  0  0  0  0
 10 15  1  0  0  0  0
 10  9  1  6  0  0  0
 10 11  1  0  0  0  0
 11 14  1  1  0  0  0
 11 12  1  0  0  0  0
 12 13  1  6  0  0  0
 15 16  1  0  0  0  0
 16 12  1  0  0  0  0
 16 17  1  1  0  0  0
 17 18  1  0  0  0  0
 18 19  1  0  0  0  0
 19 21  1  0  0  0  0
 19 20  1  0  0  0  0
 22 19  2  0  0  0  0
M  END
>  <CHROM.1>
3.75663632,-123.07572577,-153.70785733,169.17166649,61.07677747,18.80075990
-43.24286193,-28.60924495,-2.77078302,0.39022148,0.75905961

>  <Name>
lig.pdb

>  <RI>
0

>  <Rbt.Current_Directory>
/home/itssahil/PROJECTS/Mol_Feturizer/New_Systems/rnas/5btp

>  <Rbt.Executable>
rbdock ($Id: //depot/dev/client3/rdock/2013.1/src/exe/rbdock.cxx#4 $)

>  <Rbt.Library>
libRbt.so (2013.1, Build901 2013/11/27)

>  <Rbt.Parameter_File>
/export/apps/rDock/src/rDock_2013.1_src/data/scripts/dock_solv.prm

>  <Rbt.Receptor>
prm/blind_docking_60.prm

>  <SCORE>
-19.5369

>  <SCORE.INTER>
-20.0069

>  <SCORE.INTER.CONST>
1

>  <SCORE.INTER.POLAR>
0

>  <SCORE.INTER.ROT>
5

>  <SCORE.INTER.SOLV>
19.3456

>  <SCORE.INTER.VDW>
-26.7198

>  <SCORE.INTER.norm>
-0.909406

>  <SCORE.INTRA>
0.470013

>  <SCORE.INTRA.DIHEDRAL>
0.922927

>  <SCORE.INTRA.DIHEDRAL.0>
4.21161

>  <SCORE.INTRA.POLAR>
0

>  <SCORE.INTRA.POLAR.0>
0

>  <SCORE.INTRA.REPUL>
0

>  <SCORE.INTRA.REPUL.0>
0

>  <SCORE.INTRA.SOLV>
0.318263

>  <SCORE.INTRA.SOLV.lig_0>
-41.4168

>  <SCORE.INTRA.VDW>
-0.150582

>  <SCORE.INTRA.VDW.0>
-1.62533

>  <SCORE.INTRA.norm>
0.0213642

>  <SCORE.RESTR>
0

>  <SCORE.RESTR.CAVITY>
0

>  <SCORE.RESTR.norm>
0

>  <SCORE.SYSTEM>
0

>  <SCORE.SYSTEM.CONST>
0

>  <SCORE.SYSTEM.DIHEDRAL>
0

>  <SCORE.SYSTEM.SOLV>
0

>  <SCORE.SYSTEM.norm>
0

>  <SCORE.heavy>
22

>  <SCORE.norm>
-0.888042

>  <RMSD>
17.187

$$$$
lig.pdb
 OpenBabel11021811523D
libRbt.so/2013.1/901 2013/11/27
 22 23  0  0  0  0  0  0  0  0999 V2000
   14.7250  -47.6122  -29.9456 O   0  0  0  0  0  0  0  0  0  0  0  0
   15.3376  -46.5699  -30.1168 C   0  0  0  0  0  0  0  0  0  0  0  0
   15.8696  -46.2530  -31.2972 N   0  0  0  0  0  0  0  0  0  0  0  0
   15.5141  -45.6263  -28.9768 C   0  0  0  0  0  0  0  0  0  0  0  0
   16.2050  -44.3309  -29.0745 C   0  0  0  0  0  0  0  0  0  0  0  0
   16.8137  -43.7908  -30.2832 N   0  0  0  0  0  0  0  0  0  0  0  0
   15.1250  -45.6800  -27.6837 N   0  0  0  0  0  0  0  0  0  0  0  0
   15.5410  -44.5330  -27.0625 C   0  0  0  0  0  0  0  0  0  0  0  0
   16.1989  -43.7087  -27.9066 N   0  0  0  0  0  0  0  0  0  0  0  0
   16.7890  -42.3854  -27.5974 C   0  0  1  0  0  0  0  0  0  0  0  0
   17.6634  -42.4687  -26.3571 C   0  0  1  0  0  0  0  0  0  0  0  0
   18.7412  -41.4519  -26.6334 C   0  0  2  0  0  0  0  0  0  0  0  0
   18.2804  -40.1553  -26.2481 O   0  0  0  0  0  0  0  0  0  0  0  0
   16.9321  -42.1054  -25.1853 O   0  0  0  0  0  0  0  0  0  0  0  0
   17.6332  -41.9336  -28.6629 O   0  0  0  0  0  0  0  0  0  0  0  0
   18.8906  -41.4962  -28.1417 C   0  0  2  0  0  0  0  0  0  0  0  0
   19.9912  -42.4721  -28.5284 C   0  0  0  0  0  0  0  0  0  0  0  0
   21.2512  -41.8528  -28.2757 O   0  0  0  0  0  0  0  0  0  0  0  0
   22.6333  -42.6692  -28.4141 P   0  0  0  0  0  0  0  0  0  0  0  0
   22.4241  -43.5967  -29.5887 O   0  0  0  0  0  0  0  0  0  0  0  0
   22.7513  -43.3717  -27.0823 O   0  0  0  0  0  0  0  0  0  0  0  0
   23.6581  -41.5851  -28.6527 O   0  0  0  0  0  0  0  0  0  0  0  0
  1  2  2  0  0  0  0
  2  4  1  0  0  0  0
  2  3  1  0  0  0  0
  4  7  1  0  0  0  0
  5  9  1  0  0  0  0
  5  4  2  0  0  0  0
  6  5  1  0  0  0  0
  8  7  2  0  0  0  0
  9  8  1  0  0  0  0
 10 15  1  0  0  0  0
 10  9  1  6  0  0  0
 10 11  1  0  0  0  0
 11 14  1  1  0  0  0
 11 12  1  0  0  0  0
 12 13  1  6  0  0  0
 15 16  1  0  0  0  0
 16 12  1  0  0  0  0
 16 17  1  1  0  0  0
 17 18  1  0  0  0  0
 18 19  1  0  0  0  0
 19 21  1  0  0  0  0
 19 20  1  0  0  0  0
 22 19  2  0  0  0  0
M  END
>  <CHROM.1>
-178.51984355,-130.01246061,-76.36903298,172.88199637,36.53455267,18.49570438
-43.34401009,-28.24899756,-2.70639763,0.22550547,0.73810911

>  <Name>
lig.pdb

>  <RI>
0

>  <Rbt.Current_Directory>
/home/itssahil/PROJECTS/Mol_Feturizer/New_Systems/rnas/5btp

>  <Rbt.Executable>
rbdock ($Id: //depot/dev/client3/rdock/2013.1/src/exe/rbdock.cxx#4 $)

>  <Rbt.Library>
libRbt.so (2013.1, Build901 2013/11/27)

>  <Rbt.Parameter_File>
/export/apps/rDock/src/rDock_2013.1_src/data/scripts/dock_solv.prm

>  <Rbt.Receptor>
prm/blind_docking_100.prm

>  <SCORE>
-20.0064

>  <SCORE.INTER>
-20.5431

>  <SCORE.INTER.CONST>
1

>  <SCORE.INTER.POLAR>
0

>  <SCORE.INTER.ROT>
5

>  <SCORE.INTER.SOLV>
18.4954

>  <SCORE.INTER.VDW>
-26.7939

>  <SCORE.INTER.norm>
-0.933779

>  <SCORE.INTRA>
0.536719

>  <SCORE.INTRA.DIHEDRAL>
0.177912

>  <SCORE.INTRA.DIHEDRAL.0>
4.21161

>  <SCORE.INTRA.POLAR>
0

>  <SCORE.INTRA.POLAR.0>
0

>  <SCORE.INTRA.REPUL>
0

>  <SCORE.INTRA.REPUL.0>
0

>  <SCORE.INTRA.SOLV>
0.649672

>  <SCORE.INTRA.SOLV.lig_0>
-41.4168

>  <SCORE.INTRA.VDW>
0.122927

>  <SCORE.INTRA.VDW.0>
-1.62533

>  <SCORE.INTRA.norm>
0.0243963

>  <SCORE.RESTR>
0

>  <SCORE.RESTR.CAVITY>
0

>  <SCORE.RESTR.norm>
0

>  <SCORE.SYSTEM>
0

>  <SCORE.SYSTEM.CONST>
0

>  <SCORE.SYSTEM.DIHEDRAL>
0

>  <SCORE.SYSTEM.SOLV>
0

>  <SCORE.SYSTEM.norm>
0

>  <SCORE.heavy>
22

>  <SCORE.norm>
-0.909383

>  <RMSD>
17.190

$$$$
lig.pdb
 OpenBabel11021811523D
libRbt.so/2013.1/901 2013/11/27
 22 23  0  0  0  0  0  0  0  0999 V2000
   15.8176  -47.7182  -30.3048 O   0  0  0  0  0  0  0  0  0  0  0  0
   16.4215  -46.6575  -30.3403 C   0  0  0  0  0  0  0  0  0  0  0  0
   17.2504  -46.3535  -31.3390 N   0  0  0  0  0  0  0  0  0  0  0  0
   16.2456  -45.6752  -29.2333 C   0  0  0  0  0  0  0  0  0  0  0  0
   16.9178  -44.3678  -29.1729 C   0  0  0  0  0  0  0  0  0  0  0  0
   17.8453  -43.8514  -30.1711 N   0  0  0  0  0  0  0  0  0  0  0  0
   15.4972  -45.6979  -28.1083 N   0  0  0  0  0  0  0  0  0  0  0  0
   15.6989  -44.5228  -27.4351 C   0  0  0  0  0  0  0  0  0  0  0  0
   16.5633  -43.7100  -28.0808 N   0  0  0  0  0  0  0  0  0  0  0  0
   17.0203  -42.3645  -27.6616 C   0  0  1  0  0  0  0  0  0  0  0  0
   17.7533  -42.4408  -26.3324 C   0  0  1  0  0  0  0  0  0  0  0  0
   18.7810  -41.3444  -26.4487 C   0  0  2  0  0  0  0  0  0  0  0  0
   18.1895  -40.0981  -26.0757 O   0  0  0  0  0  0  0  0  0  0  0  0
   16.8710  -42.1755  -25.2410 O   0  0  0  0  0  0  0  0  0  0  0  0
   17.9450  -41.8142  -28.6071 O   0  0  0  0  0  0  0  0  0  0  0  0
   19.1018  -41.3164  -27.9304 C   0  0  2  0  0  0  0  0  0  0  0  0
   20.3049  -42.2005  -28.2203 C   0  0  0  0  0  0  0  0  0  0  0  0
   20.8481  -41.8216  -29.4839 O   0  0  0  0  0  0  0  0  0  0  0  0
   22.3144  -42.3015  -29.9480 P   0  0  0  0  0  0  0  0  0  0  0  0
   22.4839  -41.7478  -31.3437 O   0  0  0  0  0  0  0  0  0  0  0  0
   22.2179  -43.8075  -29.8855 O   0  0  0  0  0  0  0  0  0  0  0  0
   23.2284  -41.6809  -28.9175 O   0  0  0  0  0  0  0  0  0  0  0  0
  1  2  2  0  0  0  0
  2  4  1  0  0  0  0
  2  3  1  0  0  0  0
  4  7  1  0  0  0  0
  5  9  1  0  0  0  0
  5  4  2  0  0  0  0
  6  5  1  0  0  0  0
  8  7  2  0  0  0  0
  9  8  1  0  0  0  0
 10 15  1  0  0  0  0
 10  9  1  6  0  0  0
 10 11  1  0  0  0  0
 11 14  1  1  0  0  0
 11 12  1  0  0  0  0
 12 13  1  6  0  0  0
 15 16  1  0  0  0  0
 16 12  1  0  0  0  0
 16 17  1  1  0  0  0
 17 18  1  0  0  0  0
 18 19  1  0  0  0  0
 19 21  1  0  0  0  0
 19 20  1  0  0  0  0
 22 19  2  0  0  0  0
M  END
>  <CHROM.1>
-179.82064056,-118.48059367,-160.98820171,165.44486394,177.58619532,18.73085740
-43.23290398,-28.72523161,-2.80194001,0.45524000,0.76343294

>  <Name>
lig.pdb

>  <RI>
0

>  <Rbt.Current_Directory>
/home/itssahil/PROJECTS/Mol_Feturizer/New_Systems/rnas/5btp

>  <Rbt.Executable>
rbdock ($Id: //depot/dev/client3/rdock/2013.1/src/exe/rbdock.cxx#4 $)

>  <Rbt.Library>
libRbt.so (2013.1, Build901 2013/11/27)

>  <Rbt.Parameter_File>
/export/apps/rDock/src/rDock_2013.1_src/data/scripts/dock_solv.prm

>  <Rbt.Receptor>
prm/blind_docking_60.prm

>  <SCORE>
-19.0255

>  <SCORE.INTER>
-19.4527

>  <SCORE.INTER.CONST>
1

>  <SCORE.INTER.POLAR>
0

>  <SCORE.INTER.ROT>
5

>  <SCORE.INTER.SOLV>
19.34

>  <SCORE.INTER.VDW>
-26.3485

>  <SCORE.INTER.norm>
-0.884216

>  <SCORE.INTRA>
0.42729

>  <SCORE.INTRA.DIHEDRAL>
0.392617

>  <SCORE.INTRA.DIHEDRAL.0>
4.21161

>  <SCORE.INTRA.POLAR>
0

>  <SCORE.INTRA.POLAR.0>
0

>  <SCORE.INTRA.REPUL>
0

>  <SCORE.INTRA.REPUL.0>
0

>  <SCORE.INTRA.SOLV>
0.891639

>  <SCORE.INTRA.SOLV.lig_0>
-41.4168

>  <SCORE.INTRA.VDW>
-0.214838

>  <SCORE.INTRA.VDW.0>
-1.62533

>  <SCORE.INTRA.norm>
0.0194223

>  <SCORE.RESTR>
0

>  <SCORE.RESTR.CAVITY>
0

>  <SCORE.RESTR.norm>
0

>  <SCORE.SYSTEM>
0

>  <SCORE.SYSTEM.CONST>
0

>  <SCORE.SYSTEM.DIHEDRAL>
0

>  <SCORE.SYSTEM.SOLV>
0

>  <SCORE.SYSTEM.norm>
0

>  <SCORE.heavy>
22

>  <SCORE.norm>
-0.864793

>  <RMSD>
17.193

$$$$
lig.pdb
 OpenBabel11021811523D
libRbt.so/2013.1/901 2013/11/27
 22 23  0  0  0  0  0  0  0  0999 V2000
   14.8582  -47.7197  -29.9518 O   0  0  0  0  0  0  0  0  0  0  0  0
   15.5845  -46.7416  -30.0354 C   0  0  0  0  0  0  0  0  0  0  0  0
   16.3918  -46.5529  -31.0792 N   0  0  0  0  0  0  0  0  0  0  0  0
   15.5869  -45.7330  -28.9382 C   0  0  0  0  0  0  0  0  0  0  0  0
   16.2813  -44.4376  -29.0070 C   0  0  0  0  0  0  0  0  0  0  0  0
   17.0616  -43.9602  -30.1411 N   0  0  0  0  0  0  0  0  0  0  0  0
   15.0100  -45.7177  -27.7162 N   0  0  0  0  0  0  0  0  0  0  0  0
   15.3259  -44.5328  -27.1075 C   0  0  0  0  0  0  0  0  0  0  0  0
   16.0999  -43.7503  -27.8908 N   0  0  0  0  0  0  0  0  0  0  0  0
   16.6340  -42.4052  -27.5743 C   0  0  1  0  0  0  0  0  0  0  0  0
   17.6092  -42.4793  -26.4109 C   0  0  1  0  0  0  0  0  0  0  0  0
   18.5993  -41.3881  -26.7286 C   0  0  2  0  0  0  0  0  0  0  0  0
   18.0954  -40.1375  -26.2550 O   0  0  0  0  0  0  0  0  0  0  0  0
   16.9549  -42.2052  -25.1713 O   0  0  0  0  0  0  0  0  0  0  0  0
   17.3612  -41.8631  -28.6831 O   0  0  0  0  0  0  0  0  0  0  0  0
   18.6286  -41.3679  -28.2446 C   0  0  2  0  0  0  0  0  0  0  0  0
   19.7499  -42.2587  -28.7565 C   0  0  0  0  0  0  0  0  0  0  0  0
   20.9951  -41.6943  -28.3488 O   0  0  0  0  0  0  0  0  0  0  0  0
   22.3705  -42.5273  -28.4506 P   0  0  0  0  0  0  0  0  0  0  0  0
   22.4642  -43.2885  -27.1485 O   0  0  0  0  0  0  0  0  0  0  0  0
   23.4138  -41.4475  -28.6143 O   0  0  0  0  0  0  0  0  0  0  0  0
   22.1629  -43.3988  -29.6670 O   0  0  0  0  0  0  0  0  0  0  0  0
  1  2  2  0  0  0  0
  2  4  1  0  0  0  0
  2  3  1  0  0  0  0
  4  7  1  0  0  0  0
  5  9  1  0  0  0  0
  5  4  2  0  0  0  0
  6  5  1  0  0  0  0
  8  7  2  0  0  0  0
  9  8  1  0  0  0  0
 10 15  1  0  0  0  0
 10  9  1  6  0  0  0
 10 11  1  0  0  0  0
 11 14  1  1  0  0  0
 11 12  1  0  0  0  0
 12 13  1  6  0  0  0
 15 16  1  0  0  0  0
 16 12  1  0  0  0  0
 16 17  1  6  0  0  0
 17 18  1  0  0  0  0
 18 19  1  0  0  0  0
 19 21  1  0  0  0  0
 19 20  1  0  0  0  0
 22 19  2  0  0  0  0
M  END
>  <CHROM.1>
-171.67157066,-115.44640064,-65.34903048,167.08145985,-87.61478295,18.40072894
-43.33032235,-28.26111769,-2.65997739,0.26047502,0.69684627

>  <Name>
lig.pdb

>  <RI>
0

>  <Rbt.Current_Directory>
/home/itssahil/PROJECTS/Mol_Feturizer/New_Systems/rnas/5btp

>  <Rbt.Executable>
rbdock ($Id: //depot/dev/client3/rdock/2013.1/src/exe/rbdock.cxx#4 $)

>  <Rbt.Library>
libRbt.so (2013.1, Build901 2013/11/27)

>  <Rbt.Parameter_File>
/export/apps/rDock/src/rDock_2013.1_src/data/scripts/dock_solv.prm

>  <Rbt.Receptor>
prm/blind_docking_60.prm

>  <SCORE>
-19.5734

>  <SCORE.INTER>
-20.5334

>  <SCORE.INTER.CONST>
1

>  <SCORE.INTER.POLAR>
0

>  <SCORE.INTER.ROT>
5

>  <SCORE.INTER.SOLV>
19.1824

>  <SCORE.INTER.VDW>
-27.0164

>  <SCORE.INTER.norm>
-0.933337

>  <SCORE.INTRA>
0.960014

>  <SCORE.INTRA.DIHEDRAL>
0.391661

>  <SCORE.INTRA.DIHEDRAL.0>
4.21161

>  <SCORE.INTRA.POLAR>
0

>  <SCORE.INTRA.POLAR.0>
0

>  <SCORE.INTRA.REPUL>
0

>  <SCORE.INTRA.REPUL.0>
0

>  <SCORE.INTRA.SOLV>
1.2099

>  <SCORE.INTRA.SOLV.lig_0>
-41.4168

>  <SCORE.INTRA.VDW>
0.159232

>  <SCORE.INTRA.VDW.0>
-1.62533

>  <SCORE.INTRA.norm>
0.043637

>  <SCORE.RESTR>
0

>  <SCORE.RESTR.CAVITY>
0

>  <SCORE.RESTR.norm>
0

>  <SCORE.SYSTEM>
0

>  <SCORE.SYSTEM.CONST>
0

>  <SCORE.SYSTEM.DIHEDRAL>
0

>  <SCORE.SYSTEM.SOLV>
0

>  <SCORE.SYSTEM.norm>
0

>  <SCORE.heavy>
22

>  <SCORE.norm>
-0.8897

>  <RMSD>
17.198

$$$$
lig.pdb
 OpenBabel11021811523D
libRbt.so/2013.1/901 2013/11/27
 22 23  0  0  0  0  0  0  0  0999 V2000
   15.7962  -46.2891  -31.2460 O   0  0  0  0  0  0  0  0  0  0  0  0
   15.2853  -46.5828  -30.1765 C   0  0  0  0  0  0  0  0  0  0  0  0
   14.5843  -47.7053  -30.0170 N   0  0  0  0  0  0  0  0  0  0  0  0
   15.4308  -45.6598  -29.0154 C   0  0  0  0  0  0  0  0  0  0  0  0
   16.0779  -44.3402  -29.0837 C   0  0  0  0  0  0  0  0  0  0  0  0
   16.6676  -43.7529  -30.2798 N   0  0  0  0  0  0  0  0  0  0  0  0
   15.0445  -45.7558  -27.7239 N   0  0  0  0  0  0  0  0  0  0  0  0
   15.4223  -44.6098  -27.0769 C   0  0  0  0  0  0  0  0  0  0  0  0
   16.0518  -43.7451  -27.9020 N   0  0  0  0  0  0  0  0  0  0  0  0
   16.5976  -42.4102  -27.5628 C   0  0  1  0  0  0  0  0  0  0  0  0
   17.8030  -42.5444  -26.6469 C   0  0  1  0  0  0  0  0  0  0  0  0
   18.6649  -41.3747  -27.0475 C   0  0  2  0  0  0  0  0  0  0  0  0
   18.2349  -40.2062  -26.3463 O   0  0  0  0  0  0  0  0  0  0  0  0
   17.4233  -42.4296  -25.2749 O   0  0  0  0  0  0  0  0  0  0  0  0
   17.0500  -41.7229  -28.7354 O   0  0  0  0  0  0  0  0  0  0  0  0
   18.3654  -41.2043  -28.5242 C   0  0  2  0  0  0  0  0  0  0  0  0
   19.3780  -41.9777  -29.3545 C   0  0  0  0  0  0  0  0  0  0  0  0
   20.6652  -41.3980  -29.1493 O   0  0  0  0  0  0  0  0  0  0  0  0
   21.9537  -41.8931  -29.9804 P   0  0  0  0  0  0  0  0  0  0  0  0
   21.6339  -41.5770  -31.4231 O   0  0  0  0  0  0  0  0  0  0  0  0
   22.0165  -43.3694  -29.6680 O   0  0  0  0  0  0  0  0  0  0  0  0
   23.0815  -41.0729  -29.3993 O   0  0  0  0  0  0  0  0  0  0  0  0
  1  2  2  0  0  0  0
  2  4  1  0  0  0  0
  2  3  1  0  0  0  0
  4  7  1  0  0  0  0
  5  9  1  0  0  0  0
  5  4  2  0  0  0  0
  6  5  1  0  0  0  0
  8  7  2  0  0  0  0
  9  8  1  0  0  0  0
 10 15  1  0  0  0  0
 10  9  1  6  0  0  0
 10 11  1  0  0  0  0
 11 14  1  1  0  0  0
 11 12  1  0  0  0  0
 12 13  1  1  0  0  0
 15 16  1  0  0  0  0
 16 12  1  0  0  0  0
 16 17  1  6  0  0  0
 17 18  1  0  0  0  0
 18 19  1  0  0  0  0
 19 21  1  0  0  0  0
 19 20  1  0  0  0  0
 22 19  2  0  0  0  0
M  END
>  <CHROM.1>
4.70551787,-111.30044868,-64.70147157,-174.56716889,62.63237943,18.21050810
-43.10841986,-28.79239388,-2.82319161,0.50483068,0.86164409

>  <Name>
lig.pdb

>  <RI>
0

>  <Rbt.Current_Directory>
/home/itssahil/PROJECTS/Mol_Feturizer/New_Systems/rnas/5btp

>  <Rbt.Executable>
rbdock ($Id: //depot/dev/client3/rdock/2013.1/src/exe/rbdock.cxx#4 $)

>  <Rbt.Library>
libRbt.so (2013.1, Build901 2013/11/27)

>  <Rbt.Parameter_File>
/export/apps/rDock/src/rDock_2013.1_src/data/scripts/dock_solv.prm

>  <Rbt.Receptor>
prm/blind_docking_60.prm

>  <SCORE>
-19.0545

>  <SCORE.INTER>
-18.5063

>  <SCORE.INTER.CONST>
1

>  <SCORE.INTER.POLAR>
0

>  <SCORE.INTER.ROT>
5

>  <SCORE.INTER.SOLV>
18.055

>  <SCORE.INTER.VDW>
-25.2892

>  <SCORE.INTER.norm>
-0.841194

>  <SCORE.INTRA>
-0.548249

>  <SCORE.INTRA.DIHEDRAL>
-1.47917

>  <SCORE.INTRA.DIHEDRAL.0>
4.21161

>  <SCORE.INTRA.POLAR>
0

>  <SCORE.INTRA.POLAR.0>
0

>  <SCORE.INTRA.REPUL>
0

>  <SCORE.INTRA.REPUL.0>
0

>  <SCORE.INTRA.SOLV>
0.659267

>  <SCORE.INTRA.SOLV.lig_0>
-41.4168

>  <SCORE.INTRA.VDW>
-0.138297

>  <SCORE.INTRA.VDW.0>
-1.62533

>  <SCORE.INTRA.norm>
-0.0249204

>  <SCORE.RESTR>
0

>  <SCORE.RESTR.CAVITY>
0

>  <SCORE.RESTR.norm>
0

>  <SCORE.SYSTEM>
0

>  <SCORE.SYSTEM.CONST>
0

>  <SCORE.SYSTEM.DIHEDRAL>
0

>  <SCORE.SYSTEM.SOLV>
0

>  <SCORE.SYSTEM.norm>
0

>  <SCORE.heavy>
22

>  <SCORE.norm>
-0.866115

>  <RMSD>
17.242

$$$$
lig.pdb
 OpenBabel11021811523D
libRbt.so/2013.1/901 2013/11/27
 22 23  0  0  0  0  0  0  0  0999 V2000
   13.9166  -46.8126  -28.4899 O   0  0  0  0  0  0  0  0  0  0  0  0
   14.6105  -46.6928  -29.4876 C   0  0  0  0  0  0  0  0  0  0  0  0
   14.6275  -47.6179  -30.4471 N   0  0  0  0  0  0  0  0  0  0  0  0
   15.4773  -45.4899  -29.6388 C   0  0  0  0  0  0  0  0  0  0  0  0
   15.6282  -44.4450  -28.6141 C   0  0  0  0  0  0  0  0  0  0  0  0
   14.9572  -44.4314  -27.3207 N   0  0  0  0  0  0  0  0  0  0  0  0
   16.2857  -45.0718  -30.6378 N   0  0  0  0  0  0  0  0  0  0  0  0
   16.8651  -43.8917  -30.2554 C   0  0  0  0  0  0  0  0  0  0  0  0
   16.4672  -43.5069  -29.0231 N   0  0  0  0  0  0  0  0  0  0  0  0
   16.8808  -42.2938  -28.2799 C   0  0  1  0  0  0  0  0  0  0  0  0
   17.6304  -42.6744  -27.0138 C   0  0  1  0  0  0  0  0  0  0  0  0
   18.6174  -41.5467  -26.8524 C   0  0  2  0  0  0  0  0  0  0  0  0
   17.9863  -40.4567  -26.1772 O   0  0  0  0  0  0  0  0  0  0  0  0
   16.7513  -42.7244  -25.8894 O   0  0  0  0  0  0  0  0  0  0  0  0
   17.7752  -41.4899  -29.0583 O   0  0  0  0  0  0  0  0  0  0  0  0
   18.9209  -41.1357  -28.2801 C   0  0  2  0  0  0  0  0  0  0  0  0
   20.1513  -41.8735  -28.7849 C   0  0  0  0  0  0  0  0  0  0  0  0
   21.2269  -41.6266  -27.8808 O   0  0  0  0  0  0  0  0  0  0  0  0
   22.7227  -42.1381  -28.1921 P   0  0  0  0  0  0  0  0  0  0  0  0
   23.4362  -42.0946  -26.8608 O   0  0  0  0  0  0  0  0  0  0  0  0
   23.2264  -41.1314  -29.1991 O   0  0  0  0  0  0  0  0  0  0  0  0
   22.5100  -43.5304  -28.7386 O   0  0  0  0  0  0  0  0  0  0  0  0
  1  2  2  0  0  0  0
  2  4  1  0  0  0  0
  2  3  1  0  0  0  0
  4  7  1  0  0  0  0
  5  9  1  0  0  0  0
  5  4  2  0  0  0  0
  6  5  1  0  0  0  0
  8  7  2  0  0  0  0
  9  8  1  0  0  0  0
 10 15  1  0  0  0  0
 10  9  1  6  0  0  0
 10 11  1  0  0  0  0
 11 14  1  1  0  0  0
 11 12  1  0  0  0  0
 12 13  1  1  0  0  0
 15 16  1  0  0  0  0
 16 12  1  0  0  0  0
 16 17  1  6  0  0  0
 17 18  1  0  0  0  0
 18 19  1  0  0  0  0
 19 21  1  0  0  0  0
 19 20  1  0  0  0  0
 22 19  2  0  0  0  0
M  END
>  <CHROM.1>
3.96470106,63.51244524,-55.32788565,-173.77708781,-162.17238766,18.40206910
-43.17815844,-28.36197195,-2.67550213,0.21597559,0.68246609

>  <Name>
lig.pdb

>  <RI>
0

>  <Rbt.Current_Directory>
/home/itssahil/PROJECTS/Mol_Feturizer/New_Systems/rnas/5btp

>  <Rbt.Executable>
rbdock ($Id: //depot/dev/client3/rdock/2013.1/src/exe/rbdock.cxx#4 $)

>  <Rbt.Library>
libRbt.so (2013.1, Build901 2013/11/27)

>  <Rbt.Parameter_File>
/export/apps/rDock/src/rDock_2013.1_src/data/scripts/dock_solv.prm

>  <Rbt.Receptor>
prm/blind_docking_60.prm

>  <SCORE>
-17.0265

>  <SCORE.INTER>
-16.8389

>  <SCORE.INTER.CONST>
1

>  <SCORE.INTER.POLAR>
0

>  <SCORE.INTER.ROT>
5

>  <SCORE.INTER.SOLV>
18.5271

>  <SCORE.INTER.VDW>
-24.335

>  <SCORE.INTER.norm>
-0.765407

>  <SCORE.INTRA>
-0.187587

>  <SCORE.INTRA.DIHEDRAL>
-0.983803

>  <SCORE.INTRA.DIHEDRAL.0>
4.21161

>  <SCORE.INTRA.POLAR>
0

>  <SCORE.INTRA.POLAR.0>
0

>  <SCORE.INTRA.REPUL>
0

>  <SCORE.INTRA.REPUL.0>
0

>  <SCORE.INTRA.SOLV>
0.580809

>  <SCORE.INTRA.SOLV.lig_0>
-41.4168

>  <SCORE.INTRA.VDW>
0.0139105

>  <SCORE.INTRA.VDW.0>
-1.62533

>  <SCORE.INTRA.norm>
-0.00852666

>  <SCORE.RESTR>
0

>  <SCORE.RESTR.CAVITY>
0

>  <SCORE.RESTR.norm>
0

>  <SCORE.SYSTEM>
0

>  <SCORE.SYSTEM.CONST>
0

>  <SCORE.SYSTEM.DIHEDRAL>
0

>  <SCORE.SYSTEM.SOLV>
0

>  <SCORE.SYSTEM.norm>
0

>  <SCORE.heavy>
22

>  <SCORE.norm>
-0.773933

>  <RMSD>
17.246

$$$$
lig.pdb
 OpenBabel11021811523D
libRbt.so/2013.1/901 2013/11/27
 22 23  0  0  0  0  0  0  0  0999 V2000
   14.6545  -47.7085  -30.0267 O   0  0  0  0  0  0  0  0  0  0  0  0
   15.2433  -46.6489  -30.1737 C   0  0  0  0  0  0  0  0  0  0  0  0
   15.7837  -46.3012  -31.3416 N   0  0  0  0  0  0  0  0  0  0  0  0
   15.3803  -45.7186  -29.0175 C   0  0  0  0  0  0  0  0  0  0  0  0
   15.9991  -44.3861  -29.0967 C   0  0  0  0  0  0  0  0  0  0  0  0
   16.5654  -43.7913  -30.3004 N   0  0  0  0  0  0  0  0  0  0  0  0
   15.0080  -45.8174  -27.7221 N   0  0  0  0  0  0  0  0  0  0  0  0
   15.3677  -44.6613  -27.0829 C   0  0  0  0  0  0  0  0  0  0  0  0
   15.9714  -43.7870  -27.9171 N   0  0  0  0  0  0  0  0  0  0  0  0
   16.4924  -42.4397  -27.5880 C   0  0  1  0  0  0  0  0  0  0  0  0
   17.7253  -42.5460  -26.7056 C   0  0  1  0  0  0  0  0  0  0  0  0
   18.5463  -41.3537  -27.1252 C   0  0  2  0  0  0  0  0  0  0  0  0
   18.1061  -40.1985  -26.4084 O   0  0  0  0  0  0  0  0  0  0  0  0
   17.3803  -42.4449  -25.3234 O   0  0  0  0  0  0  0  0  0  0  0  0
   16.8953  -41.7377  -28.7700 O   0  0  0  0  0  0  0  0  0  0  0  0
   18.2024  -41.1866  -28.5926 C   0  0  2  0  0  0  0  0  0  0  0  0
   19.2113  -41.9317  -29.4528 C   0  0  0  0  0  0  0  0  0  0  0  0
   20.4981  -41.3537  -29.2403 O   0  0  0  0  0  0  0  0  0  0  0  0
   21.7786  -41.8081  -30.1063 P   0  0  0  0  0  0  0  0  0  0  0  0
   21.4070  -41.5098  -31.5403 O   0  0  0  0  0  0  0  0  0  0  0  0
   21.9011  -43.2800  -29.7905 O   0  0  0  0  0  0  0  0  0  0  0  0
   22.8937  -40.9471  -29.5608 O   0  0  0  0  0  0  0  0  0  0  0  0
  1  2  2  0  0  0  0
  2  4  1  0  0  0  0
  2  3  1  0  0  0  0
  4  7  1  0  0  0  0
  5  9  1  0  0  0  0
  5  4  2  0  0  0  0
  6  5  1  0  0  0  0
  8  7  2  0  0  0  0
  9  8  1  0  0  0  0
 10 15  1  0  0  0  0
 10  9  1  6  0  0  0
 10 11  1  0  0  0  0
 11 14  1  1  0  0  0
 11 12  1  0  0  0  0
 12 13  1  1  0  0  0
 15 16  1  0  0  0  0
 16 12  1  0  0  0  0
 16 17  1  6  0  0  0
 17 18  1  0  0  0  0
 18 19  1  0  0  0  0
 19 21  1  0  0  0  0
 19 20  1  0  0  0  0
 22 19  2  0  0  0  0
M  END
>  <CHROM.1>
-176.33754195,-110.16678527,-62.45073099,-173.89047301,59.45812942,18.09695601
-43.10692832,-28.84757567,-2.81793347,0.53578665,0.85445477

>  <Name>
lig.pdb

>  <RI>
0

>  <Rbt.Current_Directory>
/home/itssahil/PROJECTS/Mol_Feturizer/New_Systems/rnas/5btp

>  <Rbt.Executable>
rbdock ($Id: //depot/dev/client3/rdock/2013.1/src/exe/rbdock.cxx#4 $)

>  <Rbt.Library>
libRbt.so (2013.1, Build901 2013/11/27)

>  <Rbt.Parameter_File>
/export/apps/rDock/src/rDock_2013.1_src/data/scripts/dock_solv.prm

>  <Rbt.Receptor>
prm/blind_docking_80.prm

>  <SCORE>
-18.8862

>  <SCORE.INTER>
-18.459

>  <SCORE.INTER.CONST>
1

>  <SCORE.INTER.POLAR>
0

>  <SCORE.INTER.ROT>
5

>  <SCORE.INTER.SOLV>
17.4745

>  <SCORE.INTER.VDW>
-25.0642

>  <SCORE.INTER.norm>
-0.839047

>  <SCORE.INTRA>
-0.434652

>  <SCORE.INTRA.DIHEDRAL>
-1.54299

>  <SCORE.INTRA.DIHEDRAL.0>
4.21161

>  <SCORE.INTRA.POLAR>
0

>  <SCORE.INTRA.POLAR.0>
0

>  <SCORE.INTRA.REPUL>
0

>  <SCORE.INTRA.REPUL.0>
0

>  <SCORE.INTRA.SOLV>
0.922142

>  <SCORE.INTRA.SOLV.lig_0>
-41.4168

>  <SCORE.INTRA.VDW>
-0.124229

>  <SCORE.INTRA.VDW.0>
-1.62533

>  <SCORE.INTRA.norm>
-0.0197569

>  <SCORE.RESTR>
0.0075063

>  <SCORE.RESTR.CAVITY>
0.0075063

>  <SCORE.RESTR.norm>
0.000341196

>  <SCORE.SYSTEM>
0

>  <SCORE.SYSTEM.CONST>
0

>  <SCORE.SYSTEM.DIHEDRAL>
0

>  <SCORE.SYSTEM.SOLV>
0

>  <SCORE.SYSTEM.norm>
0

>  <SCORE.heavy>
22

>  <SCORE.norm>
-0.858463

>  <RMSD>
17.250

$$$$
lig.pdb
 OpenBabel11021811523D
libRbt.so/2013.1/901 2013/11/27
 22 23  0  0  0  0  0  0  0  0999 V2000
   18.2341  -45.5088  -32.3059 O   0  0  0  0  0  0  0  0  0  0  0  0
   17.0463  -45.2262  -32.3276 C   0  0  0  0  0  0  0  0  0  0  0  0
   16.2001  -45.8108  -33.1755 N   0  0  0  0  0  0  0  0  0  0  0  0
   16.5212  -44.1894  -31.3946 C   0  0  0  0  0  0  0  0  0  0  0  0
   17.3401  -43.4842  -30.3961 C   0  0  0  0  0  0  0  0  0  0  0  0
   18.7643  -43.6974  -30.1733 N   0  0  0  0  0  0  0  0  0  0  0  0
   15.2909  -43.6559  -31.2279 N   0  0  0  0  0  0  0  0  0  0  0  0
   15.3595  -42.7234  -30.2277 C   0  0  0  0  0  0  0  0  0  0  0  0
   16.6063  -42.6159  -29.7188 N   0  0  0  0  0  0  0  0  0  0  0  0
   17.0628  -41.7164  -28.6338 C   0  0  1  0  0  0  0  0  0  0  0  0
   17.1836  -42.4791  -27.3247 C   0  0  1  0  0  0  0  0  0  0  0  0
   18.3303  -41.7868  -26.6337 C   0  0  2  0  0  0  0  0  0  0  0  0
   17.8423  -40.6350  -25.9428 O   0  0  0  0  0  0  0  0  0  0  0  0
   15.9929  -42.3576  -26.5454 O   0  0  0  0  0  0  0  0  0  0  0  0
   18.3615  -41.1820  -28.9166 O   0  0  0  0  0  0  0  0  0  0  0  0
   19.2151  -41.3382  -27.7805 C   0  0  2  0  0  0  0  0  0  0  0  0
   20.2795  -42.3881  -28.0596 C   0  0  0  0  0  0  0  0  0  0  0  0
   21.3197  -41.7823  -28.8252 O   0  0  0  0  0  0  0  0  0  0  0  0
   22.7071  -42.5484  -29.1150 P   0  0  0  0  0  0  0  0  0  0  0  0
   22.3189  -43.7745  -29.9084 O   0  0  0  0  0  0  0  0  0  0  0  0
   23.2302  -42.8459  -27.7297 O   0  0  0  0  0  0  0  0  0  0  0  0
   23.5118  -41.5335  -29.8927 O   0  0  0  0  0  0  0  0  0  0  0  0
  1  2  2  0  0  0  0
  2  4  1  0  0  0  0
  2  3  1  0  0  0  0
  4  7  1  0  0  0  0
  5  9  1  0  0  0  0
  5  4  2  0  0  0  0
  6  5  1  0  0  0  0
  8  7  2  0  0  0  0
  9  8  1  0  0  0  0
 10 15  1  0  0  0  0
 10  9  1  6  0  0  0
 10 11  1  0  0  0  0
 11 14  1  1  0  0  0
 11 12  1  0  0  0  0
 12 13  1  6  0  0  0
 15 16  1  0  0  0  0
 16 12  1  0  0  0  0
 16 17  1  6  0  0  0
 17 18  1  0  0  0  0
 18 19  1  0  0  0  0
 19 21  1  0  0  0  0
 19 20  1  0  0  0  0
 22 19  2  0  0  0  0
M  END
>  <CHROM.1>
-1.71923826,-78.91437660,-162.21358199,170.95319497,62.09532103,18.91033045
-42.82616883,-29.31456561,-2.69042159,0.03222867,0.98638024

>  <Name>
lig.pdb

>  <RI>
0

>  <Rbt.Current_Directory>
/home/itssahil/PROJECTS/Mol_Feturizer/New_Systems/rnas/5btp

>  <Rbt.Executable>
rbdock ($Id: //depot/dev/client3/rdock/2013.1/src/exe/rbdock.cxx#4 $)

>  <Rbt.Library>
libRbt.so (2013.1, Build901 2013/11/27)

>  <Rbt.Parameter_File>
/export/apps/rDock/src/rDock_2013.1_src/data/scripts/dock_solv.prm

>  <Rbt.Receptor>
prm/blind_docking_60.prm

>  <SCORE>
-19.1765

>  <SCORE.INTER>
-18.7953

>  <SCORE.INTER.CONST>
1

>  <SCORE.INTER.POLAR>
0

>  <SCORE.INTER.ROT>
5

>  <SCORE.INTER.SOLV>
21.1102

>  <SCORE.INTER.VDW>
-26.5003

>  <SCORE.INTER.norm>
-0.854332

>  <SCORE.INTRA>
-0.381174

>  <SCORE.INTRA.DIHEDRAL>
-0.341841

>  <SCORE.INTRA.DIHEDRAL.0>
4.21161

>  <SCORE.INTRA.POLAR>
0

>  <SCORE.INTRA.POLAR.0>
0

>  <SCORE.INTRA.REPUL>
0

>  <SCORE.INTRA.REPUL.0>
0

>  <SCORE.INTRA.SOLV>
1.11424

>  <SCORE.INTRA.SOLV.lig_0>
-41.4168

>  <SCORE.INTRA.VDW>
-0.767374

>  <SCORE.INTRA.VDW.0>
-1.62533

>  <SCORE.INTRA.norm>
-0.0173261

>  <SCORE.RESTR>
0

>  <SCORE.RESTR.CAVITY>
0

>  <SCORE.RESTR.norm>
0

>  <SCORE.SYSTEM>
0

>  <SCORE.SYSTEM.CONST>
0

>  <SCORE.SYSTEM.DIHEDRAL>
0

>  <SCORE.SYSTEM.SOLV>
0

>  <SCORE.SYSTEM.norm>
0

>  <SCORE.heavy>
22

>  <SCORE.norm>
-0.871658

>  <RMSD>
17.257

$$$$
lig.pdb
 OpenBabel11021811523D
libRbt.so/2013.1/901 2013/11/27
 22 23  0  0  0  0  0  0  0  0999 V2000
   15.8720  -46.2944  -31.2414 O   0  0  0  0  0  0  0  0  0  0  0  0
   15.3612  -46.5939  -30.1735 C   0  0  0  0  0  0  0  0  0  0  0  0
   14.6931  -47.7356  -30.0096 N   0  0  0  0  0  0  0  0  0  0  0  0
   15.4690  -45.6568  -29.0196 C   0  0  0  0  0  0  0  0  0  0  0  0
   16.1247  -44.3410  -29.0811 C   0  0  0  0  0  0  0  0  0  0  0  0
   16.7601  -43.7717  -30.2624 N   0  0  0  0  0  0  0  0  0  0  0  0
   15.0358  -45.7345  -27.7419 N   0  0  0  0  0  0  0  0  0  0  0  0
   15.3954  -44.5820  -27.0962 C   0  0  0  0  0  0  0  0  0  0  0  0
   16.0586  -43.7307  -27.9088 N   0  0  0  0  0  0  0  0  0  0  0  0
   16.5983  -42.3940  -27.5670 C   0  0  1  0  0  0  0  0  0  0  0  0
   17.7896  -42.5234  -26.6323 C   0  0  1  0  0  0  0  0  0  0  0  0
   18.6568  -41.3548  -27.0246 C   0  0  2  0  0  0  0  0  0  0  0  0
   18.2153  -40.1836  -26.3350 O   0  0  0  0  0  0  0  0  0  0  0  0
   17.3890  -42.4032  -25.2666 O   0  0  0  0  0  0  0  0  0  0  0  0
   17.0680  -41.7113  -28.7355 O   0  0  0  0  0  0  0  0  0  0  0  0
   18.3797  -41.1908  -28.5064 C   0  0  2  0  0  0  0  0  0  0  0  0
   19.4054  -41.9670  -29.3179 C   0  0  0  0  0  0  0  0  0  0  0  0
   20.6827  -41.3611  -29.1267 O   0  0  0  0  0  0  0  0  0  0  0  0
   21.9797  -41.8548  -29.9453 P   0  0  0  0  0  0  0  0  0  0  0  0
   21.6771  -41.5311  -31.3900 O   0  0  0  0  0  0  0  0  0  0  0  0
   22.0360  -43.3327  -29.6393 O   0  0  0  0  0  0  0  0  0  0  0  0
   23.1024  -41.0397  -29.3473 O   0  0  0  0  0  0  0  0  0  0  0  0
  1  2  2  0  0  0  0
  2  4  1  0  0  0  0
  2  3  1  0  0  0  0
  4  7  1  0  0  0  0
  5  9  1  0  0  0  0
  5  4  2  0  0  0  0
  6  5  1  0  0  0  0
  8  7  2  0  0  0  0
  9  8  1  0  0  0  0
 10 15  1  0  0  0  0
 10  9  1  6  0  0  0
 10 11  1  0  0  0  0
 11 14  1  1  0  0  0
 11 12  1  0  0  0  0
 12 13  1  1  0  0  0
 15 16  1  0  0  0  0
 16 12  1  0  0  0  0
 16 17  1  6  0  0  0
 17 18  1  0  0  0  0
 18 19  1  0  0  0  0
 19 21  1  0  0  0  0
 19 20  1  0  0  0  0
 22 19  2  0  0  0  0
M  END
>  <CHROM.1>
2.13777316,-109.96586780,-66.39672943,-174.58928868,64.71774153,18.23395026
-43.09129751,-28.77846649,-2.81189442,0.50361484,0.84836318

>  <Name>
lig.pdb

>  <RI>
0

>  <Rbt.Current_Directory>
/home/itssahil/PROJECTS/Mol_Feturizer/New_Systems/rnas/5btp

>  <Rbt.Executable>
rbdock ($Id: //depot/dev/client3/rdock/2013.1/src/exe/rbdock.cxx#4 $)

>  <Rbt.Library>
libRbt.so (2013.1, Build901 2013/11/27)

>  <Rbt.Parameter_File>
/export/apps/rDock/src/rDock_2013.1_src/data/scripts/dock_solv.prm

>  <Rbt.Receptor>
prm/blind_docking_60.prm

>  <SCORE>
-19.0384

>  <SCORE.INTER>
-18.4835

>  <SCORE.INTER.CONST>
1

>  <SCORE.INTER.POLAR>
0

>  <SCORE.INTER.ROT>
5

>  <SCORE.INTER.SOLV>
18.4457

>  <SCORE.INTER.VDW>
-25.4042

>  <SCORE.INTER.norm>
-0.84016

>  <SCORE.INTRA>
-0.554904

>  <SCORE.INTRA.DIHEDRAL>
-1.44852

>  <SCORE.INTRA.DIHEDRAL.0>
4.21161

>  <SCORE.INTRA.POLAR>
0

>  <SCORE.INTRA.POLAR.0>
0

>  <SCORE.INTRA.REPUL>
0

>  <SCORE.INTRA.REPUL.0>
0

>  <SCORE.INTRA.SOLV>
0.668062

>  <SCORE.INTRA.SOLV.lig_0>
-41.4168

>  <SCORE.INTRA.VDW>
-0.164673

>  <SCORE.INTRA.VDW.0>
-1.62533

>  <SCORE.INTRA.norm>
-0.0252229

>  <SCORE.RESTR>
0

>  <SCORE.RESTR.CAVITY>
0

>  <SCORE.RESTR.norm>
0

>  <SCORE.SYSTEM>
0

>  <SCORE.SYSTEM.CONST>
0

>  <SCORE.SYSTEM.DIHEDRAL>
0

>  <SCORE.SYSTEM.SOLV>
0

>  <SCORE.SYSTEM.norm>
0

>  <SCORE.heavy>
22

>  <SCORE.norm>
-0.865382

>  <RMSD>
17.261

$$$$
lig.pdb
 OpenBabel11021811523D
libRbt.so/2013.1/901 2013/11/27
 22 23  0  0  0  0  0  0  0  0999 V2000
   13.9468  -46.6931  -28.4619 O   0  0  0  0  0  0  0  0  0  0  0  0
   14.6237  -46.5817  -29.4721 C   0  0  0  0  0  0  0  0  0  0  0  0
   14.6000  -47.4991  -30.4388 N   0  0  0  0  0  0  0  0  0  0  0  0
   15.5158  -45.3984  -29.6313 C   0  0  0  0  0  0  0  0  0  0  0  0
   15.6983  -44.3566  -28.6084 C   0  0  0  0  0  0  0  0  0  0  0  0
   15.0385  -44.3275  -27.3096 N   0  0  0  0  0  0  0  0  0  0  0  0
   16.3250  -44.9988  -30.6371 N   0  0  0  0  0  0  0  0  0  0  0  0
   16.9336  -43.8317  -30.2602 C   0  0  0  0  0  0  0  0  0  0  0  0
   16.5546  -43.4376  -29.0250 N   0  0  0  0  0  0  0  0  0  0  0  0
   17.0011  -42.2337  -28.2860 C   0  0  1  0  0  0  0  0  0  0  0  0
   17.7005  -42.6293  -26.9960 C   0  0  1  0  0  0  0  0  0  0  0  0
   18.7310  -41.5431  -26.8224 C   0  0  2  0  0  0  0  0  0  0  0  0
   18.1306  -40.4181  -26.1774 O   0  0  0  0  0  0  0  0  0  0  0  0
   16.7913  -42.6264  -25.8946 O   0  0  0  0  0  0  0  0  0  0  0  0
   17.9493  -41.4795  -29.0502 O   0  0  0  0  0  0  0  0  0  0  0  0
   19.0889  -41.1646  -28.2465 C   0  0  2  0  0  0  0  0  0  0  0  0
   20.2987  -41.9615  -28.7095 C   0  0  0  0  0  0  0  0  0  0  0  0
   21.3657  -41.7353  -27.7901 O   0  0  0  0  0  0  0  0  0  0  0  0
   22.8624  -42.2481  -28.0945 P   0  0  0  0  0  0  0  0  0  0  0  0
   23.4333  -41.2372  -29.0618 O   0  0  0  0  0  0  0  0  0  0  0  0
   22.6408  -43.6189  -28.6888 O   0  0  0  0  0  0  0  0  0  0  0  0
   23.5174  -42.2450  -26.7332 O   0  0  0  0  0  0  0  0  0  0  0  0
  1  2  2  0  0  0  0
  2  4  1  0  0  0  0
  2  3  1  0  0  0  0
  4  7  1  0  0  0  0
  5  9  1  0  0  0  0
  5  4  2  0  0  0  0
  6  5  1  0  0  0  0
  8  7  2  0  0  0  0
  9  8  1  0  0  0  0
 10 15  1  0  0  0  0
 10  9  1  6  0  0  0
 10 11  1  0  0  0  0
 11 14  1  1  0  0  0
 11 12  1  0  0  0  0
 12 13  1  1  0  0  0
 15 16  1  0  0  0  0
 16 12  1  0  0  0  0
 16 17  1  6  0  0  0
 17 18  1  0  0  0  0
 18 19  1  0  0  0  0
 19 21  1  0  0  0  0
 19 20  1  0  0  0  0
 22 19  2  0  0  0  0
M  END
>  <CHROM.1>
3.15030760,61.09955181,-56.07776851,-170.67811781,78.85279372,18.50071030
-43.16968636,-28.32388262,-2.69122789,0.18587990,0.68053399

>  <Name>
lig.pdb

>  <RI>
0

>  <Rbt.Current_Directory>
/home/itssahil/PROJECTS/Mol_Feturizer/New_Systems/rnas/5btp

>  <Rbt.Executable>
rbdock ($Id: //depot/dev/client3/rdock/2013.1/src/exe/rbdock.cxx#4 $)

>  <Rbt.Library>
libRbt.so (2013.1, Build901 2013/11/27)

>  <Rbt.Parameter_File>
/export/apps/rDock/src/rDock_2013.1_src/data/scripts/dock_solv.prm

>  <Rbt.Receptor>
prm/blind_docking_60.prm

>  <SCORE>
-17.2484

>  <SCORE.INTER>
-17.0849

>  <SCORE.INTER.CONST>
1

>  <SCORE.INTER.POLAR>
0

>  <SCORE.INTER.ROT>
5

>  <SCORE.INTER.SOLV>
18.1314

>  <SCORE.INTER.VDW>
-24.367

>  <SCORE.INTER.norm>
-0.776585

>  <SCORE.INTRA>
-0.163572

>  <SCORE.INTRA.DIHEDRAL>
-0.743453

>  <SCORE.INTRA.DIHEDRAL.0>
4.21161

>  <SCORE.INTRA.POLAR>
0

>  <SCORE.INTRA.POLAR.0>
0

>  <SCORE.INTRA.REPUL>
0

>  <SCORE.INTRA.REPUL.0>
0

>  <SCORE.INTRA.SOLV>
0.333827

>  <SCORE.INTRA.SOLV.lig_0>
-41.4168

>  <SCORE.INTRA.VDW>
0.041241

>  <SCORE.INTRA.VDW.0>
-1.62533

>  <SCORE.INTRA.norm>
-0.00743509

>  <SCORE.RESTR>
0

>  <SCORE.RESTR.CAVITY>
0

>  <SCORE.RESTR.norm>
0

>  <SCORE.SYSTEM>
0

>  <SCORE.SYSTEM.CONST>
0

>  <SCORE.SYSTEM.DIHEDRAL>
0

>  <SCORE.SYSTEM.SOLV>
0

>  <SCORE.SYSTEM.norm>
0

>  <SCORE.heavy>
22

>  <SCORE.norm>
-0.78402

>  <RMSD>
17.268

$$$$
lig.pdb
 OpenBabel11021811523D
libRbt.so/2013.1/901 2013/11/27
 22 23  0  0  0  0  0  0  0  0999 V2000
   16.1636  -45.6603  -33.1238 O   0  0  0  0  0  0  0  0  0  0  0  0
   16.9436  -45.1604  -32.3283 C   0  0  0  0  0  0  0  0  0  0  0  0
   18.2321  -45.5004  -32.2992 N   0  0  0  0  0  0  0  0  0  0  0  0
   16.4479  -44.1526  -31.3486 C   0  0  0  0  0  0  0  0  0  0  0  0
   17.3067  -43.4371  -30.3918 C   0  0  0  0  0  0  0  0  0  0  0  0
   18.7475  -43.6108  -30.2609 N   0  0  0  0  0  0  0  0  0  0  0  0
   15.2154  -43.6584  -31.0978 N   0  0  0  0  0  0  0  0  0  0  0  0
   15.3192  -42.7381  -30.0894 C   0  0  0  0  0  0  0  0  0  0  0  0
   16.5916  -42.6004  -29.6570 N   0  0  0  0  0  0  0  0  0  0  0  0
   17.0887  -41.7027  -28.5884 C   0  0  1  0  0  0  0  0  0  0  0  0
   17.2468  -42.4647  -27.2830 C   0  0  1  0  0  0  0  0  0  0  0  0
   18.4196  -41.7791  -26.6302 C   0  0  2  0  0  0  0  0  0  0  0  0
   17.9615  -40.6234  -25.9254 O   0  0  0  0  0  0  0  0  0  0  0  0
   16.0827  -42.3347  -26.4658 O   0  0  0  0  0  0  0  0  0  0  0  0
   18.3809  -41.1770  -28.9137 O   0  0  0  0  0  0  0  0  0  0  0  0
   19.2698  -41.3374  -27.8056 C   0  0  2  0  0  0  0  0  0  0  0  0
   20.3178  -42.3945  -28.1175 C   0  0  0  0  0  0  0  0  0  0  0  0
   21.4120  -41.7621  -28.7794 O   0  0  0  0  0  0  0  0  0  0  0  0
   22.7934  -42.5436  -29.0569 P   0  0  0  0  0  0  0  0  0  0  0  0
   23.2430  -43.0371  -27.7012 O   0  0  0  0  0  0  0  0  0  0  0  0
   23.6783  -41.4743  -29.6526 O   0  0  0  0  0  0  0  0  0  0  0  0
   22.3894  -43.6395  -30.0150 O   0  0  0  0  0  0  0  0  0  0  0  0
  1  2  2  0  0  0  0
  2  4  1  0  0  0  0
  2  3  1  0  0  0  0
  4  7  1  0  0  0  0
  5  9  1  0  0  0  0
  5  4  2  0  0  0  0
  6  5  1  0  0  0  0
  8  7  2  0  0  0  0
  9  8  1  0  0  0  0
 10 15  1  0  0  0  0
 10  9  1  6  0  0  0
 10 11  1  0  0  0  0
 11 14  1  1  0  0  0
 11 12  1  0  0  0  0
 12 13  1  6  0  0  0
 15 16  1  0  0  0  0
 16 12  1  0  0  0  0
 16 17  1  6  0  0  0
 17 18  1  0  0  0  0
 18 19  1  0  0  0  0
 19 21  1  0  0  0  0
 19 20  1  0  0  0  0
 22 19  2  0  0  0  0
M  END
>  <CHROM.1>
-176.79674062,-81.73408588,-155.41126881,170.66555077,-55.36017083,18.92900000
-42.80658116,-29.28484444,-2.69726591,0.03025049,0.99503533

>  <Name>
lig.pdb

>  <RI>
0

>  <Rbt.Current_Directory>
/home/itssahil/PROJECTS/Mol_Feturizer/New_Systems/rnas/5btp

>  <Rbt.Executable>
rbdock ($Id: //depot/dev/client3/rdock/2013.1/src/exe/rbdock.cxx#4 $)

>  <Rbt.Library>
libRbt.so (2013.1, Build901 2013/11/27)

>  <Rbt.Parameter_File>
/export/apps/rDock/src/rDock_2013.1_src/data/scripts/dock_solv.prm

>  <Rbt.Receptor>
prm/blind_docking_60.prm

>  <SCORE>
-18.0627

>  <SCORE.INTER>
-18.3948

>  <SCORE.INTER.CONST>
1

>  <SCORE.INTER.POLAR>
0

>  <SCORE.INTER.ROT>
5

>  <SCORE.INTER.SOLV>
21.8376

>  <SCORE.INTER.VDW>
-26.4757

>  <SCORE.INTER.norm>
-0.836127

>  <SCORE.INTRA>
0.332117

>  <SCORE.INTRA.DIHEDRAL>
0.566597

>  <SCORE.INTRA.DIHEDRAL.0>
4.21161

>  <SCORE.INTRA.POLAR>
0

>  <SCORE.INTRA.POLAR.0>
0

>  <SCORE.INTRA.REPUL>
0

>  <SCORE.INTRA.REPUL.0>
0

>  <SCORE.INTRA.SOLV>
1.54945

>  <SCORE.INTRA.SOLV.lig_0>
-41.4168

>  <SCORE.INTRA.VDW>
-0.725908

>  <SCORE.INTRA.VDW.0>
-1.62533

>  <SCORE.INTRA.norm>
0.0150962

>  <SCORE.RESTR>
0

>  <SCORE.RESTR.CAVITY>
0

>  <SCORE.RESTR.norm>
0

>  <SCORE.SYSTEM>
0

>  <SCORE.SYSTEM.CONST>
0

>  <SCORE.SYSTEM.DIHEDRAL>
0

>  <SCORE.SYSTEM.SOLV>
0

>  <SCORE.SYSTEM.norm>
0

>  <SCORE.heavy>
22

>  <SCORE.norm>
-0.821031

>  <RMSD>
17.269

$$$$
lig.pdb
 OpenBabel11021811523D
libRbt.so/2013.1/901 2013/11/27
 22 23  0  0  0  0  0  0  0  0999 V2000
   13.4810  -45.4711  -29.5681 O   0  0  0  0  0  0  0  0  0  0  0  0
   14.1737  -45.3309  -30.5639 C   0  0  0  0  0  0  0  0  0  0  0  0
   13.9142  -45.9817  -31.6980 N   0  0  0  0  0  0  0  0  0  0  0  0
   15.3531  -44.4211  -30.5156 C   0  0  0  0  0  0  0  0  0  0  0  0
   15.7125  -43.5937  -29.3532 C   0  0  0  0  0  0  0  0  0  0  0  0
   14.9747  -43.5403  -28.0978 N   0  0  0  0  0  0  0  0  0  0  0  0
   16.3211  -44.1391  -31.4155 N   0  0  0  0  0  0  0  0  0  0  0  0
   17.1780  -43.2312  -30.8535 C   0  0  0  0  0  0  0  0  0  0  0  0
   16.8107  -42.8968  -29.5972 N   0  0  0  0  0  0  0  0  0  0  0  0
   17.4904  -41.9523  -28.6802 C   0  0  1  0  0  0  0  0  0  0  0  0
   17.7951  -42.6253  -27.3520 C   0  0  1  0  0  0  0  0  0  0  0  0
   19.0762  -41.9589  -26.9204 C   0  0  2  0  0  0  0  0  0  0  0  0
   18.7716  -40.7321  -26.2538 O   0  0  0  0  0  0  0  0  0  0  0  0
   16.7628  -42.3735  -26.3976 O   0  0  0  0  0  0  0  0  0  0  0  0
   18.7466  -41.5225  -29.2181 O   0  0  0  0  0  0  0  0  0  0  0  0
   19.7731  -41.6503  -28.2313 C   0  0  2  0  0  0  0  0  0  0  0  0
   20.7203  -42.7824  -28.5975 C   0  0  0  0  0  0  0  0  0  0  0  0
   21.0234  -42.6838  -29.9880 O   0  0  0  0  0  0  0  0  0  0  0  0
   22.1550  -41.6749  -30.5335 P   0  0  0  0  0  0  0  0  0  0  0  0
   23.4686  -42.3476  -30.2084 O   0  0  0  0  0  0  0  0  0  0  0  0
   21.8944  -40.4110  -29.7488 O   0  0  0  0  0  0  0  0  0  0  0  0
   21.8549  -41.5779  -32.0109 O   0  0  0  0  0  0  0  0  0  0  0  0
  1  2  2  0  0  0  0
  2  4  1  0  0  0  0
  2  3  1  0  0  0  0
  4  7  1  0  0  0  0
  5  9  1  0  0  0  0
  5  4  2  0  0  0  0
  6  5  1  0  0  0  0
  8  7  2  0  0  0  0
  9  8  1  0  0  0  0
 10 15  1  0  0  0  0
 10  9  1  6  0  0  0
 10 11  1  0  0  0  0
 11 14  1  1  0  0  0
 11 12  1  0  0  0  0
 12 13  1  6  0  0  0
 15 16  1  0  0  0  0
 16 12  1  0  0  0  0
 16 17  1  6  0  0  0
 17 18  1  0  0  0  0
 18 19  1  0  0  0  0
 19 21  1  0  0  0  0
 19 20  1  0  0  0  0
 22 19  2  0  0  0  0
M  END
>  <CHROM.1>
-3.89187073,54.02308115,161.67255702,82.03343320,76.58727858,18.39676289
-42.74321556,-29.40637295,-2.98775599,0.36694714,1.15689462

>  <Name>
lig.pdb

>  <RI>
0

>  <Rbt.Current_Directory>
/home/itssahil/PROJECTS/Mol_Feturizer/New_Systems/rnas/5btp

>  <Rbt.Executable>
rbdock ($Id: //depot/dev/client3/rdock/2013.1/src/exe/rbdock.cxx#4 $)

>  <Rbt.Library>
libRbt.so (2013.1, Build901 2013/11/27)

>  <Rbt.Parameter_File>
/export/apps/rDock/src/rDock_2013.1_src/data/scripts/dock_solv.prm

>  <Rbt.Receptor>
prm/blind_docking_100.prm

>  <SCORE>
-13.7659

>  <SCORE.INTER>
-14.9818

>  <SCORE.INTER.CONST>
1

>  <SCORE.INTER.POLAR>
0

>  <SCORE.INTER.ROT>
5

>  <SCORE.INTER.SOLV>
13.5008

>  <SCORE.INTER.VDW>
-21.4215

>  <SCORE.INTER.norm>
-0.68099

>  <SCORE.INTRA>
1.21593

>  <SCORE.INTRA.DIHEDRAL>
1.9571

>  <SCORE.INTRA.DIHEDRAL.0>
4.21161

>  <SCORE.INTRA.POLAR>
0

>  <SCORE.INTRA.POLAR.0>
0

>  <SCORE.INTRA.REPUL>
0

>  <SCORE.INTRA.REPUL.0>
0

>  <SCORE.INTRA.SOLV>
0.991098

>  <SCORE.INTRA.SOLV.lig_0>
-41.4168

>  <SCORE.INTRA.VDW>
-0.258175

>  <SCORE.INTRA.VDW.0>
-1.62533

>  <SCORE.INTRA.norm>
0.0552693

>  <SCORE.RESTR>
0

>  <SCORE.RESTR.CAVITY>
0

>  <SCORE.RESTR.norm>
0

>  <SCORE.SYSTEM>
0

>  <SCORE.SYSTEM.CONST>
0

>  <SCORE.SYSTEM.DIHEDRAL>
0

>  <SCORE.SYSTEM.SOLV>
0

>  <SCORE.SYSTEM.norm>
0

>  <SCORE.heavy>
22

>  <SCORE.norm>
-0.625721

>  <RMSD>
17.270

$$$$
lig.pdb
 OpenBabel11021811523D
libRbt.so/2013.1/901 2013/11/27
 22 23  0  0  0  0  0  0  0  0999 V2000
   14.0919  -44.2146  -31.6826 O   0  0  0  0  0  0  0  0  0  0  0  0
   15.2633  -44.5585  -31.7098 C   0  0  0  0  0  0  0  0  0  0  0  0
   15.6435  -45.7166  -32.2493 N   0  0  0  0  0  0  0  0  0  0  0  0
   16.3025  -43.6730  -31.1122 C   0  0  0  0  0  0  0  0  0  0  0  0
   17.7475  -43.9460  -31.1576 C   0  0  0  0  0  0  0  0  0  0  0  0
   18.3651  -45.1093  -31.7810 N   0  0  0  0  0  0  0  0  0  0  0  0
   16.2235  -42.4991  -30.4473 N   0  0  0  0  0  0  0  0  0  0  0  0
   17.4934  -42.1040  -30.1221 C   0  0  0  0  0  0  0  0  0  0  0  0
   18.4244  -42.9827  -30.5534 N   0  0  0  0  0  0  0  0  0  0  0  0
   19.8941  -42.8919  -30.3901 C   0  0  1  0  0  0  0  0  0  0  0  0
   20.3349  -41.4385  -30.3313 C   0  0  1  0  0  0  0  0  0  0  0  0
   21.5251  -41.4825  -29.4076 C   0  0  2  0  0  0  0  0  0  0  0  0
   22.6930  -41.8291  -30.1546 O   0  0  0  0  0  0  0  0  0  0  0  0
   20.7288  -40.9666  -31.6204 O   0  0  0  0  0  0  0  0  0  0  0  0
   20.3168  -43.4970  -29.1625 O   0  0  0  0  0  0  0  0  0  0  0  0
   21.1921  -42.6149  -28.4557 C   0  0  2  0  0  0  0  0  0  0  0  0
   20.5024  -42.0679  -27.2154 C   0  0  0  0  0  0  0  0  0  0  0  0
   19.1568  -41.7392  -27.5565 O   0  0  0  0  0  0  0  0  0  0  0  0
   18.0715  -41.3577  -26.4284 P   0  0  0  0  0  0  0  0  0  0  0  0
   18.4035  -39.9383  -26.0301 O   0  0  0  0  0  0  0  0  0  0  0  0
   18.3266  -42.3812  -25.3474 O   0  0  0  0  0  0  0  0  0  0  0  0
   16.7513  -41.5094  -27.1470 O   0  0  0  0  0  0  0  0  0  0  0  0
  1  2  2  0  0  0  0
  2  4  1  0  0  0  0
  2  3  1  0  0  0  0
  4  7  1  0  0  0  0
  5  9  1  0  0  0  0
  5  4  2  0  0  0  0
  6  5  1  0  0  0  0
  8  7  2  0  0  0  0
  9  8  1  0  0  0  0
 10 15  1  0  0  0  0
 10  9  1  1  0  0  0
 10 11  1  0  0  0  0
 11 14  1  6  0  0  0
 11 12  1  0  0  0  0
 12 13  1  6  0  0  0
 15 16  1  0  0  0  0
 16 12  1  0  0  0  0
 16 17  1  1  0  0  0
 17 18  1  0  0  0  0
 18 19  1  0  0  0  0
 19 21  1  0  0  0  0
 19 20  1  0  0  0  0
 22 19  2  0  0  0  0
M  END
>  <CHROM.1>
-176.23118083,150.54538985,75.49992276,169.95936204,76.72007293,18.52581553
-42.54444231,-29.30627777,2.23334561,-0.23555508,-1.99076392

>  <Name>
lig.pdb

>  <RI>
0

>  <Rbt.Current_Directory>
/home/itssahil/PROJECTS/Mol_Feturizer/New_Systems/rnas/5btp

>  <Rbt.Executable>
rbdock ($Id: //depot/dev/client3/rdock/2013.1/src/exe/rbdock.cxx#4 $)

>  <Rbt.Library>
libRbt.so (2013.1, Build901 2013/11/27)

>  <Rbt.Parameter_File>
/export/apps/rDock/src/rDock_2013.1_src/data/scripts/dock_solv.prm

>  <Rbt.Receptor>
prm/blind_docking_100.prm

>  <SCORE>
-20.2203

>  <SCORE.INTER>
-20.0534

>  <SCORE.INTER.CONST>
1

>  <SCORE.INTER.POLAR>
0

>  <SCORE.INTER.ROT>
5

>  <SCORE.INTER.SOLV>
22.1326

>  <SCORE.INTER.VDW>
-27.6798

>  <SCORE.INTER.norm>
-0.91152

>  <SCORE.INTRA>
-0.227243

>  <SCORE.INTRA.DIHEDRAL>
-0.0255848

>  <SCORE.INTRA.DIHEDRAL.0>
4.21161

>  <SCORE.INTRA.POLAR>
0

>  <SCORE.INTRA.POLAR.0>
0

>  <SCORE.INTRA.REPUL>
0

>  <SCORE.INTRA.REPUL.0>
0

>  <SCORE.INTRA.SOLV>
1.26671

>  <SCORE.INTRA.SOLV.lig_0>
-41.4168

>  <SCORE.INTRA.VDW>
-0.847803

>  <SCORE.INTRA.VDW.0>
-1.62533

>  <SCORE.INTRA.norm>
-0.0103292

>  <SCORE.RESTR>
0.060357

>  <SCORE.RESTR.CAVITY>
0.060357

>  <SCORE.RESTR.norm>
0.0027435

>  <SCORE.SYSTEM>
0

>  <SCORE.SYSTEM.CONST>
0

>  <SCORE.SYSTEM.DIHEDRAL>
0

>  <SCORE.SYSTEM.SOLV>
0

>  <SCORE.SYSTEM.norm>
0

>  <SCORE.heavy>
22

>  <SCORE.norm>
-0.919106

>  <RMSD>
17.277

$$$$
lig.pdb
 OpenBabel11021811523D
libRbt.so/2013.1/901 2013/11/27
 22 23  0  0  0  0  0  0  0  0999 V2000
   14.7834  -47.6870  -29.9885 O   0  0  0  0  0  0  0  0  0  0  0  0
   15.3579  -46.6198  -30.1373 C   0  0  0  0  0  0  0  0  0  0  0  0
   15.8809  -46.2605  -31.3095 N   0  0  0  0  0  0  0  0  0  0  0  0
   15.4966  -45.6930  -28.9784 C   0  0  0  0  0  0  0  0  0  0  0  0
   16.1058  -44.3560  -29.0569 C   0  0  0  0  0  0  0  0  0  0  0  0
   16.6594  -43.7528  -30.2622 N   0  0  0  0  0  0  0  0  0  0  0  0
   15.1342  -45.7994  -27.6808 N   0  0  0  0  0  0  0  0  0  0  0  0
   15.4906  -44.6433  -27.0397 C   0  0  0  0  0  0  0  0  0  0  0  0
   16.0824  -43.7616  -27.8748 N   0  0  0  0  0  0  0  0  0  0  0  0
   16.5965  -42.4121  -27.5441 C   0  0  1  0  0  0  0  0  0  0  0  0
   17.8064  -42.5120  -26.6298 C   0  0  1  0  0  0  0  0  0  0  0  0
   18.6392  -41.3242  -27.0386 C   0  0  2  0  0  0  0  0  0  0  0  0
   18.1824  -40.1624  -26.3432 O   0  0  0  0  0  0  0  0  0  0  0  0
   17.4265  -42.3987  -25.2577 O   0  0  0  0  0  0  0  0  0  0  0  0
   17.0301  -41.7208  -28.7215 O   0  0  0  0  0  0  0  0  0  0  0  0
   18.3330  -41.1694  -28.5157 C   0  0  2  0  0  0  0  0  0  0  0  0
   19.3625  -41.9229  -29.3435 C   0  0  0  0  0  0  0  0  0  0  0  0
   20.6410  -41.3310  -29.1196 O   0  0  0  0  0  0  0  0  0  0  0  0
   21.9410  -41.7955  -29.9503 P   0  0  0  0  0  0  0  0  0  0  0  0
   23.0750  -40.9612  -29.4012 O   0  0  0  0  0  0  0  0  0  0  0  0
   21.5685  -41.4732  -31.3781 O   0  0  0  0  0  0  0  0  0  0  0  0
   22.0467  -43.2702  -29.6395 O   0  0  0  0  0  0  0  0  0  0  0  0
  1  2  2  0  0  0  0
  2  4  1  0  0  0  0
  2  3  1  0  0  0  0
  4  7  1  0  0  0  0
  5  9  1  0  0  0  0
  5  4  2  0  0  0  0
  6  5  1  0  0  0  0
  8  7  2  0  0  0  0
  9  8  1  0  0  0  0
 10 15  1  0  0  0  0
 10  9  1  6  0  0  0
 10 11  1  0  0  0  0
 11 14  1  1  0  0  0
 11 12  1  0  0  0  0
 12 13  1  1  0  0  0
 15 16  1  0  0  0  0
 16 12  1  0  0  0  0
 16 17  1  6  0  0  0
 17 18  1  0  0  0  0
 18 19  1  0  0  0  0
 19 21  1  0  0  0  0
 19 20  1  0  0  0  0
 22 19  2  0  0  0  0
M  END
>  <CHROM.1>
-176.71302061,-112.21280428,-63.35310623,-174.11205063,-178.80797531,18.21934398
-43.08358416,-28.76538391,-2.80387751,0.52031305,0.84697450

>  <Name>
lig.pdb

>  <RI>
0

>  <Rbt.Current_Directory>
/home/itssahil/PROJECTS/Mol_Feturizer/New_Systems/rnas/5btp

>  <Rbt.Executable>
rbdock ($Id: //depot/dev/client3/rdock/2013.1/src/exe/rbdock.cxx#4 $)

>  <Rbt.Library>
libRbt.so (2013.1, Build901 2013/11/27)

>  <Rbt.Parameter_File>
/export/apps/rDock/src/rDock_2013.1_src/data/scripts/dock_solv.prm

>  <Rbt.Receptor>
prm/blind_docking_60.prm

>  <SCORE>
-19.2298

>  <SCORE.INTER>
-18.9434

>  <SCORE.INTER.CONST>
1

>  <SCORE.INTER.POLAR>
0

>  <SCORE.INTER.ROT>
5

>  <SCORE.INTER.SOLV>
17.5613

>  <SCORE.INTER.VDW>
-25.416

>  <SCORE.INTER.norm>
-0.861063

>  <SCORE.INTRA>
-0.286456

>  <SCORE.INTRA.DIHEDRAL>
-1.54248

>  <SCORE.INTRA.DIHEDRAL.0>
4.21161

>  <SCORE.INTRA.POLAR>
0

>  <SCORE.INTRA.POLAR.0>
0

>  <SCORE.INTRA.REPUL>
0

>  <SCORE.INTRA.REPUL.0>
0

>  <SCORE.INTRA.SOLV>
1.10659

>  <SCORE.INTRA.SOLV.lig_0>
-41.4168

>  <SCORE.INTRA.VDW>
-0.0685119

>  <SCORE.INTRA.VDW.0>
-1.62533

>  <SCORE.INTRA.norm>
-0.0130207

>  <SCORE.RESTR>
0

>  <SCORE.RESTR.CAVITY>
0

>  <SCORE.RESTR.norm>
0

>  <SCORE.SYSTEM>
0

>  <SCORE.SYSTEM.CONST>
0

>  <SCORE.SYSTEM.DIHEDRAL>
0

>  <SCORE.SYSTEM.SOLV>
0

>  <SCORE.SYSTEM.norm>
0

>  <SCORE.heavy>
22

>  <SCORE.norm>
-0.874083

>  <RMSD>
17.279

$$$$
lig.pdb
 OpenBabel11021811523D
libRbt.so/2013.1/901 2013/11/27
 22 23  0  0  0  0  0  0  0  0999 V2000
   14.7818  -47.6167  -30.0246 O   0  0  0  0  0  0  0  0  0  0  0  0
   15.3714  -46.5557  -30.1580 C   0  0  0  0  0  0  0  0  0  0  0  0
   15.9324  -46.2040  -31.3149 N   0  0  0  0  0  0  0  0  0  0  0  0
   15.4856  -45.6282  -28.9970 C   0  0  0  0  0  0  0  0  0  0  0  0
   16.1397  -44.3114  -29.0515 C   0  0  0  0  0  0  0  0  0  0  0  0
   16.7674  -43.7317  -30.2318 N   0  0  0  0  0  0  0  0  0  0  0  0
   15.0603  -45.7170  -27.7174 N   0  0  0  0  0  0  0  0  0  0  0  0
   15.4230  -44.5697  -27.0642 C   0  0  0  0  0  0  0  0  0  0  0  0
   16.0804  -43.7110  -27.8738 N   0  0  0  0  0  0  0  0  0  0  0  0
   16.6211  -42.3767  -27.5241 C   0  0  1  0  0  0  0  0  0  0  0  0
   17.7406  -42.5060  -26.5044 C   0  0  1  0  0  0  0  0  0  0  0  0
   18.6564  -41.3629  -26.8598 C   0  0  2  0  0  0  0  0  0  0  0  0
   18.1907  -40.1680  -26.2293 O   0  0  0  0  0  0  0  0  0  0  0  0
   17.2471  -42.3464  -25.1737 O   0  0  0  0  0  0  0  0  0  0  0  0
   17.1857  -41.7303  -28.6710 O   0  0  0  0  0  0  0  0  0  0  0  0
   18.4880  -41.2286  -28.3608 C   0  0  2  0  0  0  0  0  0  0  0  0
   19.5528  -42.0423  -29.0800 C   0  0  0  0  0  0  0  0  0  0  0  0
   20.8292  -41.4827  -28.7753 O   0  0  0  0  0  0  0  0  0  0  0  0
   22.1788  -42.0473  -29.4504 P   0  0  0  0  0  0  0  0  0  0  0  0
   22.1534  -43.5357  -29.1904 O   0  0  0  0  0  0  0  0  0  0  0  0
   23.2677  -41.3068  -28.7108 O   0  0  0  0  0  0  0  0  0  0  0  0
   22.0282  -41.6674  -30.9049 O   0  0  0  0  0  0  0  0  0  0  0  0
  1  2  2  0  0  0  0
  2  4  1  0  0  0  0
  2  3  1  0  0  0  0
  4  7  1  0  0  0  0
  5  9  1  0  0  0  0
  5  4  2  0  0  0  0
  6  5  1  0  0  0  0
  8  7  2  0  0  0  0
  9  8  1  0  0  0  0
 10 15  1  0  0  0  0
 10  9  1  6  0  0  0
 10 11  1  0  0  0  0
 11 14  1  1  0  0  0
 11 12  1  0  0  0  0
 12 13  1  1  0  0  0
 15 16  1  0  0  0  0
 16 12  1  0  0  0  0
 16 17  1  6  0  0  0
 17 18  1  0  0  0  0
 18 19  1  0  0  0  0
 19 21  1  0  0  0  0
 19 20  1  0  0  0  0
 22 19  2  0  0  0  0
M  END
>  <CHROM.1>
-178.27739568,-114.86460249,-64.45837384,-176.07948751,-52.62393686,18.30218849
-43.13752427,-28.58593315,-2.76591246,0.42664478,0.81868420

>  <Name>
lig.pdb

>  <RI>
0

>  <Rbt.Current_Directory>
/home/itssahil/PROJECTS/Mol_Feturizer/New_Systems/rnas/5btp

>  <Rbt.Executable>
rbdock ($Id: //depot/dev/client3/rdock/2013.1/src/exe/rbdock.cxx#4 $)

>  <Rbt.Library>
libRbt.so (2013.1, Build901 2013/11/27)

>  <Rbt.Parameter_File>
/export/apps/rDock/src/rDock_2013.1_src/data/scripts/dock_solv.prm

>  <Rbt.Receptor>
prm/blind_docking_100.prm

>  <SCORE>
-19.575

>  <SCORE.INTER>
-19.2451

>  <SCORE.INTER.CONST>
1

>  <SCORE.INTER.POLAR>
0

>  <SCORE.INTER.ROT>
5

>  <SCORE.INTER.SOLV>
16.9479

>  <SCORE.INTER.VDW>
-25.4127

>  <SCORE.INTER.norm>
-0.874779

>  <SCORE.INTRA>
-0.329883

>  <SCORE.INTRA.DIHEDRAL>
-1.54396

>  <SCORE.INTRA.DIHEDRAL.0>
4.21161

>  <SCORE.INTRA.POLAR>
0

>  <SCORE.INTRA.POLAR.0>
0

>  <SCORE.INTRA.REPUL>
0

>  <SCORE.INTRA.REPUL.0>
0

>  <SCORE.INTRA.SOLV>
1.06373

>  <SCORE.INTRA.SOLV.lig_0>
-41.4168

>  <SCORE.INTRA.VDW>
-0.089766

>  <SCORE.INTRA.VDW.0>
-1.62533

>  <SCORE.INTRA.norm>
-0.0149947

>  <SCORE.RESTR>
0

>  <SCORE.RESTR.CAVITY>
0

>  <SCORE.RESTR.norm>
0

>  <SCORE.SYSTEM>
0

>  <SCORE.SYSTEM.CONST>
0

>  <SCORE.SYSTEM.DIHEDRAL>
0

>  <SCORE.SYSTEM.SOLV>
0

>  <SCORE.SYSTEM.norm>
0

>  <SCORE.heavy>
22

>  <SCORE.norm>
-0.889774

>  <RMSD>
17.280

$$$$
lig.pdb
 OpenBabel11021811523D
libRbt.so/2013.1/901 2013/11/27
 22 23  0  0  0  0  0  0  0  0999 V2000
   16.9359  -46.5251  -31.0401 O   0  0  0  0  0  0  0  0  0  0  0  0
   16.0900  -46.7037  -30.1778 C   0  0  0  0  0  0  0  0  0  0  0  0
   15.2943  -47.7731  -30.1844 N   0  0  0  0  0  0  0  0  0  0  0  0
   15.9246  -45.6963  -29.0919 C   0  0  0  0  0  0  0  0  0  0  0  0
   16.6294  -44.4056  -29.0467 C   0  0  0  0  0  0  0  0  0  0  0  0
   17.5833  -43.9322  -30.0413 N   0  0  0  0  0  0  0  0  0  0  0  0
   15.1608  -45.6784  -27.9772 N   0  0  0  0  0  0  0  0  0  0  0  0
   15.3837  -44.4963  -27.3234 C   0  0  0  0  0  0  0  0  0  0  0  0
   16.2774  -43.7183  -27.9720 N   0  0  0  0  0  0  0  0  0  0  0  0
   16.7632  -42.3771  -27.5718 C   0  0  1  0  0  0  0  0  0  0  0  0
   17.7622  -42.4905  -26.4320 C   0  0  1  0  0  0  0  0  0  0  0  0
   18.7017  -41.3403  -26.6892 C   0  0  2  0  0  0  0  0  0  0  0  0
   18.1573  -40.1470  -26.1222 O   0  0  0  0  0  0  0  0  0  0  0  0
   17.1208  -42.3292  -25.1662 O   0  0  0  0  0  0  0  0  0  0  0  0
   17.4472  -41.7309  -28.6519 O   0  0  0  0  0  0  0  0  0  0  0  0
   18.7018  -41.2151  -28.2004 C   0  0  2  0  0  0  0  0  0  0  0  0
   19.8481  -42.0219  -28.7905 C   0  0  0  0  0  0  0  0  0  0  0  0
   21.0692  -41.5510  -28.2228 O   0  0  0  0  0  0  0  0  0  0  0  0
   22.4979  -42.1037  -28.7220 P   0  0  0  0  0  0  0  0  0  0  0  0
   22.2395  -43.5316  -29.1438 O   0  0  0  0  0  0  0  0  0  0  0  0
   23.3663  -41.9672  -27.4938 O   0  0  0  0  0  0  0  0  0  0  0  0
   22.8553  -41.1745  -29.8583 O   0  0  0  0  0  0  0  0  0  0  0  0
  1  2  2  0  0  0  0
  2  4  1  0  0  0  0
  2  3  1  0  0  0  0
  4  7  1  0  0  0  0
  5  9  1  0  0  0  0
  5  4  2  0  0  0  0
  6  5  1  0  0  0  0
  8  7  2  0  0  0  0
  9  8  1  0  0  0  0
 10 15  1  0  0  0  0
 10  9  1  6  0  0  0
 10 11  1  0  0  0  0
 11 14  1  1  0  0  0
 11 12  1  0  0  0  0
 12 13  1  1  0  0  0
 15 16  1  0  0  0  0
 16 12  1  0  0  0  0
 16 17  1  6  0  0  0
 17 18  1  0  0  0  0
 18 19  1  0  0  0  0
 19 21  1  0  0  0  0
 19 20  1  0  0  0  0
 22 19  2  0  0  0  0
M  END
>  <CHROM.1>
6.32775858,-104.26507554,-57.60612557,-174.71309654,-31.16565200,18.60987346
-43.17858206,-28.36862442,-2.64551131,0.32546993,0.72032614

>  <Name>
lig.pdb

>  <RI>
0

>  <Rbt.Current_Directory>
/home/itssahil/PROJECTS/Mol_Feturizer/New_Systems/rnas/5btp

>  <Rbt.Executable>
rbdock ($Id: //depot/dev/client3/rdock/2013.1/src/exe/rbdock.cxx#4 $)

>  <Rbt.Library>
libRbt.so (2013.1, Build901 2013/11/27)

>  <Rbt.Parameter_File>
/export/apps/rDock/src/rDock_2013.1_src/data/scripts/dock_solv.prm

>  <Rbt.Receptor>
prm/blind_docking_60.prm

>  <SCORE>
-19.7597

>  <SCORE.INTER>
-20.0197

>  <SCORE.INTER.CONST>
1

>  <SCORE.INTER.POLAR>
0

>  <SCORE.INTER.ROT>
5

>  <SCORE.INTER.SOLV>
20.3594

>  <SCORE.INTER.VDW>
-27.0663

>  <SCORE.INTER.norm>
-0.909988

>  <SCORE.INTRA>
0.259994

>  <SCORE.INTRA.DIHEDRAL>
-0.372951

>  <SCORE.INTRA.DIHEDRAL.0>
4.21161

>  <SCORE.INTRA.POLAR>
0

>  <SCORE.INTRA.POLAR.0>
0

>  <SCORE.INTRA.REPUL>
0

>  <SCORE.INTRA.REPUL.0>
0

>  <SCORE.INTRA.SOLV>
0.922894

>  <SCORE.INTRA.SOLV.lig_0>
-41.4168

>  <SCORE.INTRA.VDW>
-0.0149772

>  <SCORE.INTRA.VDW.0>
-1.62533

>  <SCORE.INTRA.norm>
0.0118179

>  <SCORE.RESTR>
0

>  <SCORE.RESTR.CAVITY>
0

>  <SCORE.RESTR.norm>
0

>  <SCORE.SYSTEM>
0

>  <SCORE.SYSTEM.CONST>
0

>  <SCORE.SYSTEM.DIHEDRAL>
0

>  <SCORE.SYSTEM.SOLV>
0

>  <SCORE.SYSTEM.norm>
0

>  <SCORE.heavy>
22

>  <SCORE.norm>
-0.89817

>  <RMSD>
17.290

$$$$
lig.pdb
 OpenBabel11021811523D
libRbt.so/2013.1/901 2013/11/27
 22 23  0  0  0  0  0  0  0  0999 V2000
   16.9384  -46.4891  -31.0643 O   0  0  0  0  0  0  0  0  0  0  0  0
   16.1024  -46.6756  -30.1941 C   0  0  0  0  0  0  0  0  0  0  0  0
   15.3031  -47.7424  -30.2044 N   0  0  0  0  0  0  0  0  0  0  0  0
   15.9532  -45.6812  -29.0941 C   0  0  0  0  0  0  0  0  0  0  0  0
   16.6581  -44.3907  -29.0445 C   0  0  0  0  0  0  0  0  0  0  0  0
   17.5964  -43.9050  -30.0481 N   0  0  0  0  0  0  0  0  0  0  0  0
   15.2066  -45.6769  -27.9677 N   0  0  0  0  0  0  0  0  0  0  0  0
   15.4390  -44.5024  -27.3035 C   0  0  0  0  0  0  0  0  0  0  0  0
   16.3223  -43.7162  -27.9566 N   0  0  0  0  0  0  0  0  0  0  0  0
   16.8136  -42.3796  -27.5481 C   0  0  1  0  0  0  0  0  0  0  0  0
   17.7912  -42.5020  -26.3909 C   0  0  1  0  0  0  0  0  0  0  0  0
   18.7460  -41.3608  -26.6316 C   0  0  2  0  0  0  0  0  0  0  0  0
   18.2029  -40.1621  -26.0745 O   0  0  0  0  0  0  0  0  0  0  0  0
   17.1291  -42.3341  -25.1366 O   0  0  0  0  0  0  0  0  0  0  0  0
   17.5227  -41.7403  -28.6161 O   0  0  0  0  0  0  0  0  0  0  0  0
   18.7739  -41.2362  -28.1426 C   0  0  2  0  0  0  0  0  0  0  0  0
   19.9228  -42.0540  -28.7122 C   0  0  0  0  0  0  0  0  0  0  0  0
   21.1340  -41.6180  -28.0975 O   0  0  0  0  0  0  0  0  0  0  0  0
   22.5737  -42.0882  -28.6470 P   0  0  0  0  0  0  0  0  0  0  0  0
   23.4930  -42.0136  -27.4499 O   0  0  0  0  0  0  0  0  0  0  0  0
   22.8764  -41.0754  -29.7257 O   0  0  0  0  0  0  0  0  0  0  0  0
   22.3167  -43.4904  -29.1472 O   0  0  0  0  0  0  0  0  0  0  0  0
  1  2  2  0  0  0  0
  2  4  1  0  0  0  0
  2  3  1  0  0  0  0
  4  7  1  0  0  0  0
  5  9  1  0  0  0  0
  5  4  2  0  0  0  0
  6  5  1  0  0  0  0
  8  7  2  0  0  0  0
  9  8  1  0  0  0  0
 10 15  1  0  0  0  0
 10  9  1  6  0  0  0
 10 11  1  0  0  0  0
 11 14  1  1  0  0  0
 11 12  1  0  0  0  0
 12 13  1  1  0  0  0
 15 16  1  0  0  0  0
 16 12  1  0  0  0  0
 16 17  1  6  0  0  0
 17 18  1  0  0  0  0
 18 19  1  0  0  0  0
 19 21  1  0  0  0  0
 19 20  1  0  0  0  0
 22 19  2  0  0  0  0
M  END
>  <CHROM.1>
6.61511665,-106.35876831,-56.12335683,-169.21430670,-153.59663187,18.65780928
-43.17458041,-28.33228762,-2.64614779,0.31898104,0.73306898

>  <Name>
lig.pdb

>  <RI>
0

>  <Rbt.Current_Directory>
/home/itssahil/PROJECTS/Mol_Feturizer/New_Systems/rnas/5btp

>  <Rbt.Executable>
rbdock ($Id: //depot/dev/client3/rdock/2013.1/src/exe/rbdock.cxx#4 $)

>  <Rbt.Library>
libRbt.so (2013.1, Build901 2013/11/27)

>  <Rbt.Parameter_File>
/export/apps/rDock/src/rDock_2013.1_src/data/scripts/dock_solv.prm

>  <Rbt.Receptor>
prm/blind_docking_60.prm

>  <SCORE>
-19.5354

>  <SCORE.INTER>
-20.1719

>  <SCORE.INTER.CONST>
1

>  <SCORE.INTER.POLAR>
0

>  <SCORE.INTER.ROT>
5

>  <SCORE.INTER.SOLV>
20.7244

>  <SCORE.INTER.VDW>
-27.2894

>  <SCORE.INTER.norm>
-0.916902

>  <SCORE.INTRA>
0.636474

>  <SCORE.INTRA.DIHEDRAL>
-0.0571173

>  <SCORE.INTRA.DIHEDRAL.0>
4.21161

>  <SCORE.INTRA.POLAR>
0

>  <SCORE.INTRA.POLAR.0>
0

>  <SCORE.INTRA.REPUL>
0

>  <SCORE.INTRA.REPUL.0>
0

>  <SCORE.INTRA.SOLV>
1.0376

>  <SCORE.INTRA.SOLV.lig_0>
-41.4168

>  <SCORE.INTRA.VDW>
0.146232

>  <SCORE.INTRA.VDW.0>
-1.62533

>  <SCORE.INTRA.norm>
0.0289306

>  <SCORE.RESTR>
0

>  <SCORE.RESTR.CAVITY>
0

>  <SCORE.RESTR.norm>
0

>  <SCORE.SYSTEM>
0

>  <SCORE.SYSTEM.CONST>
0

>  <SCORE.SYSTEM.DIHEDRAL>
0

>  <SCORE.SYSTEM.SOLV>
0

>  <SCORE.SYSTEM.norm>
0

>  <SCORE.heavy>
22

>  <SCORE.norm>
-0.887972

>  <RMSD>
17.296

$$$$
lig.pdb
 OpenBabel11021811523D
libRbt.so/2013.1/901 2013/11/27
 22 23  0  0  0  0  0  0  0  0999 V2000
   14.5864  -47.2380  -30.6257 O   0  0  0  0  0  0  0  0  0  0  0  0
   14.6512  -46.4587  -29.6879 C   0  0  0  0  0  0  0  0  0  0  0  0
   13.9806  -46.6653  -28.5546 N   0  0  0  0  0  0  0  0  0  0  0  0
   15.4884  -45.2317  -29.8095 C   0  0  0  0  0  0  0  0  0  0  0  0
   15.7207  -44.2769  -28.7144 C   0  0  0  0  0  0  0  0  0  0  0  0
   15.1695  -44.3877  -27.3701 N   0  0  0  0  0  0  0  0  0  0  0  0
   16.1987  -44.7139  -30.8360 N   0  0  0  0  0  0  0  0  0  0  0  0
   16.7982  -43.5612  -30.4045 C   0  0  0  0  0  0  0  0  0  0  0  0
   16.5096  -43.2919  -29.1126 N   0  0  0  0  0  0  0  0  0  0  0  0
   16.9764  -42.1406  -28.3055 C   0  0  1  0  0  0  0  0  0  0  0  0
   17.6607  -42.6218  -27.0366 C   0  0  1  0  0  0  0  0  0  0  0  0
   18.7120  -41.5684  -26.7981 C   0  0  2  0  0  0  0  0  0  0  0  0
   18.1309  -40.4691  -26.0938 O   0  0  0  0  0  0  0  0  0  0  0  0
   16.7457  -42.6619  -25.9407 O   0  0  0  0  0  0  0  0  0  0  0  0
   17.9438  -41.3644  -29.0222 O   0  0  0  0  0  0  0  0  0  0  0  0
   19.0851  -41.1183  -28.1972 C   0  0  2  0  0  0  0  0  0  0  0  0
   20.2811  -41.9126  -28.6990 C   0  0  0  0  0  0  0  0  0  0  0  0
   21.3734  -41.6929  -27.8081 O   0  0  0  0  0  0  0  0  0  0  0  0
   22.8559  -42.2254  -28.1464 P   0  0  0  0  0  0  0  0  0  0  0  0
   22.6555  -43.6191  -28.6949 O   0  0  0  0  0  0  0  0  0  0  0  0
   23.5505  -42.1802  -26.8060 O   0  0  0  0  0  0  0  0  0  0  0  0
   23.3645  -41.2259  -29.1587 O   0  0  0  0  0  0  0  0  0  0  0  0
  1  2  2  0  0  0  0
  2  4  1  0  0  0  0
  2  3  1  0  0  0  0
  4  7  1  0  0  0  0
  5  9  1  0  0  0  0
  5  4  2  0  0  0  0
  6  5  1  0  0  0  0
  8  7  2  0  0  0  0
  9  8  1  0  0  0  0
 10 15  1  0  0  0  0
 10  9  1  6  0  0  0
 10 11  1  0  0  0  0
 11 14  1  1  0  0  0
 11 12  1  0  0  0  0
 12 13  1  1  0  0  0
 15 16  1  0  0  0  0
 16 12  1  0  0  0  0
 16 17  1  6  0  0  0
 17 18  1  0  0  0  0
 18 19  1  0  0  0  0
 19 21  1  0  0  0  0
 19 20  1  0  0  0  0
 22 19  2  0  0  0  0
M  END
>  <CHROM.1>
-175.24084611,54.91865809,-59.65515316,-171.68669984,-42.66071929,18.49128300
-43.10477163,-28.39751503,-2.69453877,0.18483060,0.73130550

>  <Name>
lig.pdb

>  <RI>
0

>  <Rbt.Current_Directory>
/home/itssahil/PROJECTS/Mol_Feturizer/New_Systems/rnas/5btp

>  <Rbt.Executable>
rbdock ($Id: //depot/dev/client3/rdock/2013.1/src/exe/rbdock.cxx#4 $)

>  <Rbt.Library>
libRbt.so (2013.1, Build901 2013/11/27)

>  <Rbt.Parameter_File>
/export/apps/rDock/src/rDock_2013.1_src/data/scripts/dock_solv.prm

>  <Rbt.Receptor>
prm/blind_docking_60.prm

>  <SCORE>
-16.692

>  <SCORE.INTER>
-16.6515

>  <SCORE.INTER.CONST>
1

>  <SCORE.INTER.POLAR>
0

>  <SCORE.INTER.ROT>
5

>  <SCORE.INTER.SOLV>
18.4017

>  <SCORE.INTER.VDW>
-24.1682

>  <SCORE.INTER.norm>
-0.756887

>  <SCORE.INTRA>
-0.0404935

>  <SCORE.INTRA.DIHEDRAL>
-0.915271

>  <SCORE.INTRA.DIHEDRAL.0>
4.21161

>  <SCORE.INTRA.POLAR>
0

>  <SCORE.INTRA.POLAR.0>
0

>  <SCORE.INTRA.REPUL>
0

>  <SCORE.INTRA.REPUL.0>
0

>  <SCORE.INTRA.SOLV>
0.794275

>  <SCORE.INTRA.SOLV.lig_0>
-41.4168

>  <SCORE.INTRA.VDW>
0.0200044

>  <SCORE.INTRA.VDW.0>
-1.62533

>  <SCORE.INTRA.norm>
-0.00184062

>  <SCORE.RESTR>
0

>  <SCORE.RESTR.CAVITY>
0

>  <SCORE.RESTR.norm>
0

>  <SCORE.SYSTEM>
0

>  <SCORE.SYSTEM.CONST>
0

>  <SCORE.SYSTEM.DIHEDRAL>
0

>  <SCORE.SYSTEM.SOLV>
0

>  <SCORE.SYSTEM.norm>
0

>  <SCORE.heavy>
22

>  <SCORE.norm>
-0.758728

>  <RMSD>
17.297

$$$$
lig.pdb
 OpenBabel11021811523D
libRbt.so/2013.1/901 2013/11/27
 22 23  0  0  0  0  0  0  0  0999 V2000
   15.3793  -47.6762  -30.1995 O   0  0  0  0  0  0  0  0  0  0  0  0
   16.0878  -46.6816  -30.1900 C   0  0  0  0  0  0  0  0  0  0  0  0
   17.0090  -46.4659  -31.1290 N   0  0  0  0  0  0  0  0  0  0  0  0
   15.9365  -45.6830  -29.0941 C   0  0  0  0  0  0  0  0  0  0  0  0
   16.6412  -44.3922  -29.0482 C   0  0  0  0  0  0  0  0  0  0  0  0
   17.5812  -43.9103  -30.0519 N   0  0  0  0  0  0  0  0  0  0  0  0
   15.1880  -45.6744  -27.9690 N   0  0  0  0  0  0  0  0  0  0  0  0
   15.4190  -44.4974  -27.3089 C   0  0  0  0  0  0  0  0  0  0  0  0
   16.3035  -43.7137  -27.9634 N   0  0  0  0  0  0  0  0  0  0  0  0
   16.7939  -42.3754  -27.5592 C   0  0  1  0  0  0  0  0  0  0  0  0
   17.7859  -42.4950  -26.4140 C   0  0  1  0  0  0  0  0  0  0  0  0
   18.7328  -41.3494  -26.6648 C   0  0  2  0  0  0  0  0  0  0  0  0
   18.1913  -40.1538  -26.0997 O   0  0  0  0  0  0  0  0  0  0  0  0
   17.1382  -42.3315  -25.1516 O   0  0  0  0  0  0  0  0  0  0  0  0
   17.4873  -41.7317  -28.6348 O   0  0  0  0  0  0  0  0  0  0  0  0
   18.7420  -41.2228  -28.1759 C   0  0  2  0  0  0  0  0  0  0  0  0
   19.8873  -42.0350  -28.7603 C   0  0  0  0  0  0  0  0  0  0  0  0
   21.1093  -41.5586  -28.1991 O   0  0  0  0  0  0  0  0  0  0  0  0
   22.5380  -42.1011  -28.7095 P   0  0  0  0  0  0  0  0  0  0  0  0
   22.2821  -43.5243  -29.1485 O   0  0  0  0  0  0  0  0  0  0  0  0
   23.4098  -41.9777  -27.4824 O   0  0  0  0  0  0  0  0  0  0  0  0
   22.8894  -41.1567  -29.8352 O   0  0  0  0  0  0  0  0  0  0  0  0
  1  2  2  0  0  0  0
  2  4  1  0  0  0  0
  2  3  1  0  0  0  0
  4  7  1  0  0  0  0
  5  9  1  0  0  0  0
  5  4  2  0  0  0  0
  6  5  1  0  0  0  0
  8  7  2  0  0  0  0
  9  8  1  0  0  0  0
 10 15  1  0  0  0  0
 10  9  1  6  0  0  0
 10 11  1  0  0  0  0
 11 14  1  1  0  0  0
 11 12  1  0  0  0  0
 12 13  1  1  0  0  0
 15 16  1  0  0  0  0
 16 12  1  0  0  0  0
 16 17  1  6  0  0  0
 17 18  1  0  0  0  0
 18 19  1  0  0  0  0
 19 21  1  0  0  0  0
 19 20  1  0  0  0  0
 22 19  2  0  0  0  0
M  END
>  <CHROM.1>
-173.94515088,-105.47966710,-58.38984826,-173.86373020,-30.56673105,18.63412519
-43.17710840,-28.35690711,-2.64900014,0.32517018,0.72721752

>  <Name>
lig.pdb

>  <RI>
0

>  <Rbt.Current_Directory>
/home/itssahil/PROJECTS/Mol_Feturizer/New_Systems/rnas/5btp

>  <Rbt.Executable>
rbdock ($Id: //depot/dev/client3/rdock/2013.1/src/exe/rbdock.cxx#4 $)

>  <Rbt.Library>
libRbt.so (2013.1, Build901 2013/11/27)

>  <Rbt.Parameter_File>
/export/apps/rDock/src/rDock_2013.1_src/data/scripts/dock_solv.prm

>  <Rbt.Receptor>
prm/blind_docking_60.prm

>  <SCORE>
-19.8962

>  <SCORE.INTER>
-20.3425

>  <SCORE.INTER.CONST>
1

>  <SCORE.INTER.POLAR>
0

>  <SCORE.INTER.ROT>
5

>  <SCORE.INTER.SOLV>
19.7836

>  <SCORE.INTER.VDW>
-27.0895

>  <SCORE.INTER.norm>
-0.92466

>  <SCORE.INTRA>
0.446341

>  <SCORE.INTRA.DIHEDRAL>
-0.31009

>  <SCORE.INTRA.DIHEDRAL.0>
4.21161

>  <SCORE.INTRA.POLAR>
0

>  <SCORE.INTRA.POLAR.0>
0

>  <SCORE.INTRA.REPUL>
0

>  <SCORE.INTRA.REPUL.0>
0

>  <SCORE.INTRA.SOLV>
1.13591

>  <SCORE.INTRA.SOLV.lig_0>
-41.4168

>  <SCORE.INTRA.VDW>
0.0334338

>  <SCORE.INTRA.VDW.0>
-1.62533

>  <SCORE.INTRA.norm>
0.0202882

>  <SCORE.RESTR>
0

>  <SCORE.RESTR.CAVITY>
0

>  <SCORE.RESTR.norm>
0

>  <SCORE.SYSTEM>
0

>  <SCORE.SYSTEM.CONST>
0

>  <SCORE.SYSTEM.DIHEDRAL>
0

>  <SCORE.SYSTEM.SOLV>
0

>  <SCORE.SYSTEM.norm>
0

>  <SCORE.heavy>
22

>  <SCORE.norm>
-0.904371

>  <RMSD>
17.308

$$$$
lig.pdb
 OpenBabel11021811523D
libRbt.so/2013.1/901 2013/11/27
 22 23  0  0  0  0  0  0  0  0999 V2000
   15.3509  -47.6663  -30.1830 O   0  0  0  0  0  0  0  0  0  0  0  0
   16.0469  -46.6631  -30.1929 C   0  0  0  0  0  0  0  0  0  0  0  0
   16.9369  -46.4345  -31.1585 N   0  0  0  0  0  0  0  0  0  0  0  0
   15.9161  -45.6679  -29.0911 C   0  0  0  0  0  0  0  0  0  0  0  0
   16.6131  -44.3726  -29.0594 C   0  0  0  0  0  0  0  0  0  0  0  0
   17.5250  -43.8822  -30.0848 N   0  0  0  0  0  0  0  0  0  0  0  0
   15.1954  -45.6669  -27.9480 N   0  0  0  0  0  0  0  0  0  0  0  0
   15.4348  -44.4899  -27.2909 C   0  0  0  0  0  0  0  0  0  0  0  0
   16.2977  -43.6988  -27.9651 N   0  0  0  0  0  0  0  0  0  0  0  0
   16.7891  -42.3582  -27.5698 C   0  0  1  0  0  0  0  0  0  0  0  0
   17.7592  -42.4684  -26.4050 C   0  0  1  0  0  0  0  0  0  0  0  0
   18.7177  -41.3320  -26.6537 C   0  0  2  0  0  0  0  0  0  0  0  0
   18.1735  -40.1257  -26.1145 O   0  0  0  0  0  0  0  0  0  0  0  0
   17.0896  -42.2841  -25.1570 O   0  0  0  0  0  0  0  0  0  0  0  0
   17.5060  -41.7332  -28.6409 O   0  0  0  0  0  0  0  0  0  0  0  0
   18.7553  -41.2258  -28.1658 C   0  0  2  0  0  0  0  0  0  0  0  0
   19.9060  -42.0526  -28.7183 C   0  0  0  0  0  0  0  0  0  0  0  0
   21.1108  -41.6286  -28.0829 O   0  0  0  0  0  0  0  0  0  0  0  0
   22.5543  -42.1254  -28.5982 P   0  0  0  0  0  0  0  0  0  0  0  0
   22.9574  -41.1252  -29.6568 O   0  0  0  0  0  0  0  0  0  0  0  0
   22.2704  -43.5105  -29.1294 O   0  0  0  0  0  0  0  0  0  0  0  0
   23.4042  -42.0864  -27.3499 O   0  0  0  0  0  0  0  0  0  0  0  0
  1  2  2  0  0  0  0
  2  4  1  0  0  0  0
  2  3  1  0  0  0  0
  4  7  1  0  0  0  0
  5  9  1  0  0  0  0
  5  4  2  0  0  0  0
  6  5  1  0  0  0  0
  8  7  2  0  0  0  0
  9  8  1  0  0  0  0
 10 15  1  0  0  0  0
 10  9  1  6  0  0  0
 10 11  1  0  0  0  0
 11 14  1  1  0  0  0
 11 12  1  0  0  0  0
 12 13  1  1  0  0  0
 15 16  1  0  0  0  0
 16 12  1  0  0  0  0
 16 17  1  6  0  0  0
 17 18  1  0  0  0  0
 18 19  1  0  0  0  0
 19 21  1  0  0  0  0
 19 20  1  0  0  0  0
 22 19  2  0  0  0  0
M  END
>  <CHROM.1>
-174.39451594,-108.19915088,-55.04712188,-170.00169150,88.24155791,18.62595876
-43.17451889,-28.32428444,-2.64143800,0.30650051,0.72484739

>  <Name>
lig.pdb

>  <RI>
0

>  <Rbt.Current_Directory>
/home/itssahil/PROJECTS/Mol_Feturizer/New_Systems/rnas/5btp

>  <Rbt.Executable>
rbdock ($Id: //depot/dev/client3/rdock/2013.1/src/exe/rbdock.cxx#4 $)

>  <Rbt.Library>
libRbt.so (2013.1, Build901 2013/11/27)

>  <Rbt.Parameter_File>
/export/apps/rDock/src/rDock_2013.1_src/data/scripts/dock_solv.prm

>  <Rbt.Receptor>
prm/blind_docking_100.prm

>  <SCORE>
-19.7723

>  <SCORE.INTER>
-20.5119

>  <SCORE.INTER.CONST>
1

>  <SCORE.INTER.POLAR>
0

>  <SCORE.INTER.ROT>
5

>  <SCORE.INTER.SOLV>
19.9128

>  <SCORE.INTER.VDW>
-27.2455

>  <SCORE.INTER.norm>
-0.932357

>  <SCORE.INTRA>
0.739554

>  <SCORE.INTRA.DIHEDRAL>
-0.0287186

>  <SCORE.INTRA.DIHEDRAL.0>
4.21161

>  <SCORE.INTRA.POLAR>
0

>  <SCORE.INTRA.POLAR.0>
0

>  <SCORE.INTRA.REPUL>
0

>  <SCORE.INTRA.REPUL.0>
0

>  <SCORE.INTRA.SOLV>
0.986736

>  <SCORE.INTRA.SOLV.lig_0>
-41.4168

>  <SCORE.INTRA.VDW>
0.260545

>  <SCORE.INTRA.VDW.0>
-1.62533

>  <SCORE.INTRA.norm>
0.0336161

>  <SCORE.RESTR>
0

>  <SCORE.RESTR.CAVITY>
0

>  <SCORE.RESTR.norm>
0

>  <SCORE.SYSTEM>
0

>  <SCORE.SYSTEM.CONST>
0

>  <SCORE.SYSTEM.DIHEDRAL>
0

>  <SCORE.SYSTEM.SOLV>
0

>  <SCORE.SYSTEM.norm>
0

>  <SCORE.heavy>
22

>  <SCORE.norm>
-0.898741

>  <RMSD>
17.317

$$$$
lig.pdb
 OpenBabel11021811523D
libRbt.so/2013.1/901 2013/11/27
 22 23  0  0  0  0  0  0  0  0999 V2000
   13.1384  -45.4820  -30.6121 O   0  0  0  0  0  0  0  0  0  0  0  0
   14.0834  -45.3266  -31.3696 C   0  0  0  0  0  0  0  0  0  0  0  0
   14.1786  -45.9921  -32.5207 N   0  0  0  0  0  0  0  0  0  0  0  0
   15.1734  -44.3801  -30.9989 C   0  0  0  0  0  0  0  0  0  0  0  0
   15.2354  -43.6484  -29.7239 C   0  0  0  0  0  0  0  0  0  0  0  0
   14.2506  -43.7374  -28.6537 N   0  0  0  0  0  0  0  0  0  0  0  0
   16.2900  -43.9808  -31.6470 N   0  0  0  0  0  0  0  0  0  0  0  0
   16.9582  -43.0952  -30.8446 C   0  0  0  0  0  0  0  0  0  0  0  0
   16.3190  -42.8905  -29.6723 N   0  0  0  0  0  0  0  0  0  0  0  0
   16.7382  -42.0076  -28.5589 C   0  0  1  0  0  0  0  0  0  0  0  0
   17.3080  -42.8283  -27.4136 C   0  0  1  0  0  0  0  0  0  0  0  0
   18.3545  -41.9143  -26.8295 C   0  0  2  0  0  0  0  0  0  0  0  0
   17.7371  -41.0148  -25.9065 O   0  0  0  0  0  0  0  0  0  0  0  0
   16.3059  -43.1172  -26.4378 O   0  0  0  0  0  0  0  0  0  0  0  0
   17.7744  -41.1093  -28.9728 O   0  0  0  0  0  0  0  0  0  0  0  0
   18.8486  -41.1302  -28.0297 C   0  0  2  0  0  0  0  0  0  0  0  0
   20.0675  -41.8117  -28.6320 C   0  0  0  0  0  0  0  0  0  0  0  0
   21.1276  -41.7632  -27.6786 O   0  0  0  0  0  0  0  0  0  0  0  0
   22.6267  -42.2111  -28.0630 P   0  0  0  0  0  0  0  0  0  0  0  0
   23.3953  -42.1619  -26.7629 O   0  0  0  0  0  0  0  0  0  0  0  0
   23.0476  -41.1693  -29.0723 O   0  0  0  0  0  0  0  0  0  0  0  0
   22.4435  -43.6015  -28.6249 O   0  0  0  0  0  0  0  0  0  0  0  0
  1  2  2  0  0  0  0
  2  4  1  0  0  0  0
  2  3  1  0  0  0  0
  4  7  1  0  0  0  0
  5  9  1  0  0  0  0
  5  4  2  0  0  0  0
  6  5  1  0  0  0  0
  8  7  2  0  0  0  0
  9  8  1  0  0  0  0
 10 15  1  0  0  0  0
 10  9  1  6  0  0  0
 10 11  1  0  0  0  0
 11 14  1  1  0  0  0
 11 12  1  0  0  0  0
 12 13  1  1  0  0  0
 15 16  1  0  0  0  0
 16 12  1  0  0  0  0
 16 17  1  6  0  0  0
 17 18  1  0  0  0  0
 18 19  1  0  0  0  0
 19 21  1  0  0  0  0
 19 20  1  0  0  0  0
 22 19  2  0  0  0  0
M  END
>  <CHROM.1>
3.32639358,75.74879149,-64.94528536,-171.37629341,-173.82326323,18.17188109
-42.84844273,-28.84175909,-2.68702503,0.11516329,1.04792768

>  <Name>
lig.pdb

>  <RI>
0

>  <Rbt.Current_Directory>
/home/itssahil/PROJECTS/Mol_Feturizer/New_Systems/rnas/5btp

>  <Rbt.Executable>
rbdock ($Id: //depot/dev/client3/rdock/2013.1/src/exe/rbdock.cxx#4 $)

>  <Rbt.Library>
libRbt.so (2013.1, Build901 2013/11/27)

>  <Rbt.Parameter_File>
/export/apps/rDock/src/rDock_2013.1_src/data/scripts/dock_solv.prm

>  <Rbt.Receptor>
prm/blind_docking_60.prm

>  <SCORE>
-16.4412

>  <SCORE.INTER>
-15.6678

>  <SCORE.INTER.CONST>
1

>  <SCORE.INTER.POLAR>
0

>  <SCORE.INTER.ROT>
5

>  <SCORE.INTER.SOLV>
17.6344

>  <SCORE.INTER.VDW>
-23.2567

>  <SCORE.INTER.norm>
-0.712174

>  <SCORE.INTRA>
-0.773359

>  <SCORE.INTRA.DIHEDRAL>
-1.23219

>  <SCORE.INTRA.DIHEDRAL.0>
4.21161

>  <SCORE.INTRA.POLAR>
0

>  <SCORE.INTRA.POLAR.0>
0

>  <SCORE.INTRA.REPUL>
0

>  <SCORE.INTRA.REPUL.0>
0

>  <SCORE.INTRA.SOLV>
0.340021

>  <SCORE.INTRA.SOLV.lig_0>
-41.4168

>  <SCORE.INTRA.VDW>
-0.327273

>  <SCORE.INTRA.VDW.0>
-1.62533

>  <SCORE.INTRA.norm>
-0.0351527

>  <SCORE.RESTR>
0

>  <SCORE.RESTR.CAVITY>
0

>  <SCORE.RESTR.norm>
0

>  <SCORE.SYSTEM>
0

>  <SCORE.SYSTEM.CONST>
0

>  <SCORE.SYSTEM.DIHEDRAL>
0

>  <SCORE.SYSTEM.SOLV>
0

>  <SCORE.SYSTEM.norm>
0

>  <SCORE.heavy>
22

>  <SCORE.norm>
-0.747327

>  <RMSD>
17.319

$$$$
lig.pdb
 OpenBabel11021811523D
libRbt.so/2013.1/901 2013/11/27
 22 23  0  0  0  0  0  0  0  0999 V2000
   15.3448  -47.6358  -30.2186 O   0  0  0  0  0  0  0  0  0  0  0  0
   16.0262  -46.6226  -30.2355 C   0  0  0  0  0  0  0  0  0  0  0  0
   16.8698  -46.3595  -31.2335 N   0  0  0  0  0  0  0  0  0  0  0  0
   15.9305  -45.6546  -29.1064 C   0  0  0  0  0  0  0  0  0  0  0  0
   16.6150  -44.3526  -29.0728 C   0  0  0  0  0  0  0  0  0  0  0  0
   17.4789  -43.8286  -30.1228 N   0  0  0  0  0  0  0  0  0  0  0  0
   15.2573  -45.6879  -27.9350 N   0  0  0  0  0  0  0  0  0  0  0  0
   15.5114  -44.5236  -27.2610 C   0  0  0  0  0  0  0  0  0  0  0  0
   16.3378  -43.7076  -27.9511 N   0  0  0  0  0  0  0  0  0  0  0  0
   16.8312  -42.3710  -27.5449 C   0  0  1  0  0  0  0  0  0  0  0  0
   17.8108  -42.4932  -26.3893 C   0  0  1  0  0  0  0  0  0  0  0  0
   18.7663  -41.3533  -26.6330 C   0  0  2  0  0  0  0  0  0  0  0  0
   18.2255  -40.1535  -26.0762 O   0  0  0  0  0  0  0  0  0  0  0  0
   17.1512  -42.3234  -25.1340 O   0  0  0  0  0  0  0  0  0  0  0  0
   17.5390  -41.7336  -28.6148 O   0  0  0  0  0  0  0  0  0  0  0  0
   18.7916  -41.2303  -28.1442 C   0  0  2  0  0  0  0  0  0  0  0  0
   19.9385  -42.0499  -28.7151 C   0  0  0  0  0  0  0  0  0  0  0  0
   21.1503  -41.6201  -28.0970 O   0  0  0  0  0  0  0  0  0  0  0  0
   22.5894  -42.0899  -28.6487 P   0  0  0  0  0  0  0  0  0  0  0  0
   22.9586  -41.0678  -29.6987 O   0  0  0  0  0  0  0  0  0  0  0  0
   22.3126  -43.4699  -29.1964 O   0  0  0  0  0  0  0  0  0  0  0  0
   23.4635  -42.0596  -27.4169 O   0  0  0  0  0  0  0  0  0  0  0  0
  1  2  2  0  0  0  0
  2  4  1  0  0  0  0
  2  3  1  0  0  0  0
  4  7  1  0  0  0  0
  5  9  1  0  0  0  0
  5  4  2  0  0  0  0
  6  5  1  0  0  0  0
  8  7  2  0  0  0  0
  9  8  1  0  0  0  0
 10 15  1  0  0  0  0
 10  9  1  6  0  0  0
 10 11  1  0  0  0  0
 11 14  1  1  0  0  0
 11 12  1  0  0  0  0
 12 13  1  1  0  0  0
 15 16  1  0  0  0  0
 16 12  1  0  0  0  0
 16 17  1  6  0  0  0
 17 18  1  0  0  0  0
 18 19  1  0  0  0  0
 19 21  1  0  0  0  0
 19 20  1  0  0  0  0
 22 19  2  0  0  0  0
M  END
>  <CHROM.1>
-174.64048052,-110.28192704,-55.76875620,-169.03911975,88.25281991,18.65375846
-43.16337626,-28.33736780,-2.65143727,0.32034958,0.74975266

>  <Name>
lig.pdb

>  <RI>
0

>  <Rbt.Current_Directory>
/home/itssahil/PROJECTS/Mol_Feturizer/New_Systems/rnas/5btp

>  <Rbt.Executable>
rbdock ($Id: //depot/dev/client3/rdock/2013.1/src/exe/rbdock.cxx#4 $)

>  <Rbt.Library>
libRbt.so (2013.1, Build901 2013/11/27)

>  <Rbt.Parameter_File>
/export/apps/rDock/src/rDock_2013.1_src/data/scripts/dock_solv.prm

>  <Rbt.Receptor>
prm/blind_docking_100.prm

>  <SCORE>
-19.7723

>  <SCORE.INTER>
-20.5682

>  <SCORE.INTER.CONST>
1

>  <SCORE.INTER.POLAR>
0

>  <SCORE.INTER.ROT>
5

>  <SCORE.INTER.SOLV>
19.693

>  <SCORE.INTER.VDW>
-27.2098

>  <SCORE.INTER.norm>
-0.934918

>  <SCORE.INTRA>
0.795868

>  <SCORE.INTRA.DIHEDRAL>
0.0350207

>  <SCORE.INTRA.DIHEDRAL.0>
4.21161

>  <SCORE.INTRA.POLAR>
0

>  <SCORE.INTRA.POLAR.0>
0

>  <SCORE.INTRA.REPUL>
0

>  <SCORE.INTRA.REPUL.0>
0

>  <SCORE.INTRA.SOLV>
0.954481

>  <SCORE.INTRA.SOLV.lig_0>
-41.4168

>  <SCORE.INTRA.VDW>
0.301117

>  <SCORE.INTRA.VDW.0>
-1.62533

>  <SCORE.INTRA.norm>
0.0361758

>  <SCORE.RESTR>
0

>  <SCORE.RESTR.CAVITY>
0

>  <SCORE.RESTR.norm>
0

>  <SCORE.SYSTEM>
0

>  <SCORE.SYSTEM.CONST>
0

>  <SCORE.SYSTEM.DIHEDRAL>
0

>  <SCORE.SYSTEM.SOLV>
0

>  <SCORE.SYSTEM.norm>
0

>  <SCORE.heavy>
22

>  <SCORE.norm>
-0.898743

>  <RMSD>
17.320

$$$$
lig.pdb
 OpenBabel11021811523D
libRbt.so/2013.1/901 2013/11/27
 22 23  0  0  0  0  0  0  0  0999 V2000
   16.1842  -46.1766  -31.2674 O   0  0  0  0  0  0  0  0  0  0  0  0
   15.5817  -46.4634  -30.2447 C   0  0  0  0  0  0  0  0  0  0  0  0
   14.8466  -47.5712  -30.1492 N   0  0  0  0  0  0  0  0  0  0  0  0
   15.6514  -45.5483  -29.0704 C   0  0  0  0  0  0  0  0  0  0  0  0
   16.3085  -44.2319  -29.0854 C   0  0  0  0  0  0  0  0  0  0  0  0
   16.9823  -43.6406  -30.2341 N   0  0  0  0  0  0  0  0  0  0  0  0
   15.1764  -45.6500  -27.8093 N   0  0  0  0  0  0  0  0  0  0  0  0
   15.5144  -44.5101  -27.1304 C   0  0  0  0  0  0  0  0  0  0  0  0
   16.2038  -43.6439  -27.9046 N   0  0  0  0  0  0  0  0  0  0  0  0
   16.7317  -42.3141  -27.5199 C   0  0  1  0  0  0  0  0  0  0  0  0
   17.7141  -42.4438  -26.3675 C   0  0  1  0  0  0  0  0  0  0  0  0
   18.6957  -41.3311  -26.6322 C   0  0  2  0  0  0  0  0  0  0  0  0
   18.1872  -40.1107  -26.0899 O   0  0  0  0  0  0  0  0  0  0  0  0
   17.0653  -42.2401  -25.1115 O   0  0  0  0  0  0  0  0  0  0  0  0
   17.4492  -41.7094  -28.6023 O   0  0  0  0  0  0  0  0  0  0  0  0
   18.7161  -41.2302  -28.1450 C   0  0  2  0  0  0  0  0  0  0  0  0
   19.8398  -42.0855  -28.7097 C   0  0  0  0  0  0  0  0  0  0  0  0
   21.0696  -41.6530  -28.1303 O   0  0  0  0  0  0  0  0  0  0  0  0
   22.4904  -42.1697  -28.6874 P   0  0  0  0  0  0  0  0  0  0  0  0
   22.8646  -41.1891  -29.7745 O   0  0  0  0  0  0  0  0  0  0  0  0
   22.1773  -43.5602  -29.1871 O   0  0  0  0  0  0  0  0  0  0  0  0
   23.3833  -42.1190  -27.4698 O   0  0  0  0  0  0  0  0  0  0  0  0
  1  2  2  0  0  0  0
  2  4  1  0  0  0  0
  2  3  1  0  0  0  0
  4  7  1  0  0  0  0
  5  9  1  0  0  0  0
  5  4  2  0  0  0  0
  6  5  1  0  0  0  0
  8  7  2  0  0  0  0
  9  8  1  0  0  0  0
 10 15  1  0  0  0  0
 10  9  1  6  0  0  0
 10 11  1  0  0  0  0
 11 14  1  1  0  0  0
 11 12  1  0  0  0  0
 12 13  1  1  0  0  0
 15 16  1  0  0  0  0
 16 12  1  0  0  0  0
 16 17  1  6  0  0  0
 17 18  1  0  0  0  0
 18 19  1  0  0  0  0
 19 21  1  0  0  0  0
 19 20  1  0  0  0  0
 22 19  2  0  0  0  0
M  END
>  <CHROM.1>
5.87087032,-120.23400551,-57.29318243,-169.43641286,88.80138103,18.48481030
-43.12856683,-28.34187255,-2.68977403,0.31173248,0.79054417

>  <Name>
lig.pdb

>  <RI>
0

>  <Rbt.Current_Directory>
/home/itssahil/PROJECTS/Mol_Feturizer/New_Systems/rnas/5btp

>  <Rbt.Executable>
rbdock ($Id: //depot/dev/client3/rdock/2013.1/src/exe/rbdock.cxx#4 $)

>  <Rbt.Library>
libRbt.so (2013.1, Build901 2013/11/27)

>  <Rbt.Parameter_File>
/export/apps/rDock/src/rDock_2013.1_src/data/scripts/dock_solv.prm

>  <Rbt.Receptor>
prm/blind_docking_60.prm

>  <SCORE>
-19.6533

>  <SCORE.INTER>
-20.3686

>  <SCORE.INTER.CONST>
1

>  <SCORE.INTER.POLAR>
0

>  <SCORE.INTER.ROT>
5

>  <SCORE.INTER.SOLV>
19.0189

>  <SCORE.INTER.VDW>
-26.852

>  <SCORE.INTER.norm>
-0.925844

>  <SCORE.INTRA>
0.715288

>  <SCORE.INTRA.DIHEDRAL>
0.0167349

>  <SCORE.INTRA.DIHEDRAL.0>
4.21161

>  <SCORE.INTRA.POLAR>
0

>  <SCORE.INTRA.POLAR.0>
0

>  <SCORE.INTRA.REPUL>
0

>  <SCORE.INTRA.REPUL.0>
0

>  <SCORE.INTRA.SOLV>
0.580666

>  <SCORE.INTRA.SOLV.lig_0>
-41.4168

>  <SCORE.INTRA.VDW>
0.416588

>  <SCORE.INTRA.VDW.0>
-1.62533

>  <SCORE.INTRA.norm>
0.0325131

>  <SCORE.RESTR>
0

>  <SCORE.RESTR.CAVITY>
0

>  <SCORE.RESTR.norm>
0

>  <SCORE.SYSTEM>
0

>  <SCORE.SYSTEM.CONST>
0

>  <SCORE.SYSTEM.DIHEDRAL>
0

>  <SCORE.SYSTEM.SOLV>
0

>  <SCORE.SYSTEM.norm>
0

>  <SCORE.heavy>
22

>  <SCORE.norm>
-0.893331

>  <RMSD>
17.334

$$$$
lig.pdb
 OpenBabel11021811523D
libRbt.so/2013.1/901 2013/11/27
 22 23  0  0  0  0  0  0  0  0999 V2000
   15.2924  -47.6115  -30.1409 O   0  0  0  0  0  0  0  0  0  0  0  0
   15.9681  -46.5951  -30.1770 C   0  0  0  0  0  0  0  0  0  0  0  0
   16.8130  -46.3479  -31.1779 N   0  0  0  0  0  0  0  0  0  0  0  0
   15.8638  -45.6044  -29.0684 C   0  0  0  0  0  0  0  0  0  0  0  0
   16.5847  -44.3222  -29.0343 C   0  0  0  0  0  0  0  0  0  0  0  0
   17.4975  -43.8423  -30.0637 N   0  0  0  0  0  0  0  0  0  0  0  0
   15.1519  -45.5972  -27.9197 N   0  0  0  0  0  0  0  0  0  0  0  0
   15.4177  -44.4287  -27.2576 C   0  0  0  0  0  0  0  0  0  0  0  0
   16.2898  -43.6494  -27.9336 N   0  0  0  0  0  0  0  0  0  0  0  0
   16.8086  -42.3204  -27.5341 C   0  0  1  0  0  0  0  0  0  0  0  0
   17.7841  -42.4552  -26.3765 C   0  0  1  0  0  0  0  0  0  0  0  0
   18.7619  -41.3355  -26.6251 C   0  0  2  0  0  0  0  0  0  0  0  0
   18.2438  -40.1223  -26.0757 O   0  0  0  0  0  0  0  0  0  0  0  0
   17.1261  -42.2656  -25.1231 O   0  0  0  0  0  0  0  0  0  0  0  0
   17.5302  -41.7029  -28.6065 O   0  0  0  0  0  0  0  0  0  0  0  0
   18.7917  -41.2214  -28.1368 C   0  0  2  0  0  0  0  0  0  0  0  0
   19.9232  -42.0663  -28.7014 C   0  0  0  0  0  0  0  0  0  0  0  0
   21.1434  -41.6517  -28.0895 O   0  0  0  0  0  0  0  0  0  0  0  0
   22.5719  -42.1721  -28.6226 P   0  0  0  0  0  0  0  0  0  0  0  0
   23.0004  -41.1526  -29.6525 O   0  0  0  0  0  0  0  0  0  0  0  0
   22.2497  -43.5328  -29.1934 O   0  0  0  0  0  0  0  0  0  0  0  0
   23.4247  -42.1927  -27.3757 O   0  0  0  0  0  0  0  0  0  0  0  0
  1  2  2  0  0  0  0
  2  4  1  0  0  0  0
  2  3  1  0  0  0  0
  4  7  1  0  0  0  0
  5  9  1  0  0  0  0
  5  4  2  0  0  0  0
  6  5  1  0  0  0  0
  8  7  2  0  0  0  0
  9  8  1  0  0  0  0
 10 15  1  0  0  0  0
 10  9  1  6  0  0  0
 10 11  1  0  0  0  0
 11 14  1  1  0  0  0
 11 12  1  0  0  0  0
 12 13  1  1  0  0  0
 15 16  1  0  0  0  0
 16 12  1  0  0  0  0
 16 17  1  6  0  0  0
 17 18  1  0  0  0  0
 18 19  1  0  0  0  0
 19 21  1  0  0  0  0
 19 20  1  0  0  0  0
 22 19  2  0  0  0  0
M  END
>  <CHROM.1>
-177.28829271,-108.26766121,-56.09292968,-170.12537311,90.76113334,18.62536246
-43.16148842,-28.31204492,-2.66259036,0.30385389,0.73810547

>  <Name>
lig.pdb

>  <RI>
0

>  <Rbt.Current_Directory>
/home/itssahil/PROJECTS/Mol_Feturizer/New_Systems/rnas/5btp

>  <Rbt.Executable>
rbdock ($Id: //depot/dev/client3/rdock/2013.1/src/exe/rbdock.cxx#4 $)

>  <Rbt.Library>
libRbt.so (2013.1, Build901 2013/11/27)

>  <Rbt.Parameter_File>
/export/apps/rDock/src/rDock_2013.1_src/data/scripts/dock_solv.prm

>  <Rbt.Receptor>
prm/blind_docking_60.prm

>  <SCORE>
-19.759

>  <SCORE.INTER>
-20.5481

>  <SCORE.INTER.CONST>
1

>  <SCORE.INTER.POLAR>
0

>  <SCORE.INTER.ROT>
5

>  <SCORE.INTER.SOLV>
19.5604

>  <SCORE.INTER.VDW>
-27.1522

>  <SCORE.INTER.norm>
-0.934005

>  <SCORE.INTRA>
0.789157

>  <SCORE.INTRA.DIHEDRAL>
0.00206708

>  <SCORE.INTRA.DIHEDRAL.0>
4.21161

>  <SCORE.INTRA.POLAR>
0

>  <SCORE.INTRA.POLAR.0>
0

>  <SCORE.INTRA.REPUL>
0

>  <SCORE.INTRA.REPUL.0>
0

>  <SCORE.INTRA.SOLV>
0.985675

>  <SCORE.INTRA.SOLV.lig_0>
-41.4168

>  <SCORE.INTRA.VDW>
0.295286

>  <SCORE.INTRA.VDW.0>
-1.62533

>  <SCORE.INTRA.norm>
0.0358708

>  <SCORE.RESTR>
0

>  <SCORE.RESTR.CAVITY>
0

>  <SCORE.RESTR.norm>
0

>  <SCORE.SYSTEM>
0

>  <SCORE.SYSTEM.CONST>
0

>  <SCORE.SYSTEM.DIHEDRAL>
0

>  <SCORE.SYSTEM.SOLV>
0

>  <SCORE.SYSTEM.norm>
0

>  <SCORE.heavy>
22

>  <SCORE.norm>
-0.898134

>  <RMSD>
17.335

$$$$
lig.pdb
 OpenBabel11021811523D
libRbt.so/2013.1/901 2013/11/27
 22 23  0  0  0  0  0  0  0  0999 V2000
   16.2592  -46.1871  -31.2720 O   0  0  0  0  0  0  0  0  0  0  0  0
   15.6428  -46.4721  -30.2572 C   0  0  0  0  0  0  0  0  0  0  0  0
   14.9006  -47.5761  -30.1722 N   0  0  0  0  0  0  0  0  0  0  0  0
   15.7030  -45.5590  -29.0809 C   0  0  0  0  0  0  0  0  0  0  0  0
   16.3482  -44.2367  -29.0923 C   0  0  0  0  0  0  0  0  0  0  0  0
   17.0179  -43.6369  -30.2391 N   0  0  0  0  0  0  0  0  0  0  0  0
   15.2277  -45.6676  -27.8205 N   0  0  0  0  0  0  0  0  0  0  0  0
   15.5547  -44.5262  -27.1388 C   0  0  0  0  0  0  0  0  0  0  0  0
   16.2371  -43.6522  -27.9103 N   0  0  0  0  0  0  0  0  0  0  0  0
   16.7526  -42.3185  -27.5223 C   0  0  1  0  0  0  0  0  0  0  0  0
   17.7345  -42.4418  -26.3687 C   0  0  1  0  0  0  0  0  0  0  0  0
   18.7066  -41.3199  -26.6298 C   0  0  2  0  0  0  0  0  0  0  0  0
   18.1864  -40.1051  -26.0858 O   0  0  0  0  0  0  0  0  0  0  0  0
   17.0821  -42.2465  -25.1133 O   0  0  0  0  0  0  0  0  0  0  0  0
   17.4662  -41.7053  -28.6024 O   0  0  0  0  0  0  0  0  0  0  0  0
   18.7282  -41.2157  -28.1424 C   0  0  2  0  0  0  0  0  0  0  0  0
   19.8602  -42.0599  -28.7072 C   0  0  0  0  0  0  0  0  0  0  0  0
   21.0921  -41.5744  -28.1762 O   0  0  0  0  0  0  0  0  0  0  0  0
   22.5111  -42.1350  -28.6939 P   0  0  0  0  0  0  0  0  0  0  0  0
   22.2310  -43.5487  -29.1486 O   0  0  0  0  0  0  0  0  0  0  0  0
   23.3857  -42.0400  -27.4662 O   0  0  0  0  0  0  0  0  0  0  0  0
   22.8774  -41.1841  -29.8092 O   0  0  0  0  0  0  0  0  0  0  0  0
  1  2  2  0  0  0  0
  2  4  1  0  0  0  0
  2  3  1  0  0  0  0
  4  7  1  0  0  0  0
  5  9  1  0  0  0  0
  5  4  2  0  0  0  0
  6  5  1  0  0  0  0
  8  7  2  0  0  0  0
  9  8  1  0  0  0  0
 10 15  1  0  0  0  0
 10  9  1  6  0  0  0
 10 11  1  0  0  0  0
 11 14  1  1  0  0  0
 11 12  1  0  0  0  0
 12 13  1  1  0  0  0
 15 16  1  0  0  0  0
 16 12  1  0  0  0  0
 16 17  1  6  0  0  0
 17 18  1  0  0  0  0
 18 19  1  0  0  0  0
 19 21  1  0  0  0  0
 19 20  1  0  0  0  0
 22 19  2  0  0  0  0
M  END
>  <CHROM.1>
6.91186889,-120.25629966,-60.13821160,-173.03744543,-28.21620003,18.51433854
-43.11788535,-28.34762970,-2.68418642,0.31707367,0.78925341

>  <Name>
lig.pdb

>  <RI>
0

>  <Rbt.Current_Directory>
/home/itssahil/PROJECTS/Mol_Feturizer/New_Systems/rnas/5btp

>  <Rbt.Executable>
rbdock ($Id: //depot/dev/client3/rdock/2013.1/src/exe/rbdock.cxx#4 $)

>  <Rbt.Library>
libRbt.so (2013.1, Build901 2013/11/27)

>  <Rbt.Parameter_File>
/export/apps/rDock/src/rDock_2013.1_src/data/scripts/dock_solv.prm

>  <Rbt.Receptor>
prm/blind_docking_100.prm

>  <SCORE>
-19.7395

>  <SCORE.INTER>
-20.3191

>  <SCORE.INTER.CONST>
1

>  <SCORE.INTER.POLAR>
0

>  <SCORE.INTER.ROT>
5

>  <SCORE.INTER.SOLV>
19.1104

>  <SCORE.INTER.VDW>
-26.8495

>  <SCORE.INTER.norm>
-0.923597

>  <SCORE.INTRA>
0.579674

>  <SCORE.INTRA.DIHEDRAL>
-0.074021

>  <SCORE.INTRA.DIHEDRAL.0>
4.21161

>  <SCORE.INTRA.POLAR>
0

>  <SCORE.INTRA.POLAR.0>
0

>  <SCORE.INTRA.REPUL>
0

>  <SCORE.INTRA.REPUL.0>
0

>  <SCORE.INTRA.SOLV>
0.690775

>  <SCORE.INTRA.SOLV.lig_0>
-41.4168

>  <SCORE.INTRA.VDW>
0.271297

>  <SCORE.INTRA.VDW.0>
-1.62533

>  <SCORE.INTRA.norm>
0.0263488

>  <SCORE.RESTR>
0

>  <SCORE.RESTR.CAVITY>
0

>  <SCORE.RESTR.norm>
0

>  <SCORE.SYSTEM>
0

>  <SCORE.SYSTEM.CONST>
0

>  <SCORE.SYSTEM.DIHEDRAL>
0

>  <SCORE.SYSTEM.SOLV>
0

>  <SCORE.SYSTEM.norm>
0

>  <SCORE.heavy>
22

>  <SCORE.norm>
-0.897248

>  <RMSD>
17.340

$$$$
lig.pdb
 OpenBabel11021811523D
libRbt.so/2013.1/901 2013/11/27
 22 23  0  0  0  0  0  0  0  0999 V2000
   16.7756  -46.4531  -30.9930 O   0  0  0  0  0  0  0  0  0  0  0  0
   15.9323  -46.5993  -30.1220 C   0  0  0  0  0  0  0  0  0  0  0  0
   15.0765  -47.6212  -30.1367 N   0  0  0  0  0  0  0  0  0  0  0  0
   15.8393  -45.6048  -29.0159 C   0  0  0  0  0  0  0  0  0  0  0  0
   16.5589  -44.3216  -28.9946 C   0  0  0  0  0  0  0  0  0  0  0  0
   17.4594  -43.8443  -30.0360 N   0  0  0  0  0  0  0  0  0  0  0  0
   15.1404  -45.5943  -27.8593 N   0  0  0  0  0  0  0  0  0  0  0  0
   15.4122  -44.4231  -27.2044 C   0  0  0  0  0  0  0  0  0  0  0  0
   16.2756  -43.6452  -27.8931 N   0  0  0  0  0  0  0  0  0  0  0  0
   16.7972  -42.3141  -27.5043 C   0  0  1  0  0  0  0  0  0  0  0  0
   17.7843  -42.4433  -26.3559 C   0  0  1  0  0  0  0  0  0  0  0  0
   18.7586  -41.3238  -26.6189 C   0  0  2  0  0  0  0  0  0  0  0  0
   18.2449  -40.1087  -26.0694 O   0  0  0  0  0  0  0  0  0  0  0  0
   17.1387  -42.2490  -25.0968 O   0  0  0  0  0  0  0  0  0  0  0  0
   17.5074  -41.7004  -28.5864 O   0  0  0  0  0  0  0  0  0  0  0  0
   18.7732  -41.2159  -28.1313 C   0  0  2  0  0  0  0  0  0  0  0  0
   19.8998  -42.0622  -28.7037 C   0  0  0  0  0  0  0  0  0  0  0  0
   21.1285  -41.6281  -28.1234 O   0  0  0  0  0  0  0  0  0  0  0  0
   22.5508  -42.1330  -28.6876 P   0  0  0  0  0  0  0  0  0  0  0  0
   22.9049  -41.1571  -29.7857 O   0  0  0  0  0  0  0  0  0  0  0  0
   22.2500  -43.5311  -29.1733 O   0  0  0  0  0  0  0  0  0  0  0  0
   23.4527  -42.0618  -27.4777 O   0  0  0  0  0  0  0  0  0  0  0  0
  1  2  2  0  0  0  0
  2  4  1  0  0  0  0
  2  3  1  0  0  0  0
  4  7  1  0  0  0  0
  5  9  1  0  0  0  0
  5  4  2  0  0  0  0
  6  5  1  0  0  0  0
  8  7  2  0  0  0  0
  9  8  1  0  0  0  0
 10 15  1  0  0  0  0
 10  9  1  6  0  0  0
 10 11  1  0  0  0  0
 11 14  1  1  0  0  0
 11 12  1  0  0  0  0
 12 13  1  1  0  0  0
 15 16  1  0  0  0  0
 16 12  1  0  0  0  0
 16 17  1  6  0  0  0
 17 18  1  0  0  0  0
 18 19  1  0  0  0  0
 19 21  1  0  0  0  0
 19 20  1  0  0  0  0
 22 19  2  0  0  0  0
M  END
>  <CHROM.1>
10.01549048,-108.35128806,-57.10693641,-169.35419506,87.73409974,18.60882355
-43.14491140,-28.30950107,-2.67373346,0.31762827,0.74117125

>  <Name>
lig.pdb

>  <RI>
0

>  <Rbt.Current_Directory>
/home/itssahil/PROJECTS/Mol_Feturizer/New_Systems/rnas/5btp

>  <Rbt.Executable>
rbdock ($Id: //depot/dev/client3/rdock/2013.1/src/exe/rbdock.cxx#4 $)

>  <Rbt.Library>
libRbt.so (2013.1, Build901 2013/11/27)

>  <Rbt.Parameter_File>
/export/apps/rDock/src/rDock_2013.1_src/data/scripts/dock_solv.prm

>  <Rbt.Receptor>
prm/blind_docking_60.prm

>  <SCORE>
-19.6836

>  <SCORE.INTER>
-20.336

>  <SCORE.INTER.CONST>
1

>  <SCORE.INTER.POLAR>
0

>  <SCORE.INTER.ROT>
5

>  <SCORE.INTER.SOLV>
20.3236

>  <SCORE.INTER.VDW>
-27.2652

>  <SCORE.INTER.norm>
-0.924364

>  <SCORE.INTRA>
0.652393

>  <SCORE.INTRA.DIHEDRAL>
0.183149

>  <SCORE.INTRA.DIHEDRAL.0>
4.21161

>  <SCORE.INTRA.POLAR>
0

>  <SCORE.INTRA.POLAR.0>
0

>  <SCORE.INTRA.REPUL>
0

>  <SCORE.INTRA.REPUL.0>
0

>  <SCORE.INTRA.SOLV>
0.731548

>  <SCORE.INTRA.SOLV.lig_0>
-41.4168

>  <SCORE.INTRA.VDW>
0.195045

>  <SCORE.INTRA.VDW.0>
-1.62533

>  <SCORE.INTRA.norm>
0.0296542

>  <SCORE.RESTR>
0

>  <SCORE.RESTR.CAVITY>
0

>  <SCORE.RESTR.norm>
0

>  <SCORE.SYSTEM>
0

>  <SCORE.SYSTEM.CONST>
0

>  <SCORE.SYSTEM.DIHEDRAL>
0

>  <SCORE.SYSTEM.SOLV>
0

>  <SCORE.SYSTEM.norm>
0

>  <SCORE.heavy>
22

>  <SCORE.norm>
-0.894709

>  <RMSD>
17.342

$$$$
lig.pdb
 OpenBabel11021811523D
libRbt.so/2013.1/901 2013/11/27
 22 23  0  0  0  0  0  0  0  0999 V2000
   16.4342  -45.6416  -33.1742 O   0  0  0  0  0  0  0  0  0  0  0  0
   17.1499  -45.1536  -32.3136 C   0  0  0  0  0  0  0  0  0  0  0  0
   18.4236  -45.5188  -32.1684 N   0  0  0  0  0  0  0  0  0  0  0  0
   16.5890  -44.1317  -31.3850 C   0  0  0  0  0  0  0  0  0  0  0  0
   17.3681  -43.4444  -30.3432 C   0  0  0  0  0  0  0  0  0  0  0  0
   18.7822  -43.6631  -30.0678 N   0  0  0  0  0  0  0  0  0  0  0  0
   15.3533  -43.5994  -31.2582 N   0  0  0  0  0  0  0  0  0  0  0  0
   15.3830  -42.6838  -30.2407 C   0  0  0  0  0  0  0  0  0  0  0  0
   16.6086  -42.5864  -29.6811 N   0  0  0  0  0  0  0  0  0  0  0  0
   17.0224  -41.7057  -28.5640 C   0  0  1  0  0  0  0  0  0  0  0  0
   17.1828  -42.5087  -27.2836 C   0  0  1  0  0  0  0  0  0  0  0  0
   18.2954  -41.7866  -26.5678 C   0  0  2  0  0  0  0  0  0  0  0  0
   17.7527  -40.6861  -25.8354 O   0  0  0  0  0  0  0  0  0  0  0  0
   15.9890  -42.4742  -26.5004 O   0  0  0  0  0  0  0  0  0  0  0  0
   18.2928  -41.0983  -28.8272 O   0  0  0  0  0  0  0  0  0  0  0  0
   19.1551  -41.2537  -27.6975 C   0  0  2  0  0  0  0  0  0  0  0  0
   20.2692  -42.2393  -28.0147 C   0  0  0  0  0  0  0  0  0  0  0  0
   21.2682  -41.5605  -28.7739 O   0  0  0  0  0  0  0  0  0  0  0  0
   22.6877  -42.2481  -29.1027 P   0  0  0  0  0  0  0  0  0  0  0  0
   23.4333  -41.2289  -29.9327 O   0  0  0  0  0  0  0  0  0  0  0  0
   22.2970  -43.4967  -29.8574 O   0  0  0  0  0  0  0  0  0  0  0  0
   23.2832  -42.4929  -27.7361 O   0  0  0  0  0  0  0  0  0  0  0  0
  1  2  2  0  0  0  0
  2  4  1  0  0  0  0
  2  3  1  0  0  0  0
  4  7  1  0  0  0  0
  5  9  1  0  0  0  0
  5  4  2  0  0  0  0
  6  5  1  0  0  0  0
  8  7  2  0  0  0  0
  9  8  1  0  0  0  0
 10 15  1  0  0  0  0
 10  9  1  6  0  0  0
 10 11  1  0  0  0  0
 11 14  1  1  0  0  0
 11 12  1  0  0  0  0
 12 13  1  6  0  0  0
 15 16  1  0  0  0  0
 16 12  1  0  0  0  0
 16 17  1  6  0  0  0
 17 18  1  0  0  0  0
 18 19  1  0  0  0  0
 19 21  1  0  0  0  0
 19 20  1  0  0  0  0
 22 19  2  0  0  0  0
M  END
>  <CHROM.1>
-177.80521641,-75.05286841,-163.01908594,171.22502703,178.98249328,18.90885584
-42.71825810,-29.27911760,-2.66490278,0.07417171,1.00685257

>  <Name>
lig.pdb

>  <RI>
0

>  <Rbt.Current_Directory>
/home/itssahil/PROJECTS/Mol_Feturizer/New_Systems/rnas/5btp

>  <Rbt.Executable>
rbdock ($Id: //depot/dev/client3/rdock/2013.1/src/exe/rbdock.cxx#4 $)

>  <Rbt.Library>
libRbt.so (2013.1, Build901 2013/11/27)

>  <Rbt.Parameter_File>
/export/apps/rDock/src/rDock_2013.1_src/data/scripts/dock_solv.prm

>  <Rbt.Receptor>
prm/blind_docking_80.prm

>  <SCORE>
-18.8812

>  <SCORE.INTER>
-18.6993

>  <SCORE.INTER.CONST>
1

>  <SCORE.INTER.POLAR>
0

>  <SCORE.INTER.ROT>
5

>  <SCORE.INTER.SOLV>
21.8243

>  <SCORE.INTER.VDW>
-26.6743

>  <SCORE.INTER.norm>
-0.849967

>  <SCORE.INTRA>
-0.18188

>  <SCORE.INTRA.DIHEDRAL>
-0.449768

>  <SCORE.INTRA.DIHEDRAL.0>
4.21161

>  <SCORE.INTRA.POLAR>
0

>  <SCORE.INTRA.POLAR.0>
0

>  <SCORE.INTRA.REPUL>
0

>  <SCORE.INTRA.REPUL.0>
0

>  <SCORE.INTRA.SOLV>
1.57188

>  <SCORE.INTRA.SOLV.lig_0>
-41.4168

>  <SCORE.INTRA.VDW>
-0.742938

>  <SCORE.INTRA.VDW.0>
-1.62533

>  <SCORE.INTRA.norm>
-0.00826729

>  <SCORE.RESTR>
0

>  <SCORE.RESTR.CAVITY>
0

>  <SCORE.RESTR.norm>
0

>  <SCORE.SYSTEM>
0

>  <SCORE.SYSTEM.CONST>
0

>  <SCORE.SYSTEM.DIHEDRAL>
0

>  <SCORE.SYSTEM.SOLV>
0

>  <SCORE.SYSTEM.norm>
0

>  <SCORE.heavy>
22

>  <SCORE.norm>
-0.858234

>  <RMSD>
17.368

$$$$
lig.pdb
 OpenBabel11021811523D
libRbt.so/2013.1/901 2013/11/27
 22 23  0  0  0  0  0  0  0  0999 V2000
   16.1303  -45.6409  -33.1192 O   0  0  0  0  0  0  0  0  0  0  0  0
   16.8749  -45.1465  -32.2872 C   0  0  0  0  0  0  0  0  0  0  0  0
   18.1485  -45.5226  -32.1718 N   0  0  0  0  0  0  0  0  0  0  0  0
   16.3507  -44.1038  -31.3602 C   0  0  0  0  0  0  0  0  0  0  0  0
   17.1483  -43.4576  -30.3061 C   0  0  0  0  0  0  0  0  0  0  0  0
   18.5474  -43.7425  -30.0153 N   0  0  0  0  0  0  0  0  0  0  0  0
   15.1395  -43.5156  -31.2453 N   0  0  0  0  0  0  0  0  0  0  0  0
   15.1992  -42.6067  -30.2231 C   0  0  0  0  0  0  0  0  0  0  0  0
   16.4213  -42.5684  -29.6488 N   0  0  0  0  0  0  0  0  0  0  0  0
   16.8620  -41.7124  -28.5227 C   0  0  1  0  0  0  0  0  0  0  0  0
   17.1709  -42.5592  -27.2990 C   0  0  1  0  0  0  0  0  0  0  0  0
   18.2864  -41.7962  -26.6318 C   0  0  2  0  0  0  0  0  0  0  0  0
   17.7319  -40.7688  -25.8077 O   0  0  0  0  0  0  0  0  0  0  0  0
   16.0408  -42.6406  -26.4296 O   0  0  0  0  0  0  0  0  0  0  0  0
   18.0670  -41.0094  -28.8479 O   0  0  0  0  0  0  0  0  0  0  0  0
   19.0213  -41.1564  -27.7936 C   0  0  2  0  0  0  0  0  0  0  0  0
   20.1687  -42.0491  -28.2402 C   0  0  0  0  0  0  0  0  0  0  0  0
   20.8456  -41.4065  -29.3191 O   0  0  0  0  0  0  0  0  0  0  0  0
   22.1760  -42.0374  -29.9733 P   0  0  0  0  0  0  0  0  0  0  0  0
   22.2418  -41.4539  -31.3657 O   0  0  0  0  0  0  0  0  0  0  0  0
   21.9054  -43.5228  -29.9353 O   0  0  0  0  0  0  0  0  0  0  0  0
   23.2763  -41.5689  -29.0501 O   0  0  0  0  0  0  0  0  0  0  0  0
  1  2  2  0  0  0  0
  2  4  1  0  0  0  0
  2  3  1  0  0  0  0
  4  7  1  0  0  0  0
  5  9  1  0  0  0  0
  5  4  2  0  0  0  0
  6  5  1  0  0  0  0
  8  7  2  0  0  0  0
  9  8  1  0  0  0  0
 10 15  1  0  0  0  0
 10  9  1  6  0  0  0
 10 11  1  0  0  0  0
 11 14  1  1  0  0  0
 11 12  1  0  0  0  0
 12 13  1  1  0  0  0
 15 16  1  0  0  0  0
 16 12  1  0  0  0  0
 16 17  1  6  0  0  0
 17 18  1  0  0  0  0
 18 19  1  0  0  0  0
 19 21  1  0  0  0  0
 19 20  1  0  0  0  0
 22 19  2  0  0  0  0
M  END
>  <CHROM.1>
178.89167146,-66.56565330,-179.19033068,176.04394527,156.65586091,18.64986846
-42.65223667,-29.52465063,-2.73855276,0.19260272,1.03213221

>  <Name>
lig.pdb

>  <RI>
0

>  <Rbt.Current_Directory>
/home/itssahil/PROJECTS/Mol_Feturizer/New_Systems/rnas/5btp

>  <Rbt.Executable>
rbdock ($Id: //depot/dev/client3/rdock/2013.1/src/exe/rbdock.cxx#4 $)

>  <Rbt.Library>
libRbt.so (2013.1, Build901 2013/11/27)

>  <Rbt.Parameter_File>
/export/apps/rDock/src/rDock_2013.1_src/data/scripts/dock_solv.prm

>  <Rbt.Receptor>
prm/blind_docking_60.prm

>  <SCORE>
-17.781

>  <SCORE.INTER>
-17.4596

>  <SCORE.INTER.CONST>
1

>  <SCORE.INTER.POLAR>
0

>  <SCORE.INTER.ROT>
5

>  <SCORE.INTER.SOLV>
21.4998

>  <SCORE.INTER.VDW>
-25.7397

>  <SCORE.INTER.norm>
-0.793618

>  <SCORE.INTRA>
-0.321431

>  <SCORE.INTRA.DIHEDRAL>
-0.926461

>  <SCORE.INTRA.DIHEDRAL.0>
4.21161

>  <SCORE.INTRA.POLAR>
0

>  <SCORE.INTRA.POLAR.0>
0

>  <SCORE.INTRA.REPUL>
0

>  <SCORE.INTRA.REPUL.0>
0

>  <SCORE.INTRA.SOLV>
1.81248

>  <SCORE.INTRA.SOLV.lig_0>
-41.4168

>  <SCORE.INTRA.VDW>
-0.764441

>  <SCORE.INTRA.VDW.0>
-1.62533

>  <SCORE.INTRA.norm>
-0.0146105

>  <SCORE.RESTR>
0

>  <SCORE.RESTR.CAVITY>
0

>  <SCORE.RESTR.norm>
0

>  <SCORE.SYSTEM>
0

>  <SCORE.SYSTEM.CONST>
0

>  <SCORE.SYSTEM.DIHEDRAL>
0

>  <SCORE.SYSTEM.SOLV>
0

>  <SCORE.SYSTEM.norm>
0

>  <SCORE.heavy>
22

>  <SCORE.norm>
-0.808228

>  <RMSD>
17.383

$$$$
lig.pdb
 OpenBabel11021811523D
libRbt.so/2013.1/901 2013/11/27
 22 23  0  0  0  0  0  0  0  0999 V2000
   22.1030  -42.3654  -25.7058 O   0  0  0  0  0  0  0  0  0  0  0  0
   22.3881  -42.4335  -26.8912 C   0  0  0  0  0  0  0  0  0  0  0  0
   23.6407  -42.2852  -27.3225 N   0  0  0  0  0  0  0  0  0  0  0  0
   21.3109  -42.6733  -27.8928 C   0  0  0  0  0  0  0  0  0  0  0  0
   19.8751  -42.7015  -27.5725 C   0  0  0  0  0  0  0  0  0  0  0  0
   19.3046  -42.5065  -26.2459 N   0  0  0  0  0  0  0  0  0  0  0  0
   21.3417  -42.8951  -29.2255 N   0  0  0  0  0  0  0  0  0  0  0  0
   20.0538  -43.0442  -29.6655 C   0  0  0  0  0  0  0  0  0  0  0  0
   19.1577  -42.9266  -28.6615 N   0  0  0  0  0  0  0  0  0  0  0  0
   17.6823  -43.0252  -28.7536 C   0  0  1  0  0  0  0  0  0  0  0  0
   17.1424  -42.0172  -29.7547 C   0  0  1  0  0  0  0  0  0  0  0  0
   15.9402  -42.7213  -30.3298 C   0  0  2  0  0  0  0  0  0  0  0  0
   14.8134  -42.5101  -29.4766 O   0  0  0  0  0  0  0  0  0  0  0  0
   16.7423  -40.8095  -29.1057 O   0  0  0  0  0  0  0  0  0  0  0  0
   17.2781  -44.3187  -29.2178 O   0  0  0  0  0  0  0  0  0  0  0  0
   16.3311  -44.1856  -30.2805 C   0  0  2  0  0  0  0  0  0  0  0  0
   16.9575  -44.6029  -31.6020 C   0  0  0  0  0  0  0  0  0  0  0  0
   17.0552  -46.0260  -31.6244 O   0  0  0  0  0  0  0  0  0  0  0  0
   17.6572  -46.8086  -32.8976 P   0  0  0  0  0  0  0  0  0  0  0  0
   19.1039  -46.3785  -32.9731 O   0  0  0  0  0  0  0  0  0  0  0  0
   16.8023  -46.3133  -34.0400 O   0  0  0  0  0  0  0  0  0  0  0  0
   17.4587  -48.2630  -32.5406 O   0  0  0  0  0  0  0  0  0  0  0  0
  1  2  2  0  0  0  0
  2  4  1  0  0  0  0
  2  3  1  0  0  0  0
  4  7  1  0  0  0  0
  5  9  1  0  0  0  0
  5  4  2  0  0  0  0
  6  5  1  0  0  0  0
  8  7  2  0  0  0  0
  9  8  1  0  0  0  0
 10 15  1  0  0  0  0
 10  9  1  6  0  0  0
 10 11  1  0  0  0  0
 11 14  1  1  0  0  0
 11 12  1  0  0  0  0
 12 13  1  1  0  0  0
 15 16  1  0  0  0  0
 16 12  1  0  0  0  0
 16 17  1  6  0  0  0
 17 18  1  0  0  0  0
 18 19  1  0  0  0  0
 19 21  1  0  0  0  0
 19 20  1  0  0  0  0
 22 19  2  0  0  0  0
M  END
>  <CHROM.1>
6.58353279,123.31989817,-168.09508687,179.05563399,64.62778583,18.51691769
-43.95222158,-29.87838365,-1.00700892,0.26892596,-2.37471035

>  <Name>
lig.pdb

>  <RI>
0

>  <Rbt.Current_Directory>
/home/itssahil/PROJECTS/Mol_Feturizer/New_Systems/rnas/5btp

>  <Rbt.Executable>
rbdock ($Id: //depot/dev/client3/rdock/2013.1/src/exe/rbdock.cxx#4 $)

>  <Rbt.Library>
libRbt.so (2013.1, Build901 2013/11/27)

>  <Rbt.Parameter_File>
/export/apps/rDock/src/rDock_2013.1_src/data/scripts/dock_solv.prm

>  <Rbt.Receptor>
prm/blind_docking_100.prm

>  <SCORE>
-14.4296

>  <SCORE.INTER>
-13.3026

>  <SCORE.INTER.CONST>
1

>  <SCORE.INTER.POLAR>
0

>  <SCORE.INTER.ROT>
5

>  <SCORE.INTER.SOLV>
20.702

>  <SCORE.INTER.VDW>
-22.7024

>  <SCORE.INTER.norm>
-0.604663

>  <SCORE.INTRA>
-1.27211

>  <SCORE.INTRA.DIHEDRAL>
-1.11975

>  <SCORE.INTRA.DIHEDRAL.0>
4.21161

>  <SCORE.INTRA.POLAR>
0

>  <SCORE.INTRA.POLAR.0>
0

>  <SCORE.INTRA.REPUL>
0

>  <SCORE.INTRA.REPUL.0>
0

>  <SCORE.INTRA.SOLV>
-0.612347

>  <SCORE.INTRA.SOLV.lig_0>
-41.4168

>  <SCORE.INTRA.VDW>
-0.406066

>  <SCORE.INTRA.VDW.0>
-1.62533

>  <SCORE.INTRA.norm>
-0.0578233

>  <SCORE.RESTR>
0.14515

>  <SCORE.RESTR.CAVITY>
0.14515

>  <SCORE.RESTR.norm>
0.00659771

>  <SCORE.SYSTEM>
0

>  <SCORE.SYSTEM.CONST>
0

>  <SCORE.SYSTEM.DIHEDRAL>
0

>  <SCORE.SYSTEM.SOLV>
0

>  <SCORE.SYSTEM.norm>
0

>  <SCORE.heavy>
22

>  <SCORE.norm>
-0.655889

>  <RMSD>
17.400

$$$$
lig.pdb
 OpenBabel11021811523D
libRbt.so/2013.1/901 2013/11/27
 22 23  0  0  0  0  0  0  0  0999 V2000
   16.1191  -45.5893  -33.1384 O   0  0  0  0  0  0  0  0  0  0  0  0
   16.8680  -45.1134  -32.2996 C   0  0  0  0  0  0  0  0  0  0  0  0
   18.1190  -45.5475  -32.1469 N   0  0  0  0  0  0  0  0  0  0  0  0
   16.3743  -44.0271  -31.4065 C   0  0  0  0  0  0  0  0  0  0  0  0
   17.1669  -43.4210  -30.3252 C   0  0  0  0  0  0  0  0  0  0  0  0
   18.5306  -43.7929  -29.9710 N   0  0  0  0  0  0  0  0  0  0  0  0
   15.2006  -43.3596  -31.3502 N   0  0  0  0  0  0  0  0  0  0  0  0
   15.2762  -42.4438  -30.3353 C   0  0  0  0  0  0  0  0  0  0  0  0
   16.4726  -42.4780  -29.7088 N   0  0  0  0  0  0  0  0  0  0  0  0
   16.9201  -41.6385  -28.5731 C   0  0  1  0  0  0  0  0  0  0  0  0
   17.0950  -42.4839  -27.3222 C   0  0  1  0  0  0  0  0  0  0  0  0
   18.2311  -41.7990  -26.6065 C   0  0  2  0  0  0  0  0  0  0  0  0
   17.7177  -40.7155  -25.8289 O   0  0  0  0  0  0  0  0  0  0  0  0
   15.9175  -42.4592  -26.5143 O   0  0  0  0  0  0  0  0  0  0  0  0
   18.1929  -41.0392  -28.8425 O   0  0  0  0  0  0  0  0  0  0  0  0
   19.0753  -41.2413  -27.7360 C   0  0  2  0  0  0  0  0  0  0  0  0
   20.1697  -42.2304  -28.1065 C   0  0  0  0  0  0  0  0  0  0  0  0
   21.1332  -41.5545  -28.9127 O   0  0  0  0  0  0  0  0  0  0  0  0
   22.5865  -42.1891  -29.1975 P   0  0  0  0  0  0  0  0  0  0  0  0
   22.3095  -43.5534  -29.7854 O   0  0  0  0  0  0  0  0  0  0  0  0
   23.2209  -42.2213  -27.8272 O   0  0  0  0  0  0  0  0  0  0  0  0
   23.2125  -41.2110  -30.1638 O   0  0  0  0  0  0  0  0  0  0  0  0
  1  2  2  0  0  0  0
  2  4  1  0  0  0  0
  2  3  1  0  0  0  0
  4  7  1  0  0  0  0
  5  9  1  0  0  0  0
  5  4  2  0  0  0  0
  6  5  1  0  0  0  0
  8  7  2  0  0  0  0
  9  8  1  0  0  0  0
 10 15  1  0  0  0  0
 10  9  1  6  0  0  0
 10 11  1  0  0  0  0
 11 14  1  1  0  0  0
 11 12  1  0  0  0  0
 12 13  1  1  0  0  0
 15 16  1  0  0  0  0
 16 12  1  0  0  0  0
 16 17  1  6  0  0  0
 17 18  1  0  0  0  0
 18 19  1  0  0  0  0
 19 21  1  0  0  0  0
 19 20  1  0  0  0  0
 22 19  2  0  0  0  0
M  END
>  <CHROM.1>
177.25870927,-67.62514135,-165.50007726,165.51373153,55.45659473,18.77157190
-42.66881415,-29.31845722,-2.67931110,0.07689814,1.01108630

>  <Name>
lig.pdb

>  <RI>
0

>  <Rbt.Current_Directory>
/home/itssahil/PROJECTS/Mol_Feturizer/New_Systems/rnas/5btp

>  <Rbt.Executable>
rbdock ($Id: //depot/dev/client3/rdock/2013.1/src/exe/rbdock.cxx#4 $)

>  <Rbt.Library>
libRbt.so (2013.1, Build901 2013/11/27)

>  <Rbt.Parameter_File>
/export/apps/rDock/src/rDock_2013.1_src/data/scripts/dock_solv.prm

>  <Rbt.Receptor>
prm/blind_docking_60.prm

>  <SCORE>
-18.7333

>  <SCORE.INTER>
-18.4839

>  <SCORE.INTER.CONST>
1

>  <SCORE.INTER.POLAR>
0

>  <SCORE.INTER.ROT>
5

>  <SCORE.INTER.SOLV>
22.2886

>  <SCORE.INTER.VDW>
-26.6855

>  <SCORE.INTER.norm>
-0.84018

>  <SCORE.INTRA>
-0.249391

>  <SCORE.INTRA.DIHEDRAL>
-0.0422352

>  <SCORE.INTRA.DIHEDRAL.0>
4.21161

>  <SCORE.INTRA.POLAR>
0

>  <SCORE.INTRA.POLAR.0>
0

>  <SCORE.INTRA.REPUL>
0

>  <SCORE.INTRA.REPUL.0>
0

>  <SCORE.INTRA.SOLV>
1.18835

>  <SCORE.INTRA.SOLV.lig_0>
-41.4168

>  <SCORE.INTRA.VDW>
-0.822448

>  <SCORE.INTRA.VDW.0>
-1.62533

>  <SCORE.INTRA.norm>
-0.011336

>  <SCORE.RESTR>
0

>  <SCORE.RESTR.CAVITY>
0

>  <SCORE.RESTR.norm>
0

>  <SCORE.SYSTEM>
0

>  <SCORE.SYSTEM.CONST>
0

>  <SCORE.SYSTEM.DIHEDRAL>
0

>  <SCORE.SYSTEM.SOLV>
0

>  <SCORE.SYSTEM.norm>
0

>  <SCORE.heavy>
22

>  <SCORE.norm>
-0.851515

>  <RMSD>
17.402

$$$$
lig.pdb
 OpenBabel11021811523D
libRbt.so/2013.1/901 2013/11/27
 22 23  0  0  0  0  0  0  0  0999 V2000
   16.1127  -45.5928  -33.0958 O   0  0  0  0  0  0  0  0  0  0  0  0
   16.8556  -45.1230  -32.2483 C   0  0  0  0  0  0  0  0  0  0  0  0
   18.1003  -45.5691  -32.0792 N   0  0  0  0  0  0  0  0  0  0  0  0
   16.3614  -44.0305  -31.3631 C   0  0  0  0  0  0  0  0  0  0  0  0
   17.1384  -43.4449  -30.2594 C   0  0  0  0  0  0  0  0  0  0  0  0
   18.4849  -43.8457  -29.8726 N   0  0  0  0  0  0  0  0  0  0  0  0
   15.2003  -43.3397  -31.3334 N   0  0  0  0  0  0  0  0  0  0  0  0
   15.2686  -42.4296  -30.3128 C   0  0  0  0  0  0  0  0  0  0  0  0
   16.4477  -42.4905  -29.6566 N   0  0  0  0  0  0  0  0  0  0  0  0
   16.8831  -41.6647  -28.5061 C   0  0  1  0  0  0  0  0  0  0  0  0
   17.0913  -42.5325  -27.2759 C   0  0  1  0  0  0  0  0  0  0  0  0
   18.2153  -41.8338  -26.5546 C   0  0  2  0  0  0  0  0  0  0  0  0
   17.6805  -40.7818  -25.7488 O   0  0  0  0  0  0  0  0  0  0  0  0
   15.9208  -42.5569  -26.4579 O   0  0  0  0  0  0  0  0  0  0  0  0
   18.1373  -41.0262  -28.7727 O   0  0  0  0  0  0  0  0  0  0  0  0
   19.0345  -41.2292  -27.6783 C   0  0  2  0  0  0  0  0  0  0  0  0
   20.1511  -42.1805  -28.0799 C   0  0  0  0  0  0  0  0  0  0  0  0
   21.0812  -41.4658  -28.8919 O   0  0  0  0  0  0  0  0  0  0  0  0
   22.5467  -42.0546  -29.2106 P   0  0  0  0  0  0  0  0  0  0  0  0
   23.2094  -42.2064  -27.8610 O   0  0  0  0  0  0  0  0  0  0  0  0
   23.1610  -40.9890  -30.0871 O   0  0  0  0  0  0  0  0  0  0  0  0
   22.2546  -43.3613  -29.9104 O   0  0  0  0  0  0  0  0  0  0  0  0
  1  2  2  0  0  0  0
  2  4  1  0  0  0  0
  2  3  1  0  0  0  0
  4  7  1  0  0  0  0
  5  9  1  0  0  0  0
  5  4  2  0  0  0  0
  6  5  1  0  0  0  0
  8  7  2  0  0  0  0
  9  8  1  0  0  0  0
 10 15  1  0  0  0  0
 10  9  1  6  0  0  0
 10 11  1  0  0  0  0
 11 14  1  1  0  0  0
 11 12  1  0  0  0  0
 12 13  1  1  0  0  0
 15 16  1  0  0  0  0
 16 12  1  0  0  0  0
 16 17  1  6  0  0  0
 17 18  1  0  0  0  0
 18 19  1  0  0  0  0
 19 21  1  0  0  0  0
 19 20  1  0  0  0  0
 22 19  2  0  0  0  0
M  END
>  <CHROM.1>
176.26783720,-64.17034372,-166.17680400,165.61973951,-60.29902392,18.74427760
-42.64394108,-29.28397271,-2.67418063,0.10601962,1.02057152

>  <Name>
lig.pdb

>  <RI>
0

>  <Rbt.Current_Directory>
/home/itssahil/PROJECTS/Mol_Feturizer/New_Systems/rnas/5btp

>  <Rbt.Executable>
rbdock ($Id: //depot/dev/client3/rdock/2013.1/src/exe/rbdock.cxx#4 $)

>  <Rbt.Library>
libRbt.so (2013.1, Build901 2013/11/27)

>  <Rbt.Parameter_File>
/export/apps/rDock/src/rDock_2013.1_src/data/scripts/dock_solv.prm

>  <Rbt.Receptor>
prm/blind_docking_60.prm

>  <SCORE>
-18.5266

>  <SCORE.INTER>
-18.3235

>  <SCORE.INTER.CONST>
1

>  <SCORE.INTER.POLAR>
0

>  <SCORE.INTER.ROT>
5

>  <SCORE.INTER.SOLV>
22.6861

>  <SCORE.INTER.VDW>
-26.711

>  <SCORE.INTER.norm>
-0.832886

>  <SCORE.INTRA>
-0.20307

>  <SCORE.INTRA.DIHEDRAL>
-0.127631

>  <SCORE.INTRA.DIHEDRAL.0>
4.21161

>  <SCORE.INTRA.POLAR>
0

>  <SCORE.INTRA.POLAR.0>
0

>  <SCORE.INTRA.REPUL>
0

>  <SCORE.INTRA.REPUL.0>
0

>  <SCORE.INTRA.SOLV>
1.42775

>  <SCORE.INTRA.SOLV.lig_0>
-41.4168

>  <SCORE.INTRA.VDW>
-0.853131

>  <SCORE.INTRA.VDW.0>
-1.62533

>  <SCORE.INTRA.norm>
-0.00923045

>  <SCORE.RESTR>
0

>  <SCORE.RESTR.CAVITY>
0

>  <SCORE.RESTR.norm>
0

>  <SCORE.SYSTEM>
0

>  <SCORE.SYSTEM.CONST>
0

>  <SCORE.SYSTEM.DIHEDRAL>
0

>  <SCORE.SYSTEM.SOLV>
0

>  <SCORE.SYSTEM.norm>
0

>  <SCORE.heavy>
22

>  <SCORE.norm>
-0.842117

>  <RMSD>
17.430

$$$$
lig.pdb
 OpenBabel11021811523D
libRbt.so/2013.1/901 2013/11/27
 22 23  0  0  0  0  0  0  0  0999 V2000
   13.9567  -45.5047  -31.1785 O   0  0  0  0  0  0  0  0  0  0  0  0
   13.2337  -45.2597  -30.2255 C   0  0  0  0  0  0  0  0  0  0  0  0
   12.0227  -45.8033  -30.1039 N   0  0  0  0  0  0  0  0  0  0  0  0
   13.7028  -44.3162  -29.1715 C   0  0  0  0  0  0  0  0  0  0  0  0
   14.9823  -43.5913  -29.2203 C   0  0  0  0  0  0  0  0  0  0  0  0
   15.9668  -43.6926  -30.2897 N   0  0  0  0  0  0  0  0  0  0  0  0
   13.1466  -43.8977  -28.0132 N   0  0  0  0  0  0  0  0  0  0  0  0
   14.0050  -43.0107  -27.4209 C   0  0  0  0  0  0  0  0  0  0  0  0
   15.1241  -42.8213  -28.1534 N   0  0  0  0  0  0  0  0  0  0  0  0
   16.2705  -41.9380  -27.8365 C   0  0  1  0  0  0  0  0  0  0  0  0
   17.2718  -42.6614  -26.9512 C   0  0  1  0  0  0  0  0  0  0  0  0
   18.5913  -42.0731  -27.3809 C   0  0  2  0  0  0  0  0  0  0  0  0
   18.8180  -40.8509  -26.6759 O   0  0  0  0  0  0  0  0  0  0  0  0
   17.0347  -42.3833  -25.5705 O   0  0  0  0  0  0  0  0  0  0  0  0
   16.9751  -41.5583  -29.0245 O   0  0  0  0  0  0  0  0  0  0  0  0
   18.3790  -41.7649  -28.8504 C   0  0  2  0  0  0  0  0  0  0  0  0
   18.8507  -42.9336  -29.7018 C   0  0  0  0  0  0  0  0  0  0  0  0
   20.2479  -43.1170  -29.4802 O   0  0  0  0  0  0  0  0  0  0  0  0
   21.3260  -42.0134  -29.9447 P   0  0  0  0  0  0  0  0  0  0  0  0
   21.2471  -40.9250  -28.8994 O   0  0  0  0  0  0  0  0  0  0  0  0
   20.8275  -41.6003  -31.3092 O   0  0  0  0  0  0  0  0  0  0  0  0
   22.6293  -42.7775  -29.9498 O   0  0  0  0  0  0  0  0  0  0  0  0
  1  2  2  0  0  0  0
  2  4  1  0  0  0  0
  2  3  1  0  0  0  0
  4  7  1  0  0  0  0
  5  9  1  0  0  0  0
  5  4  2  0  0  0  0
  6  5  1  0  0  0  0
  8  7  2  0  0  0  0
  9  8  1  0  0  0  0
 10 15  1  0  0  0  0
 10  9  1  6  0  0  0
 10 11  1  0  0  0  0
 11 14  1  1  0  0  0
 11 12  1  0  0  0  0
 12 13  1  1  0  0  0
 15 16  1  0  0  0  0
 16 12  1  0  0  0  0
 16 17  1  6  0  0  0
 17 18  1  0  0  0  0
 18 19  1  0  0  0  0
 19 21  1  0  0  0  0
 19 20  1  0  0  0  0
 22 19  2  0  0  0  0
M  END
>  <CHROM.1>
2.83168956,-93.99505881,-61.73936176,-66.52430317,77.97254386,17.39962010
-42.83895539,-28.94663095,-3.01676440,0.30682205,1.09427786

>  <Name>
lig.pdb

>  <RI>
0

>  <Rbt.Current_Directory>
/home/itssahil/PROJECTS/Mol_Feturizer/New_Systems/rnas/5btp

>  <Rbt.Executable>
rbdock ($Id: //depot/dev/client3/rdock/2013.1/src/exe/rbdock.cxx#4 $)

>  <Rbt.Library>
libRbt.so (2013.1, Build901 2013/11/27)

>  <Rbt.Parameter_File>
/export/apps/rDock/src/rDock_2013.1_src/data/scripts/dock_solv.prm

>  <Rbt.Receptor>
prm/blind_docking_60.prm

>  <SCORE>
-13.4504

>  <SCORE.INTER>
-13.2196

>  <SCORE.INTER.CONST>
1

>  <SCORE.INTER.POLAR>
0

>  <SCORE.INTER.ROT>
5

>  <SCORE.INTER.SOLV>
12.4906

>  <SCORE.INTER.VDW>
-19.91

>  <SCORE.INTER.norm>
-0.600892

>  <SCORE.INTRA>
-0.230819

>  <SCORE.INTRA.DIHEDRAL>
-1.05544

>  <SCORE.INTRA.DIHEDRAL.0>
4.21161

>  <SCORE.INTRA.POLAR>
0

>  <SCORE.INTRA.POLAR.0>
0

>  <SCORE.INTRA.REPUL>
0

>  <SCORE.INTRA.REPUL.0>
0

>  <SCORE.INTRA.SOLV>
1.79387

>  <SCORE.INTRA.SOLV.lig_0>
-41.4168

>  <SCORE.INTRA.VDW>
-0.600037

>  <SCORE.INTRA.VDW.0>
-1.62533

>  <SCORE.INTRA.norm>
-0.0104918

>  <SCORE.RESTR>
0

>  <SCORE.RESTR.CAVITY>
0

>  <SCORE.RESTR.norm>
0

>  <SCORE.SYSTEM>
0

>  <SCORE.SYSTEM.CONST>
0

>  <SCORE.SYSTEM.DIHEDRAL>
0

>  <SCORE.SYSTEM.SOLV>
0

>  <SCORE.SYSTEM.norm>
0

>  <SCORE.heavy>
22

>  <SCORE.norm>
-0.611384

>  <RMSD>
17.430

$$$$
lig.pdb
 OpenBabel11021811523D
libRbt.so/2013.1/901 2013/11/27
 22 23  0  0  0  0  0  0  0  0999 V2000
   20.5566  -41.3939  -30.4343 O   0  0  0  0  0  0  0  0  0  0  0  0
   19.5523  -42.0781  -30.3147 C   0  0  0  0  0  0  0  0  0  0  0  0
   19.1661  -42.9315  -31.2631 N   0  0  0  0  0  0  0  0  0  0  0  0
   18.7202  -41.9519  -29.0847 C   0  0  0  0  0  0  0  0  0  0  0  0
   17.4977  -42.7299  -28.8297 C   0  0  0  0  0  0  0  0  0  0  0  0
   16.9270  -43.7208  -29.7328 N   0  0  0  0  0  0  0  0  0  0  0  0
   18.8437  -41.1858  -27.9783 N   0  0  0  0  0  0  0  0  0  0  0  0
   17.7994  -41.4713  -27.1401 C   0  0  0  0  0  0  0  0  0  0  0  0
   16.9776  -42.4116  -27.6553 N   0  0  0  0  0  0  0  0  0  0  0  0
   15.7529  -42.9738  -27.0397 C   0  0  1  0  0  0  0  0  0  0  0  0
   14.5552  -42.7683  -27.9526 C   0  0  1  0  0  0  0  0  0  0  0  0
   13.7040  -43.9803  -27.6728 C   0  0  2  0  0  0  0  0  0  0  0  0
   12.8950  -43.7363  -26.5204 O   0  0  0  0  0  0  0  0  0  0  0  0
   13.8445  -41.5776  -27.6107 O   0  0  0  0  0  0  0  0  0  0  0  0
   15.8762  -44.3868  -26.8393 O   0  0  0  0  0  0  0  0  0  0  0  0
   14.7197  -45.0577  -27.3456 C   0  0  2  0  0  0  0  0  0  0  0  0
   15.0707  -45.8420  -28.6004 C   0  0  0  0  0  0  0  0  0  0  0  0
   13.9367  -46.6218  -28.9760 O   0  0  0  0  0  0  0  0  0  0  0  0
   13.9147  -47.4705  -30.3453 P   0  0  0  0  0  0  0  0  0  0  0  0
   12.6223  -48.2524  -30.3003 O   0  0  0  0  0  0  0  0  0  0  0  0
   15.1584  -48.3212  -30.2412 O   0  0  0  0  0  0  0  0  0  0  0  0
   13.9612  -46.4070  -31.4172 O   0  0  0  0  0  0  0  0  0  0  0  0
  1  2  2  0  0  0  0
  2  4  1  0  0  0  0
  2  3  1  0  0  0  0
  4  7  1  0  0  0  0
  5  9  1  0  0  0  0
  5  4  2  0  0  0  0
  6  5  1  0  0  0  0
  8  7  2  0  0  0  0
  9  8  1  0  0  0  0
 10 15  1  0  0  0  0
 10  9  1  6  0  0  0
 10 11  1  0  0  0  0
 11 14  1  1  0  0  0
 11 12  1  0  0  0  0
 12 13  1  1  0  0  0
 15 16  1  0  0  0  0
 16 12  1  0  0  0  0
 16 17  1  6  0  0  0
 17 18  1  0  0  0  0
 18 19  1  0  0  0  0
 19 21  1  0  0  0  0
 19 20  1  0  0  0  0
 22 19  2  0  0  0  0
M  END
>  <CHROM.1>
-179.59030795,-57.46985040,-69.70535569,174.15302285,174.34135409,15.80316907
-44.24290893,-28.88758756,-0.66583406,-0.53330848,-2.42625687

>  <Name>
lig.pdb

>  <RI>
0

>  <Rbt.Current_Directory>
/home/itssahil/PROJECTS/Mol_Feturizer/New_Systems/rnas/5btp

>  <Rbt.Executable>
rbdock ($Id: //depot/dev/client3/rdock/2013.1/src/exe/rbdock.cxx#4 $)

>  <Rbt.Library>
libRbt.so (2013.1, Build901 2013/11/27)

>  <Rbt.Parameter_File>
/export/apps/rDock/src/rDock_2013.1_src/data/scripts/dock_solv.prm

>  <Rbt.Receptor>
prm/blind_docking_80.prm

>  <SCORE>
-14.7905

>  <SCORE.INTER>
-14.1761

>  <SCORE.INTER.CONST>
1

>  <SCORE.INTER.POLAR>
0

>  <SCORE.INTER.ROT>
5

>  <SCORE.INTER.SOLV>
15.6254

>  <SCORE.INTER.VDW>
-21.5925

>  <SCORE.INTER.norm>
-0.644369

>  <SCORE.INTRA>
-0.614421

>  <SCORE.INTRA.DIHEDRAL>
-1.23316

>  <SCORE.INTRA.DIHEDRAL.0>
4.21161

>  <SCORE.INTRA.POLAR>
0

>  <SCORE.INTRA.POLAR.0>
0

>  <SCORE.INTRA.REPUL>
0

>  <SCORE.INTRA.REPUL.0>
0

>  <SCORE.INTRA.SOLV>
1.43703

>  <SCORE.INTRA.SOLV.lig_0>
-41.4168

>  <SCORE.INTRA.VDW>
-0.716356

>  <SCORE.INTRA.VDW.0>
-1.62533

>  <SCORE.INTRA.norm>
-0.0279282

>  <SCORE.RESTR>
0

>  <SCORE.RESTR.CAVITY>
0

>  <SCORE.RESTR.norm>
0

>  <SCORE.SYSTEM>
0

>  <SCORE.SYSTEM.CONST>
0

>  <SCORE.SYSTEM.DIHEDRAL>
0

>  <SCORE.SYSTEM.SOLV>
0

>  <SCORE.SYSTEM.norm>
0

>  <SCORE.heavy>
22

>  <SCORE.norm>
-0.672297

>  <RMSD>
17.658

$$$$
lig.pdb
 OpenBabel11021811523D
libRbt.so/2013.1/901 2013/11/27
 22 23  0  0  0  0  0  0  0  0999 V2000
   22.7963  -42.8315  -28.7664 O   0  0  0  0  0  0  0  0  0  0  0  0
   22.4780  -42.5836  -27.6138 C   0  0  0  0  0  0  0  0  0  0  0  0
   23.3880  -42.3972  -26.6579 N   0  0  0  0  0  0  0  0  0  0  0  0
   21.0345  -42.5003  -27.2527 C   0  0  0  0  0  0  0  0  0  0  0  0
   19.9307  -42.7335  -28.1972 C   0  0  0  0  0  0  0  0  0  0  0  0
   20.0858  -43.0707  -29.6063 N   0  0  0  0  0  0  0  0  0  0  0  0
   20.4027  -42.2304  -26.0889 N   0  0  0  0  0  0  0  0  0  0  0  0
   19.0528  -42.2925  -26.3091 C   0  0  0  0  0  0  0  0  0  0  0  0
   18.7615  -42.5990  -27.5921 N   0  0  0  0  0  0  0  0  0  0  0  0
   17.4192  -42.7555  -28.1993 C   0  0  1  0  0  0  0  0  0  0  0  0
   17.2047  -41.7210  -29.2919 C   0  0  1  0  0  0  0  0  0  0  0  0
   16.3215  -42.4450  -30.2755 C   0  0  2  0  0  0  0  0  0  0  0  0
   14.9578  -42.3265  -29.8654 O   0  0  0  0  0  0  0  0  0  0  0  0
   16.5341  -40.5666  -28.7844 O   0  0  0  0  0  0  0  0  0  0  0  0
   17.2780  -44.0393  -28.8189 O   0  0  0  0  0  0  0  0  0  0  0  0
   16.7550  -43.8919  -30.1413 C   0  0  2  0  0  0  0  0  0  0  0  0
   17.8260  -44.2133  -31.1721 C   0  0  0  0  0  0  0  0  0  0  0  0
   17.2055  -44.8693  -32.2765 O   0  0  0  0  0  0  0  0  0  0  0  0
   16.5450  -46.3309  -32.1247 P   0  0  0  0  0  0  0  0  0  0  0  0
   16.2915  -46.7948  -33.5403 O   0  0  0  0  0  0  0  0  0  0  0  0
   15.2915  -46.0594  -31.3270 O   0  0  0  0  0  0  0  0  0  0  0  0
   17.6048  -47.1198  -31.3921 O   0  0  0  0  0  0  0  0  0  0  0  0
  1  2  2  0  0  0  0
  2  4  1  0  0  0  0
  2  3  1  0  0  0  0
  4  7  1  0  0  0  0
  5  9  1  0  0  0  0
  5  4  2  0  0  0  0
  6  5  1  0  0  0  0
  8  7  2  0  0  0  0
  9  8  1  0  0  0  0
 10 15  1  0  0  0  0
 10  9  1  6  0  0  0
 10 11  1  0  0  0  0
 11 14  1  1  0  0  0
 11 12  1  0  0  0  0
 12 13  1  1  0  0  0
 15 16  1  0  0  0  0
 16 12  1  0  0  0  0
 16 17  1  6  0  0  0
 17 18  1  0  0  0  0
 18 19  1  0  0  0  0
 19 21  1  0  0  0  0
 19 20  1  0  0  0  0
 22 19  2  0  0  0  0
M  END
>  <CHROM.1>
1.65273738,-62.43106620,-98.88503540,-66.25120696,-167.51872718,18.23020438
-43.68812896,-29.57338756,-0.84323703,0.25453217,-2.42736350

>  <Name>
lig.pdb

>  <RI>
0

>  <Rbt.Current_Directory>
/home/itssahil/PROJECTS/Mol_Feturizer/New_Systems/rnas/5btp

>  <Rbt.Executable>
rbdock ($Id: //depot/dev/client3/rdock/2013.1/src/exe/rbdock.cxx#4 $)

>  <Rbt.Library>
libRbt.so (2013.1, Build901 2013/11/27)

>  <Rbt.Parameter_File>
/export/apps/rDock/src/rDock_2013.1_src/data/scripts/dock_solv.prm

>  <Rbt.Receptor>
prm/blind_docking_100.prm

>  <SCORE>
-14.1152

>  <SCORE.INTER>
-15.7011

>  <SCORE.INTER.CONST>
1

>  <SCORE.INTER.POLAR>
0

>  <SCORE.INTER.ROT>
5

>  <SCORE.INTER.SOLV>
19.1063

>  <SCORE.INTER.VDW>
-23.7695

>  <SCORE.INTER.norm>
-0.713688

>  <SCORE.INTRA>
1.5859

>  <SCORE.INTRA.DIHEDRAL>
2.47016

>  <SCORE.INTRA.DIHEDRAL.0>
4.21161

>  <SCORE.INTRA.POLAR>
0

>  <SCORE.INTRA.POLAR.0>
0

>  <SCORE.INTRA.REPUL>
0

>  <SCORE.INTRA.REPUL.0>
0

>  <SCORE.INTRA.SOLV>
2.08803

>  <SCORE.INTRA.SOLV.lig_0>
-41.4168

>  <SCORE.INTRA.VDW>
-0.6932

>  <SCORE.INTRA.VDW.0>
-1.62533

>  <SCORE.INTRA.norm>
0.0720862

>  <SCORE.RESTR>
0

>  <SCORE.RESTR.CAVITY>
0

>  <SCORE.RESTR.norm>
0

>  <SCORE.SYSTEM>
0

>  <SCORE.SYSTEM.CONST>
0

>  <SCORE.SYSTEM.DIHEDRAL>
0

>  <SCORE.SYSTEM.SOLV>
0

>  <SCORE.SYSTEM.norm>
0

>  <SCORE.heavy>
22

>  <SCORE.norm>
-0.641602

>  <RMSD>
17.659

$$$$
lig.pdb
 OpenBabel11021811523D
libRbt.so/2013.1/901 2013/11/27
 22 23  0  0  0  0  0  0  0  0999 V2000
   20.5517  -41.3665  -30.4350 O   0  0  0  0  0  0  0  0  0  0  0  0
   19.5518  -42.0567  -30.3126 C   0  0  0  0  0  0  0  0  0  0  0  0
   19.1799  -42.9278  -31.2505 N   0  0  0  0  0  0  0  0  0  0  0  0
   18.7089  -41.9178  -29.0914 C   0  0  0  0  0  0  0  0  0  0  0  0
   17.4970  -42.7096  -28.8284 C   0  0  0  0  0  0  0  0  0  0  0  0
   16.9485  -43.7283  -29.7142 N   0  0  0  0  0  0  0  0  0  0  0  0
   18.8122  -41.1266  -28.0007 N   0  0  0  0  0  0  0  0  0  0  0  0
   17.7665  -41.4109  -27.1639 C   0  0  0  0  0  0  0  0  0  0  0  0
   16.9634  -42.3748  -27.6646 N   0  0  0  0  0  0  0  0  0  0  0  0
   15.7432  -42.9433  -27.0458 C   0  0  1  0  0  0  0  0  0  0  0  0
   14.5448  -42.7565  -27.9616 C   0  0  1  0  0  0  0  0  0  0  0  0
   13.7046  -43.9741  -27.6727 C   0  0  2  0  0  0  0  0  0  0  0  0
   12.8920  -43.7281  -26.5232 O   0  0  0  0  0  0  0  0  0  0  0  0
   13.8227  -41.5697  -27.6302 O   0  0  0  0  0  0  0  0  0  0  0  0
   15.8795  -44.3534  -26.8337 O   0  0  0  0  0  0  0  0  0  0  0  0
   14.7299  -45.0392  -27.3356 C   0  0  2  0  0  0  0  0  0  0  0  0
   15.0896  -45.8304  -28.5836 C   0  0  0  0  0  0  0  0  0  0  0  0
   13.9530  -46.6002  -28.9719 O   0  0  0  0  0  0  0  0  0  0  0  0
   13.9478  -47.4682  -30.3293 P   0  0  0  0  0  0  0  0  0  0  0  0
   15.1772  -48.3423  -30.2395 O   0  0  0  0  0  0  0  0  0  0  0  0
   14.0130  -46.4149  -31.4098 O   0  0  0  0  0  0  0  0  0  0  0  0
   12.6413  -48.2232  -30.2571 O   0  0  0  0  0  0  0  0  0  0  0  0
  1  2  2  0  0  0  0
  2  4  1  0  0  0  0
  2  3  1  0  0  0  0
  4  7  1  0  0  0  0
  5  9  1  0  0  0  0
  5  4  2  0  0  0  0
  6  5  1  0  0  0  0
  8  7  2  0  0  0  0
  9  8  1  0  0  0  0
 10 15  1  0  0  0  0
 10  9  1  6  0  0  0
 10 11  1  0  0  0  0
 11 14  1  1  0  0  0
 11 12  1  0  0  0  0
 12 13  1  1  0  0  0
 15 16  1  0  0  0  0
 16 12  1  0  0  0  0
 16 17  1  6  0  0  0
 17 18  1  0  0  0  0
 18 19  1  0  0  0  0
 19 21  1  0  0  0  0
 19 20  1  0  0  0  0
 22 19  2  0  0  0  0
M  END
>  <CHROM.1>
-179.02766272,-58.37202934,-68.37909701,174.97612571,53.70312144,15.80835878
-44.22572675,-28.88475386,-0.67312015,-0.53395708,-2.43779776

>  <Name>
lig.pdb

>  <RI>
0

>  <Rbt.Current_Directory>
/home/itssahil/PROJECTS/Mol_Feturizer/New_Systems/rnas/5btp

>  <Rbt.Executable>
rbdock ($Id: //depot/dev/client3/rdock/2013.1/src/exe/rbdock.cxx#4 $)

>  <Rbt.Library>
libRbt.so (2013.1, Build901 2013/11/27)

>  <Rbt.Parameter_File>
/export/apps/rDock/src/rDock_2013.1_src/data/scripts/dock_solv.prm

>  <Rbt.Receptor>
prm/blind_docking_80.prm

>  <SCORE>
-14.2991

>  <SCORE.INTER>
-13.4892

>  <SCORE.INTER.CONST>
1

>  <SCORE.INTER.POLAR>
0

>  <SCORE.INTER.ROT>
5

>  <SCORE.INTER.SOLV>
17.0001

>  <SCORE.INTER.VDW>
-21.5928

>  <SCORE.INTER.norm>
-0.613145

>  <SCORE.INTRA>
-0.809939

>  <SCORE.INTRA.DIHEDRAL>
-1.34612

>  <SCORE.INTRA.DIHEDRAL.0>
4.21161

>  <SCORE.INTRA.POLAR>
0

>  <SCORE.INTRA.POLAR.0>
0

>  <SCORE.INTRA.REPUL>
0

>  <SCORE.INTRA.REPUL.0>
0

>  <SCORE.INTRA.SOLV>
1.22573

>  <SCORE.INTRA.SOLV.lig_0>
-41.4168

>  <SCORE.INTRA.VDW>
-0.749745

>  <SCORE.INTRA.VDW.0>
-1.62533

>  <SCORE.INTRA.norm>
-0.0368154

>  <SCORE.RESTR>
0

>  <SCORE.RESTR.CAVITY>
0

>  <SCORE.RESTR.norm>
0

>  <SCORE.SYSTEM>
0

>  <SCORE.SYSTEM.CONST>
0

>  <SCORE.SYSTEM.DIHEDRAL>
0

>  <SCORE.SYSTEM.SOLV>
0

>  <SCORE.SYSTEM.norm>
0

>  <SCORE.heavy>
22

>  <SCORE.norm>
-0.64996

>  <RMSD>
17.674

$$$$
lig.pdb
 OpenBabel11021811523D
libRbt.so/2013.1/901 2013/11/27
 22 23  0  0  0  0  0  0  0  0999 V2000
   22.4748  -42.6672  -29.1473 O   0  0  0  0  0  0  0  0  0  0  0  0
   22.2666  -42.4961  -27.9563 C   0  0  0  0  0  0  0  0  0  0  0  0
   23.2627  -42.3696  -27.0796 N   0  0  0  0  0  0  0  0  0  0  0  0
   20.8634  -42.4409  -27.4568 C   0  0  0  0  0  0  0  0  0  0  0  0
   19.6762  -42.6464  -28.3012 C   0  0  0  0  0  0  0  0  0  0  0  0
   19.6985  -42.9255  -29.7312 N   0  0  0  0  0  0  0  0  0  0  0  0
   20.3437  -42.2237  -26.2284 N   0  0  0  0  0  0  0  0  0  0  0  0
   18.9794  -42.2897  -26.3221 C   0  0  0  0  0  0  0  0  0  0  0  0
   18.5691  -42.5473  -27.5831 N   0  0  0  0  0  0  0  0  0  0  0  0
   17.1760  -42.6920  -28.0662 C   0  0  1  0  0  0  0  0  0  0  0  0
   16.8601  -41.6306  -29.1071 C   0  0  1  0  0  0  0  0  0  0  0  0
   15.8892  -42.3318  -30.0223 C   0  0  2  0  0  0  0  0  0  0  0  0
   14.5697  -42.2276  -29.4838 O   0  0  0  0  0  0  0  0  0  0  0  0
   16.2393  -40.4914  -28.5098 O   0  0  0  0  0  0  0  0  0  0  0  0
   16.9782  -43.9600  -28.7027 O   0  0  0  0  0  0  0  0  0  0  0  0
   16.3339  -43.7804  -29.9662 C   0  0  2  0  0  0  0  0  0  0  0  0
   17.3042  -44.0724  -31.1004 C   0  0  0  0  0  0  0  0  0  0  0  0
   17.5980  -45.4684  -31.0934 O   0  0  0  0  0  0  0  0  0  0  0  0
   16.4688  -46.5680  -31.4278 P   0  0  0  0  0  0  0  0  0  0  0  0
   15.7955  -46.0677  -32.6847 O   0  0  0  0  0  0  0  0  0  0  0  0
   15.5896  -46.5407  -30.2001 O   0  0  0  0  0  0  0  0  0  0  0  0
   17.2626  -47.8402  -31.6117 O   0  0  0  0  0  0  0  0  0  0  0  0
  1  2  2  0  0  0  0
  2  4  1  0  0  0  0
  2  3  1  0  0  0  0
  4  7  1  0  0  0  0
  5  9  1  0  0  0  0
  5  4  2  0  0  0  0
  6  5  1  0  0  0  0
  8  7  2  0  0  0  0
  9  8  1  0  0  0  0
 10 15  1  0  0  0  0
 10  9  1  6  0  0  0
 10 11  1  0  0  0  0
 11 14  1  1  0  0  0
 11 12  1  0  0  0  0
 12 13  1  1  0  0  0
 15 16  1  0  0  0  0
 16 12  1  0  0  0  0
 16 17  1  6  0  0  0
 17 18  1  0  0  0  0
 18 19  1  0  0  0  0
 19 21  1  0  0  0  0
 19 20  1  0  0  0  0
 22 19  2  0  0  0  0
M  END
>  <CHROM.1>
3.14409775,-61.51040668,-174.44990754,66.22263866,47.62036767,18.01520941
-43.70282392,-29.36669847,-0.80940350,0.20424751,-2.53950664

>  <Name>
lig.pdb

>  <RI>
0

>  <Rbt.Current_Directory>
/home/itssahil/PROJECTS/Mol_Feturizer/New_Systems/rnas/5btp

>  <Rbt.Executable>
rbdock ($Id: //depot/dev/client3/rdock/2013.1/src/exe/rbdock.cxx#4 $)

>  <Rbt.Library>
libRbt.so (2013.1, Build901 2013/11/27)

>  <Rbt.Parameter_File>
/export/apps/rDock/src/rDock_2013.1_src/data/scripts/dock_solv.prm

>  <Rbt.Receptor>
prm/blind_docking_80.prm

>  <SCORE>
-17.1122

>  <SCORE.INTER>
-16.5805

>  <SCORE.INTER.CONST>
1

>  <SCORE.INTER.POLAR>
0

>  <SCORE.INTER.ROT>
5

>  <SCORE.INTER.SOLV>
16.7673

>  <SCORE.INTER.VDW>
-23.5761

>  <SCORE.INTER.norm>
-0.753659

>  <SCORE.INTRA>
-0.53165

>  <SCORE.INTRA.DIHEDRAL>
-1.22323

>  <SCORE.INTRA.DIHEDRAL.0>
4.21161

>  <SCORE.INTRA.POLAR>
0

>  <SCORE.INTRA.POLAR.0>
0

>  <SCORE.INTRA.REPUL>
6.98184e-05

>  <SCORE.INTRA.REPUL.0>
0

>  <SCORE.INTRA.SOLV>
1.7816

>  <SCORE.INTRA.SOLV.lig_0>
-41.4168

>  <SCORE.INTRA.VDW>
-0.811183

>  <SCORE.INTRA.VDW.0>
-1.62533

>  <SCORE.INTRA.norm>
-0.0241659

>  <SCORE.RESTR>
0

>  <SCORE.RESTR.CAVITY>
0

>  <SCORE.RESTR.norm>
0

>  <SCORE.SYSTEM>
0

>  <SCORE.SYSTEM.CONST>
0

>  <SCORE.SYSTEM.DIHEDRAL>
0

>  <SCORE.SYSTEM.SOLV>
0

>  <SCORE.SYSTEM.norm>
0

>  <SCORE.heavy>
22

>  <SCORE.norm>
-0.777825

>  <RMSD>
17.684

$$$$
lig.pdb
 OpenBabel11021811523D
libRbt.so/2013.1/901 2013/11/27
 22 23  0  0  0  0  0  0  0  0999 V2000
   22.2961  -42.3357  -25.6706 O   0  0  0  0  0  0  0  0  0  0  0  0
   22.4945  -42.4721  -26.8678 C   0  0  0  0  0  0  0  0  0  0  0  0
   23.7248  -42.4740  -27.3807 N   0  0  0  0  0  0  0  0  0  0  0  0
   21.3348  -42.6261  -27.7912 C   0  0  0  0  0  0  0  0  0  0  0  0
   19.9272  -42.5911  -27.3643 C   0  0  0  0  0  0  0  0  0  0  0  0
   19.4677  -42.4079  -25.9937 N   0  0  0  0  0  0  0  0  0  0  0  0
   21.2551  -42.8084  -29.1278 N   0  0  0  0  0  0  0  0  0  0  0  0
   19.9321  -42.8783  -29.4732 C   0  0  0  0  0  0  0  0  0  0  0  0
   19.1202  -42.7460  -28.4016 N   0  0  0  0  0  0  0  0  0  0  0  0
   17.6389  -42.7665  -28.3846 C   0  0  1  0  0  0  0  0  0  0  0  0
   17.0806  -41.7063  -29.3196 C   0  0  1  0  0  0  0  0  0  0  0  0
   15.8035  -42.3327  -29.8181 C   0  0  2  0  0  0  0  0  0  0  0  0
   14.7558  -42.0866  -28.8780 O   0  0  0  0  0  0  0  0  0  0  0  0
   16.7942  -40.4971  -28.6155 O   0  0  0  0  0  0  0  0  0  0  0  0
   17.1335  -44.0251  -28.8458 O   0  0  0  0  0  0  0  0  0  0  0  0
   16.1189  -43.8159  -29.8309 C   0  0  2  0  0  0  0  0  0  0  0  0
   16.6229  -44.2300  -31.2048 C   0  0  0  0  0  0  0  0  0  0  0  0
   16.9015  -45.6289  -31.1793 O   0  0  0  0  0  0  0  0  0  0  0  0
   17.5929  -46.3726  -32.4303 P   0  0  0  0  0  0  0  0  0  0  0  0
   19.0059  -45.8384  -32.4709 O   0  0  0  0  0  0  0  0  0  0  0  0
   16.7351  -45.9475  -33.5985 O   0  0  0  0  0  0  0  0  0  0  0  0
   17.4914  -47.8356  -32.0677 O   0  0  0  0  0  0  0  0  0  0  0  0
  1  2  2  0  0  0  0
  2  4  1  0  0  0  0
  2  3  1  0  0  0  0
  4  7  1  0  0  0  0
  5  9  1  0  0  0  0
  5  4  2  0  0  0  0
  6  5  1  0  0  0  0
  8  7  2  0  0  0  0
  9  8  1  0  0  0  0
 10 15  1  0  0  0  0
 10  9  1  6  0  0  0
 10 11  1  0  0  0  0
 11 14  1  1  0  0  0
 11 12  1  0  0  0  0
 12 13  1  1  0  0  0
 15 16  1  0  0  0  0
 16 12  1  0  0  0  0
 16 17  1  6  0  0  0
 17 18  1  0  0  0  0
 18 19  1  0  0  0  0
 19 21  1  0  0  0  0
 19 20  1  0  0  0  0
 22 19  2  0  0  0  0
M  END
>  <CHROM.1>
1.69051678,123.57143096,-179.70724921,-173.82551443,68.65219334,18.47403018
-43.68953730,-29.54221364,-0.93840553,0.25265786,-2.36656832

>  <Name>
lig.pdb

>  <RI>
0

>  <Rbt.Current_Directory>
/home/itssahil/PROJECTS/Mol_Feturizer/New_Systems/rnas/5btp

>  <Rbt.Executable>
rbdock ($Id: //depot/dev/client3/rdock/2013.1/src/exe/rbdock.cxx#4 $)

>  <Rbt.Library>
libRbt.so (2013.1, Build901 2013/11/27)

>  <Rbt.Parameter_File>
/export/apps/rDock/src/rDock_2013.1_src/data/scripts/dock_solv.prm

>  <Rbt.Receptor>
prm/blind_docking_80.prm

>  <SCORE>
-16.9642

>  <SCORE.INTER>
-15.4848

>  <SCORE.INTER.CONST>
1

>  <SCORE.INTER.POLAR>
0

>  <SCORE.INTER.ROT>
5

>  <SCORE.INTER.SOLV>
21.5622

>  <SCORE.INTER.VDW>
-24.4439

>  <SCORE.INTER.norm>
-0.703853

>  <SCORE.INTRA>
-1.47943

>  <SCORE.INTRA.DIHEDRAL>
-1.47487

>  <SCORE.INTRA.DIHEDRAL.0>
4.21161

>  <SCORE.INTRA.POLAR>
0

>  <SCORE.INTRA.POLAR.0>
0

>  <SCORE.INTRA.REPUL>
0

>  <SCORE.INTRA.REPUL.0>
0

>  <SCORE.INTRA.SOLV>
-0.532337

>  <SCORE.INTRA.SOLV.lig_0>
-41.4168

>  <SCORE.INTRA.VDW>
-0.47582

>  <SCORE.INTRA.VDW.0>
-1.62533

>  <SCORE.INTRA.norm>
-0.0672467

>  <SCORE.RESTR>
0

>  <SCORE.RESTR.CAVITY>
0

>  <SCORE.RESTR.norm>
0

>  <SCORE.SYSTEM>
0

>  <SCORE.SYSTEM.CONST>
0

>  <SCORE.SYSTEM.DIHEDRAL>
0

>  <SCORE.SYSTEM.SOLV>
0

>  <SCORE.SYSTEM.norm>
0

>  <SCORE.heavy>
22

>  <SCORE.norm>
-0.7711

>  <RMSD>
17.716

$$$$
lig.pdb
 OpenBabel11021811523D
libRbt.so/2013.1/901 2013/11/27
 22 23  0  0  0  0  0  0  0  0999 V2000
   22.2789  -42.3271  -25.6492 O   0  0  0  0  0  0  0  0  0  0  0  0
   22.4811  -42.4655  -26.8455 C   0  0  0  0  0  0  0  0  0  0  0  0
   23.7133  -42.4737  -27.3538 N   0  0  0  0  0  0  0  0  0  0  0  0
   21.3242  -42.6150  -27.7730 C   0  0  0  0  0  0  0  0  0  0  0  0
   19.9154  -42.5845  -27.3498 C   0  0  0  0  0  0  0  0  0  0  0  0
   19.4518  -42.4109  -25.9793 N   0  0  0  0  0  0  0  0  0  0  0  0
   21.2484  -42.7887  -29.1111 N   0  0  0  0  0  0  0  0  0  0  0  0
   19.9264  -42.8580  -29.4605 C   0  0  0  0  0  0  0  0  0  0  0  0
   19.1115  -42.7337  -28.3903 N   0  0  0  0  0  0  0  0  0  0  0  0
   17.6302  -42.7563  -28.3776 C   0  0  1  0  0  0  0  0  0  0  0  0
   17.0731  -41.6989  -29.3164 C   0  0  1  0  0  0  0  0  0  0  0  0
   15.7983  -42.3281  -29.8173 C   0  0  2  0  0  0  0  0  0  0  0  0
   14.7475  -42.0814  -28.8808 O   0  0  0  0  0  0  0  0  0  0  0  0
   16.7830  -40.4886  -28.6158 O   0  0  0  0  0  0  0  0  0  0  0  0
   17.1278  -44.0165  -28.8375 O   0  0  0  0  0  0  0  0  0  0  0  0
   16.1158  -43.8108  -29.8261 C   0  0  2  0  0  0  0  0  0  0  0  0
   16.6243  -44.2272  -31.1976 C   0  0  0  0  0  0  0  0  0  0  0  0
   16.9137  -45.6238  -31.1656 O   0  0  0  0  0  0  0  0  0  0  0  0
   17.6053  -46.3691  -32.4154 P   0  0  0  0  0  0  0  0  0  0  0  0
   19.0214  -45.8426  -32.4502 O   0  0  0  0  0  0  0  0  0  0  0  0
   16.7540  -45.9372  -33.5859 O   0  0  0  0  0  0  0  0  0  0  0  0
   17.4944  -47.8322  -32.0557 O   0  0  0  0  0  0  0  0  0  0  0  0
  1  2  2  0  0  0  0
  2  4  1  0  0  0  0
  2  3  1  0  0  0  0
  4  7  1  0  0  0  0
  5  9  1  0  0  0  0
  5  4  2  0  0  0  0
  6  5  1  0  0  0  0
  8  7  2  0  0  0  0
  9  8  1  0  0  0  0
 10 15  1  0  0  0  0
 10  9  1  6  0  0  0
 10 11  1  0  0  0  0
 11 14  1  1  0  0  0
 11 12  1  0  0  0  0
 12 13  1  1  0  0  0
 15 16  1  0  0  0  0
 16 12  1  0  0  0  0
 16 17  1  6  0  0  0
 17 18  1  0  0  0  0
 18 19  1  0  0  0  0
 19 21  1  0  0  0  0
 19 20  1  0  0  0  0
 22 19  2  0  0  0  0
M  END
>  <CHROM.1>
1.13904022,124.06673071,179.89310245,-174.13311254,69.62017898,18.47128277
-43.68287978,-29.53030745,-0.94073950,0.25517039,-2.36719491

>  <Name>
lig.pdb

>  <RI>
0

>  <Rbt.Current_Directory>
/home/itssahil/PROJECTS/Mol_Feturizer/New_Systems/rnas/5btp

>  <Rbt.Executable>
rbdock ($Id: //depot/dev/client3/rdock/2013.1/src/exe/rbdock.cxx#4 $)

>  <Rbt.Library>
libRbt.so (2013.1, Build901 2013/11/27)

>  <Rbt.Parameter_File>
/export/apps/rDock/src/rDock_2013.1_src/data/scripts/dock_solv.prm

>  <Rbt.Receptor>
prm/blind_docking_80.prm

>  <SCORE>
-16.9589

>  <SCORE.INTER>
-15.4953

>  <SCORE.INTER.CONST>
1

>  <SCORE.INTER.POLAR>
0

>  <SCORE.INTER.ROT>
5

>  <SCORE.INTER.SOLV>
21.6252

>  <SCORE.INTER.VDW>
-24.4719

>  <SCORE.INTER.norm>
-0.704333

>  <SCORE.INTRA>
-1.46354

>  <SCORE.INTRA.DIHEDRAL>
-1.4703

>  <SCORE.INTRA.DIHEDRAL.0>
4.21161

>  <SCORE.INTRA.POLAR>
0

>  <SCORE.INTRA.POLAR.0>
0

>  <SCORE.INTRA.REPUL>
0

>  <SCORE.INTRA.REPUL.0>
0

>  <SCORE.INTRA.SOLV>
-0.53523

>  <SCORE.INTRA.SOLV.lig_0>
-41.4168

>  <SCORE.INTRA.VDW>
-0.460769

>  <SCORE.INTRA.VDW.0>
-1.62533

>  <SCORE.INTRA.norm>
-0.0665243

>  <SCORE.RESTR>
0

>  <SCORE.RESTR.CAVITY>
0

>  <SCORE.RESTR.norm>
0

>  <SCORE.SYSTEM>
0

>  <SCORE.SYSTEM.CONST>
0

>  <SCORE.SYSTEM.DIHEDRAL>
0

>  <SCORE.SYSTEM.SOLV>
0

>  <SCORE.SYSTEM.norm>
0

>  <SCORE.heavy>
22

>  <SCORE.norm>
-0.770857

>  <RMSD>
17.725

$$$$
lig.pdb
 OpenBabel11021811523D
libRbt.so/2013.1/901 2013/11/27
 22 23  0  0  0  0  0  0  0  0999 V2000
   21.8931  -41.7040  -28.2100 O   0  0  0  0  0  0  0  0  0  0  0  0
   20.8029  -42.0777  -28.6135 C   0  0  0  0  0  0  0  0  0  0  0  0
   20.6127  -42.4543  -29.8780 N   0  0  0  0  0  0  0  0  0  0  0  0
   19.6429  -42.1025  -27.6781 C   0  0  0  0  0  0  0  0  0  0  0  0
   18.3201  -42.6516  -28.0151 C   0  0  0  0  0  0  0  0  0  0  0  0
   17.9546  -43.2391  -29.2975 N   0  0  0  0  0  0  0  0  0  0  0  0
   19.4965  -41.6876  -26.4003 N   0  0  0  0  0  0  0  0  0  0  0  0
   18.2134  -41.9573  -26.0060 C   0  0  0  0  0  0  0  0  0  0  0  0
   17.4940  -42.5448  -26.9869 N   0  0  0  0  0  0  0  0  0  0  0  0
   16.0795  -42.9819  -26.9295 C   0  0  1  0  0  0  0  0  0  0  0  0
   15.3691  -42.6603  -28.2340 C   0  0  1  0  0  0  0  0  0  0  0  0
   14.3699  -43.7815  -28.3611 C   0  0  2  0  0  0  0  0  0  0  0  0
   13.1947  -43.4567  -27.6157 O   0  0  0  0  0  0  0  0  0  0  0  0
   14.6933  -41.4044  -28.1570 O   0  0  0  0  0  0  0  0  0  0  0  0
   15.9830  -44.3998  -26.7505 O   0  0  0  0  0  0  0  0  0  0  0  0
   15.0678  -44.9536  -27.6990 C   0  0  2  0  0  0  0  0  0  0  0  0
   15.8164  -45.7709  -28.7405 C   0  0  0  0  0  0  0  0  0  0  0  0
   14.8674  -46.2994  -29.6654 O   0  0  0  0  0  0  0  0  0  0  0  0
   15.3321  -47.1169  -30.9736 P   0  0  0  0  0  0  0  0  0  0  0  0
   16.1066  -48.3002  -30.4411 O   0  0  0  0  0  0  0  0  0  0  0  0
   16.1733  -46.1122  -31.7248 O   0  0  0  0  0  0  0  0  0  0  0  0
   14.0267  -47.4782  -31.6428 O   0  0  0  0  0  0  0  0  0  0  0  0
  1  2  2  0  0  0  0
  2  4  1  0  0  0  0
  2  3  1  0  0  0  0
  4  7  1  0  0  0  0
  5  9  1  0  0  0  0
  5  4  2  0  0  0  0
  6  5  1  0  0  0  0
  8  7  2  0  0  0  0
  9  8  1  0  0  0  0
 10 15  1  0  0  0  0
 10  9  1  6  0  0  0
 10 11  1  0  0  0  0
 11 14  1  1  0  0  0
 11 12  1  0  0  0  0
 12 13  1  1  0  0  0
 15 16  1  0  0  0  0
 16 12  1  0  0  0  0
 16 17  1  6  0  0  0
 17 18  1  0  0  0  0
 18 19  1  0  0  0  0
 19 21  1  0  0  0  0
 19 20  1  0  0  0  0
 22 19  2  0  0  0  0
M  END
>  <CHROM.1>
-173.91402808,-40.41824192,-62.53206367,174.85576207,59.77009255,16.72458579
-44.12414727,-28.73088027,-0.85109954,-0.23443887,-2.41309643

>  <Name>
lig.pdb

>  <RI>
0

>  <Rbt.Current_Directory>
/home/itssahil/PROJECTS/Mol_Feturizer/New_Systems/rnas/5btp

>  <Rbt.Executable>
rbdock ($Id: //depot/dev/client3/rdock/2013.1/src/exe/rbdock.cxx#4 $)

>  <Rbt.Library>
libRbt.so (2013.1, Build901 2013/11/27)

>  <Rbt.Parameter_File>
/export/apps/rDock/src/rDock_2013.1_src/data/scripts/dock_solv.prm

>  <Rbt.Receptor>
prm/blind_docking_80.prm

>  <SCORE>
-15.3245

>  <SCORE.INTER>
-14.7552

>  <SCORE.INTER.CONST>
1

>  <SCORE.INTER.POLAR>
0

>  <SCORE.INTER.ROT>
5

>  <SCORE.INTER.SOLV>
13.342

>  <SCORE.INTER.VDW>
-21.2175

>  <SCORE.INTER.norm>
-0.670693

>  <SCORE.INTRA>
-0.569217

>  <SCORE.INTRA.DIHEDRAL>
-1.502

>  <SCORE.INTRA.DIHEDRAL.0>
4.21161

>  <SCORE.INTRA.POLAR>
0

>  <SCORE.INTRA.POLAR.0>
0

>  <SCORE.INTRA.REPUL>
0

>  <SCORE.INTRA.REPUL.0>
0

>  <SCORE.INTRA.SOLV>
1.2513

>  <SCORE.INTRA.SOLV.lig_0>
-41.4168

>  <SCORE.INTRA.VDW>
-0.443865

>  <SCORE.INTRA.VDW.0>
-1.62533

>  <SCORE.INTRA.norm>
-0.0258735

>  <SCORE.RESTR>
0

>  <SCORE.RESTR.CAVITY>
0

>  <SCORE.RESTR.norm>
0

>  <SCORE.SYSTEM>
0

>  <SCORE.SYSTEM.CONST>
0

>  <SCORE.SYSTEM.DIHEDRAL>
0

>  <SCORE.SYSTEM.SOLV>
0

>  <SCORE.SYSTEM.norm>
0

>  <SCORE.heavy>
22

>  <SCORE.norm>
-0.696567

>  <RMSD>
17.755

$$$$
lig.pdb
 OpenBabel11021811523D
libRbt.so/2013.1/901 2013/11/27
 22 23  0  0  0  0  0  0  0  0999 V2000
   20.7196  -42.4897  -29.7231 O   0  0  0  0  0  0  0  0  0  0  0  0
   20.8652  -42.1427  -28.5615 C   0  0  0  0  0  0  0  0  0  0  0  0
   22.0548  -41.7836  -28.0790 N   0  0  0  0  0  0  0  0  0  0  0  0
   19.6894  -42.1314  -27.6458 C   0  0  0  0  0  0  0  0  0  0  0  0
   18.3675  -42.6778  -27.9902 C   0  0  0  0  0  0  0  0  0  0  0  0
   18.0182  -43.2973  -29.2621 N   0  0  0  0  0  0  0  0  0  0  0  0
   19.5253  -41.6800  -26.3826 N   0  0  0  0  0  0  0  0  0  0  0  0
   18.2332  -41.9274  -26.0031 C   0  0  0  0  0  0  0  0  0  0  0  0
   17.5251  -42.5353  -26.9797 N   0  0  0  0  0  0  0  0  0  0  0  0
   16.1058  -42.9582  -26.9345 C   0  0  1  0  0  0  0  0  0  0  0  0
   15.4084  -42.6239  -28.2429 C   0  0  1  0  0  0  0  0  0  0  0  0
   14.3988  -43.7344  -28.3821 C   0  0  2  0  0  0  0  0  0  0  0  0
   13.2215  -43.4006  -27.6440 O   0  0  0  0  0  0  0  0  0  0  0  0
   14.7449  -41.3616  -28.1657 O   0  0  0  0  0  0  0  0  0  0  0  0
   15.9935  -44.3758  -26.7622 O   0  0  0  0  0  0  0  0  0  0  0  0
   15.0798  -44.9163  -27.7198 C   0  0  2  0  0  0  0  0  0  0  0  0
   15.8278  -45.7369  -28.7591 C   0  0  0  0  0  0  0  0  0  0  0  0
   14.8772  -46.2766  -29.6759 O   0  0  0  0  0  0  0  0  0  0  0  0
   15.3396  -47.1130  -30.9730 P   0  0  0  0  0  0  0  0  0  0  0  0
   14.0542  -47.5738  -31.6201 O   0  0  0  0  0  0  0  0  0  0  0  0
   16.1716  -48.2273  -30.3836 O   0  0  0  0  0  0  0  0  0  0  0  0
   16.1161  -46.1017  -31.7833 O   0  0  0  0  0  0  0  0  0  0  0  0
  1  2  2  0  0  0  0
  2  4  1  0  0  0  0
  2  3  1  0  0  0  0
  4  7  1  0  0  0  0
  5  9  1  0  0  0  0
  5  4  2  0  0  0  0
  6  5  1  0  0  0  0
  8  7  2  0  0  0  0
  9  8  1  0  0  0  0
 10 15  1  0  0  0  0
 10  9  1  6  0  0  0
 10 11  1  0  0  0  0
 11 14  1  1  0  0  0
 11 12  1  0  0  0  0
 12 13  1  1  0  0  0
 15 16  1  0  0  0  0
 16 12  1  0  0  0  0
 16 17  1  6  0  0  0
 17 18  1  0  0  0  0
 18 19  1  0  0  0  0
 19 21  1  0  0  0  0
 19 20  1  0  0  0  0
 22 19  2  0  0  0  0
M  END
>  <CHROM.1>
8.21431384,-42.31755142,-63.81742046,175.45876510,176.52703067,16.75248723
-44.12470858,-28.72597922,-0.85173398,-0.21342532,-2.41952153

>  <Name>
lig.pdb

>  <RI>
0

>  <Rbt.Current_Directory>
/home/itssahil/PROJECTS/Mol_Feturizer/New_Systems/rnas/5btp

>  <Rbt.Executable>
rbdock ($Id: //depot/dev/client3/rdock/2013.1/src/exe/rbdock.cxx#4 $)

>  <Rbt.Library>
libRbt.so (2013.1, Build901 2013/11/27)

>  <Rbt.Parameter_File>
/export/apps/rDock/src/rDock_2013.1_src/data/scripts/dock_solv.prm

>  <Rbt.Receptor>
prm/blind_docking_80.prm

>  <SCORE>
-15.1966

>  <SCORE.INTER>
-14.659

>  <SCORE.INTER.CONST>
1

>  <SCORE.INTER.POLAR>
0

>  <SCORE.INTER.ROT>
5

>  <SCORE.INTER.SOLV>
13.9279

>  <SCORE.INTER.VDW>
-21.3486

>  <SCORE.INTER.norm>
-0.666318

>  <SCORE.INTRA>
-0.552846

>  <SCORE.INTRA.DIHEDRAL>
-1.37675

>  <SCORE.INTRA.DIHEDRAL.0>
4.21161

>  <SCORE.INTRA.POLAR>
0

>  <SCORE.INTRA.POLAR.0>
0

>  <SCORE.INTRA.REPUL>
0

>  <SCORE.INTRA.REPUL.0>
0

>  <SCORE.INTRA.SOLV>
1.22856

>  <SCORE.INTRA.SOLV.lig_0>
-41.4168

>  <SCORE.INTRA.VDW>
-0.478751

>  <SCORE.INTRA.VDW.0>
-1.62533

>  <SCORE.INTRA.norm>
-0.0251294

>  <SCORE.RESTR>
0.0152751

>  <SCORE.RESTR.CAVITY>
0.0152751

>  <SCORE.RESTR.norm>
0.000694322

>  <SCORE.SYSTEM>
0

>  <SCORE.SYSTEM.CONST>
0

>  <SCORE.SYSTEM.DIHEDRAL>
0

>  <SCORE.SYSTEM.SOLV>
0

>  <SCORE.SYSTEM.norm>
0

>  <SCORE.heavy>
22

>  <SCORE.norm>
-0.690753

>  <RMSD>
17.766

$$$$
lig.pdb
 OpenBabel11021811523D
libRbt.so/2013.1/901 2013/11/27
 22 23  0  0  0  0  0  0  0  0999 V2000
   13.5177  -42.6538  -26.5909 O   0  0  0  0  0  0  0  0  0  0  0  0
   14.3549  -42.3791  -27.4364 C   0  0  0  0  0  0  0  0  0  0  0  0
   14.0256  -42.1778  -28.7123 N   0  0  0  0  0  0  0  0  0  0  0  0
   15.7892  -42.2789  -27.0439 C   0  0  0  0  0  0  0  0  0  0  0  0
   16.8734  -41.8974  -27.9625 C   0  0  0  0  0  0  0  0  0  0  0  0
   16.7059  -41.5710  -29.3727 N   0  0  0  0  0  0  0  0  0  0  0  0
   16.4257  -42.4750  -25.8680 N   0  0  0  0  0  0  0  0  0  0  0  0
   17.7606  -42.2376  -26.0580 C   0  0  0  0  0  0  0  0  0  0  0  0
   18.0371  -41.8853  -27.3325 N   0  0  0  0  0  0  0  0  0  0  0  0
   19.3605  -41.5520  -27.9090 C   0  0  1  0  0  0  0  0  0  0  0  0
   20.2644  -42.7739  -27.9097 C   0  0  1  0  0  0  0  0  0  0  0  0
   21.1093  -42.5697  -29.1411 C   0  0  2  0  0  0  0  0  0  0  0  0
   22.2162  -41.7240  -28.8222 O   0  0  0  0  0  0  0  0  0  0  0  0
   21.0904  -42.8048  -26.7450 O   0  0  0  0  0  0  0  0  0  0  0  0
   19.2398  -41.1323  -29.2733 O   0  0  0  0  0  0  0  0  0  0  0  0
   20.1813  -41.8344  -30.0885 C   0  0  2  0  0  0  0  0  0  0  0  0
   19.4632  -42.8268  -30.9900 C   0  0  0  0  0  0  0  0  0  0  0  0
   18.5580  -43.5872  -30.1915 O   0  0  0  0  0  0  0  0  0  0  0  0
   17.4478  -44.5455  -30.8585 P   0  0  0  0  0  0  0  0  0  0  0  0
   16.9825  -45.4451  -29.7370 O   0  0  0  0  0  0  0  0  0  0  0  0
   18.2177  -45.2570  -31.9458 O   0  0  0  0  0  0  0  0  0  0  0  0
   16.4001  -43.5759  -31.3533 O   0  0  0  0  0  0  0  0  0  0  0  0
  1  2  2  0  0  0  0
  2  4  1  0  0  0  0
  2  3  1  0  0  0  0
  4  7  1  0  0  0  0
  5  9  1  0  0  0  0
  5  4  2  0  0  0  0
  6  5  1  0  0  0  0
  8  7  2  0  0  0  0
  9  8  1  0  0  0  0
 10 15  1  0  0  0  0
 10  9  1  6  0  0  0
 10 11  1  0  0  0  0
 11 14  1  1  0  0  0
 11 12  1  0  0  0  0
 12 13  1  1  0  0  0
 15 16  1  0  0  0  0
 16 12  1  0  0  0  0
 16 17  1  6  0  0  0
 17 18  1  0  0  0  0
 18 19  1  0  0  0  0
 19 21  1  0  0  0  0
 19 20  1  0  0  0  0
 22 19  2  0  0  0  0
M  END
>  <CHROM.1>
-177.19240464,-114.01313527,68.39927013,168.90086761,164.28895897,17.91742518
-42.83027686,-28.86843147,-2.89337520,-0.14518942,-2.06958688

>  <Name>
lig.pdb

>  <RI>
0

>  <Rbt.Current_Directory>
/home/itssahil/PROJECTS/Mol_Feturizer/New_Systems/rnas/5btp

>  <Rbt.Executable>
rbdock ($Id: //depot/dev/client3/rdock/2013.1/src/exe/rbdock.cxx#4 $)

>  <Rbt.Library>
libRbt.so (2013.1, Build901 2013/11/27)

>  <Rbt.Parameter_File>
/export/apps/rDock/src/rDock_2013.1_src/data/scripts/dock_solv.prm

>  <Rbt.Receptor>
prm/blind_docking_80.prm

>  <SCORE>
-16.8285

>  <SCORE.INTER>
-16.9027

>  <SCORE.INTER.CONST>
1

>  <SCORE.INTER.POLAR>
0

>  <SCORE.INTER.ROT>
5

>  <SCORE.INTER.SOLV>
17.8111

>  <SCORE.INTER.VDW>
-24.1388

>  <SCORE.INTER.norm>
-0.768305

>  <SCORE.INTRA>
0.0741659

>  <SCORE.INTRA.DIHEDRAL>
-0.553525

>  <SCORE.INTRA.DIHEDRAL.0>
4.21161

>  <SCORE.INTRA.POLAR>
0

>  <SCORE.INTRA.POLAR.0>
0

>  <SCORE.INTRA.REPUL>
0

>  <SCORE.INTRA.REPUL.0>
0

>  <SCORE.INTRA.SOLV>
3.82557

>  <SCORE.INTRA.SOLV.lig_0>
-41.4168

>  <SCORE.INTRA.VDW>
-1.56186

>  <SCORE.INTRA.VDW.0>
-1.62533

>  <SCORE.INTRA.norm>
0.00337118

>  <SCORE.RESTR>
0

>  <SCORE.RESTR.CAVITY>
0

>  <SCORE.RESTR.norm>
0

>  <SCORE.SYSTEM>
0

>  <SCORE.SYSTEM.CONST>
0

>  <SCORE.SYSTEM.DIHEDRAL>
0

>  <SCORE.SYSTEM.SOLV>
0

>  <SCORE.SYSTEM.norm>
0

>  <SCORE.heavy>
22

>  <SCORE.norm>
-0.764933

>  <RMSD>
17.901

$$$$
lig.pdb
 OpenBabel11021811523D
libRbt.so/2013.1/901 2013/11/27
 22 23  0  0  0  0  0  0  0  0999 V2000
   12.0558  -41.9481  -30.1192 O   0  0  0  0  0  0  0  0  0  0  0  0
   12.8287  -42.4932  -30.8916 C   0  0  0  0  0  0  0  0  0  0  0  0
   12.4030  -43.1081  -31.9950 N   0  0  0  0  0  0  0  0  0  0  0  0
   14.2889  -42.4896  -30.5934 C   0  0  0  0  0  0  0  0  0  0  0  0
   14.8915  -41.8422  -29.4176 C   0  0  0  0  0  0  0  0  0  0  0  0
   14.1586  -41.1154  -28.3891 N   0  0  0  0  0  0  0  0  0  0  0  0
   15.3493  -43.0271  -31.2361 N   0  0  0  0  0  0  0  0  0  0  0  0
   16.4790  -42.7321  -30.5211 C   0  0  0  0  0  0  0  0  0  0  0  0
   16.2040  -42.0108  -29.4125 N   0  0  0  0  0  0  0  0  0  0  0  0
   17.1639  -41.5126  -28.3998 C   0  0  1  0  0  0  0  0  0  0  0  0
   17.4808  -42.5996  -27.3860 C   0  0  1  0  0  0  0  0  0  0  0  0
   18.9119  -42.3086  -27.0133 C   0  0  2  0  0  0  0  0  0  0  0  0
   18.9423  -41.3134  -25.9882 O   0  0  0  0  0  0  0  0  0  0  0  0
   16.6406  -42.4929  -26.2360 O   0  0  0  0  0  0  0  0  0  0  0  0
   18.4086  -41.1425  -29.0046 O   0  0  0  0  0  0  0  0  0  0  0  0
   19.4972  -41.7270  -28.2855 C   0  0  2  0  0  0  0  0  0  0  0  0
   20.1462  -42.8269  -29.1114 C   0  0  0  0  0  0  0  0  0  0  0  0
   21.2844  -42.2798  -29.7749 O   0  0  0  0  0  0  0  0  0  0  0  0
   22.7256  -42.2132  -29.0577 P   0  0  0  0  0  0  0  0  0  0  0  0
   23.2887  -43.6101  -29.1804 O   0  0  0  0  0  0  0  0  0  0  0  0
   22.3864  -41.8029  -27.6443 O   0  0  0  0  0  0  0  0  0  0  0  0
   23.4682  -41.1707  -29.8602 O   0  0  0  0  0  0  0  0  0  0  0  0
  1  2  2  0  0  0  0
  2  4  1  0  0  0  0
  2  3  1  0  0  0  0
  4  7  1  0  0  0  0
  5  9  1  0  0  0  0
  5  4  2  0  0  0  0
  6  5  1  0  0  0  0
  8  7  2  0  0  0  0
  9  8  1  0  0  0  0
 10 15  1  0  0  0  0
 10  9  1  6  0  0  0
 10 11  1  0  0  0  0
 11 14  1  1  0  0  0
 11 12  1  0  0  0  0
 12 13  1  1  0  0  0
 15 16  1  0  0  0  0
 16 12  1  0  0  0  0
 16 17  1  6  0  0  0
 17 18  1  0  0  0  0
 18 19  1  0  0  0  0
 19 21  1  0  0  0  0
 19 20  1  0  0  0  0
 22 19  2  0  0  0  0
M  END
>  <CHROM.1>
-1.08510825,96.85896504,-145.78145464,86.11277933,79.16375093,18.09534147
-42.16174025,-29.02862029,-2.97784659,-0.01849982,1.36633184

>  <Name>
lig.pdb

>  <RI>
0

>  <Rbt.Current_Directory>
/home/itssahil/PROJECTS/Mol_Feturizer/New_Systems/rnas/5btp

>  <Rbt.Executable>
rbdock ($Id: //depot/dev/client3/rdock/2013.1/src/exe/rbdock.cxx#4 $)

>  <Rbt.Library>
libRbt.so (2013.1, Build901 2013/11/27)

>  <Rbt.Parameter_File>
/export/apps/rDock/src/rDock_2013.1_src/data/scripts/dock_solv.prm

>  <Rbt.Receptor>
prm/blind_docking_80.prm

>  <SCORE>
-14.7255

>  <SCORE.INTER>
-16.6641

>  <SCORE.INTER.CONST>
1

>  <SCORE.INTER.POLAR>
0

>  <SCORE.INTER.ROT>
5

>  <SCORE.INTER.SOLV>
18.4106

>  <SCORE.INTER.VDW>
-24.1796

>  <SCORE.INTER.norm>
-0.757461

>  <SCORE.INTRA>
1.9386

>  <SCORE.INTRA.DIHEDRAL>
4.82915

>  <SCORE.INTRA.DIHEDRAL.0>
4.21161

>  <SCORE.INTRA.POLAR>
0

>  <SCORE.INTRA.POLAR.0>
0

>  <SCORE.INTRA.REPUL>
0

>  <SCORE.INTRA.REPUL.0>
0

>  <SCORE.INTRA.SOLV>
0.246846

>  <SCORE.INTRA.SOLV.lig_0>
-41.4168

>  <SCORE.INTRA.VDW>
-0.5994

>  <SCORE.INTRA.VDW.0>
-1.62533

>  <SCORE.INTRA.norm>
0.0881182

>  <SCORE.RESTR>
0

>  <SCORE.RESTR.CAVITY>
0

>  <SCORE.RESTR.norm>
0

>  <SCORE.SYSTEM>
0

>  <SCORE.SYSTEM.CONST>
0

>  <SCORE.SYSTEM.DIHEDRAL>
0

>  <SCORE.SYSTEM.SOLV>
0

>  <SCORE.SYSTEM.norm>
0

>  <SCORE.heavy>
22

>  <SCORE.norm>
-0.669343

>  <RMSD>
17.939

$$$$
lig.pdb
 OpenBabel11021811523D
libRbt.so/2013.1/901 2013/11/27
 22 23  0  0  0  0  0  0  0  0999 V2000
   21.9558  -42.2812  -26.5861 O   0  0  0  0  0  0  0  0  0  0  0  0
   21.6906  -42.3323  -27.7769 C   0  0  0  0  0  0  0  0  0  0  0  0
   22.6395  -42.2751  -28.7114 N   0  0  0  0  0  0  0  0  0  0  0  0
   20.2686  -42.4464  -28.2082 C   0  0  0  0  0  0  0  0  0  0  0  0
   19.1223  -42.4501  -27.2858 C   0  0  0  0  0  0  0  0  0  0  0  0
   19.2092  -42.3489  -25.8348 N   0  0  0  0  0  0  0  0  0  0  0  0
   19.6941  -42.5542  -29.4266 N   0  0  0  0  0  0  0  0  0  0  0  0
   18.3370  -42.6184  -29.2569 C   0  0  0  0  0  0  0  0  0  0  0  0
   17.9850  -42.5550  -27.9542 N   0  0  0  0  0  0  0  0  0  0  0  0
   16.6168  -42.5920  -27.3871 C   0  0  1  0  0  0  0  0  0  0  0  0
   15.5862  -42.2864  -28.4616 C   0  0  1  0  0  0  0  0  0  0  0  0
   14.3988  -43.1118  -28.0368 C   0  0  2  0  0  0  0  0  0  0  0  0
   13.6377  -42.3856  -27.0696 O   0  0  0  0  0  0  0  0  0  0  0  0
   15.2449  -40.8995  -28.4691 O   0  0  0  0  0  0  0  0  0  0  0  0
   16.3026  -43.8936  -26.8781 O   0  0  0  0  0  0  0  0  0  0  0  0
   15.0281  -44.3181  -27.3674 C   0  0  2  0  0  0  0  0  0  0  0  0
   15.1974  -45.4445  -28.3752 C   0  0  0  0  0  0  0  0  0  0  0  0
   16.0715  -44.9958  -29.4095 O   0  0  0  0  0  0  0  0  0  0  0  0
   16.3874  -45.9081  -30.6994 P   0  0  0  0  0  0  0  0  0  0  0  0
   15.0422  -46.1587  -31.3404 O   0  0  0  0  0  0  0  0  0  0  0  0
   17.0282  -47.1378  -30.1008 O   0  0  0  0  0  0  0  0  0  0  0  0
   17.3162  -45.0443  -31.5201 O   0  0  0  0  0  0  0  0  0  0  0  0
  1  2  2  0  0  0  0
  2  4  1  0  0  0  0
  2  3  1  0  0  0  0
  4  7  1  0  0  0  0
  5  9  1  0  0  0  0
  5  4  2  0  0  0  0
  6  5  1  0  0  0  0
  8  7  2  0  0  0  0
  9  8  1  0  0  0  0
 10 15  1  0  0  0  0
 10  9  1  6  0  0  0
 10 11  1  0  0  0  0
 11 14  1  1  0  0  0
 11 12  1  0  0  0  0
 12 13  1  1  0  0  0
 15 16  1  0  0  0  0
 16 12  1  0  0  0  0
 16 17  1  6  0  0  0
 17 18  1  0  0  0  0
 18 19  1  0  0  0  0
 19 21  1  0  0  0  0
 19 20  1  0  0  0  0
 22 19  2  0  0  0  0
M  END
>  <CHROM.1>
2.54641743,162.42862884,61.58216361,-175.67549908,58.90001171,17.35848284
-43.63948838,-28.61701217,-0.54311685,-0.08979257,-2.37785796

>  <Name>
lig.pdb

>  <RI>
0

>  <Rbt.Current_Directory>
/home/itssahil/PROJECTS/Mol_Feturizer/New_Systems/rnas/5btp

>  <Rbt.Executable>
rbdock ($Id: //depot/dev/client3/rdock/2013.1/src/exe/rbdock.cxx#4 $)

>  <Rbt.Library>
libRbt.so (2013.1, Build901 2013/11/27)

>  <Rbt.Parameter_File>
/export/apps/rDock/src/rDock_2013.1_src/data/scripts/dock_solv.prm

>  <Rbt.Receptor>
prm/blind_docking_60.prm

>  <SCORE>
-15.8549

>  <SCORE.INTER>
-14.7917

>  <SCORE.INTER.CONST>
1

>  <SCORE.INTER.POLAR>
0

>  <SCORE.INTER.ROT>
5

>  <SCORE.INTER.SOLV>
16.2159

>  <SCORE.INTER.VDW>
-22.1997

>  <SCORE.INTER.norm>
-0.672349

>  <SCORE.INTRA>
-1.06367

>  <SCORE.INTRA.DIHEDRAL>
-1.675

>  <SCORE.INTRA.DIHEDRAL.0>
4.21161

>  <SCORE.INTRA.POLAR>
0

>  <SCORE.INTRA.POLAR.0>
0

>  <SCORE.INTRA.REPUL>
0

>  <SCORE.INTRA.REPUL.0>
0

>  <SCORE.INTRA.SOLV>
0.757232

>  <SCORE.INTRA.SOLV.lig_0>
-41.4168

>  <SCORE.INTRA.VDW>
-0.604783

>  <SCORE.INTRA.VDW.0>
-1.62533

>  <SCORE.INTRA.norm>
-0.0483485

>  <SCORE.RESTR>
0.00047602

>  <SCORE.RESTR.CAVITY>
0.00047602

>  <SCORE.RESTR.norm>
2.16373e-05

>  <SCORE.SYSTEM>
0

>  <SCORE.SYSTEM.CONST>
0

>  <SCORE.SYSTEM.DIHEDRAL>
0

>  <SCORE.SYSTEM.SOLV>
0

>  <SCORE.SYSTEM.norm>
0

>  <SCORE.heavy>
22

>  <SCORE.norm>
-0.720676

>  <RMSD>
18.070

$$$$
lig.pdb
 OpenBabel11021811523D
libRbt.so/2013.1/901 2013/11/27
 22 23  0  0  0  0  0  0  0  0999 V2000
   23.1662  -42.1594  -28.7887 O   0  0  0  0  0  0  0  0  0  0  0  0
   22.2935  -42.2602  -27.9406 C   0  0  0  0  0  0  0  0  0  0  0  0
   22.5827  -42.4622  -26.6551 N   0  0  0  0  0  0  0  0  0  0  0  0
   20.8621  -42.1715  -28.3459 C   0  0  0  0  0  0  0  0  0  0  0  0
   19.7300  -42.2743  -27.4118 C   0  0  0  0  0  0  0  0  0  0  0  0
   19.8416  -42.4800  -25.9735 N   0  0  0  0  0  0  0  0  0  0  0  0
   20.2667  -41.9816  -29.5441 N   0  0  0  0  0  0  0  0  0  0  0  0
   18.9110  -41.9726  -29.3529 C   0  0  0  0  0  0  0  0  0  0  0  0
   18.5803  -42.1503  -28.0553 N   0  0  0  0  0  0  0  0  0  0  0  0
   17.2203  -42.1953  -27.4694 C   0  0  1  0  0  0  0  0  0  0  0  0
   16.1745  -41.8774  -28.5253 C   0  0  1  0  0  0  0  0  0  0  0  0
   14.9937  -42.7089  -28.0939 C   0  0  2  0  0  0  0  0  0  0  0  0
   14.2459  -41.9953  -27.1072 O   0  0  0  0  0  0  0  0  0  0  0  0
   15.8322  -40.4909  -28.5111 O   0  0  0  0  0  0  0  0  0  0  0  0
   16.9142  -43.5033  -26.9720 O   0  0  0  0  0  0  0  0  0  0  0  0
   15.6332  -43.9228  -27.4483 C   0  0  2  0  0  0  0  0  0  0  0  0
   15.7889  -45.0368  -28.4721 C   0  0  0  0  0  0  0  0  0  0  0  0
   14.4886  -45.4565  -28.8820 O   0  0  0  0  0  0  0  0  0  0  0  0
   14.2767  -46.4099  -30.1634 P   0  0  0  0  0  0  0  0  0  0  0  0
   15.2464  -47.5519  -29.9662 O   0  0  0  0  0  0  0  0  0  0  0  0
   14.6132  -45.5038  -31.3240 O   0  0  0  0  0  0  0  0  0  0  0  0
   12.8219  -46.8059  -30.0686 O   0  0  0  0  0  0  0  0  0  0  0  0
  1  2  2  0  0  0  0
  2  4  1  0  0  0  0
  2  3  1  0  0  0  0
  4  7  1  0  0  0  0
  5  9  1  0  0  0  0
  5  4  2  0  0  0  0
  6  5  1  0  0  0  0
  8  7  2  0  0  0  0
  9  8  1  0  0  0  0
 10 15  1  0  0  0  0
 10  9  1  6  0  0  0
 10 11  1  0  0  0  0
 11 14  1  1  0  0  0
 11 12  1  0  0  0  0
 12 13  1  1  0  0  0
 15 16  1  0  0  0  0
 16 12  1  0  0  0  0
 16 17  1  6  0  0  0
 17 18  1  0  0  0  0
 18 19  1  0  0  0  0
 19 21  1  0  0  0  0
 19 20  1  0  0  0  0
 22 19  2  0  0  0  0
M  END
>  <CHROM.1>
-179.79516767,174.48641075,-64.80500769,167.66140739,49.45501477,17.18674038
-43.56603385,-28.54122218,-0.53918036,-0.04091016,-2.61861881

>  <Name>
lig.pdb

>  <RI>
0

>  <Rbt.Current_Directory>
/home/itssahil/PROJECTS/Mol_Feturizer/New_Systems/rnas/5btp

>  <Rbt.Executable>
rbdock ($Id: //depot/dev/client3/rdock/2013.1/src/exe/rbdock.cxx#4 $)

>  <Rbt.Library>
libRbt.so (2013.1, Build901 2013/11/27)

>  <Rbt.Parameter_File>
/export/apps/rDock/src/rDock_2013.1_src/data/scripts/dock_solv.prm

>  <Rbt.Receptor>
prm/blind_docking_100.prm

>  <SCORE>
-11.0874

>  <SCORE.INTER>
-11.6865

>  <SCORE.INTER.CONST>
1

>  <SCORE.INTER.POLAR>
0

>  <SCORE.INTER.ROT>
5

>  <SCORE.INTER.SOLV>
17.8428

>  <SCORE.INTER.VDW>
-20.6719

>  <SCORE.INTER.norm>
-0.531206

>  <SCORE.INTRA>
-0.0565076

>  <SCORE.INTRA.DIHEDRAL>
-0.806502

>  <SCORE.INTRA.DIHEDRAL.0>
4.21161

>  <SCORE.INTRA.POLAR>
0

>  <SCORE.INTRA.POLAR.0>
0

>  <SCORE.INTRA.REPUL>
0

>  <SCORE.INTRA.REPUL.0>
0

>  <SCORE.INTRA.SOLV>
0.00813706

>  <SCORE.INTRA.SOLV.lig_0>
-41.4168

>  <SCORE.INTRA.VDW>
0.342675

>  <SCORE.INTRA.VDW.0>
-1.62533

>  <SCORE.INTRA.norm>
-0.00256853

>  <SCORE.RESTR>
0.65563

>  <SCORE.RESTR.CAVITY>
0.65563

>  <SCORE.RESTR.norm>
0.0298013

>  <SCORE.SYSTEM>
0

>  <SCORE.SYSTEM.CONST>
0

>  <SCORE.SYSTEM.DIHEDRAL>
0

>  <SCORE.SYSTEM.SOLV>
0

>  <SCORE.SYSTEM.norm>
0

>  <SCORE.heavy>
22

>  <SCORE.norm>
-0.503973

>  <RMSD>
18.360

$$$$
lig.pdb
 OpenBabel11021811523D
libRbt.so/2013.1/901 2013/11/27
 22 23  0  0  0  0  0  0  0  0999 V2000
   23.9127  -42.1585  -28.3286 O   0  0  0  0  0  0  0  0  0  0  0  0
   23.2913  -42.3329  -27.2920 C   0  0  0  0  0  0  0  0  0  0  0  0
   23.9083  -42.5522  -26.1310 N   0  0  0  0  0  0  0  0  0  0  0  0
   21.8012  -42.3170  -27.3178 C   0  0  0  0  0  0  0  0  0  0  0  0
   20.9969  -42.1416  -28.5373 C   0  0  0  0  0  0  0  0  0  0  0  0
   21.5328  -41.9555  -29.8795 N   0  0  0  0  0  0  0  0  0  0  0  0
   20.8737  -42.4549  -26.3447 N   0  0  0  0  0  0  0  0  0  0  0  0
   19.6337  -42.3695  -26.9188 C   0  0  0  0  0  0  0  0  0  0  0  0
   19.7047  -42.1790  -28.2543 N   0  0  0  0  0  0  0  0  0  0  0  0
   18.5782  -42.0424  -29.2068 C   0  0  1  0  0  0  0  0  0  0  0  0
   18.2492  -43.3849  -29.8388 C   0  0  1  0  0  0  0  0  0  0  0  0
   16.7600  -43.3011  -30.0563 C   0  0  2  0  0  0  0  0  0  0  0  0
   16.4978  -42.6311  -31.2910 O   0  0  0  0  0  0  0  0  0  0  0  0
   18.9214  -43.5451  -31.0887 O   0  0  0  0  0  0  0  0  0  0  0  0
   17.3887  -41.6014  -28.5417 O   0  0  0  0  0  0  0  0  0  0  0  0
   16.2838  -42.4307  -28.9097 C   0  0  2  0  0  0  0  0  0  0  0  0
   15.8614  -43.3000  -27.7354 C   0  0  0  0  0  0  0  0  0  0  0  0
   14.9402  -44.2807  -28.2097 O   0  0  0  0  0  0  0  0  0  0  0  0
   14.3026  -45.3835  -27.2232 P   0  0  0  0  0  0  0  0  0  0  0  0
   15.4251  -45.7666  -26.2868 O   0  0  0  0  0  0  0  0  0  0  0  0
   13.8793  -46.4839  -28.1672 O   0  0  0  0  0  0  0  0  0  0  0  0
   13.1646  -44.6438  -26.5599 O   0  0  0  0  0  0  0  0  0  0  0  0
  1  2  2  0  0  0  0
  2  4  1  0  0  0  0
  2  3  1  0  0  0  0
  4  7  1  0  0  0  0
  5  9  1  0  0  0  0
  5  4  2  0  0  0  0
  6  5  1  0  0  0  0
  8  7  2  0  0  0  0
  9  8  1  0  0  0  0
 10 15  1  0  0  0  0
 10  9  1  1  0  0  0
 10 11  1  0  0  0  0
 11 14  1  6  0  0  0
 11 12  1  0  0  0  0
 12 13  1  6  0  0  0
 15 16  1  0  0  0  0
 16 12  1  0  0  0  0
 16 17  1  1  0  0  0
 17 18  1  0  0  0  0
 18 19  1  0  0  0  0
 19 21  1  0  0  0  0
 19 20  1  0  0  0  0
 22 19  2  0  0  0  0
M  END
>  <CHROM.1>
1.92717714,85.10937375,-51.78354152,179.28458808,-38.25791684,18.09900485
-43.32134063,-28.23707533,-0.13247760,0.30545083,1.92778530

>  <Name>
lig.pdb

>  <RI>
0

>  <Rbt.Current_Directory>
/home/itssahil/PROJECTS/Mol_Feturizer/New_Systems/rnas/5btp

>  <Rbt.Executable>
rbdock ($Id: //depot/dev/client3/rdock/2013.1/src/exe/rbdock.cxx#4 $)

>  <Rbt.Library>
libRbt.so (2013.1, Build901 2013/11/27)

>  <Rbt.Parameter_File>
/export/apps/rDock/src/rDock_2013.1_src/data/scripts/dock_solv.prm

>  <Rbt.Receptor>
prm/blind_docking_60.prm

>  <SCORE>
-22.0064

>  <SCORE.INTER>
-21.5979

>  <SCORE.INTER.CONST>
1

>  <SCORE.INTER.POLAR>
0

>  <SCORE.INTER.ROT>
5

>  <SCORE.INTER.SOLV>
21.8802

>  <SCORE.INTER.VDW>
-28.6253

>  <SCORE.INTER.norm>
-0.981723

>  <SCORE.INTRA>
-0.408458

>  <SCORE.INTRA.DIHEDRAL>
-0.836917

>  <SCORE.INTRA.DIHEDRAL.0>
4.21161

>  <SCORE.INTRA.POLAR>
0

>  <SCORE.INTRA.POLAR.0>
0

>  <SCORE.INTRA.REPUL>
0

>  <SCORE.INTRA.REPUL.0>
0

>  <SCORE.INTRA.SOLV>
0.250271

>  <SCORE.INTRA.SOLV.lig_0>
-41.4168

>  <SCORE.INTRA.VDW>
-0.115135

>  <SCORE.INTRA.VDW.0>
-1.62533

>  <SCORE.INTRA.norm>
-0.0185663

>  <SCORE.RESTR>
0

>  <SCORE.RESTR.CAVITY>
0

>  <SCORE.RESTR.norm>
0

>  <SCORE.SYSTEM>
0

>  <SCORE.SYSTEM.CONST>
0

>  <SCORE.SYSTEM.DIHEDRAL>
0

>  <SCORE.SYSTEM.SOLV>
0

>  <SCORE.SYSTEM.norm>
0

>  <SCORE.heavy>
22

>  <SCORE.norm>
-1.00029

>  <RMSD>
18.427

$$$$
lig.pdb
 OpenBabel11021811523D
libRbt.so/2013.1/901 2013/11/27
 22 23  0  0  0  0  0  0  0  0999 V2000
   23.8891  -42.2166  -28.3327 O   0  0  0  0  0  0  0  0  0  0  0  0
   23.2679  -42.3490  -27.2898 C   0  0  0  0  0  0  0  0  0  0  0  0
   23.8847  -42.5389  -26.1235 N   0  0  0  0  0  0  0  0  0  0  0  0
   21.7782  -42.3140  -27.3132 C   0  0  0  0  0  0  0  0  0  0  0  0
   20.9738  -42.1456  -28.5336 C   0  0  0  0  0  0  0  0  0  0  0  0
   21.5095  -41.9857  -29.8792 N   0  0  0  0  0  0  0  0  0  0  0  0
   20.8508  -42.4258  -26.3366 N   0  0  0  0  0  0  0  0  0  0  0  0
   19.6109  -42.3324  -26.9096 C   0  0  0  0  0  0  0  0  0  0  0  0
   19.6818  -42.1619  -28.2478 N   0  0  0  0  0  0  0  0  0  0  0  0
   18.5553  -42.0243  -29.2002 C   0  0  1  0  0  0  0  0  0  0  0  0
   18.2244  -43.3666  -29.8316 C   0  0  1  0  0  0  0  0  0  0  0  0
   16.7353  -43.2809  -30.0489 C   0  0  2  0  0  0  0  0  0  0  0  0
   16.4738  -42.6110  -31.2837 O   0  0  0  0  0  0  0  0  0  0  0  0
   18.8962  -43.5281  -31.0815 O   0  0  0  0  0  0  0  0  0  0  0  0
   17.3665  -41.5815  -28.5350 O   0  0  0  0  0  0  0  0  0  0  0  0
   16.2604  -42.4094  -28.9025 C   0  0  2  0  0  0  0  0  0  0  0  0
   15.8371  -43.2777  -27.7278 C   0  0  0  0  0  0  0  0  0  0  0  0
   14.9128  -44.2559  -28.2011 O   0  0  0  0  0  0  0  0  0  0  0  0
   14.3083  -45.3853  -27.2239 P   0  0  0  0  0  0  0  0  0  0  0  0
   13.8630  -46.4997  -28.1421 O   0  0  0  0  0  0  0  0  0  0  0  0
   13.1774  -44.6662  -26.5273 O   0  0  0  0  0  0  0  0  0  0  0  0
   15.4769  -45.7413  -26.3351 O   0  0  0  0  0  0  0  0  0  0  0  0
  1  2  2  0  0  0  0
  2  4  1  0  0  0  0
  2  3  1  0  0  0  0
  4  7  1  0  0  0  0
  5  9  1  0  0  0  0
  5  4  2  0  0  0  0
  6  5  1  0  0  0  0
  8  7  2  0  0  0  0
  9  8  1  0  0  0  0
 10 15  1  0  0  0  0
 10  9  1  1  0  0  0
 10 11  1  0  0  0  0
 11 14  1  6  0  0  0
 11 12  1  0  0  0  0
 12 13  1  6  0  0  0
 15 16  1  0  0  0  0
 16 12  1  0  0  0  0
 16 17  1  1  0  0  0
 17 18  1  0  0  0  0
 18 19  1  0  0  0  0
 19 21  1  0  0  0  0
 19 20  1  0  0  0  0
 22 19  2  0  0  0  0
M  END
>  <CHROM.1>
0.89230194,84.06072123,-51.88179978,177.37018963,-157.87412629,18.08377601
-43.31488790,-28.23230190,-0.13325936,0.30422333,1.93342985

>  <Name>
lig.pdb

>  <RI>
0

>  <Rbt.Current_Directory>
/home/itssahil/PROJECTS/Mol_Feturizer/New_Systems/rnas/5btp

>  <Rbt.Executable>
rbdock ($Id: //depot/dev/client3/rdock/2013.1/src/exe/rbdock.cxx#4 $)

>  <Rbt.Library>
libRbt.so (2013.1, Build901 2013/11/27)

>  <Rbt.Parameter_File>
/export/apps/rDock/src/rDock_2013.1_src/data/scripts/dock_solv.prm

>  <Rbt.Receptor>
prm/blind_docking_60.prm

>  <SCORE>
-21.332

>  <SCORE.INTER>
-21.1207

>  <SCORE.INTER.CONST>
1

>  <SCORE.INTER.POLAR>
0

>  <SCORE.INTER.ROT>
5

>  <SCORE.INTER.SOLV>
23.0191

>  <SCORE.INTER.VDW>
-28.6868

>  <SCORE.INTER.norm>
-0.960032

>  <SCORE.INTRA>
-0.211254

>  <SCORE.INTRA.DIHEDRAL>
-0.799281

>  <SCORE.INTRA.DIHEDRAL.0>
4.21161

>  <SCORE.INTRA.POLAR>
0

>  <SCORE.INTRA.POLAR.0>
0

>  <SCORE.INTRA.REPUL>
0

>  <SCORE.INTRA.REPUL.0>
0

>  <SCORE.INTRA.SOLV>
0.411085

>  <SCORE.INTRA.SOLV.lig_0>
-41.4168

>  <SCORE.INTRA.VDW>
-0.0171564

>  <SCORE.INTRA.VDW.0>
-1.62533

>  <SCORE.INTRA.norm>
-0.00960246

>  <SCORE.RESTR>
0

>  <SCORE.RESTR.CAVITY>
0

>  <SCORE.RESTR.norm>
0

>  <SCORE.SYSTEM>
0

>  <SCORE.SYSTEM.CONST>
0

>  <SCORE.SYSTEM.DIHEDRAL>
0

>  <SCORE.SYSTEM.SOLV>
0

>  <SCORE.SYSTEM.norm>
0

>  <SCORE.heavy>
22

>  <SCORE.norm>
-0.969635

>  <RMSD>
18.427

$$$$
lig.pdb
 OpenBabel11021811523D
libRbt.so/2013.1/901 2013/11/27
 22 23  0  0  0  0  0  0  0  0999 V2000
   23.8639  -42.5031  -26.1792 O   0  0  0  0  0  0  0  0  0  0  0  0
   23.2864  -42.3594  -27.2454 C   0  0  0  0  0  0  0  0  0  0  0  0
   23.9517  -42.2223  -28.3923 N   0  0  0  0  0  0  0  0  0  0  0  0
   21.7968  -42.3196  -27.2740 C   0  0  0  0  0  0  0  0  0  0  0  0
   20.9968  -42.1644  -28.4991 C   0  0  0  0  0  0  0  0  0  0  0  0
   21.5373  -42.0239  -29.8450 N   0  0  0  0  0  0  0  0  0  0  0  0
   20.8660  -42.4155  -26.2990 N   0  0  0  0  0  0  0  0  0  0  0  0
   19.6282  -42.3254  -26.8771 C   0  0  0  0  0  0  0  0  0  0  0  0
   19.7039  -42.1726  -28.2172 N   0  0  0  0  0  0  0  0  0  0  0  0
   18.5809  -42.0436  -29.1749 C   0  0  1  0  0  0  0  0  0  0  0  0
   18.2628  -43.3885  -29.8073 C   0  0  1  0  0  0  0  0  0  0  0  0
   16.7742  -43.3140  -30.0316 C   0  0  2  0  0  0  0  0  0  0  0  0
   16.5135  -42.6464  -31.2679 O   0  0  0  0  0  0  0  0  0  0  0  0
   18.9417  -43.5454  -31.0541 O   0  0  0  0  0  0  0  0  0  0  0  0
   17.3857  -41.6094  -28.5154 O   0  0  0  0  0  0  0  0  0  0  0  0
   16.2876  -42.4456  -28.8877 C   0  0  2  0  0  0  0  0  0  0  0  0
   15.8652  -43.3167  -27.7148 C   0  0  0  0  0  0  0  0  0  0  0  0
   14.9433  -44.2961  -28.1903 O   0  0  0  0  0  0  0  0  0  0  0  0
   14.3058  -45.4004  -27.2054 P   0  0  0  0  0  0  0  0  0  0  0  0
   15.4269  -45.7813  -26.2666 O   0  0  0  0  0  0  0  0  0  0  0  0
   13.8870  -46.5016  -28.1506 O   0  0  0  0  0  0  0  0  0  0  0  0
   13.1646  -44.6633  -26.5446 O   0  0  0  0  0  0  0  0  0  0  0  0
  1  2  2  0  0  0  0
  2  4  1  0  0  0  0
  2  3  1  0  0  0  0
  4  7  1  0  0  0  0
  5  9  1  0  0  0  0
  5  4  2  0  0  0  0
  6  5  1  0  0  0  0
  8  7  2  0  0  0  0
  9  8  1  0  0  0  0
 10 15  1  0  0  0  0
 10  9  1  1  0  0  0
 10 11  1  0  0  0  0
 11 14  1  6  0  0  0
 11 12  1  0  0  0  0
 12 13  1  6  0  0  0
 15 16  1  0  0  0  0
 16 12  1  0  0  0  0
 16 17  1  1  0  0  0
 17 18  1  0  0  0  0
 18 19  1  0  0  0  0
 19 21  1  0  0  0  0
 19 20  1  0  0  0  0
 22 19  2  0  0  0  0
M  END
>  <CHROM.1>
-179.38056571,83.09759706,-52.27687851,179.26858017,-38.01306610,18.10176779
-43.33313044,-28.20313233,-0.12570485,0.30802163,1.92147080

>  <Name>
lig.pdb

>  <RI>
0

>  <Rbt.Current_Directory>
/home/itssahil/PROJECTS/Mol_Feturizer/New_Systems/rnas/5btp

>  <Rbt.Executable>
rbdock ($Id: //depot/dev/client3/rdock/2013.1/src/exe/rbdock.cxx#4 $)

>  <Rbt.Library>
libRbt.so (2013.1, Build901 2013/11/27)

>  <Rbt.Parameter_File>
/export/apps/rDock/src/rDock_2013.1_src/data/scripts/dock_solv.prm

>  <Rbt.Receptor>
prm/blind_docking_60.prm

>  <SCORE>
-21.9259

>  <SCORE.INTER>
-21.6503

>  <SCORE.INTER.CONST>
1

>  <SCORE.INTER.POLAR>
0

>  <SCORE.INTER.ROT>
5

>  <SCORE.INTER.SOLV>
21.8389

>  <SCORE.INTER.VDW>
-28.6465

>  <SCORE.INTER.norm>
-0.984105

>  <SCORE.INTRA>
-0.275621

>  <SCORE.INTRA.DIHEDRAL>
-0.861859

>  <SCORE.INTRA.DIHEDRAL.0>
4.21161

>  <SCORE.INTRA.POLAR>
0

>  <SCORE.INTRA.POLAR.0>
0

>  <SCORE.INTRA.REPUL>
0

>  <SCORE.INTRA.REPUL.0>
0

>  <SCORE.INTRA.SOLV>
0.513875

>  <SCORE.INTRA.SOLV.lig_0>
-41.4168

>  <SCORE.INTRA.VDW>
-0.101629

>  <SCORE.INTRA.VDW.0>
-1.62533

>  <SCORE.INTRA.norm>
-0.0125282

>  <SCORE.RESTR>
0

>  <SCORE.RESTR.CAVITY>
0

>  <SCORE.RESTR.norm>
0

>  <SCORE.SYSTEM>
0

>  <SCORE.SYSTEM.CONST>
0

>  <SCORE.SYSTEM.DIHEDRAL>
0

>  <SCORE.SYSTEM.SOLV>
0

>  <SCORE.SYSTEM.norm>
0

>  <SCORE.heavy>
22

>  <SCORE.norm>
-0.996633

>  <RMSD>
18.439

$$$$
lig.pdb
 OpenBabel11021811523D
libRbt.so/2013.1/901 2013/11/27
 22 23  0  0  0  0  0  0  0  0999 V2000
   24.0026  -42.1284  -28.2235 O   0  0  0  0  0  0  0  0  0  0  0  0
   23.3664  -42.3215  -27.1993 C   0  0  0  0  0  0  0  0  0  0  0  0
   23.9666  -42.5674  -26.0348 N   0  0  0  0  0  0  0  0  0  0  0  0
   21.8769  -42.2988  -27.2451 C   0  0  0  0  0  0  0  0  0  0  0  0
   21.0897  -42.1243  -28.4758 C   0  0  0  0  0  0  0  0  0  0  0  0
   21.6443  -41.9457  -29.8114 N   0  0  0  0  0  0  0  0  0  0  0  0
   20.9358  -42.4288  -26.2839 N   0  0  0  0  0  0  0  0  0  0  0  0
   19.7040  -42.3398  -26.8748 C   0  0  0  0  0  0  0  0  0  0  0  0
   19.7937  -42.1546  -28.2099 N   0  0  0  0  0  0  0  0  0  0  0  0
   18.6807  -42.0164  -29.1779 C   0  0  1  0  0  0  0  0  0  0  0  0
   18.3402  -43.3633  -29.7942 C   0  0  1  0  0  0  0  0  0  0  0  0
   16.8551  -43.2620  -30.0310 C   0  0  2  0  0  0  0  0  0  0  0  0
   16.6171  -42.6065  -31.2783 O   0  0  0  0  0  0  0  0  0  0  0  0
   19.0250  -43.5511  -31.0335 O   0  0  0  0  0  0  0  0  0  0  0  0
   17.4896  -41.5491  -28.5337 O   0  0  0  0  0  0  0  0  0  0  0  0
   16.3776  -42.3682  -28.9029 C   0  0  2  0  0  0  0  0  0  0  0  0
   15.9290  -43.2142  -27.7214 C   0  0  0  0  0  0  0  0  0  0  0  0
   15.1060  -44.2715  -28.2113 O   0  0  0  0  0  0  0  0  0  0  0  0
   14.4589  -45.3635  -27.2190 P   0  0  0  0  0  0  0  0  0  0  0  0
   15.5925  -45.7924  -26.3164 O   0  0  0  0  0  0  0  0  0  0  0  0
   13.9757  -46.4397  -28.1621 O   0  0  0  0  0  0  0  0  0  0  0  0
   13.3632  -44.5946  -26.5188 O   0  0  0  0  0  0  0  0  0  0  0  0
  1  2  2  0  0  0  0
  2  4  1  0  0  0  0
  2  3  1  0  0  0  0
  4  7  1  0  0  0  0
  5  9  1  0  0  0  0
  5  4  2  0  0  0  0
  6  5  1  0  0  0  0
  8  7  2  0  0  0  0
  9  8  1  0  0  0  0
 10 15  1  0  0  0  0
 10  9  1  1  0  0  0
 10 11  1  0  0  0  0
 11 14  1  6  0  0  0
 11 12  1  0  0  0  0
 12 13  1  6  0  0  0
 15 16  1  0  0  0  0
 16 12  1  0  0  0  0
 16 17  1  1  0  0  0
 17 18  1  0  0  0  0
 18 19  1  0  0  0  0
 19 21  1  0  0  0  0
 19 20  1  0  0  0  0
 22 19  2  0  0  0  0
M  END
>  <CHROM.1>
3.32664540,85.93510844,-46.02940947,179.89873452,-46.88558648,18.20736001
-43.29653892,-28.20101168,-0.12493239,0.30842793,1.93653976

>  <Name>
lig.pdb

>  <RI>
0

>  <Rbt.Current_Directory>
/home/itssahil/PROJECTS/Mol_Feturizer/New_Systems/rnas/5btp

>  <Rbt.Executable>
rbdock ($Id: //depot/dev/client3/rdock/2013.1/src/exe/rbdock.cxx#4 $)

>  <Rbt.Library>
libRbt.so (2013.1, Build901 2013/11/27)

>  <Rbt.Parameter_File>
/export/apps/rDock/src/rDock_2013.1_src/data/scripts/dock_solv.prm

>  <Rbt.Receptor>
prm/blind_docking_100.prm

>  <SCORE>
-21.452

>  <SCORE.INTER>
-21.1783

>  <SCORE.INTER.CONST>
1

>  <SCORE.INTER.POLAR>
0

>  <SCORE.INTER.ROT>
5

>  <SCORE.INTER.SOLV>
21.9435

>  <SCORE.INTER.VDW>
-28.3667

>  <SCORE.INTER.norm>
-0.96265

>  <SCORE.INTRA>
-0.310526

>  <SCORE.INTRA.DIHEDRAL>
-0.81224

>  <SCORE.INTRA.DIHEDRAL.0>
4.21161

>  <SCORE.INTRA.POLAR>
0

>  <SCORE.INTRA.POLAR.0>
0

>  <SCORE.INTRA.REPUL>
0

>  <SCORE.INTRA.REPUL.0>
0

>  <SCORE.INTRA.SOLV>
0.2923

>  <SCORE.INTRA.SOLV.lig_0>
-41.4168

>  <SCORE.INTRA.VDW>
-0.050556

>  <SCORE.INTRA.VDW.0>
-1.62533

>  <SCORE.INTRA.norm>
-0.0141148

>  <SCORE.RESTR>
0.0368103

>  <SCORE.RESTR.CAVITY>
0.0368103

>  <SCORE.RESTR.norm>
0.00167319

>  <SCORE.SYSTEM>
0

>  <SCORE.SYSTEM.CONST>
0

>  <SCORE.SYSTEM.DIHEDRAL>
0

>  <SCORE.SYSTEM.SOLV>
0

>  <SCORE.SYSTEM.norm>
0

>  <SCORE.heavy>
22

>  <SCORE.norm>
-0.975092

>  <RMSD>
18.456

$$$$
lig.pdb
 OpenBabel11021811523D
libRbt.so/2013.1/901 2013/11/27
 22 23  0  0  0  0  0  0  0  0999 V2000
   24.3788  -41.4866  -28.8837 O   0  0  0  0  0  0  0  0  0  0  0  0
   23.7624  -41.2987  -29.9209 C   0  0  0  0  0  0  0  0  0  0  0  0
   24.3719  -40.9059  -31.0394 N   0  0  0  0  0  0  0  0  0  0  0  0
   22.2854  -41.4965  -29.9433 C   0  0  0  0  0  0  0  0  0  0  0  0
   21.4841  -41.8781  -28.7698 C   0  0  0  0  0  0  0  0  0  0  0  0
   22.0113  -42.1199  -27.4331 N   0  0  0  0  0  0  0  0  0  0  0  0
   21.3680  -41.3833  -30.9291 N   0  0  0  0  0  0  0  0  0  0  0  0
   20.1364  -41.6697  -30.4039 C   0  0  0  0  0  0  0  0  0  0  0  0
   20.2032  -41.9713  -29.0889 N   0  0  0  0  0  0  0  0  0  0  0  0
   19.0828  -42.3290  -28.1878 C   0  0  1  0  0  0  0  0  0  0  0  0
   18.1584  -41.1392  -27.9888 C   0  0  1  0  0  0  0  0  0  0  0  0
   16.8066  -41.7846  -27.8214 C   0  0  2  0  0  0  0  0  0  0  0  0
   16.6329  -42.1754  -26.4579 O   0  0  0  0  0  0  0  0  0  0  0  0
   18.5046  -40.4085  -26.8115 O   0  0  0  0  0  0  0  0  0  0  0  0
   18.2838  -43.3782  -28.7471 O   0  0  0  0  0  0  0  0  0  0  0  0
   16.8992  -43.0278  -28.6848 C   0  0  2  0  0  0  0  0  0  0  0  0
   16.3647  -42.7358  -30.0784 C   0  0  0  0  0  0  0  0  0  0  0  0
   16.7827  -43.7851  -30.9499 O   0  0  0  0  0  0  0  0  0  0  0  0
   16.2211  -45.2867  -30.7893 P   0  0  0  0  0  0  0  0  0  0  0  0
   16.7542  -45.7637  -29.4582 O   0  0  0  0  0  0  0  0  0  0  0  0
   16.8068  -46.0012  -31.9842 O   0  0  0  0  0  0  0  0  0  0  0  0
   14.7217  -45.1060  -30.8301 O   0  0  0  0  0  0  0  0  0  0  0  0
  1  2  2  0  0  0  0
  2  4  1  0  0  0  0
  2  3  1  0  0  0  0
  4  7  1  0  0  0  0
  5  9  1  0  0  0  0
  5  4  2  0  0  0  0
  6  5  1  0  0  0  0
  8  7  2  0  0  0  0
  9  8  1  0  0  0  0
 10 15  1  0  0  0  0
 10  9  1  6  0  0  0
 10 11  1  0  0  0  0
 11 14  1  1  0  0  0
 11 12  1  0  0  0  0
 12 13  1  1  0  0  0
 15 16  1  0  0  0  0
 16 12  1  0  0  0  0
 16 17  1  6  0  0  0
 17 18  1  0  0  0  0
 18 19  1  0  0  0  0
 19 21  1  0  0  0  0
 19 20  1  0  0  0  0
 22 19  2  0  0  0  0
M  END
>  <CHROM.1>
1.70205360,112.90245278,164.87165315,67.26928278,-65.77663846,18.92052829
-42.80728093,-29.40621168,-0.35426318,-0.31704688,-2.20457279

>  <Name>
lig.pdb

>  <RI>
0

>  <Rbt.Current_Directory>
/home/itssahil/PROJECTS/Mol_Feturizer/New_Systems/rnas/5btp

>  <Rbt.Executable>
rbdock ($Id: //depot/dev/client3/rdock/2013.1/src/exe/rbdock.cxx#4 $)

>  <Rbt.Library>
libRbt.so (2013.1, Build901 2013/11/27)

>  <Rbt.Parameter_File>
/export/apps/rDock/src/rDock_2013.1_src/data/scripts/dock_solv.prm

>  <Rbt.Receptor>
prm/blind_docking_100.prm

>  <SCORE>
-17.1234

>  <SCORE.INTER>
-16.6107

>  <SCORE.INTER.CONST>
1

>  <SCORE.INTER.POLAR>
0

>  <SCORE.INTER.ROT>
5

>  <SCORE.INTER.SOLV>
15.4207

>  <SCORE.INTER.VDW>
-23.1474

>  <SCORE.INTER.norm>
-0.755032

>  <SCORE.INTRA>
-0.512681

>  <SCORE.INTRA.DIHEDRAL>
-0.676327

>  <SCORE.INTRA.DIHEDRAL.0>
4.21161

>  <SCORE.INTRA.POLAR>
0

>  <SCORE.INTRA.POLAR.0>
0

>  <SCORE.INTRA.REPUL>
0

>  <SCORE.INTRA.REPUL.0>
0

>  <SCORE.INTRA.SOLV>
0.869757

>  <SCORE.INTRA.SOLV.lig_0>
-41.4168

>  <SCORE.INTRA.VDW>
-0.609396

>  <SCORE.INTRA.VDW.0>
-1.62533

>  <SCORE.INTRA.norm>
-0.0233037

>  <SCORE.RESTR>
0

>  <SCORE.RESTR.CAVITY>
0

>  <SCORE.RESTR.norm>
0

>  <SCORE.SYSTEM>
0

>  <SCORE.SYSTEM.CONST>
0

>  <SCORE.SYSTEM.DIHEDRAL>
0

>  <SCORE.SYSTEM.SOLV>
0

>  <SCORE.SYSTEM.norm>
0

>  <SCORE.heavy>
22

>  <SCORE.norm>
-0.778336

>  <RMSD>
18.494

$$$$
lig.pdb
 OpenBabel11021811523D
libRbt.so/2013.1/901 2013/11/27
 22 23  0  0  0  0  0  0  0  0999 V2000
   21.8300  -40.7245  -32.1219 O   0  0  0  0  0  0  0  0  0  0  0  0
   22.6209  -40.8707  -31.2031 C   0  0  0  0  0  0  0  0  0  0  0  0
   23.9200  -40.6083  -31.3453 N   0  0  0  0  0  0  0  0  0  0  0  0
   22.1324  -41.3703  -29.8866 C   0  0  0  0  0  0  0  0  0  0  0  0
   20.7209  -41.6506  -29.5802 C   0  0  0  0  0  0  0  0  0  0  0  0
   19.6085  -41.4782  -30.5055 N   0  0  0  0  0  0  0  0  0  0  0  0
   22.7730  -41.6829  -28.7385 N   0  0  0  0  0  0  0  0  0  0  0  0
   21.8414  -42.1075  -27.8294 C   0  0  0  0  0  0  0  0  0  0  0  0
   20.5904  -42.0894  -28.3386 N   0  0  0  0  0  0  0  0  0  0  0  0
   19.3339  -42.4796  -27.6575 C   0  0  1  0  0  0  0  0  0  0  0  0
   18.5126  -41.2492  -27.3089 C   0  0  1  0  0  0  0  0  0  0  0  0
   17.0938  -41.7444  -27.4260 C   0  0  2  0  0  0  0  0  0  0  0  0
   16.7088  -42.3748  -26.2027 O   0  0  0  0  0  0  0  0  0  0  0  0
   18.7745  -40.8157  -25.9735 O   0  0  0  0  0  0  0  0  0  0  0  0
   18.5144  -43.2903  -28.5079 O   0  0  0  0  0  0  0  0  0  0  0  0
   17.1744  -42.7923  -28.5191 C   0  0  2  0  0  0  0  0  0  0  0  0
   16.8548  -42.1653  -29.8673 C   0  0  0  0  0  0  0  0  0  0  0  0
   16.3589  -43.1856  -30.7322 O   0  0  0  0  0  0  0  0  0  0  0  0
   17.2617  -44.4567  -31.1389 P   0  0  0  0  0  0  0  0  0  0  0  0
   16.6144  -45.0135  -32.3857 O   0  0  0  0  0  0  0  0  0  0  0  0
   17.1533  -45.3550  -29.9296 O   0  0  0  0  0  0  0  0  0  0  0  0
   18.6300  -43.8569  -31.3633 O   0  0  0  0  0  0  0  0  0  0  0  0
  1  2  2  0  0  0  0
  2  4  1  0  0  0  0
  2  3  1  0  0  0  0
  4  7  1  0  0  0  0
  5  9  1  0  0  0  0
  5  4  2  0  0  0  0
  6  5  1  0  0  0  0
  8  7  2  0  0  0  0
  9  8  1  0  0  0  0
 10 15  1  0  0  0  0
 10  9  1  6  0  0  0
 10 11  1  0  0  0  0
 11 14  1  1  0  0  0
 11 12  1  0  0  0  0
 12 13  1  1  0  0  0
 15 16  1  0  0  0  0
 16 12  1  0  0  0  0
 16 17  1  6  0  0  0
 17 18  1  0  0  0  0
 18 19  1  0  0  0  0
 19 21  1  0  0  0  0
 19 20  1  0  0  0  0
 22 19  2  0  0  0  0
M  END
>  <CHROM.1>
-3.02842928,-73.59354853,-154.51691025,-61.65284280,-160.72179838,19.11561650
-42.50221745,-29.50125545,-0.14186780,-0.43930010,-1.93102470

>  <Name>
lig.pdb

>  <RI>
0

>  <Rbt.Current_Directory>
/home/itssahil/PROJECTS/Mol_Feturizer/New_Systems/rnas/5btp

>  <Rbt.Executable>
rbdock ($Id: //depot/dev/client3/rdock/2013.1/src/exe/rbdock.cxx#4 $)

>  <Rbt.Library>
libRbt.so (2013.1, Build901 2013/11/27)

>  <Rbt.Parameter_File>
/export/apps/rDock/src/rDock_2013.1_src/data/scripts/dock_solv.prm

>  <Rbt.Receptor>
prm/blind_docking_100.prm

>  <SCORE>
-18.7981

>  <SCORE.INTER>
-20.1238

>  <SCORE.INTER.CONST>
1

>  <SCORE.INTER.POLAR>
0

>  <SCORE.INTER.ROT>
5

>  <SCORE.INTER.SOLV>
19.419

>  <SCORE.INTER.VDW>
-26.8222

>  <SCORE.INTER.norm>
-0.914718

>  <SCORE.INTRA>
1.32567

>  <SCORE.INTRA.DIHEDRAL>
0.802484

>  <SCORE.INTRA.DIHEDRAL.0>
4.21161

>  <SCORE.INTRA.POLAR>
0

>  <SCORE.INTRA.POLAR.0>
0

>  <SCORE.INTRA.REPUL>
0

>  <SCORE.INTRA.REPUL.0>
0

>  <SCORE.INTRA.SOLV>
4.1183

>  <SCORE.INTRA.SOLV.lig_0>
-41.4168

>  <SCORE.INTRA.VDW>
-1.13472

>  <SCORE.INTRA.VDW.0>
-1.62533

>  <SCORE.INTRA.norm>
0.0602576

>  <SCORE.RESTR>
0

>  <SCORE.RESTR.CAVITY>
0

>  <SCORE.RESTR.norm>
0

>  <SCORE.SYSTEM>
0

>  <SCORE.SYSTEM.CONST>
0

>  <SCORE.SYSTEM.DIHEDRAL>
0

>  <SCORE.SYSTEM.SOLV>
0

>  <SCORE.SYSTEM.norm>
0

>  <SCORE.heavy>
22

>  <SCORE.norm>
-0.85446

>  <RMSD>
18.503

$$$$
lig.pdb
 OpenBabel11021811523D
libRbt.so/2013.1/901 2013/11/27
 22 23  0  0  0  0  0  0  0  0999 V2000
   22.6258  -42.8624  -25.6253 O   0  0  0  0  0  0  0  0  0  0  0  0
   22.1537  -42.6798  -26.7366 C   0  0  0  0  0  0  0  0  0  0  0  0
   22.9107  -42.6975  -27.8335 N   0  0  0  0  0  0  0  0  0  0  0  0
   20.6942  -42.4139  -26.8795 C   0  0  0  0  0  0  0  0  0  0  0  0
   20.0105  -42.2232  -28.1683 C   0  0  0  0  0  0  0  0  0  0  0  0
   20.6530  -42.2613  -29.4756 N   0  0  0  0  0  0  0  0  0  0  0  0
   19.6983  -42.2977  -25.9734 N   0  0  0  0  0  0  0  0  0  0  0  0
   18.5307  -42.0590  -26.6474 C   0  0  0  0  0  0  0  0  0  0  0  0
   18.7169  -42.0132  -27.9846 N   0  0  0  0  0  0  0  0  0  0  0  0
   17.6933  -41.7801  -29.0300 C   0  0  1  0  0  0  0  0  0  0  0  0
   17.2005  -43.1013  -29.5971 C   0  0  1  0  0  0  0  0  0  0  0  0
   15.7614  -42.8086  -29.9366 C   0  0  2  0  0  0  0  0  0  0  0  0
   15.6925  -42.2031  -31.2291 O   0  0  0  0  0  0  0  0  0  0  0  0
   17.9224  -43.4574  -30.7768 O   0  0  0  0  0  0  0  0  0  0  0  0
   16.5458  -41.1133  -28.4911 O   0  0  0  0  0  0  0  0  0  0  0  0
   15.3516  -41.7903  -28.8904 C   0  0  2  0  0  0  0  0  0  0  0  0
   14.7187  -42.4925  -27.6990 C   0  0  0  0  0  0  0  0  0  0  0  0
   15.5808  -43.5536  -27.2916 O   0  0  0  0  0  0  0  0  0  0  0  0
   15.1340  -45.0965  -27.4164 P   0  0  0  0  0  0  0  0  0  0  0  0
   15.5984  -45.7436  -26.1322 O   0  0  0  0  0  0  0  0  0  0  0  0
   15.8685  -45.5674  -28.6492 O   0  0  0  0  0  0  0  0  0  0  0  0
   13.6327  -45.0154  -27.5644 O   0  0  0  0  0  0  0  0  0  0  0  0
  1  2  2  0  0  0  0
  2  4  1  0  0  0  0
  2  3  1  0  0  0  0
  4  7  1  0  0  0  0
  5  9  1  0  0  0  0
  5  4  2  0  0  0  0
  6  5  1  0  0  0  0
  8  7  2  0  0  0  0
  9  8  1  0  0  0  0
 10 15  1  0  0  0  0
 10  9  1  1  0  0  0
 10 11  1  0  0  0  0
 11 14  1  6  0  0  0
 11 12  1  0  0  0  0
 12 13  1  6  0  0  0
 15 16  1  0  0  0  0
 16 12  1  0  0  0  0
 16 17  1  1  0  0  0
 17 18  1  0  0  0  0
 18 19  1  0  0  0  0
 19 21  1  0  0  0  0
 19 20  1  0  0  0  0
 22 19  2  0  0  0  0
M  END
>  <CHROM.1>
-177.93418666,83.55463548,49.90972406,-114.22410250,-137.95398918,17.61147711
-43.12893026,-28.06778019,0.00152659,0.29421442,2.15052321

>  <Name>
lig.pdb

>  <RI>
0

>  <Rbt.Current_Directory>
/home/itssahil/PROJECTS/Mol_Feturizer/New_Systems/rnas/5btp

>  <Rbt.Executable>
rbdock ($Id: //depot/dev/client3/rdock/2013.1/src/exe/rbdock.cxx#4 $)

>  <Rbt.Library>
libRbt.so (2013.1, Build901 2013/11/27)

>  <Rbt.Parameter_File>
/export/apps/rDock/src/rDock_2013.1_src/data/scripts/dock_solv.prm

>  <Rbt.Receptor>
prm/blind_docking_60.prm

>  <SCORE>
-18.2185

>  <SCORE.INTER>
-22.3942

>  <SCORE.INTER.CONST>
1

>  <SCORE.INTER.POLAR>
0

>  <SCORE.INTER.ROT>
5

>  <SCORE.INTER.SOLV>
21.7855

>  <SCORE.INTER.VDW>
-29.1246

>  <SCORE.INTER.norm>
-1.01792

>  <SCORE.INTRA>
4.17566

>  <SCORE.INTRA.DIHEDRAL>
7.54319

>  <SCORE.INTRA.DIHEDRAL.0>
4.21161

>  <SCORE.INTRA.POLAR>
0

>  <SCORE.INTRA.POLAR.0>
0

>  <SCORE.INTRA.REPUL>
0

>  <SCORE.INTRA.REPUL.0>
0

>  <SCORE.INTRA.SOLV>
2.33301

>  <SCORE.INTRA.SOLV.lig_0>
-41.4168

>  <SCORE.INTRA.VDW>
-0.762436

>  <SCORE.INTRA.VDW.0>
-1.62533

>  <SCORE.INTRA.norm>
0.189803

>  <SCORE.RESTR>
0

>  <SCORE.RESTR.CAVITY>
0

>  <SCORE.RESTR.norm>
0

>  <SCORE.SYSTEM>
0

>  <SCORE.SYSTEM.CONST>
0

>  <SCORE.SYSTEM.DIHEDRAL>
0

>  <SCORE.SYSTEM.SOLV>
0

>  <SCORE.SYSTEM.norm>
0

>  <SCORE.heavy>
22

>  <SCORE.norm>
-0.828113

>  <RMSD>
18.532

$$$$
lig.pdb
 OpenBabel11021811523D
libRbt.so/2013.1/901 2013/11/27
 22 23  0  0  0  0  0  0  0  0999 V2000
   23.4660  -41.1020  -30.6411 O   0  0  0  0  0  0  0  0  0  0  0  0
   23.8394  -41.4519  -29.5324 C   0  0  0  0  0  0  0  0  0  0  0  0
   25.1326  -41.5332  -29.2194 N   0  0  0  0  0  0  0  0  0  0  0  0
   22.8295  -41.8149  -28.4983 C   0  0  0  0  0  0  0  0  0  0  0  0
   21.3781  -41.8535  -28.7372 C   0  0  0  0  0  0  0  0  0  0  0  0
   20.7247  -41.5418  -30.0017 N   0  0  0  0  0  0  0  0  0  0  0  0
   22.9462  -42.1806  -27.2026 N   0  0  0  0  0  0  0  0  0  0  0  0
   21.6911  -42.4147  -26.7081 C   0  0  0  0  0  0  0  0  0  0  0  0
   20.7334  -42.2167  -27.6401 N   0  0  0  0  0  0  0  0  0  0  0  0
   19.2694  -42.3737  -27.4760 C   0  0  1  0  0  0  0  0  0  0  0  0
   18.5584  -41.0589  -27.7508 C   0  0  1  0  0  0  0  0  0  0  0  0
   17.2445  -41.5013  -28.3421 C   0  0  2  0  0  0  0  0  0  0  0  0
   16.3272  -41.8021  -27.2884 O   0  0  0  0  0  0  0  0  0  0  0  0
   18.3348  -40.3312  -26.5424 O   0  0  0  0  0  0  0  0  0  0  0  0
   18.7433  -43.3254  -28.4085 O   0  0  0  0  0  0  0  0  0  0  0  0
   17.5986  -42.7829  -29.0712 C   0  0  2  0  0  0  0  0  0  0  0  0
   17.9234  -42.4824  -30.5263 C   0  0  0  0  0  0  0  0  0  0  0  0
   18.2698  -43.7063  -31.1723 O   0  0  0  0  0  0  0  0  0  0  0  0
   17.1880  -44.8809  -31.3864 P   0  0  0  0  0  0  0  0  0  0  0  0
   15.9763  -44.1946  -31.9733 O   0  0  0  0  0  0  0  0  0  0  0  0
   16.9819  -45.4159  -29.9891 O   0  0  0  0  0  0  0  0  0  0  0  0
   17.8845  -45.8301  -32.3331 O   0  0  0  0  0  0  0  0  0  0  0  0
  1  2  2  0  0  0  0
  2  4  1  0  0  0  0
  2  3  1  0  0  0  0
  4  7  1  0  0  0  0
  5  9  1  0  0  0  0
  5  4  2  0  0  0  0
  6  5  1  0  0  0  0
  8  7  2  0  0  0  0
  9  8  1  0  0  0  0
 10 15  1  0  0  0  0
 10  9  1  6  0  0  0
 10 11  1  0  0  0  0
 11 14  1  1  0  0  0
 11 12  1  0  0  0  0
 12 13  1  1  0  0  0
 15 16  1  0  0  0  0
 16 12  1  0  0  0  0
 16 17  1  6  0  0  0
 17 18  1  0  0  0  0
 18 19  1  0  0  0  0
 19 21  1  0  0  0  0
 19 20  1  0  0  0  0
 22 19  2  0  0  0  0
M  END
>  <CHROM.1>
3.45073744,-60.27991135,179.15079113,66.30351511,48.67677046,19.44374841
-42.71200407,-29.28292181,-0.52127971,-0.17262778,-2.15469691

>  <Name>
lig.pdb

>  <RI>
0

>  <Rbt.Current_Directory>
/home/itssahil/PROJECTS/Mol_Feturizer/New_Systems/rnas/5btp

>  <Rbt.Executable>
rbdock ($Id: //depot/dev/client3/rdock/2013.1/src/exe/rbdock.cxx#4 $)

>  <Rbt.Library>
libRbt.so (2013.1, Build901 2013/11/27)

>  <Rbt.Parameter_File>
/export/apps/rDock/src/rDock_2013.1_src/data/scripts/dock_solv.prm

>  <Rbt.Receptor>
prm/blind_docking_60.prm

>  <SCORE>
-20.3896

>  <SCORE.INTER>
-19.7758

>  <SCORE.INTER.CONST>
1

>  <SCORE.INTER.POLAR>
0

>  <SCORE.INTER.ROT>
5

>  <SCORE.INTER.SOLV>
20.0241

>  <SCORE.INTER.VDW>
-26.7919

>  <SCORE.INTER.norm>
-0.898899

>  <SCORE.INTRA>
-0.613812

>  <SCORE.INTRA.DIHEDRAL>
-1.35093

>  <SCORE.INTRA.DIHEDRAL.0>
4.21161

>  <SCORE.INTRA.POLAR>
0

>  <SCORE.INTRA.POLAR.0>
0

>  <SCORE.INTRA.REPUL>
0

>  <SCORE.INTRA.REPUL.0>
0

>  <SCORE.INTRA.SOLV>
1.82058

>  <SCORE.INTRA.SOLV.lig_0>
-41.4168

>  <SCORE.INTRA.VDW>
-0.848635

>  <SCORE.INTRA.VDW.0>
-1.62533

>  <SCORE.INTRA.norm>
-0.0279006

>  <SCORE.RESTR>
0

>  <SCORE.RESTR.CAVITY>
0

>  <SCORE.RESTR.norm>
0

>  <SCORE.SYSTEM>
0

>  <SCORE.SYSTEM.CONST>
0

>  <SCORE.SYSTEM.DIHEDRAL>
0

>  <SCORE.SYSTEM.SOLV>
0

>  <SCORE.SYSTEM.norm>
0

>  <SCORE.heavy>
22

>  <SCORE.norm>
-0.926799

>  <RMSD>
18.549

$$$$
lig.pdb
 OpenBabel11021811523D
libRbt.so/2013.1/901 2013/11/27
 22 23  0  0  0  0  0  0  0  0999 V2000
   21.6562  -40.5054  -32.1913 O   0  0  0  0  0  0  0  0  0  0  0  0
   22.4997  -40.6576  -31.3217 C   0  0  0  0  0  0  0  0  0  0  0  0
   23.7804  -40.3471  -31.5226 N   0  0  0  0  0  0  0  0  0  0  0  0
   22.0992  -41.2195  -30.0007 C   0  0  0  0  0  0  0  0  0  0  0  0
   20.7181  -41.5729  -29.6366 C   0  0  0  0  0  0  0  0  0  0  0  0
   19.5550  -41.4224  -30.5013 N   0  0  0  0  0  0  0  0  0  0  0  0
   22.8087  -41.5383  -28.8956 N   0  0  0  0  0  0  0  0  0  0  0  0
   21.9426  -42.0328  -27.9576 C   0  0  0  0  0  0  0  0  0  0  0  0
   20.6683  -42.0556  -28.4054 N   0  0  0  0  0  0  0  0  0  0  0  0
   19.4652  -42.5233  -27.6782 C   0  0  1  0  0  0  0  0  0  0  0  0
   18.6503  -41.3409  -27.1806 C   0  0  1  0  0  0  0  0  0  0  0  0
   17.2345  -41.8538  -27.2454 C   0  0  2  0  0  0  0  0  0  0  0  0
   16.9401  -42.5860  -26.0541 O   0  0  0  0  0  0  0  0  0  0  0  0
   18.9928  -41.0085  -25.8345 O   0  0  0  0  0  0  0  0  0  0  0  0
   18.6040  -43.2810  -28.5362 O   0  0  0  0  0  0  0  0  0  0  0  0
   17.2587  -42.8108  -28.4214 C   0  0  2  0  0  0  0  0  0  0  0  0
   16.8420  -42.0862  -29.6921 C   0  0  0  0  0  0  0  0  0  0  0  0
   16.2855  -43.0418  -30.5933 O   0  0  0  0  0  0  0  0  0  0  0  0
   17.1480  -44.2904  -31.1346 P   0  0  0  0  0  0  0  0  0  0  0  0
   18.5172  -43.7223  -31.4283 O   0  0  0  0  0  0  0  0  0  0  0  0
   16.3828  -44.7299  -32.3604 O   0  0  0  0  0  0  0  0  0  0  0  0
   17.1137  -45.2659  -29.9815 O   0  0  0  0  0  0  0  0  0  0  0  0
  1  2  2  0  0  0  0
  2  4  1  0  0  0  0
  2  3  1  0  0  0  0
  4  7  1  0  0  0  0
  5  9  1  0  0  0  0
  5  4  2  0  0  0  0
  6  5  1  0  0  0  0
  8  7  2  0  0  0  0
  9  8  1  0  0  0  0
 10 15  1  0  0  0  0
 10  9  1  6  0  0  0
 10 11  1  0  0  0  0
 11 14  1  1  0  0  0
 11 12  1  0  0  0  0
 12 13  1  1  0  0  0
 15 16  1  0  0  0  0
 16 12  1  0  0  0  0
 16 17  1  6  0  0  0
 17 18  1  0  0  0  0
 18 19  1  0  0  0  0
 19 21  1  0  0  0  0
 19 20  1  0  0  0  0
 22 19  2  0  0  0  0
M  END
>  <CHROM.1>
-2.24150565,-76.84195590,-153.57583660,-60.35957560,-41.39366978,19.11432013
-42.43058009,-29.49909762,-0.07776267,-0.46796470,-1.82881141

>  <Name>
lig.pdb

>  <RI>
0

>  <Rbt.Current_Directory>
/home/itssahil/PROJECTS/Mol_Feturizer/New_Systems/rnas/5btp

>  <Rbt.Executable>
rbdock ($Id: //depot/dev/client3/rdock/2013.1/src/exe/rbdock.cxx#4 $)

>  <Rbt.Library>
libRbt.so (2013.1, Build901 2013/11/27)

>  <Rbt.Parameter_File>
/export/apps/rDock/src/rDock_2013.1_src/data/scripts/dock_solv.prm

>  <Rbt.Receptor>
prm/blind_docking_60.prm

>  <SCORE>
-19.4727

>  <SCORE.INTER>
-20.5907

>  <SCORE.INTER.CONST>
1

>  <SCORE.INTER.POLAR>
0

>  <SCORE.INTER.ROT>
5

>  <SCORE.INTER.SOLV>
19.3575

>  <SCORE.INTER.VDW>
-27.113

>  <SCORE.INTER.norm>
-0.935942

>  <SCORE.INTRA>
1.11805

>  <SCORE.INTRA.DIHEDRAL>
0.865201

>  <SCORE.INTRA.DIHEDRAL.0>
4.21161

>  <SCORE.INTRA.POLAR>
0

>  <SCORE.INTRA.POLAR.0>
0

>  <SCORE.INTRA.REPUL>
0

>  <SCORE.INTRA.REPUL.0>
0

>  <SCORE.INTRA.SOLV>
3.68431

>  <SCORE.INTRA.SOLV.lig_0>
-41.4168

>  <SCORE.INTRA.VDW>
-1.1567

>  <SCORE.INTRA.VDW.0>
-1.62533

>  <SCORE.INTRA.norm>
0.0508206

>  <SCORE.RESTR>
0

>  <SCORE.RESTR.CAVITY>
0

>  <SCORE.RESTR.norm>
0

>  <SCORE.SYSTEM>
0

>  <SCORE.SYSTEM.CONST>
0

>  <SCORE.SYSTEM.DIHEDRAL>
0

>  <SCORE.SYSTEM.SOLV>
0

>  <SCORE.SYSTEM.norm>
0

>  <SCORE.heavy>
22

>  <SCORE.norm>
-0.885121

>  <RMSD>
18.557

$$$$
lig.pdb
 OpenBabel11021811523D
libRbt.so/2013.1/901 2013/11/27
 22 23  0  0  0  0  0  0  0  0999 V2000
   24.1949  -40.7757  -31.0442 O   0  0  0  0  0  0  0  0  0  0  0  0
   23.6933  -41.2362  -30.0306 C   0  0  0  0  0  0  0  0  0  0  0  0
   24.4269  -41.5462  -28.9616 N   0  0  0  0  0  0  0  0  0  0  0  0
   22.2232  -41.4763  -29.9828 C   0  0  0  0  0  0  0  0  0  0  0  0
   21.5025  -41.9616  -28.7954 C   0  0  0  0  0  0  0  0  0  0  0  0
   22.1137  -42.2790  -27.5113 N   0  0  0  0  0  0  0  0  0  0  0  0
   21.2467  -41.3230  -30.9043 N   0  0  0  0  0  0  0  0  0  0  0  0
   20.0560  -41.6817  -30.3313 C   0  0  0  0  0  0  0  0  0  0  0  0
   20.2079  -42.0710  -29.0467 N   0  0  0  0  0  0  0  0  0  0  0  0
   19.1523  -42.5234  -28.1108 C   0  0  1  0  0  0  0  0  0  0  0  0
   18.3863  -41.3336  -27.5562 C   0  0  1  0  0  0  0  0  0  0  0  0
   16.9967  -41.8849  -27.3642 C   0  0  2  0  0  0  0  0  0  0  0  0
   16.9204  -42.5502  -26.1017 O   0  0  0  0  0  0  0  0  0  0  0  0
   18.9263  -40.9113  -26.3033 O   0  0  0  0  0  0  0  0  0  0  0  0
   18.1924  -43.3534  -28.7756 O   0  0  0  0  0  0  0  0  0  0  0  0
   16.8671  -42.9109  -28.4731 C   0  0  2  0  0  0  0  0  0  0  0  0
   16.2293  -42.2759  -29.6992 C   0  0  0  0  0  0  0  0  0  0  0  0
   15.8203  -43.3173  -30.5843 O   0  0  0  0  0  0  0  0  0  0  0  0
   16.8819  -44.3541  -31.2120 P   0  0  0  0  0  0  0  0  0  0  0  0
   18.1378  -43.5430  -31.4318 O   0  0  0  0  0  0  0  0  0  0  0  0
   16.2062  -44.8084  -32.4840 O   0  0  0  0  0  0  0  0  0  0  0  0
   17.0065  -45.4166  -30.1452 O   0  0  0  0  0  0  0  0  0  0  0  0
  1  2  2  0  0  0  0
  2  4  1  0  0  0  0
  2  3  1  0  0  0  0
  4  7  1  0  0  0  0
  5  9  1  0  0  0  0
  5  4  2  0  0  0  0
  6  5  1  0  0  0  0
  8  7  2  0  0  0  0
  9  8  1  0  0  0  0
 10 15  1  0  0  0  0
 10  9  1  6  0  0  0
 10 11  1  0  0  0  0
 11 14  1  1  0  0  0
 11 12  1  0  0  0  0
 12 13  1  1  0  0  0
 15 16  1  0  0  0  0
 16 12  1  0  0  0  0
 16 17  1  6  0  0  0
 17 18  1  0  0  0  0
 18 19  1  0  0  0  0
 19 21  1  0  0  0  0
 19 20  1  0  0  0  0
 22 19  2  0  0  0  0
M  END
>  <CHROM.1>
-176.76687051,101.41172430,-165.75516725,-60.70953610,-34.93644633,19.11223577
-42.58485224,-29.43224509,-0.22296295,-0.31097554,-1.93750253

>  <Name>
lig.pdb

>  <RI>
0

>  <Rbt.Current_Directory>
/home/itssahil/PROJECTS/Mol_Feturizer/New_Systems/rnas/5btp

>  <Rbt.Executable>
rbdock ($Id: //depot/dev/client3/rdock/2013.1/src/exe/rbdock.cxx#4 $)

>  <Rbt.Library>
libRbt.so (2013.1, Build901 2013/11/27)

>  <Rbt.Parameter_File>
/export/apps/rDock/src/rDock_2013.1_src/data/scripts/dock_solv.prm

>  <Rbt.Receptor>
prm/blind_docking_100.prm

>  <SCORE>
-18.0247

>  <SCORE.INTER>
-18.4755

>  <SCORE.INTER.CONST>
1

>  <SCORE.INTER.POLAR>
0

>  <SCORE.INTER.ROT>
5

>  <SCORE.INTER.SOLV>
18.8046

>  <SCORE.INTER.VDW>
-25.5186

>  <SCORE.INTER.norm>
-0.839798

>  <SCORE.INTRA>
0.450803

>  <SCORE.INTRA.DIHEDRAL>
-0.16535

>  <SCORE.INTRA.DIHEDRAL.0>
4.21161

>  <SCORE.INTRA.POLAR>
0

>  <SCORE.INTRA.POLAR.0>
0

>  <SCORE.INTRA.REPUL>
0

>  <SCORE.INTRA.REPUL.0>
0

>  <SCORE.INTRA.SOLV>
2.46664

>  <SCORE.INTRA.SOLV.lig_0>
-41.4168

>  <SCORE.INTRA.VDW>
-0.699843

>  <SCORE.INTRA.VDW.0>
-1.62533

>  <SCORE.INTRA.norm>
0.0204911

>  <SCORE.RESTR>
0

>  <SCORE.RESTR.CAVITY>
0

>  <SCORE.RESTR.norm>
0

>  <SCORE.SYSTEM>
0

>  <SCORE.SYSTEM.CONST>
0

>  <SCORE.SYSTEM.DIHEDRAL>
0

>  <SCORE.SYSTEM.SOLV>
0

>  <SCORE.SYSTEM.norm>
0

>  <SCORE.heavy>
22

>  <SCORE.norm>
-0.819307

>  <RMSD>
18.584

$$$$
lig.pdb
 OpenBabel11021811523D
libRbt.so/2013.1/901 2013/11/27
 22 23  0  0  0  0  0  0  0  0999 V2000
   25.2170  -41.5171  -29.2279 O   0  0  0  0  0  0  0  0  0  0  0  0
   24.4363  -42.0018  -28.4237 C   0  0  0  0  0  0  0  0  0  0  0  0
   24.8579  -42.6567  -27.3419 N   0  0  0  0  0  0  0  0  0  0  0  0
   22.9697  -41.8763  -28.6571 C   0  0  0  0  0  0  0  0  0  0  0  0
   21.9394  -42.3897  -27.7406 C   0  0  0  0  0  0  0  0  0  0  0  0
   22.1993  -43.0909  -26.4900 N   0  0  0  0  0  0  0  0  0  0  0  0
   22.2529  -41.3112  -29.6535 N   0  0  0  0  0  0  0  0  0  0  0  0
   20.9231  -41.4692  -29.3684 C   0  0  0  0  0  0  0  0  0  0  0  0
   20.7283  -42.1254  -28.2038 N   0  0  0  0  0  0  0  0  0  0  0  0
   19.4350  -42.4761  -27.5719 C   0  0  1  0  0  0  0  0  0  0  0  0
   18.6508  -41.2198  -27.2305 C   0  0  1  0  0  0  0  0  0  0  0  0
   17.2187  -41.6568  -27.4034 C   0  0  2  0  0  0  0  0  0  0  0  0
   16.7678  -42.2902  -26.2045 O   0  0  0  0  0  0  0  0  0  0  0  0
   18.8836  -40.8176  -25.8800 O   0  0  0  0  0  0  0  0  0  0  0  0
   18.6142  -43.2407  -28.4628 O   0  0  0  0  0  0  0  0  0  0  0  0
   17.2957  -42.6901  -28.5105 C   0  0  2  0  0  0  0  0  0  0  0  0
   17.0470  -42.0303  -29.8581 C   0  0  0  0  0  0  0  0  0  0  0  0
   17.2541  -43.0031  -30.8808 O   0  0  0  0  0  0  0  0  0  0  0  0
   16.2286  -44.2265  -31.0990 P   0  0  0  0  0  0  0  0  0  0  0  0
   16.7439  -44.9564  -32.3178 O   0  0  0  0  0  0  0  0  0  0  0  0
   14.9042  -43.5307  -31.3064 O   0  0  0  0  0  0  0  0  0  0  0  0
   16.3392  -45.0099  -29.8120 O   0  0  0  0  0  0  0  0  0  0  0  0
  1  2  2  0  0  0  0
  2  4  1  0  0  0  0
  2  3  1  0  0  0  0
  4  7  1  0  0  0  0
  5  9  1  0  0  0  0
  5  4  2  0  0  0  0
  6  5  1  0  0  0  0
  8  7  2  0  0  0  0
  9  8  1  0  0  0  0
 10 15  1  0  0  0  0
 10  9  1  6  0  0  0
 10 11  1  0  0  0  0
 11 14  1  1  0  0  0
 11 12  1  0  0  0  0
 12 13  1  1  0  0  0
 15 16  1  0  0  0  0
 16 12  1  0  0  0  0
 16 17  1  6  0  0  0
 17 18  1  0  0  0  0
 18 19  1  0  0  0  0
 19 21  1  0  0  0  0
 19 20  1  0  0  0  0
 22 19  2  0  0  0  0
M  END
>  <CHROM.1>
-178.37292045,117.70496043,174.49067879,70.48445580,176.17627359,19.29088263
-42.65633387,-28.87880055,-0.38276189,-0.10054994,-1.97609301

>  <Name>
lig.pdb

>  <RI>
0

>  <Rbt.Current_Directory>
/home/itssahil/PROJECTS/Mol_Feturizer/New_Systems/rnas/5btp

>  <Rbt.Executable>
rbdock ($Id: //depot/dev/client3/rdock/2013.1/src/exe/rbdock.cxx#4 $)

>  <Rbt.Library>
libRbt.so (2013.1, Build901 2013/11/27)

>  <Rbt.Parameter_File>
/export/apps/rDock/src/rDock_2013.1_src/data/scripts/dock_solv.prm

>  <Rbt.Receptor>
prm/blind_docking_60.prm

>  <SCORE>
-19.2392

>  <SCORE.INTER>
-18.9277

>  <SCORE.INTER.CONST>
1

>  <SCORE.INTER.POLAR>
0

>  <SCORE.INTER.ROT>
5

>  <SCORE.INTER.SOLV>
20.311

>  <SCORE.INTER.VDW>
-26.3221

>  <SCORE.INTER.norm>
-0.860348

>  <SCORE.INTRA>
-0.311575

>  <SCORE.INTRA.DIHEDRAL>
-1.11727

>  <SCORE.INTRA.DIHEDRAL.0>
4.21161

>  <SCORE.INTRA.POLAR>
0

>  <SCORE.INTRA.POLAR.0>
0

>  <SCORE.INTRA.REPUL>
0

>  <SCORE.INTRA.REPUL.0>
0

>  <SCORE.INTRA.SOLV>
1.38728

>  <SCORE.INTRA.SOLV.lig_0>
-41.4168

>  <SCORE.INTRA.VDW>
-0.446582

>  <SCORE.INTRA.VDW.0>
-1.62533

>  <SCORE.INTRA.norm>
-0.0141625

>  <SCORE.RESTR>
0

>  <SCORE.RESTR.CAVITY>
0

>  <SCORE.RESTR.norm>
0

>  <SCORE.SYSTEM>
0

>  <SCORE.SYSTEM.CONST>
0

>  <SCORE.SYSTEM.DIHEDRAL>
0

>  <SCORE.SYSTEM.SOLV>
0

>  <SCORE.SYSTEM.norm>
0

>  <SCORE.heavy>
22

>  <SCORE.norm>
-0.87451

>  <RMSD>
18.886

$$$$
lig.pdb
 OpenBabel11021811523D
libRbt.so/2013.1/901 2013/11/27
 22 23  0  0  0  0  0  0  0  0999 V2000
   25.3704  -41.5064  -29.1407 O   0  0  0  0  0  0  0  0  0  0  0  0
   24.5844  -42.0220  -28.3613 C   0  0  0  0  0  0  0  0  0  0  0  0
   24.9987  -42.7336  -27.3131 N   0  0  0  0  0  0  0  0  0  0  0  0
   23.1193  -41.8701  -28.5881 C   0  0  0  0  0  0  0  0  0  0  0  0
   22.0834  -42.4112  -27.6942 C   0  0  0  0  0  0  0  0  0  0  0  0
   22.3356  -43.1688  -26.4753 N   0  0  0  0  0  0  0  0  0  0  0  0
   22.4087  -41.2542  -29.5587 N   0  0  0  0  0  0  0  0  0  0  0  0
   21.0773  -41.4096  -29.2798 C   0  0  0  0  0  0  0  0  0  0  0  0
   20.8753  -42.1135  -28.1447 N   0  0  0  0  0  0  0  0  0  0  0  0
   19.5782  -42.4768  -27.5278 C   0  0  1  0  0  0  0  0  0  0  0  0
   18.7769  -41.2282  -27.1979 C   0  0  1  0  0  0  0  0  0  0  0  0
   17.3516  -41.6805  -27.3873 C   0  0  2  0  0  0  0  0  0  0  0  0
   16.8930  -42.3169  -26.1928 O   0  0  0  0  0  0  0  0  0  0  0  0
   18.9892  -40.8217  -25.8453 O   0  0  0  0  0  0  0  0  0  0  0  0
   18.7762  -43.2512  -28.4273 O   0  0  0  0  0  0  0  0  0  0  0  0
   17.4527  -42.7145  -28.4917 C   0  0  2  0  0  0  0  0  0  0  0  0
   17.2134  -42.0593  -29.8432 C   0  0  0  0  0  0  0  0  0  0  0  0
   17.3787  -43.0477  -30.8584 O   0  0  0  0  0  0  0  0  0  0  0  0
   16.3143  -44.2416  -31.0523 P   0  0  0  0  0  0  0  0  0  0  0  0
   16.7274  -44.9301  -32.3325 O   0  0  0  0  0  0  0  0  0  0  0  0
   14.9940  -43.5132  -31.1378 O   0  0  0  0  0  0  0  0  0  0  0  0
   16.4974  -45.0794  -29.8086 O   0  0  0  0  0  0  0  0  0  0  0  0
  1  2  2  0  0  0  0
  2  4  1  0  0  0  0
  2  3  1  0  0  0  0
  4  7  1  0  0  0  0
  5  9  1  0  0  0  0
  5  4  2  0  0  0  0
  6  5  1  0  0  0  0
  8  7  2  0  0  0  0
  9  8  1  0  0  0  0
 10 15  1  0  0  0  0
 10  9  1  6  0  0  0
 10 11  1  0  0  0  0
 11 14  1  1  0  0  0
 11 12  1  0  0  0  0
 12 13  1  1  0  0  0
 15 16  1  0  0  0  0
 16 12  1  0  0  0  0
 16 17  1  6  0  0  0
 17 18  1  0  0  0  0
 18 19  1  0  0  0  0
 19 21  1  0  0  0  0
 19 20  1  0  0  0  0
 22 19  2  0  0  0  0
M  END
>  <CHROM.1>
-178.03277347,120.64871368,177.29600009,70.25885792,171.71853707,19.41852711
-42.66871264,-28.83414470,-0.38334572,-0.09849280,-1.98087769

>  <Name>
lig.pdb

>  <RI>
0

>  <Rbt.Current_Directory>
/home/itssahil/PROJECTS/Mol_Feturizer/New_Systems/rnas/5btp

>  <Rbt.Executable>
rbdock ($Id: //depot/dev/client3/rdock/2013.1/src/exe/rbdock.cxx#4 $)

>  <Rbt.Library>
libRbt.so (2013.1, Build901 2013/11/27)

>  <Rbt.Parameter_File>
/export/apps/rDock/src/rDock_2013.1_src/data/scripts/dock_solv.prm

>  <Rbt.Receptor>
prm/blind_docking_60.prm

>  <SCORE>
-19.3677

>  <SCORE.INTER>
-19.013

>  <SCORE.INTER.CONST>
1

>  <SCORE.INTER.POLAR>
0

>  <SCORE.INTER.ROT>
5

>  <SCORE.INTER.SOLV>
20.1781

>  <SCORE.INTER.VDW>
-26.3347

>  <SCORE.INTER.norm>
-0.864226

>  <SCORE.INTRA>
-0.359013

>  <SCORE.INTRA.DIHEDRAL>
-1.13447

>  <SCORE.INTRA.DIHEDRAL.0>
4.21161

>  <SCORE.INTRA.POLAR>
0

>  <SCORE.INTRA.POLAR.0>
0

>  <SCORE.INTRA.REPUL>
0

>  <SCORE.INTRA.REPUL.0>
0

>  <SCORE.INTRA.SOLV>
1.32051

>  <SCORE.INTRA.SOLV.lig_0>
-41.4168

>  <SCORE.INTRA.VDW>
-0.452031

>  <SCORE.INTRA.VDW.0>
-1.62533

>  <SCORE.INTRA.norm>
-0.0163188

>  <SCORE.RESTR>
0.00424537

>  <SCORE.RESTR.CAVITY>
0.00424537

>  <SCORE.RESTR.norm>
0.000192971

>  <SCORE.SYSTEM>
0

>  <SCORE.SYSTEM.CONST>
0

>  <SCORE.SYSTEM.DIHEDRAL>
0

>  <SCORE.SYSTEM.SOLV>
0

>  <SCORE.SYSTEM.norm>
0

>  <SCORE.heavy>
22

>  <SCORE.norm>
-0.880352

>  <RMSD>
18.904

$$$$
