@<TRIPOS>MOLECULE
5btp_rdock.pdb
 1324 1482 0 0 0
SMALL
GASTEIGER

@<TRIPOS>ATOM
      1  O5'       39.3150  -61.1010  -51.7580 O.3     6  G6         -0.2176
      2  C5'       39.8570  -61.3720  -53.0420 C.3     6  G6          0.2141
      3  C4'       40.9520  -60.3980  -53.3990 C.3     6  G6          0.1802
      4  O4'       41.6070  -60.8250  -54.6200 O.3     6  G6         -0.3306
      5  C3'       40.5130  -58.9690  -53.6870 C.3     6  G6          0.1861
      6  O3'       40.3420  -58.2170  -52.4980 O.3     6  G6         -0.3112
      7  C2'       41.6230  -58.4450  -54.5900 C.3     6  G6          0.2309
      8  O2'       42.7480  -58.0450  -53.8220 O.3     6  G6         -0.2156
      9  C1'       42.0000  -59.7020  -55.3780 C.3     6  G6          0.2408
     10   N9       41.3550  -59.7850  -56.7040 N.ar    6  G6         -0.2693
     11   C8       40.3660  -60.6680  -57.0680 C.ar    6  G6          0.1817
     12   N7       39.9950  -60.5440  -58.3120 N.ar    6  G6         -0.2173
     13   C5       40.7950  -59.5250  -58.8070 C.ar    6  G6          0.1748
     14   C6       40.8460  -58.9520  -60.1040 C.ar    6  G6          0.3023
     15   O6       40.1700  -59.2390  -61.0990 O.2     6  G6         -0.2633
     16   N.1      41.7990  -57.9430  -60.1800 N.ar    6  G6         -0.1709
     17   C.2      42.6040  -57.5390  -59.1440 C.ar    6  G6          0.2606
     18   N.2      43.4650  -56.5480  -59.4200 N.pl3   6  G6         -0.0859
     19   N.3      42.5690  -58.0670  -57.9300 N.ar    6  G6         -0.1918
     20   C4       41.6470  -59.0490  -57.8310 C.ar    6  G6          0.1723
     21    P.3     39.1370  -57.1650  -52.3470 P.3     7  U7          0.2141
     22  OP1       39.1850  -56.6150  -50.9680 O.3     7  U7         -0.4373
     23  OP2       37.8910  -57.8090  -52.8360 O.2     7  U7         -0.5172
     24  O5'       39.5130  -55.9920  -53.3570 O.3     7  U7         -0.3114
     25  C5'       40.6580  -55.1760  -53.1250 C.3     7  U7          0.1812
     26  C4'       40.7360  -54.0170  -54.0890 C.3     7  U7          0.1773
     27  O4'       40.8790  -54.5230  -55.4500 O.3     7  U7         -0.3307
     28  C3'       39.5050  -53.1080  -54.1040 C.3     7  U7          0.1860
     29  O3'       39.8920  -51.7400  -54.2630 O.3     7  U7         -0.3112
     30  C2'       38.7340  -53.5950  -55.3200 C.3     7  U7          0.2309
     31  O2'       37.8540  -52.6470  -55.8760 O.3     7  U7         -0.2156
     32  C1'       39.8660  -53.9700  -56.2700 C.3     7  U7          0.2420
     33   N.1      39.4570  -54.9580  -57.2790 N.ar    7  U7         -0.2534
     34   C.2      39.6600  -54.6580  -58.6130 C.ar    7  U7          0.3546
     35   O.2      40.2000  -53.6300  -58.9850 O.2     7  U7         -0.2443
     36   N.3      39.2210  -55.6160  -59.4960 N.ar    7  U7         -0.1530
     37   C4       38.6010  -56.8070  -59.1750 C.ar    7  U7          0.2846
     38   O4       38.2570  -57.5730  -60.0710 O.2     7  U7         -0.2650
     39   C5       38.4130  -57.0350  -57.7760 C.ar    7  U7          0.0814
     40   C6       38.8300  -56.1200  -56.8990 C.ar    7  U7          0.0870
     41    P.3     38.8030  -50.5730  -54.0540 P.3     8  U8          0.2141
     42  OP1       39.5200  -49.3500  -53.6090 O.2     8  U8         -0.5172
     43  OP2       37.6970  -51.1200  -53.2270 O.3     8  U8         -0.4373
     44  O5'       38.2300  -50.3130  -55.5240 O.3     8  U8         -0.3114
     45  C5'       38.9230  -49.4160  -56.3830 C.3     8  U8          0.1812
     46  C4'       38.3400  -49.2830  -57.7750 C.3     8  U8          0.1773
     47  O4'       38.6420  -50.4300  -58.6110 O.3     8  U8         -0.3307
     48  C3'       36.8390  -49.1080  -57.9290 C.3     8  U8          0.1860
     49  O3'       36.3820  -47.8150  -57.5760 O.3     8  U8         -0.3112
     50  C2'       36.6330  -49.4270  -59.4080 C.3     8  U8          0.2309
     51  O2'       36.9830  -48.3130  -60.2160 O.3     8  U8         -0.2156
     52  C1'       37.6690  -50.5340  -59.6350 C.3     8  U8          0.2420
     53   N.1      37.0650  -51.8860  -59.6410 N.ar    8  U8         -0.2534
     54   C.2      36.6320  -52.3900  -60.8520 C.ar    8  U8          0.3546
     55   O.2      36.7390  -51.7760  -61.8990 O.2     8  U8         -0.2443
     56   N.3      36.0750  -53.6460  -60.7960 N.ar    8  U8         -0.1530
     57   C4       35.9070  -54.4290  -59.6700 C.ar    8  U8          0.2846
     58   O4       35.3900  -55.5420  -59.7590 O.2     8  U8         -0.2650
     59   C5       36.3730  -53.8340  -58.4600 C.ar    8  U8          0.0814
     60   C6       36.9150  -52.6160  -58.4970 C.ar    8  U8          0.0870
     61    P.3     34.8500  -47.6020  -57.1340 P.3     9  A9          0.2141
     62  OP1       34.7020  -46.2120  -56.6340 O.2     9  A9         -0.5172
     63  OP2       34.4550  -48.7410  -56.2670 O.3     9  A9         -0.4373
     64  O5'       34.0380  -47.7250  -58.5000 O.3     9  A9         -0.3114
     65  C5'       34.2220  -46.7670  -59.5320 C.3     9  A9          0.1812
     66  C4'       33.6030  -47.2070  -60.8360 C.3     9  A9          0.1773
     67  O4'       34.2560  -48.4070  -61.3270 O.3     9  A9         -0.3307
     68  C3'       32.1320  -47.5820  -60.7990 C.3     9  A9          0.1860
     69  O3'       31.2780  -46.4530  -60.8070 O.3     9  A9         -0.3112
     70  C2'       31.9860  -48.4670  -62.0300 C.3     9  A9          0.2309
     71  O2'       31.9040  -47.6770  -63.2080 O.3     9  A9         -0.2156
     72  C1'       33.3260  -49.2040  -62.0340 C.3     9  A9          0.2408
     73   N9       33.2370  -50.5320  -61.3930 N.ar    9  A9         -0.2693
     74   C8       33.6310  -50.8970  -60.1290 C.ar    9  A9          0.1816
     75   N7       33.4190  -52.1610  -59.8490 N.ar    9  A9         -0.2193
     76   C5       32.8420  -52.6670  -61.0060 C.ar    9  A9          0.1518
     77   C6       32.3800  -53.9510  -61.3530 C.ar    9  A9          0.1919
     78   N6       32.4310  -55.0000  -60.5300 N.pl3   9  A9         -0.1054
     79   N.1      31.8570  -54.1250  -62.5890 N.ar    9  A9         -0.2040
     80   C.2      31.8080  -53.0670  -63.4100 C.ar    9  A9          0.2016
     81   N.3      32.2090  -51.8130  -63.1990 N.ar    9  A9         -0.2048
     82   C4       32.7210  -51.6750  -61.9630 C.ar    9  A9          0.1692
     83    P.3     29.8460  -46.5250  -60.0880 P.3    10  U10         0.2141
     84  OP1       29.3160  -45.1410  -59.9810 O.2    10  U10        -0.5172
     85  OP2       29.9890  -47.3550  -58.8640 O.3    10  U10        -0.4373
     86  O5'       28.9480  -47.3300  -61.1290 O.3    10  U10        -0.3114
     87  C5'       28.7100  -46.8130  -62.4300 C.3    10  U10         0.1812
     88  C4'       28.1010  -47.8480  -63.3430 C.3    10  U10         0.1773
     89  O4'       29.0200  -48.9590  -63.5190 O.3    10  U10        -0.3307
     90  C3'       26.8210  -48.5090  -62.8570 C.3    10  U10         0.1860
     91  O3'       25.6680  -47.7100  -63.0560 O.3    10  U10        -0.3112
     92  C2'       26.8050  -49.8110  -63.6470 C.3    10  U10         0.2309
     93  O2'       26.3710  -49.5820  -64.9800 O.3    10  U10        -0.2156
     94  C1'       28.2940  -50.1620  -63.6770 C.3    10  U10         0.2420
     95   N.1      28.6680  -51.0960  -62.5900 N.ar   10  U10        -0.2534
     96   C.2      28.4080  -52.4390  -62.7870 C.ar   10  U10         0.3546
     97   O.2      27.8990  -52.8720  -63.8070 O.2    10  U10        -0.2443
     98   N.3      28.7700  -53.2610  -61.7490 N.ar   10  U10        -0.1530
     99   C4       29.3520  -52.8820  -60.5570 C.ar   10  U10         0.2846
    100   O4       29.6220  -53.7410  -59.7160 O.2    10  U10        -0.2650
    101   C5       29.5870  -51.4770  -60.4260 C.ar   10  U10         0.0814
    102   C6       29.2450  -50.6550  -61.4220 C.ar   10  U10         0.0870
    103    P.3     24.4580  -47.7640  -61.9990 P.3    11  A11         0.2141
    104  OP1       23.4780  -46.7120  -62.3700 O.2    11  A11        -0.5172
    105  OP2       25.0420  -47.7670  -60.6320 O.3    11  A11        -0.4373
    106  O5'       23.7860  -49.1870  -62.2600 O.3    11  A11        -0.3114
    107  C5'       23.1310  -49.4700  -63.4880 C.3    11  A11         0.1812
    108  C4'       22.8490  -50.9440  -63.6480 C.3    11  A11         0.1773
    109  O4'       24.0870  -51.6980  -63.5660 O.3    11  A11        -0.3307
    110  C3'       21.9620  -51.5840  -62.5900 C.3    11  A11         0.1860
    111  O3'       20.5810  -51.3390  -62.8000 O.3    11  A11        -0.3112
    112  C2'       22.3450  -53.0560  -62.6870 C.3    11  A11         0.2309
    113  O2'       21.7150  -53.6680  -63.8030 O.3    11  A11        -0.2156
    114  C1'       23.8450  -52.9580  -62.9730 C.3    11  A11         0.2408
    115   N9       24.6500  -53.0670  -61.7400 N.ar   11  A11        -0.2693
    116   C8       25.2720  -52.0610  -61.0400 C.ar   11  A11         0.1816
    117   N7       25.9120  -52.4760  -59.9730 N.ar   11  A11        -0.2193
    118   C5       25.6950  -53.8470  -59.9660 C.ar   11  A11         0.1518
    119   C6       26.1090  -54.8680  -59.0910 C.ar   11  A11         0.1919
    120   N6       26.8600  -54.6570  -58.0080 N.pl3  11  A11        -0.1054
    121   N.1      25.7220  -56.1330  -59.3700 N.ar   11  A11        -0.2040
    122   C.2      24.9670  -56.3460  -60.4560 C.ar   11  A11         0.2016
    123   N.3      24.5170  -55.4710  -61.3530 N.ar   11  A11        -0.2048
    124   C4       24.9190  -54.2250  -61.0470 C.ar   11  A11         0.1692
    125    P.3     19.5940  -51.1200  -61.5480 P.3    12  U12         0.2141
    126  OP1       18.2540  -50.7680  -62.0810 O.2    12  U12        -0.5172
    127  OP2       20.2620  -50.2030  -60.5900 O.3    12  U12        -0.4373
    128  O5'       19.4880  -52.5600  -60.8730 O.3    12  U12        -0.3114
    129  C5'       18.8740  -53.6410  -61.5610 C.3    12  U12         0.1812
    130  C4'       19.2150  -54.9730  -60.9400 C.3    12  U12         0.1773
    131  O4'       20.6580  -55.1400  -60.8930 O.3    12  U12        -0.3307
    132  C3'       18.7790  -55.1860  -59.4970 C.3    12  U12         0.1860
    133  O3'       17.4110  -55.5310  -59.3610 O.3    12  U12        -0.3112
    134  C2'       19.7270  -56.2800  -59.0310 C.3    12  U12         0.2309
    135  O2'       19.3160  -57.5460  -59.5260 O.3    12  U12        -0.2156
    136  C1'       21.0180  -55.8800  -59.7430 C.3    12  U12         0.2420
    137   N.1      21.8770  -55.0400  -58.8770 N.ar   12  U12        -0.2534
    138   C.2      22.5760  -55.6790  -57.8690 C.ar   12  U12         0.3546
    139   O.2      22.5190  -56.8820  -57.6790 O.2    12  U12        -0.2443
    140   N.3      23.3510  -54.8580  -57.0880 N.ar   12  U12        -0.1530
    141   C4       23.4960  -53.4920  -57.2090 C.ar   12  U12         0.2846
    142   O4       24.2360  -52.8950  -56.4260 O.2    12  U12        -0.2650
    143   C5       22.7390  -52.9040  -58.2720 C.ar   12  U12         0.0814
    144   C6       21.9730  -53.6780  -59.0490 C.ar   12  U12         0.0870
    145    P.3     16.5630  -54.9990  -58.1010 P.3    13  G13         0.2141
    146  OP1       15.1630  -55.4680  -58.2600 O.2    13  G13        -0.5172
    147  OP2       16.8360  -53.5480  -57.9480 O.3    13  G13        -0.4373
    148  O5'       17.1980  -55.7530  -56.8460 O.3    13  G13        -0.3114
    149  C5'       17.1470  -57.1690  -56.7300 C.3    13  G13         0.1812
    150  C4'       18.1560  -57.6820  -55.7290 C.3    13  G13         0.1773
    151  O4'       19.4810  -57.2030  -56.0770 O.3    13  G13        -0.3307
    152  C3'       17.9580  -57.2300  -54.2900 C.3    13  G13         0.1860
    153  O3'       17.0200  -58.0370  -53.6020 O.3    13  G13        -0.3112
    154  C2'       19.3630  -57.3200  -53.7070 C.3    13  G13         0.2309
    155  O2'       19.6720  -58.6600  -53.3570 O.3    13  G13        -0.2156
    156  C1'       20.2230  -56.9290  -54.9090 C.3    13  G13         0.2408
    157   N9       20.5920  -55.4990  -54.9130 N.ar   13  G13        -0.2693
    158   C8       20.0570  -54.5300  -55.7280 C.ar   13  G13         0.1817
    159   N7       20.5760  -53.3490  -55.5390 N.ar   13  G13        -0.2173
    160   C5       21.5210  -53.5490  -54.5430 C.ar   13  G13         0.1748
    161   C6       22.3990  -52.6230  -53.9280 C.ar   13  G13         0.3023
    162   O6       22.5190  -51.4120  -54.1450 O.2    13  G13        -0.2633
    163   N.1      23.1920  -53.2360  -52.9670 N.ar   13  G13        -0.1709
    164   C.2      23.1480  -54.5670  -52.6410 C.ar   13  G13         0.2606
    165   N.2      24.0030  -54.9520  -51.6850 N.pl3  13  G13        -0.0859
    166   N.3      22.3340  -55.4460  -53.2070 N.ar   13  G13        -0.1918
    167   C4       21.5520  -54.8720  -54.1480 C.ar   13  G13         0.1723
    168    P.3     15.7990  -57.3740  -52.7990 P.3    14  A14         0.2141
    169  OP1       14.6490  -57.2330  -53.7320 O.2    14  A14        -0.5172
    170  OP2       16.3190  -56.1790  -52.0850 O.3    14  A14        -0.4373
    171  O5'       15.4160  -58.4850  -51.7230 O.3    14  A14        -0.3114
    172  C5'       15.0680  -59.8010  -52.1310 C.3    14  A14         0.1812
    173  C4'       15.8240  -60.8510  -51.3530 C.3    14  A14         0.1773
    174  O4'       17.2530  -60.6810  -51.5490 O.3    14  A14        -0.3307
    175  C3'       15.6490  -60.8240  -49.8420 C.3    14  A14         0.1860
    176  O3'       14.4630  -61.4710  -49.4160 O.3    14  A14        -0.3112
    177  C2'       16.9160  -61.5080  -49.3440 C.3    14  A14         0.2309
    178  O2'       16.7960  -62.9190  -49.4350 O.3    14  A14        -0.2156
    179  C1'       17.9460  -61.0390  -50.3730 C.3    14  A14         0.2408
    180   N9       18.7240  -59.8790  -49.9010 N.ar   14  A14        -0.2693
    181   C8       18.6840  -58.5870  -50.3560 C.ar   14  A14         0.1816
    182   N7       19.5120  -57.7860  -49.7280 N.ar   14  A14        -0.2193
    183   C5       20.1390  -58.6070  -48.8010 C.ar   14  A14         0.1518
    184   C6       21.1250  -58.3660  -47.8280 C.ar   14  A14         0.1919
    185   N6       21.6800  -57.1720  -47.6140 N.pl3  14  A14        -0.1054
    186   N.1      21.5280  -59.4070  -47.0680 N.ar   14  A14        -0.2040
    187   C.2      20.9730  -60.6070  -47.2750 C.ar   14  A14         0.2016
    188   N.3      20.0430  -60.9580  -48.1590 N.ar   14  A14        -0.2048
    189   C4       19.6630  -59.9000  -48.8980 C.ar   14  A14         0.1692
    190    P.3     13.4990  -60.7650  -48.3410 P.3    15  C15         0.2141
    191  OP1       12.5820  -61.7910  -47.7790 O.3    15  C15        -0.4373
    192  OP2       12.9310  -59.5490  -48.9800 O.2    15  C15        -0.5172
    193  O5'       14.4910  -60.3250  -47.1740 O.3    15  C15        -0.3114
    194  C5'       15.0510  -61.2890  -46.2950 C.3    15  C15         0.1812
    195  C4'       16.1350  -60.6860  -45.4400 C.3    15  C15         0.1773
    196  O4'       17.1850  -60.1510  -46.2880 O.3    15  C15        -0.3307
    197  C3'       15.7220  -59.5020  -44.5820 C.3    15  C15         0.1860
    198  O3'       15.0610  -59.8810  -43.3890 O.3    15  C15        -0.3112
    199  C2'       17.0460  -58.7890  -44.3520 C.3    15  C15         0.2309
    200  O2'       17.8100  -59.4700  -43.3690 O.3    15  C15        -0.2156
    201  C1'       17.7260  -58.9820  -45.7060 C.3    15  C15         0.2420
    202   N.1      17.4760  -57.8390  -46.6170 N.ar   15  C15        -0.2535
    203   C.2      18.2640  -56.6910  -46.4930 C.ar   15  C15         0.3532
    204   O.2      19.1580  -56.6660  -45.6350 O.2    15  C15        -0.2443
    205   N.3      18.0450  -55.6410  -47.3160 N.ar   15  C15        -0.1739
    206   C4       17.0770  -55.7020  -48.2310 C.ar   15  C15         0.1759
    207   N.4      16.8930  -54.6420  -49.0210 N.pl3  15  C15        -0.1070
    208   C5       16.2530  -56.8530  -48.3810 C.ar   15  C15         0.0566
    209   C6       16.4850  -57.8860  -47.5610 C.ar   15  C15         0.0850
    210    P.3     14.0350  -58.8640  -42.6850 P.3    16  U16         0.2141
    211  OP1       13.4300  -59.5660  -41.5240 O.3    16  U16        -0.4373
    212  OP2       13.1560  -58.2760  -43.7300 O.2    16  U16        -0.5172
    213  O5'       14.9800  -57.7110  -42.1300 O.3    16  U16        -0.3114
    214  C5'       14.5400  -56.3650  -42.0810 C.3    16  U16         0.1812
    215  C4'       15.6930  -55.4170  -42.2750 C.3    16  U16         0.1773
    216  O4'       16.1320  -55.4590  -43.6540 O.3    16  U16        -0.3307
    217  C3'       15.3990  -53.9500  -42.0150 C.3    16  U16         0.1860
    218  O3'       15.4800  -53.6350  -40.6350 O.3    16  U16        -0.3112
    219  C2'       16.4460  -53.2360  -42.8650 C.3    16  U16         0.2309
    220  O2'       17.6930  -53.1790  -42.1860 O.3    16  U16        -0.2156
    221  C1'       16.5890  -54.1890  -44.0560 C.3    16  U16         0.2420
    222   N.1      15.8040  -53.7710  -45.2400 N.ar   16  U16        -0.2534
    223   C.2      16.1560  -52.6340  -45.9470 C.ar   16  U16         0.3546
    224   O.2      17.0860  -51.8990  -45.6550 O.2    16  U16        -0.2443
    225   N.3      15.3580  -52.3710  -47.0290 N.ar   16  U16        -0.1530
    226   C4       14.2810  -53.1000  -47.4830 C.ar   16  U16         0.2846
    227   O4       13.6670  -52.7210  -48.4810 O.2    16  U16        -0.2650
    228   C5       13.9910  -54.2620  -46.7070 C.ar   16  U16         0.0814
    229   C6       14.7480  -54.5510  -45.6460 C.ar   16  U16         0.0870
    230    P.3     14.9180  -52.2420  -40.0670 P.3    17  G17         0.2141
    231  OP1       14.3170  -51.4850  -41.1980 O.2    17  G17        -0.5172
    232  OP2       15.9880  -51.6290  -39.2370 O.3    17  G17        -0.4373
    233  O5'       13.7490  -52.6760  -39.0750 O.3    17  G17        -0.3114
    234  C5'       12.6060  -53.3620  -39.5600 C.3    17  G17         0.1812
    235  C4'       11.9830  -54.2200  -38.4900 C.3    17  G17         0.1773
    236  O4'       12.7530  -55.4370  -38.3170 O.3    17  G17        -0.3307
    237  C3'       11.9410  -53.6180  -37.0990 C.3    17  G17         0.1860
    238  O3'       10.8810  -52.6990  -36.9290 O.3    17  G17        -0.3112
    239  C2'       11.8270  -54.8470  -36.2100 C.3    17  G17         0.2309
    240  O2'       10.4940  -55.3300  -36.1880 O.3    17  G17        -0.2156
    241  C1'       12.7010  -55.8490  -36.9670 C.3    17  G17         0.2408
    242   N9       14.0740  -55.8980  -36.4370 N.ar   17  G17        -0.2693
    243   C8       15.2120  -55.4800  -37.0750 C.ar   17  G17         0.1817
    244   N7       16.2870  -55.6490  -36.3540 N.ar   17  G17        -0.2173
    245   C5       15.8270  -56.2100  -35.1700 C.ar   17  G17         0.1748
    246   C6       16.5340  -56.6120  -34.0080 C.ar   17  G17         0.3023
    247   O6       17.7490  -56.5510  -33.7880 O.2    17  G17        -0.2633
    248   N.1      15.6810  -57.1310  -33.0410 N.ar   17  G17        -0.1709
    249   C.2      14.3210  -57.2460  -33.1770 C.ar   17  G17         0.2606
    250   N.2      13.6640  -57.7730  -32.1330 N.pl3  17  G17        -0.0859
    251   N.3      13.6520  -56.8750  -34.2550 N.ar   17  G17        -0.1918
    252   C4       14.4620  -56.3670  -35.2040 C.ar   17  G17         0.1723
    253    P.3     10.9850  -51.5610  -35.8040 P.3    18  A18         0.2141
    254  OP1        9.8430  -50.6230  -35.9810 O.2    18  A18        -0.5172
    255  OP2       12.3760  -51.0450  -35.8030 O.3    18  A18        -0.4373
    256  O5'       10.7710  -52.3550  -34.4440 O.3    18  A18        -0.3114
    257  C5'        9.5000  -52.8870  -34.1210 C.3    18  A18         0.1812
    258  C4'        9.4590  -53.3970  -32.7070 C.3    18  A18         0.1773
    259  O4'       10.3430  -54.5350  -32.5630 O.3    18  A18        -0.3307
    260  C3'        9.9290  -52.4300  -31.6390 C.3    18  A18         0.1860
    261  O3'        8.9410  -51.4790  -31.2940 O.3    18  A18        -0.3112
    262  C2'       10.3090  -53.3650  -30.5020 C.3    18  A18         0.2309
    263  O2'        9.1450  -53.8320  -29.8390 O.3    18  A18        -0.2156
    264  C1'       10.9200  -54.5330  -31.2750 C.3    18  A18         0.2408
    265   N9       12.3830  -54.4110  -31.4240 N.ar   18  A18        -0.2693
    266   C8       13.0750  -53.9610  -32.5190 C.ar   18  A18         0.1816
    267   N7       14.3760  -53.9660  -32.3620 N.ar   18  A18        -0.2193
    268   C5       14.5510  -54.4540  -31.0750 C.ar   18  A18         0.1518
    269   C6       15.7040  -54.7020  -30.3110 C.ar   18  A18         0.1919
    270   N6       16.9430  -54.4810  -30.7520 N.pl3  18  A18        -0.1054
    271   N.1      15.5390  -55.1870  -29.0610 N.ar   18  A18        -0.2040
    272   C.2      14.2910  -55.4060  -28.6240 C.ar   18  A18         0.2016
    273   N.3      13.1290  -55.2160  -29.2460 N.ar   18  A18        -0.2048
    274   C4       13.3330  -54.7280  -30.4820 C.ar   18  A18         0.1692
    275    P.3      9.3600  -49.9670  -30.9600 P.3    19  C19         0.2141
    276  OP1        8.1010  -49.1750  -30.8960 O.3    19  C19        -0.4373
    277  OP2       10.4580  -49.5540  -31.8750 O.2    19  C19        -0.5172
    278  O5'        9.9840  -50.0670  -29.4960 O.3    19  C19        -0.3114
    279  C5'        9.1810  -50.4470  -28.3880 C.3    19  C19         0.1812
    280  C4'       10.0200  -50.7620  -27.1750 C.3    19  C19         0.1773
    281  O4'       10.8820  -51.8970  -27.4580 O.3    19  C19        -0.3307
    282  C3'       10.9890  -49.6850  -26.7160 C.3    19  C19         0.1860
    283  O3'       10.3850  -48.6320  -25.9860 O.3    19  C19        -0.3112
    284  C2'       12.0020  -50.4870  -25.9130 C.3    19  C19         0.2309
    285  O2'       11.4720  -50.8310  -24.6420 O.3    19  C19        -0.2156
    286  C1'       12.1030  -51.7570  -26.7590 C.3    19  C19         0.2420
    287   N.1      13.2090  -51.6570  -27.7360 N.ar   19  C19        -0.2535
    288   C.2      14.4890  -52.0110  -27.3070 C.ar   19  C19         0.3532
    289   O.2      14.6260  -52.4240  -26.1450 O.2    19  C19        -0.2443
    290   N.3      15.5270  -51.9150  -28.1720 N.ar   19  C19        -0.1739
    291   C4       15.3180  -51.4680  -29.4140 C.ar   19  C19         0.1759
    292   N.4      16.3610  -51.3840  -30.2410 N.pl3  19  C19        -0.1070
    293   C5       14.0260  -51.0880  -29.8740 C.ar   19  C19         0.0566
    294   C6       13.0100  -51.1920  -29.0080 C.ar   19  C19         0.0850
    295    P.3     10.9330  -47.1310  -26.1660 P.3    20  G20         0.2141
    296  OP1        9.9510  -46.2080  -25.5370 O.3    20  G20        -0.4373
    297  OP2       11.3010  -46.9570  -27.5970 O.2    20  G20        -0.5172
    298  O5'       12.2830  -47.1110  -25.3150 O.3    20  G20        -0.3114
    299  C5'       12.2700  -47.4300  -23.9330 C.3    20  G20         0.1812
    300  C4'       13.6570  -47.6680  -23.3850 C.3    20  G20         0.1773
    301  O4'       14.2540  -48.8290  -24.0190 O.3    20  G20        -0.3307
    302  C3'       14.6910  -46.5740  -23.5970 C.3    20  G20         0.1860
    303  O3'       14.5560  -45.4940  -22.6930 O.3    20  G20        -0.3112
    304  C2'       15.9990  -47.3300  -23.4280 C.3    20  G20         0.2309
    305  O2'       16.2690  -47.5590  -22.0530 O.3    20  G20        -0.2156
    306  C1'       15.6570  -48.6670  -24.0820 C.3    20  G20         0.2408
    307   N9       16.0940  -48.7070  -25.4880 N.ar   20  G20        -0.2693
    308   C8       15.3350  -48.6010  -26.6270 C.ar   20  G20         0.1817
    309   N7       16.0520  -48.6760  -27.7180 N.ar   20  G20        -0.2173
    310   C5       17.3590  -48.8400  -27.2710 C.ar   20  G20         0.1748
    311   C6       18.5780  -48.9810  -27.9860 C.ar   20  G20         0.3023
    312   O6       18.7670  -48.9920  -29.2090 O.2    20  G20        -0.2633
    313   N.1      19.6600  -49.1200  -27.1260 N.ar   20  G20        -0.1709
    314   C.2      19.5850  -49.1230  -25.7550 C.ar   20  G20         0.2606
    315   N.2      20.7410  -49.2740  -25.0960 N.pl3  20  G20        -0.0859
    316   N.3      18.4600  -48.9950  -25.0770 N.ar   20  G20        -0.1918
    317   C4       17.3960  -48.8610  -25.8950 C.ar   20  G20         0.1723
    318    P.3     15.0720  -44.0290  -23.1040 P.3    21  G21         0.2141
    319  OP1       14.7380  -43.1140  -21.9820 O.3    21  G21        -0.4373
    320  OP2       14.5850  -43.7150  -24.4710 O.2    21  G21        -0.5172
    321  O5'       16.6600  -44.1800  -23.1590 O.3    21  G21        -0.3114
    322  C5'       17.4070  -44.4350  -21.9780 C.3    21  G21         0.1812
    323  C4'       18.8860  -44.5580  -22.2600 C.3    21  G21         0.1773
    324  O4'       19.1480  -45.6950  -23.1220 O.3    21  G21        -0.3307
    325  C3'       19.5230  -43.3910  -22.9920 C.3    21  G21         0.1860
    326  O3'       19.7980  -42.2900  -22.1440 O.3    21  G21        -0.3112
    327  C2'       20.7710  -44.0240  -23.5980 C.3    21  G21         0.2309
    328  O2'       21.8030  -44.1440  -22.6290 O.3    21  G21        -0.2156
    329  C1'       20.2640  -45.4250  -23.9430 C.3    21  G21         0.2408
    330   N9       19.8490  -45.5210  -25.3550 N.ar   21  G21        -0.2693
    331   C8       18.5830  -45.3610  -25.8600 C.ar   21  G21         0.1817
    332   N7       18.5310  -45.4980  -27.1560 N.ar   21  G21        -0.2173
    333   C5       19.8410  -45.7630  -27.5320 C.ar   21  G21         0.1748
    334   C6       20.4030  -46.0030  -28.8130 C.ar   21  G21         0.3023
    335   O6       19.8400  -46.0330  -29.9130 O.2    21  G21        -0.2633
    336   N.1      21.7730  -46.2220  -28.7370 N.ar   21  G21        -0.1709
    337   C.2      22.5130  -46.2150  -27.5830 C.ar   21  G21         0.2606
    338   N.2      23.8260  -46.4510  -27.7280 N.pl3  21  G21        -0.0859
    339   N.3      22.0040  -45.9930  -26.3830 N.ar   21  G21        -0.1918
    340   C4       20.6700  -45.7780  -26.4300 C.ar   21  G21         0.1723
    341    P.3     19.9760  -40.8160  -22.7590 P.3    22  A22         0.2141
    342  OP1       20.9060  -40.8710  -23.9120 O.2    22  A22        -0.5172
    343  OP2       20.2520  -39.8940  -21.6330 O.3    22  A22        -0.4373
    344  O5'       18.5530  -40.4770  -23.3810 O.3    22  A22        -0.3114
    345  C5'       17.3990  -40.3630  -22.5590 C.3    22  A22         0.1812
    346  C4'       16.5910  -39.1470  -22.9290 C.3    22  A22         0.1773
    347  O4'       16.5950  -38.2280  -21.8040 O.3    22  A22        -0.3307
    348  C3'       17.1330  -38.3600  -24.1180 C.3    22  A22         0.1860
    349  O3'       16.0440  -37.7460  -24.8120 O.3    22  A22        -0.3112
    350  C2'       17.9850  -37.2910  -23.4440 C.3    22  A22         0.2309
    351  O2'       18.1930  -36.1330  -24.2250 O.3    22  A22        -0.2156
    352  C1'       17.1630  -36.9950  -22.1950 C.3    22  A22         0.2408
    353   N9       17.9360  -36.5030  -21.0540 N.ar   22  A22        -0.2693
    354   C8       18.9090  -37.1810  -20.3660 C.ar   22  A22         0.1816
    355   N7       19.4100  -36.5100  -19.3590 N.ar   22  A22        -0.2193
    356   C5       18.6990  -35.3210  -19.3680 C.ar   22  A22         0.1518
    357   C6       18.7590  -34.1880  -18.5460 C.ar   22  A22         0.1919
    358   N6       19.5990  -34.0670  -17.5160 N.pl3  22  A22        -0.1054
    359   N.1      17.9150  -33.1740  -18.8250 N.ar   22  A22        -0.2040
    360   C.2      17.0770  -33.3020  -19.8600 C.ar   22  A22         0.2016
    361   N.3      16.9280  -34.3160  -20.7030 N.ar   22  A22        -0.2048
    362   C4       17.7740  -35.3090  -20.3930 C.ar   22  A22         0.1692
    363    P.3     15.4140  -38.4300  -26.1260 P.3    23  A23         0.2141
    364  OP1       14.2530  -37.5930  -26.5240 O.2    23  A23        -0.5172
    365  OP2       15.2560  -39.8920  -25.8940 O.3    23  A23        -0.4373
    366  O5'       16.5420  -38.2790  -27.2410 O.3    23  A23        -0.3114
    367  C5'       16.6850  -37.0780  -27.9850 C.3    23  A23         0.1812
    368  C4'       17.9190  -37.1130  -28.8520 C.3    23  A23         0.1773
    369  O4'       19.1020  -37.1090  -28.0350 O.3    23  A23        -0.3307
    370  C3'       18.0690  -38.3270  -29.7670 C.3    23  A23         0.1860
    371  O3'       17.5150  -38.0530  -31.0440 O.3    23  A23        -0.3112
    372  C2'       19.5850  -38.5790  -29.8460 C.3    23  A23         0.2309
    373  O2'       20.1080  -38.2050  -31.1120 O.3    23  A23        -0.2156
    374  C1'       20.1650  -37.6600  -28.7590 C.3    23  A23         0.2408
    375   N9       21.1230  -38.3150  -27.8520 N.ar   23  A23        -0.2693
    376   C8       20.9180  -38.9340  -26.6450 C.ar   23  A23         0.1816
    377   N7       22.0200  -39.3960  -26.1040 N.ar   23  A23        -0.2193
    378   C5       23.0080  -39.0550  -27.0180 C.ar   23  A23         0.1518
    379   C6       24.3990  -39.2600  -27.0370 C.ar   23  A23         0.1919
    380   N6       25.0630  -39.8940  -26.0660 N.pl3  23  A23        -0.1054
    381   N.1      25.0880  -38.7870  -28.1010 N.ar   23  A23        -0.2040
    382   C.2      24.4270  -38.1530  -29.0750 C.ar   23  A23         0.2016
    383   N.3      23.1260  -37.8980  -29.1670 N.ar   23  A23        -0.2048
    384   C4       22.4690  -38.3850  -28.0970 C.ar   23  A23         0.1692
    385    P.3     16.4240  -39.0040  -31.7290 P.3    24  C24         0.2141
    386  OP1       16.0220  -38.3020  -32.9740 O.2    24  C24        -0.5172
    387  OP2       15.4070  -39.3640  -30.7070 O.3    24  C24        -0.4373
    388  O5'       17.2300  -40.3210  -32.1370 O.3    24  C24        -0.3114
    389  C5'       18.2110  -40.3100  -33.1700 C.3    24  C24         0.1812
    390  C4'       17.8090  -41.1490  -34.3600 C.3    24  C24         0.1773
    391  O4'       18.8630  -41.0980  -35.3660 O.3    24  C24        -0.3307
    392  C3'       17.5810  -42.6370  -34.0740 C.3    24  C24         0.1860
    393  O3'       16.6230  -43.1540  -34.9990 O.3    24  C24        -0.3112
    394  C2'       18.9260  -43.2430  -34.4440 C.3    24  C24         0.2309
    395  O2'       18.8800  -44.6220  -34.7430 O.3    24  C24        -0.2156
    396  C1'       19.2750  -42.4160  -35.6720 C.3    24  C24         0.2420
    397   N.1      20.6930  -42.4130  -36.0440 N.ar   24  C24        -0.2535
    398   C.2      21.0390  -43.1280  -37.1900 C.ar   24  C24         0.3532
    399   O.2      20.1430  -43.7260  -37.8030 O.2    24  C24        -0.2443
    400   N.3      22.3290  -43.1610  -37.5900 N.ar   24  C24        -0.1739
    401   C4       23.2470  -42.5000  -36.8870 C.ar   24  C24         0.1759
    402   N.4      24.5070  -42.5540  -37.3130 N.pl3  24  C24        -0.1070
    403   C5       22.9190  -41.7580  -35.7140 C.ar   24  C24         0.0566
    404   C6       21.6370  -41.7360  -35.3280 C.ar   24  C24         0.0850
    405    P.3     15.0460  -42.9410  -34.8040 P.3    25  G25         0.2141
    406  OP1       14.8020  -41.9730  -33.6980 O.3    25  G25        -0.4373
    407  OP2       14.4510  -44.3000  -34.7300 O.2    25  G25        -0.5172
    408  O5'       14.5910  -42.2710  -36.1790 O.3    25  G25        -0.3114
    409  C5'       15.1160  -41.0120  -36.5800 C.3    25  G25         0.1812
    410  C4'       14.5260  -40.5270  -37.8820 C.3    25  G25         0.1773
    411  O4'       15.0140  -41.3230  -38.9940 O.3    25  G25        -0.3307
    412  C3'       13.0160  -40.6110  -38.0060 C.3    25  G25         0.1860
    413  O3'       12.3460  -39.5600  -37.3360 O.3    25  G25        -0.3112
    414  C2'       12.8100  -40.6100  -39.5160 C.3    25  G25         0.2309
    415  O2'       12.9430  -39.2960  -40.0370 O.3    25  G25        -0.2156
    416  C1'       14.0100  -41.4360  -39.9820 C.3    25  G25         0.2408
    417   N9       13.6700  -42.8620  -40.1580 N.ar   25  G25        -0.2693
    418   C8       14.0820  -43.9200  -39.3870 C.ar   25  G25         0.1817
    419   N7       13.6120  -45.0700  -39.7960 N.ar   25  G25        -0.2173
    420   C5       12.8410  -44.7560  -40.9050 C.ar   25  G25         0.1748
    421   C6       12.0810  -45.5910  -41.7670 C.ar   25  G25         0.3023
    422   O6       11.9280  -46.8200  -41.7260 O.2    25  G25        -0.2633
    423   N.1      11.4540  -44.8540  -42.7650 N.ar   25  G25        -0.1709
    424   C.2      11.5440  -43.4950  -42.9150 C.ar   25  G25         0.2606
    425   N.2      10.8640  -42.9740  -43.9450 N.pl3  25  G25        -0.0859
    426   N.3      12.2470  -42.7050  -42.1190 N.ar   25  G25        -0.1918
    427   C4       12.8680  -43.3970  -41.1420 C.ar   25  G25         0.1723
    428    P.3     10.9750  -39.8640  -36.5570 P.3    26  U26         0.2141
    429  OP1       10.6510  -38.7290  -35.6550 O.3    26  U26        -0.4373
    430  OP2       11.0750  -41.2440  -36.0100 O.2    26  U26        -0.5172
    431  O5'        9.8840  -39.8480  -37.7110 O.3    26  U26        -0.3114
    432  C5'        9.7030  -38.6870  -38.5040 C.3    26  U26         0.1812
    433  C4'        8.7270  -38.9390  -39.6200 C.3    26  U26         0.1773
    434  O4'        9.3320  -39.8050  -40.6180 O.3    26  U26        -0.3307
    435  C3'        7.4550  -39.6720  -39.2290 C.3    26  U26         0.1860
    436  O3'        6.4960  -38.8480  -38.5860 O.3    26  U26        -0.3112
    437  C2'        7.0020  -40.2570  -40.5590 C.3    26  U26         0.2309
    438  O2'        6.4140  -39.2500  -41.3730 O.3    26  U26        -0.2156
    439  C1'        8.3490  -40.6540  -41.1730 C.3    26  U26         0.2420
    440   N.1       8.6950  -42.0570  -40.8470 N.ar   26  U26        -0.2534
    441   C.2       8.1760  -43.0480  -41.6620 C.ar   26  U26         0.3546
    442   O.2       7.4810  -42.8110  -42.6360 O.2    26  U26        -0.2443
    443   N.3       8.5100  -44.3320  -41.3030 N.ar   26  U26        -0.1530
    444   C4        9.2880  -44.7220  -40.2310 C.ar   26  U26         0.2846
    445   O4        9.4990  -45.9230  -40.0360 O.2    26  U26        -0.2650
    446   C5        9.7810  -43.6410  -39.4320 C.ar   26  U26         0.0814
    447   C6        9.4730  -42.3800  -39.7570 C.ar   26  U26         0.0870
    448    P.3      5.6880  -39.4060  -37.3100 P.3    27  G27         0.2141
    449  OP1        5.0760  -38.2570  -36.5960 O.2    27  G27        -0.5172
    450  OP2        6.5710  -40.3350  -36.5620 O.3    27  G27        -0.4373
    451  O5'        4.5160  -40.2640  -37.9560 O.3    27  G27        -0.3114
    452  C5'        3.5790  -39.6430  -38.8190 C.3    27  G27         0.1812
    453  C4'        2.8330  -40.6460  -39.6590 C.3    27  G27         0.1773
    454  O4'        3.7400  -41.3390  -40.5580 O.3    27  G27        -0.3307
    455  C3'        2.1460  -41.7750  -38.9150 C.3    27  G27         0.1860
    456  O3'        0.9480  -41.3820  -38.2710 O.3    27  G27        -0.3112
    457  C2'        1.9450  -42.7940  -40.0240 C.3    27  G27         0.2309
    458  O2'        0.8880  -42.3900  -40.8790 O.3    27  G27        -0.2156
    459  C1'        3.2630  -42.6530  -40.7860 C.3    27  G27         0.2408
    460   N9        4.2520  -43.6220  -40.2850 N.ar   27  G27        -0.2693
    461   C8        5.2640  -43.4050  -39.3860 C.ar   27  G27         0.1817
    462   N7        5.9520  -44.4860  -39.1290 N.ar   27  G27        -0.2173
    463   C5        5.3490  -45.4750  -39.8920 C.ar   27  G27         0.1748
    464   C6        5.6550  -46.8540  -40.0250 C.ar   27  G27         0.3023
    465   O6        6.5490  -47.5060  -39.4770 O.2    27  G27        -0.2633
    466   N.1       4.7900  -47.4870  -40.9060 N.ar   27  G27        -0.1709
    467   C.2       3.7610  -46.8790  -41.5730 C.ar   27  G27         0.2606
    468   N.2       3.0430  -47.6710  -42.3800 N.pl3  27  G27        -0.0859
    469   N.3       3.4630  -45.5950  -41.4610 N.ar   27  G27        -0.1918
    470   C4        4.2920  -44.9580  -40.6070 C.ar   27  G27         0.1723
    471    P.3      0.4960  -42.0980  -36.9040 P.3    28  G28         0.2141
    472  OP1       -0.7180  -41.3950  -36.4070 O.2    28  G28        -0.5172
    473  OP2        1.6840  -42.2120  -36.0220 O.3    28  G28        -0.4373
    474  O5'        0.0820  -43.5680  -37.3640 O.3    28  G28        -0.3114
    475  C5'       -0.9450  -43.7550  -38.3260 C.3    28  G28         0.1812
    476  C4'       -1.1340  -45.2070  -38.6800 C.3    28  G28         0.1773
    477  O4'        0.0190  -45.7090  -39.4050 O.3    28  G28        -0.3307
    478  C3'       -1.2740  -46.1660  -37.5140 C.3    28  G28         0.1860
    479  O3'       -2.5670  -46.1320  -36.9380 O.3    28  G28        -0.3112
    480  C2'       -0.9050  -47.5020  -38.1470 C.3    28  G28         0.2309
    481  O2'       -1.9870  -48.0110  -38.9130 O.3    28  G28        -0.2156
    482  C1'        0.2090  -47.0790  -39.1100 C.3    28  G28         0.2408
    483   N9        1.5480  -47.2550  -38.5160 N.ar   28  G28        -0.2693
    484   C8        2.3170  -46.2890  -37.9180 C.ar   28  G28         0.1817
    485   N7        3.4590  -46.7420  -37.4750 N.ar   28  G28        -0.2173
    486   C5        3.4440  -48.0930  -37.7950 C.ar   28  G28         0.1748
    487   C6        4.4150  -49.1050  -37.5660 C.ar   28  G28         0.3023
    488   O6        5.5200  -49.0150  -37.0160 O.2    28  G28        -0.2633
    489   N.1       3.9960  -50.3340  -38.0550 N.ar   28  G28        -0.1709
    490   C.2       2.8000  -50.5640  -38.6850 C.ar   28  G28         0.2606
    491   N.2       2.5790  -51.8250  -39.0880 N.pl3  28  G28        -0.0859
    492   N.3       1.8890  -49.6300  -38.9050 N.ar   28  G28        -0.1918
    493   C4        2.2710  -48.4250  -38.4370 C.ar   28  G28         0.1723
    494    P.3     -2.8020  -46.6610  -35.4410 P.3    29  A29         0.2141
    495  OP1       -4.1760  -46.2700  -35.0310 O.2    29  A29        -0.5172
    496  OP2       -1.6390  -46.2520  -34.6150 O.3    29  A29        -0.4373
    497  O5'       -2.7650  -48.2430  -35.6050 O.3    29  A29        -0.3114
    498  C5'       -2.2600  -49.0740  -34.5760 C.3    29  A29         0.1812
    499  C4'       -2.0740  -50.4880  -35.0610 C.3    29  A29         0.1773
    500  O4'       -1.0170  -50.5330  -36.0550 O.3    29  A29        -0.3307
    501  C3'       -1.6290  -51.4840  -34.0070 C.3    29  A29         0.1860
    502  O3'       -2.6950  -51.9450  -33.2000 O.3    29  A29        -0.3112
    503  C2'       -0.9650  -52.5700  -34.8410 C.3    29  A29         0.2309
    504  O2'       -1.9390  -53.3930  -35.4650 O.3    29  A29        -0.2156
    505  C1'       -0.2810  -51.7310  -35.9180 C.3    29  A29         0.2408
    506   N9        1.0990  -51.3740  -35.5400 N.ar   29  A29        -0.2693
    507   C8        1.5970  -50.1120  -35.3370 C.ar   29  A29         0.1816
    508   N7        2.8650  -50.0900  -35.0100 N.ar   29  A29        -0.2193
    509   C5        3.2250  -51.4290  -34.9970 C.ar   29  A29         0.1518
    510   C6        4.4430  -52.0700  -34.7240 C.ar   29  A29         0.1919
    511   N6        5.5590  -51.4170  -34.3990 N.pl3  29  A29        -0.1054
    512   N.1       4.4740  -53.4170  -34.7990 N.ar   29  A29        -0.2040
    513   C.2       3.3490  -54.0670  -35.1270 C.ar   29  A29         0.2016
    514   N.3       2.1450  -53.5750  -35.4060 N.ar   29  A29        -0.2048
    515   C4        2.1500  -52.2330  -35.3260 C.ar   29  A29         0.1692
    516    P.3     -2.5260  -51.9570  -31.6070 P.3    30  A30         0.2141
    517  OP1       -3.8670  -52.1470  -30.9890 O.3    30  A30        -0.4373
    518  OP2       -1.6870  -50.7800  -31.2540 O.2    30  A30        -0.5172
    519  O5'       -1.6590  -53.2630  -31.3320 O.3    30  A30        -0.3114
    520  C5'       -2.0380  -54.5110  -31.8870 C.3    30  A30         0.1812
    521  C4'       -0.8800  -55.4740  -31.9260 C.3    30  A30         0.1773
    522  O4'        0.1840  -54.9350  -32.7530 O.3    30  A30        -0.3307
    523  C3'       -0.1980  -55.7590  -30.5990 C.3    30  A30         0.1860
    524  O3'       -0.9050  -56.6970  -29.8070 O.3    30  A30        -0.3112
    525  C2'        1.1820  -56.2330  -31.0350 C.3    30  A30         0.2309
    526  O2'        1.1300  -57.5750  -31.4950 O.3    30  A30        -0.2156
    527  C1'        1.4390  -55.3310  -32.2400 C.3    30  A30         0.2408
    528   N9        2.2090  -54.1290  -31.8700 N.ar   30  A30        -0.2693
    529   C8        1.7540  -52.8520  -31.6700 C.ar   30  A30         0.1816
    530   N7        2.6980  -52.0030  -31.3430 N.ar   30  A30        -0.2193
    531   C5        3.8500  -52.7760  -31.3190 C.ar   30  A30         0.1518
    532   C6        5.1930  -52.4720  -31.0390 C.ar   30  A30         0.1919
    533   N6        5.6230  -51.2490  -30.7160 N.pl3  30  A30        -0.1054
    534   N.1       6.0950  -53.4770  -31.1060 N.ar   30  A30        -0.2040
    535   C.2       5.6680  -54.7030  -31.4310 C.ar   30  A30         0.2016
    536   N.3       4.4340  -55.1110  -31.7140 N.ar   30  A30        -0.2048
    537   C4        3.5620  -54.0890  -31.6380 C.ar   30  A30         0.1692
    538    P.3     -0.9530  -56.5320  -28.2090 P.3    31  U31         0.2141
    539  OP1       -1.9600  -57.4980  -27.6940 O.3    31  U31        -0.4373
    540  OP2       -1.0750  -55.0850  -27.8920 O.2    31  U31        -0.5172
    541  O5'        0.4940  -56.9980  -27.7310 O.3    31  U31        -0.3114
    542  C5'        0.9870  -58.2890  -28.0700 C.3    31  U31         0.1812
    543  C4'        2.1880  -58.6730  -27.2430 C.3    31  U31         0.1773
    544  O4'        3.3320  -57.8620  -27.6310 O.3    31  U31        -0.3307
    545  C3'        2.0340  -58.5000  -25.7310 C.3    31  U31         0.1860
    546  O3'        2.7160  -59.5600  -25.0650 O.3    31  U31        -0.3112
    547  C2'        2.7610  -57.1840  -25.4650 C.3    31  U31         0.2309
    548  O2'        3.2520  -57.0400  -24.1490 O.3    31  U31        -0.2156
    549  C1'        3.8920  -57.2560  -26.4840 C.3    31  U31         0.2420
    550   N.1       4.4530  -55.9530  -26.8680 N.ar   31  U31        -0.2534
    551   C.2       5.7670  -55.7230  -26.5130 C.ar   31  U31         0.3546
    552   O.2       6.4390  -56.5470  -25.9180 O.2    31  U31        -0.2443
    553   N.3       6.2680  -54.5020  -26.8850 N.ar   31  U31        -0.1530
    554   C4        5.5960  -53.5060  -27.5590 C.ar   31  U31         0.2846
    555   O4        6.1890  -52.4580  -27.8190 O.2    31  U31        -0.2650
    556   C5        4.2360  -53.8180  -27.8890 C.ar   31  U31         0.0814
    557   C6        3.7200  -55.0040  -27.5410 C.ar   31  U31         0.0870
    558    P.3      1.8730  -60.7320  -24.3630 P.3    32  U32         0.2141
    559  OP1        0.5610  -60.1670  -23.9590 O.2    32  U32        -0.5172
    560  OP2        2.7390  -61.3800  -23.3460 O.3    32  U32        -0.4373
    561  O5'        1.6180  -61.7770  -25.5380 O.3    32  U32        -0.3114
    562  C5'        2.6780  -62.5810  -26.0480 C.3    32  U32         0.1812
    563  C4'        2.1790  -63.5860  -27.0580 C.3    32  U32         0.1773
    564  O4'        1.0120  -64.2650  -26.5150 O.3    32  U32        -0.3307
    565  C3'        1.7390  -62.9980  -28.3980 C.3    32  U32         0.1860
    566  O3'        2.0080  -63.9370  -29.4390 O.3    32  U32        -0.3112
    567  C2'        0.2310  -62.8610  -28.2240 C.3    32  U32         0.2309
    568  O2'       -0.4990  -62.8430  -29.4340 O.3    32  U32        -0.2156
    569  C1'       -0.0880  -64.0960  -27.3900 C.3    32  U32         0.2420
    570   N.1      -1.3110  -63.9770  -26.5820 N.ar   32  U32        -0.2534
    571   C.2      -2.4040  -64.7260  -26.9710 C.ar   32  U32         0.3546
    572   O.2      -2.3920  -65.4580  -27.9460 O.2    32  U32        -0.2443
    573   N.3      -3.5170  -64.5780  -26.1800 N.ar   32  U32        -0.1530
    574   C4       -3.6400  -63.7790  -25.0600 C.ar   32  U32         0.2846
    575   O4       -4.7110  -63.7550  -24.4510 O.2    32  U32        -0.2650
    576   C5       -2.4620  -63.0400  -24.7220 C.ar   32  U32         0.0814
    577   C6       -1.3640  -63.1630  -25.4750 C.ar   32  U32         0.0870
    578    P.3      3.4050  -63.9000  -30.2310 P.3    33  A33         0.2141
    579  OP1        3.2350  -64.6740  -31.4880 O.2    33  A33        -0.5172
    580  OP2        4.4870  -64.2620  -29.2770 O.3    33  A33        -0.4373
    581  O5'        3.5850  -62.3660  -30.6230 O.3    33  A33        -0.3114
    582  C5'        2.7410  -61.7540  -31.5880 C.3    33  A33         0.1812
    583  C4'        3.1330  -60.3190  -31.8220 C.3    33  A33         0.1773
    584  O4'        3.2520  -59.6380  -30.5460 O.3    33  A33        -0.3307
    585  C3'        4.4810  -60.1050  -32.4900 C.3    33  A33         0.1860
    586  O3'        4.4100  -60.2030  -33.9010 O.3    33  A33        -0.3112
    587  C2'        4.8890  -58.7210  -32.0020 C.3    33  A33         0.2309
    588  O2'        4.2300  -57.7140  -32.7540 O.3    33  A33        -0.2156
    589  C1'        4.3140  -58.7110  -30.5880 C.3    33  A33         0.2408
    590   N9        5.3070  -59.0970  -29.5670 N.ar   33  A33        -0.2693
    591   C8        5.2750  -60.2070  -28.7620 C.ar   33  A33         0.1816
    592   N7        6.2830  -60.2870  -27.9290 N.ar   33  A33        -0.2193
    593   C5        7.0270  -59.1490  -28.1970 C.ar   33  A33         0.1518
    594   C6        8.2210  -58.6530  -27.6470 C.ar   33  A33         0.1919
    595   N6        8.8950  -59.2690  -26.6760 N.pl3  33  A33        -0.1054
    596   N.1       8.7050  -57.4880  -28.1310 N.ar   33  A33        -0.2040
    597   C.2       8.0220  -56.8740  -29.1060 C.ar   33  A33         0.2016
    598   N.3       6.8910  -57.2420  -29.7040 N.ar   33  A33        -0.2048
    599   C4        6.4360  -58.4010  -29.1970 C.ar   33  A33         0.1692
    600    P.3      5.4200  -61.1650  -34.6990 P.3    34  A34         0.2141
    601  OP1        4.9380  -61.2990  -36.1000 O.2    34  A34        -0.5172
    602  OP2        5.6520  -62.3790  -33.8700 O.3    34  A34        -0.4373
    603  O5'        6.7750  -60.3360  -34.7370 O.3    34  A34        -0.3114
    604  C5'        6.8140  -59.0330  -35.2940 C.3    34  A34         0.1812
    605  C4'        8.0320  -58.2870  -34.8210 C.3    34  A34         0.1773
    606  O4'        7.9570  -58.1200  -33.3830 O.3    34  A34        -0.3307
    607  C3'        9.3600  -58.9910  -35.0470 C.3    34  A34         0.1860
    608  O3'        9.8740  -58.7810  -36.3510 O.3    34  A34        -0.3112
    609  C2'       10.2490  -58.4170  -33.9500 C.3    34  A34         0.2309
    610  O2'       10.7800  -57.1600  -34.3370 O.3    34  A34        -0.2156
    611  C1'        9.2470  -58.1890  -32.8180 C.3    34  A34         0.2408
    612   N9        9.2790  -59.2750  -31.8240 N.ar   34  A34        -0.2693
    613   C8        8.5180  -60.4120  -31.7760 C.ar   34  A34         0.1816
    614   N7        8.8010  -61.1870  -30.7550 N.ar   34  A34        -0.2193
    615   C5        9.8140  -60.5150  -30.0910 C.ar   34  A34         0.1518
    616   C6       10.5490  -60.8070  -28.9300 C.ar   34  A34         0.1919
    617   N6       10.3670  -61.9070  -28.1990 N.pl3  34  A34        -0.1054
    618   N.1      11.4920  -59.9210  -28.5380 N.ar   34  A34        -0.2040
    619   C.2      11.6740  -58.8150  -29.2710 C.ar   34  A34         0.2016
    620   N.3      11.0490  -58.4280  -30.3810 N.ar   34  A34        -0.2048
    621   C4       10.1210  -59.3340  -30.7410 C.ar   34  A34         0.1692
    622    P.3      9.7360  -59.9290  -37.4660 P.3    35  C35         0.2141
    623  OP1        9.6030  -61.2240  -36.7480 O.3    35  C35        -0.4373
    624  OP2       10.8240  -59.7550  -38.4630 O.2    35  C35        -0.5172
    625  O5'        8.3500  -59.6070  -38.1830 O.3    35  C35        -0.3114
    626  C5'        8.2400  -58.5450  -39.1200 C.3    35  C35         0.1812
    627  C4'        6.8020  -58.1430  -39.3340 C.3    35  C35         0.1773
    628  O4'        6.3200  -57.4110  -38.1770 O.3    35  C35        -0.3307
    629  C3'        6.5310  -57.2050  -40.5020 C.3    35  C35         0.1860
    630  O3'        6.4660  -57.8740  -41.7510 O.3    35  C35        -0.3112
    631  C2'        5.2180  -56.5490  -40.0980 C.3    35  C35         0.2309
    632  O2'        4.1240  -57.4190  -40.3490 O.3    35  C35        -0.2156
    633  C1'        5.3930  -56.4250  -38.5840 C.3    35  C35         0.2420
    634   N.1       5.9080  -55.0940  -38.1880 N.ar   35  C35        -0.2535
    635   C.2       5.0260  -54.0100  -38.1480 C.ar   35  C35         0.3532
    636   O.2       3.8380  -54.1850  -38.4480 O.2    35  C35        -0.2443
    637   N.3       5.4860  -52.7910  -37.7890 N.ar   35  C35        -0.1739
    638   C4        6.7700  -52.6330  -37.4730 C.ar   35  C35         0.1759
    639   N.4       7.1740  -51.4140  -37.1230 N.pl3  35  C35        -0.1070
    640   C5        7.6950  -53.7170  -37.5000 C.ar   35  C35         0.0566
    641   C6        7.2250  -54.9190  -37.8580 C.ar   35  C35         0.0850
    642    P.3      6.8860  -57.1090  -43.1020 P.3    36  C36         0.2141
    643  OP1        6.8250  -58.0780  -44.2250 O.2    36  C36        -0.5172
    644  OP2        8.1530  -56.3780  -42.8430 O.3    36  C36        -0.4373
    645  O5'        5.7290  -56.0330  -43.3110 O.3    36  C36        -0.3114
    646  C5'        4.4080  -56.4330  -43.6390 C.3    36  C36         0.1812
    647  C4'        3.5250  -55.2450  -43.9290 C.3    36  C36         0.1773
    648  O4'        3.2260  -54.5310  -42.7000 O.3    36  C36        -0.3307
    649  C3'        4.1140  -54.1760  -44.8340 C.3    36  C36         0.1860
    650  O3'        4.0620  -54.5160  -46.2080 O.3    36  C36        -0.3112
    651  C2'        3.2880  -52.9480  -44.4710 C.3    36  C36         0.2309
    652  O2'        2.0120  -52.9980  -45.0900 O.3    36  C36        -0.2156
    653  C1'        3.0990  -53.1490  -42.9670 C.3    36  C36         0.2420
    654   N.1       4.1100  -52.4110  -42.1780 N.ar   36  C36        -0.2535
    655   C.2       3.9560  -51.0290  -42.0110 C.ar   36  C36         0.3532
    656   O.2       2.9840  -50.4570  -42.5190 O.2    36  C36        -0.2443
    657   N.3       4.8710  -50.3380  -41.2980 N.ar   36  C36        -0.1739
    658   C4        5.9090  -50.9770  -40.7630 C.ar   36  C36         0.1759
    659   N.4       6.7760  -50.2490  -40.0670 N.pl3  36  C36        -0.1070
    660   C5        6.0970  -52.3820  -40.9140 C.ar   36  C36         0.0566
    661   C6        5.1820  -53.0570  -41.6240 C.ar   36  C36         0.0850
    662    P.3      5.2350  -54.0350  -47.1960 P.3    37  A37         0.2141
    663  OP1        4.9550  -54.6020  -48.5420 O.2    37  A37        -0.5172
    664  OP2        6.5360  -54.3080  -46.5360 O.3    37  A37        -0.4373
    665  O5'        5.0620  -52.4540  -47.2590 O.3    37  A37        -0.3114
    666  C5'        3.9740  -51.8730  -47.9590 C.3    37  A37         0.1812
    667  C4'        4.0100  -50.3690  -47.8950 C.3    37  A37         0.1773
    668  O4'        3.7980  -49.9280  -46.5280 O.3    37  A37        -0.3307
    669  C3'        5.3170  -49.7050  -48.2860 C.3    37  A37         0.1860
    670  O3'        5.5140  -49.6250  -49.6860 O.3    37  A37        -0.3112
    671  C2'        5.2090  -48.3500  -47.6020 C.3    37  A37         0.2309
    672  O2'        4.3370  -47.4980  -48.3280 O.3    37  A37        -0.2156
    673  C1'        4.5180  -48.7350  -46.2960 C.3    37  A37         0.2408
    674   N9        5.4810  -48.9620  -45.2010 N.ar   37  A37        -0.2693
    675   C8        5.9830  -50.1490  -44.7240 C.ar   37  A37         0.1816
    676   N7        6.8230  -50.0040  -43.7220 N.ar   37  A37        -0.2193
    677   C5        6.8710  -48.6300  -43.5220 C.ar   37  A37         0.1518
    678   C6        7.5730  -47.8170  -42.6120 C.ar   37  A37         0.1919
    679   N6        8.4090  -48.2710  -41.6770 N.pl3  37  A37        -0.1054
    680   N.1       7.3890  -46.4830  -42.6920 N.ar   37  A37        -0.2040
    681   C.2       6.5580  -46.0030  -43.6210 C.ar   37  A37         0.2016
    682   N.3       5.8460  -46.6610  -44.5300 N.ar   37  A37        -0.2048
    683   C4        6.0470  -47.9830  -44.4240 C.ar   37  A37         0.1692
    684    P.3      6.9780  -49.8910  -50.2950 P.3    38  C38         0.2141
    685  OP1        6.8590  -49.9900  -51.7720 O.2    38  C38        -0.5172
    686  OP2        7.5880  -51.0060  -49.5270 O.3    38  C38        -0.4373
    687  O5'        7.7930  -48.5630  -49.9500 O.3    38  C38        -0.3114
    688  C5'        7.7020  -47.4190  -50.7860 C.3    38  C38         0.1812
    689  C4'        8.0080  -46.1390  -50.0460 C.3    38  C38         0.1773
    690  O4'        7.4860  -46.1980  -48.6910 O.3    38  C38        -0.3307
    691  C3'        9.4760  -45.8020  -49.8400 C.3    38  C38         0.1860
    692  O3'       10.1260  -45.2930  -50.9900 O.3    38  C38        -0.3112
    693  C2'        9.4170  -44.8120  -48.6890 C.3    38  C38         0.2309
    694  O2'        8.9950  -43.5350  -49.1440 O.3    38  C38        -0.2156
    695  C1'        8.3070  -45.4260  -47.8320 C.3    38  C38         0.2420
    696   N.1       8.8870  -46.2960  -46.7860 N.ar   38  C38        -0.2535
    697   C.2       9.3770  -45.6630  -45.6400 C.ar   38  C38         0.3532
    698   O.2       9.2650  -44.4310  -45.5530 O.2    38  C38        -0.2443
    699   N.3       9.9430  -46.4020  -44.6590 N.ar   38  C38        -0.1739
    700   C4       10.0380  -47.7230  -44.7990 C.ar   38  C38         0.1759
    701   N.4      10.6030  -48.4050  -43.8030 N.pl3  38  C38        -0.1070
    702   C5        9.5580  -48.3980  -45.9610 C.ar   38  C38         0.0566
    703   C6        8.9990  -47.6530  -46.9270 C.ar   38  C38         0.0850
    704    P.3     11.6870  -45.6050  -51.2130 P.3    39  A39         0.2141
    705  OP1       12.1090  -44.9520  -52.4800 O.2    39  A39        -0.5172
    706  OP2       11.8920  -47.0640  -51.0250 O.3    39  A39        -0.4373
    707  O5'       12.4120  -44.8770  -49.9920 O.3    39  A39        -0.3114
    708  C5'       12.5460  -43.4630  -49.9570 C.3    39  A39         0.1812
    709  C4'       13.1060  -42.9830  -48.6400 C.3    39  A39         0.1773
    710  O4'       12.3790  -43.5960  -47.5390 O.3    39  A39        -0.3307
    711  C3'       14.5580  -43.3330  -48.3540 C.3    39  A39         0.1860
    712  O3'       15.4850  -42.4860  -49.0090 O.3    39  A39        -0.3112
    713  C2'       14.6160  -43.2490  -46.8360 C.3    39  A39         0.2309
    714  O2'       14.6390  -41.8950  -46.4080 O.3    39  A39        -0.2156
    715  C1'       13.2600  -43.8420  -46.4610 C.3    39  A39         0.2408
    716   N9       13.3530  -45.2990  -46.2640 N.ar   39  A39        -0.2693
    717   C8       12.8750  -46.2880  -47.0880 C.ar   39  A39         0.1816
    718   N7       13.1120  -47.5010  -46.6510 N.ar   39  A39        -0.2193
    719   C5       13.7950  -47.2950  -45.4600 C.ar   39  A39         0.1518
    720   C6       14.3250  -48.1850  -44.5110 C.ar   39  A39         0.1919
    721   N6       14.2480  -49.5140  -44.6220 N.pl3  39  A39        -0.1054
    722   N.1      14.9460  -47.6570  -43.4320 N.ar   39  A39        -0.2040
    723   C.2      15.0210  -46.3230  -43.3260 C.ar   39  A39         0.2016
    724   N.3      14.5600  -45.3840  -44.1510 N.ar   39  A39        -0.2048
    725   C4       13.9490  -45.9440  -45.2080 C.ar   39  A39         0.1692
    726    P.3     16.7970  -43.1140  -49.6960 P.3    40  U40         0.2141
    727  OP1       17.6030  -42.0070  -50.2710 O.3    40  U40        -0.4373
    728  OP2       16.3580  -44.2270  -50.5790 O.2    40  U40        -0.5172
    729  O5'       17.6200  -43.7400  -48.4830 O.3    40  U40        -0.3114
    730  C5'       18.1810  -42.9160  -47.4700 C.3    40  U40         0.1812
    731  C4'       18.7070  -43.7320  -46.3140 C.3    40  U40         0.1773
    732  O4'       17.6310  -44.5260  -45.7420 O.3    40  U40        -0.3307
    733  C3'       19.7800  -44.7600  -46.6450 C.3    40  U40         0.1860
    734  O3'       21.0790  -44.2070  -46.7750 O.3    40  U40        -0.3112
    735  C2'       19.6490  -45.7450  -45.4930 C.3    40  U40         0.2309
    736  O2'       20.2390  -45.2120  -44.3160 O.3    40  U40        -0.2156
    737  C1'       18.1320  -45.7720  -45.3010 C.3    40  U40         0.2420
    738   N.1      17.5100  -46.8480  -46.1040 N.ar   40  U40        -0.2534
    739   C.2      17.5600  -48.1420  -45.6140 C.ar   40  U40         0.3546
    740   O.2      18.0640  -48.4290  -44.5420 O.2    40  U40        -0.2443
    741   N.3      16.9810  -49.0970  -46.4150 N.ar   40  U40        -0.1530
    742   C4       16.3770  -48.8880  -47.6360 C.ar   40  U40         0.2846
    743   O4       15.8980  -49.8380  -48.2490 O.2    40  U40        -0.2650
    744   C5       16.3750  -47.5290  -48.0790 C.ar   40  U40         0.0814
    745   C6       16.9280  -46.5820  -47.3200 C.ar   40  U40         0.0870
    746    P.3     22.0670  -44.7280  -47.9340 P.3    41  G41         0.2141
    747  OP1       23.1750  -43.7470  -48.0550 O.3    41  G41        -0.4373
    748  OP2       21.2440  -45.0500  -49.1280 O.2    41  G41        -0.5172
    749  O5'       22.6690  -46.0930  -47.3650 O.3    41  G41        -0.3114
    750  C5'       23.5480  -46.0990  -46.2470 C.3    41  G41         0.1812
    751  C4'       23.5040  -47.4090  -45.4930 C.3    41  G41         0.1773
    752  O4'       22.1260  -47.7890  -45.2450 O.3    41  G41        -0.3307
    753  C3'       24.0980  -48.6250  -46.1890 C.3    41  G41         0.1860
    754  O3'       25.5120  -48.6890  -46.0950 O.3    41  G41        -0.3112
    755  C2'       23.3980  -49.7800  -45.4840 C.3    41  G41         0.2309
    756  O2'       23.9920  -50.0320  -44.2190 O.3    41  G41        -0.2156
    757  C1'       22.0050  -49.1950  -45.2550 C.3    41  G41         0.2408
    758   N9       21.0740  -49.5900  -46.3260 N.ar   41  G41        -0.2693
    759   C8       20.5940  -48.8300  -47.3640 C.ar   41  G41         0.1817
    760   N7       19.7940  -49.4970  -48.1540 N.ar   41  G41        -0.2173
    761   C5       19.7510  -50.7730  -47.6050 C.ar   41  G41         0.1748
    762   C6       19.0510  -51.9370  -48.0150 C.ar   41  G41         0.3023
    763   O6       18.2950  -52.0820  -48.9830 O.2    41  G41        -0.2633
    764   N.1      19.3000  -53.0090  -47.1630 N.ar   41  G41        -0.1709
    765   C.2      20.1150  -52.9700  -46.0580 C.ar   41  G41         0.2606
    766   N.2      20.2320  -54.1060  -45.3550 N.pl3  41  G41        -0.0859
    767   N.3      20.7700  -51.8940  -45.6670 N.ar   41  G41        -0.1918
    768   C4       20.5450  -50.8450  -46.4830 C.ar   41  G41         0.1723
    769    P.3     26.3850  -49.2950  -47.3030 P.3    42  A42         0.2141
    770  OP1       27.8150  -49.2040  -46.9130 O.3    42  A42        -0.4373
    771  OP2       25.9320  -48.6540  -48.5630 O.2    42  A42        -0.5172
    772  O5'       25.9730  -50.8370  -47.3580 O.3    42  A42        -0.3114
    773  C5'       26.2980  -51.7270  -46.2980 C.3    42  A42         0.1812
    774  C4'       25.5680  -53.0420  -46.4320 C.3    42  A42         0.1773
    775  O4'       24.1380  -52.8000  -46.4320 O.3    42  A42        -0.3307
    776  C3'       25.8160  -53.8190  -47.7170 C.3    42  A42         0.1860
    777  O3'       27.0000  -54.5990  -47.6680 O.3    42  A42        -0.3112
    778  C2'       24.5460  -54.6500  -47.8580 C.3    42  A42         0.2309
    779  O2'       24.5910  -55.7850  -47.0070 O.3    42  A42        -0.2156
    780  C1'       23.4920  -53.6880  -47.3170 C.3    42  A42         0.2408
    781   N9       22.8660  -52.8960  -48.3920 N.ar   42  A42        -0.2693
    782   C8       23.1460  -51.5990  -48.7500 C.ar   42  A42         0.1816
    783   N7       22.4290  -51.1590  -49.7550 N.ar   42  A42        -0.2193
    784   C5       21.6230  -52.2410  -50.0840 C.ar   42  A42         0.1518
    785   C6       20.6360  -52.4190  -51.0680 C.ar   42  A42         0.1919
    786   N6       20.2790  -51.4690  -51.9360 N.pl3  42  A42        -0.1054
    787   N.1      20.0180  -53.6200  -51.1310 N.ar   42  A42        -0.2040
    788   C.2      20.3750  -54.5690  -50.2580 C.ar   42  A42         0.2016
    789   N.3      21.2870  -54.5220  -49.2900 N.ar   42  A42        -0.2048
    790   C4       21.8840  -53.3180  -49.2570 C.ar   42  A42         0.1692
    791    P.3     28.0380  -54.5820  -48.8950 P.3    43  A43         0.2141
    792  OP1       29.2570  -53.8710  -48.4350 O.3    43  A43        -0.4373
    793  OP2       27.3230  -54.1060  -50.1070 O.2    43  A43        -0.5172
    794  O5'       28.4020  -56.1170  -49.1240 O.3    43  A43        -0.3114
    795  C5'       29.2030  -56.8250  -48.1890 C.3    43  A43         0.1812
    796  C4'       28.6360  -58.1900  -47.8910 C.3    43  A43         0.1773
    797  O4'       27.2320  -58.0730  -47.5460 O.3    43  A43        -0.3307
    798  C3'       28.6470  -59.1930  -49.0350 C.3    43  A43         0.1860
    799  O3'       29.9100  -59.8130  -49.2230 O.3    43  A43        -0.3112
    800  C2'       27.5440  -60.1620  -48.6270 C.3    43  A43         0.2309
    801  O2'       27.9990  -61.0530  -47.6190 O.3    43  A43        -0.2156
    802  C1'       26.5270  -59.2080  -48.0030 C.3    43  A43         0.2408
    803   N9       25.5220  -58.7640  -48.9850 N.ar   43  A43        -0.2693
    804   C8       25.4490  -57.5430  -49.6050 C.ar   43  A43         0.1816
    805   N7       24.4460  -57.4370  -50.4400 N.ar   43  A43        -0.2193
    806   C5       23.8170  -58.6710  -50.3670 C.ar   43  A43         0.1518
    807   C6       22.6830  -59.1910  -51.0160 C.ar   43  A43         0.1919
    808   N6       21.9590  -58.4990  -51.9000 N.pl3  43  A43        -0.1054
    809   N.1      22.3180  -60.4580  -50.7220 N.ar   43  A43        -0.2040
    810   C.2      23.0510  -61.1440  -49.8360 C.ar   43  A43         0.2016
    811   N.3      24.1350  -60.7640  -49.1590 N.ar   43  A43        -0.2048
    812   C4       24.4710  -59.5020  -49.4760 C.ar   43  A43         0.1692
    813    P.3     30.5370  -59.9650  -50.6980 P.3    44  G44         0.2141
    814  OP1       31.7670  -60.7880  -50.5770 O.3    44  G44        -0.4373
    815  OP2       30.6170  -58.6130  -51.3080 O.2    44  G44        -0.5172
    816  O5'       29.4580  -60.8200  -51.5050 O.3    44  G44        -0.3114
    817  C5'       29.1850  -62.1720  -51.1620 C.3    44  G44         0.1812
    818  C4'       27.8350  -62.6120  -51.6750 C.3    44  G44         0.1773
    819  O4'       26.8400  -61.6110  -51.3420 O.3    44  G44        -0.3307
    820  C3'       27.7050  -62.7780  -53.1820 C.3    44  G44         0.1860
    821  O3'       28.1950  -64.0280  -53.6370 O.3    44  G44        -0.3112
    822  C2'       26.2090  -62.5940  -53.4100 C.3    44  G44         0.2309
    823  O2'       25.5030  -63.7830  -53.0890 O.3    44  G44        -0.2156
    824  C1'       25.8670  -61.5370  -52.3600 C.3    44  G44         0.2408
    825   N9       25.8700  -60.1710  -52.9150 N.ar   44  G44        -0.2693
    826   C8       26.7400  -59.1540  -52.6030 C.ar   44  G44         0.1817
    827   N7       26.4940  -58.0480  -53.2520 N.ar   44  G44        -0.2173
    828   C5       25.3910  -58.3510  -54.0390 C.ar   44  G44         0.1748
    829   C6       24.6680  -57.5450  -54.9570 C.ar   44  G44         0.3023
    830   O6       24.8650  -56.3650  -55.2700 O.2    44  G44        -0.2633
    831   N.1      23.6200  -58.2500  -55.5390 N.ar   44  G44        -0.1709
    832   C.2      23.3050  -59.5590  -55.2740 C.ar   44  G44         0.2606
    833   N.2      22.2550  -60.0640  -55.9390 N.pl3  44  G44        -0.0859
    834   N.3      23.9690  -60.3200  -54.4200 N.ar   44  G44        -0.1918
    835   C4       24.9940  -59.6570  -53.8430 C.ar   44  G44         0.1723
    836    P.3     28.9580  -64.1480  -55.0480 P.3    45  U45         0.2141
    837  OP1       29.3840  -65.5610  -55.2130 O.2    45  U45        -0.5172
    838  OP2       29.9700  -63.0640  -55.1310 O.3    45  U45        -0.4373
    839  O5'       27.8220  -63.8550  -56.1250 O.3    45  U45        -0.3114
    840  C5'       26.7220  -64.7380  -56.2860 C.3    45  U45         0.1812
    841  C4'       25.7240  -64.1940  -57.2760 C.3    45  U45         0.1773
    842  O4'       25.1120  -62.9900  -56.7440 O.3    45  U45        -0.3307
    843  C3'       26.2930  -63.7570  -58.6160 C.3    45  U45         0.1860
    844  O3'       26.5040  -64.8350  -59.5090 O.3    45  U45        -0.3112
    845  C2'       25.2600  -62.7510  -59.1040 C.3    45  U45         0.2309
    846  O2'       24.1250  -63.4160  -59.6380 O.3    45  U45        -0.2156
    847  C1'       24.8540  -62.0780  -57.7920 C.3    45  U45         0.2420
    848   N.1      25.6200  -60.8350  -57.5390 N.ar   45  U45        -0.2534
    849   C.2      25.2280  -59.6890  -58.2050 C.ar   45  U45         0.3546
    850   O.2      24.2930  -59.6620  -58.9870 O.2    45  U45        -0.2443
    851   N.3      25.9730  -58.5700  -57.9280 N.ar   45  U45        -0.1530
    852   C4       27.0460  -58.4790  -57.0670 C.ar   45  U45         0.2846
    853   O4       27.6150  -57.3960  -56.9230 O.2    45  U45        -0.2650
    854   C5       27.3890  -59.7050  -56.4120 C.ar   45  U45         0.0814
    855   C6       26.6810  -60.8110  -56.6640 C.ar   45  U45         0.0870
    856    P.3     27.7890  -64.8350  -60.4740 P.3    46  A46         0.2141
    857  OP1       27.9230  -66.1940  -61.0590 O.2    46  A46        -0.5172
    858  OP2       28.9250  -64.2400  -59.7250 O.3    46  A46        -0.4373
    859  O5'       27.3950  -63.8270  -61.6430 O.3    46  A46        -0.3114
    860  C5'       26.2610  -64.0690  -62.4620 C.3    46  A46         0.1812
    861  C4'       25.9610  -62.8910  -63.3550 C.3    46  A46         0.1773
    862  O4'       25.5040  -61.7680  -62.5560 O.3    46  A46        -0.3307
    863  C3'       27.1370  -62.3290  -64.1380 C.3    46  A46         0.1860
    864  O3'       27.4320  -63.0790  -65.3050 O.3    46  A46        -0.3112
    865  C2'       26.6940  -60.9000  -64.4210 C.3    46  A46         0.2309
    866  O2'       25.7630  -60.8680  -65.4930 O.3    46  A46        -0.2156
    867  C1'       25.9520  -60.5560  -63.1280 C.3    46  A46         0.2408
    868   N9       26.8170  -59.8640  -62.1520 N.ar   46  A46        -0.2693
    869   C8       27.4150  -60.3920  -61.0350 C.ar   46  A46         0.1816
    870   N7       28.1270  -59.5260  -60.3540 N.ar   46  A46        -0.2193
    871   C5       27.9870  -58.3450  -61.0700 C.ar   46  A46         0.1518
    872   C6       28.4980  -57.0480  -60.8690 C.ar   46  A46         0.1919
    873   N6       29.2870  -56.7130  -59.8460 N.pl3  46  A46        -0.1054
    874   N.1      28.1670  -56.0940  -61.7690 N.ar   46  A46        -0.2040
    875   C.2      27.3780  -56.4320  -62.7970 C.ar   46  A46         0.2016
    876   N.3      26.8350  -57.6130  -63.0910 N.ar   46  A46        -0.2048
    877   C4       27.1820  -58.5380  -62.1790 C.ar   46  A46         0.1692
    878    P.3     28.9460  -63.1920  -65.8350 P.3    47  U47         0.2141
    879  OP1       28.9890  -64.2540  -66.8720 O.2    47  U47        -0.5172
    880  OP2       29.8540  -63.2780  -64.6630 O.3    47  U47        -0.4373
    881  O5'       29.2020  -61.7940  -66.5520 O.3    47  U47        -0.3114
    882  C5'       28.3630  -61.3610  -67.6120 C.3    47  U47         0.1812
    883  C4'       28.5730  -59.9020  -67.9280 C.3    47  U47         0.1773
    884  O4'       28.1910  -59.0810  -66.7950 O.3    47  U47        -0.3307
    885  C3'       30.0030  -59.4830  -68.2200 C.3    47  U47         0.1860
    886  O3'       30.4050  -59.7960  -69.5420 O.3    47  U47        -0.3112
    887  C2'       29.9770  -57.9870  -67.9240 C.3    47  U47         0.2309
    888  O2'       29.4220  -57.2680  -69.0160 O.3    47  U47        -0.2156
    889  C1'       28.9970  -57.9220  -66.7480 C.3    47  U47         0.2420
    890   N.1      29.6840  -57.8610  -65.4360 N.ar   47  U47        -0.2534
    891   C.2      30.0560  -56.6130  -64.9690 C.ar   47  U47         0.3546
    892   O.2      29.8430  -55.5860  -65.5900 O.2    47  U47        -0.2443
    893   N.3      30.6880  -56.6080  -63.7480 N.ar   47  U47        -0.1530
    894   C4       30.9760  -57.7080  -62.9650 C.ar   47  U47         0.2846
    895   O4       31.5500  -57.5510  -61.8870 O.2    47  U47        -0.2650
    896   C5       30.5590  -58.9610  -63.5160 C.ar   47  U47         0.0814
    897   C6       29.9420  -58.9950  -64.7020 C.ar   47  U47         0.0870
    898    P.3     31.9410  -60.1480  -69.8590 P.3    48  A48         0.2141
    899  OP1       32.1040  -60.2570  -71.3310 O.2    48  A48        -0.5172
    900  OP2       32.3440  -61.2820  -68.9890 O.3    48  A48        -0.4373
    901  O5'       32.7210  -58.8520  -69.3650 O.3    48  A48        -0.3114
    902  C5'       33.8750  -58.3730  -70.0370 C.3    48  A48         0.1812
    903  C4'       33.9310  -56.8680  -69.9780 C.3    48  A48         0.1773
    904  O4'       33.0430  -56.4020  -68.9320 O.3    48  A48        -0.3307
    905  C3'       35.2820  -56.2740  -69.6160 C.3    48  A48         0.1860
    906  O3'       36.1520  -56.1720  -70.7290 O.3    48  A48        -0.3112
    907  C2'       34.9100  -54.9350  -68.9940 C.3    48  A48         0.2309
    908  O2'       34.6290  -53.9740  -70.0010 O.3    48  A48        -0.2156
    909  C1'       33.6020  -55.2840  -68.2800 C.3    48  A48         0.2408
    910   N9       33.8230  -55.6690  -66.8740 N.ar   48  A48        -0.2693
    911   C8       33.5800  -56.9090  -66.3380 C.ar   48  A48         0.1816
    912   N7       33.8540  -57.0020  -65.0630 N.ar   48  A48        -0.2193
    913   C5       34.3070  -55.7330  -64.7380 C.ar   48  A48         0.1518
    914   C6       34.7550  -55.1870  -63.5280 C.ar   48  A48         0.1919
    915   N6       34.8140  -55.8920  -62.3990 N.pl3  48  A48        -0.1054
    916   N.1      35.1410  -53.8920  -63.5200 N.ar   48  A48        -0.2040
    917   C.2      35.0740  -53.2030  -64.6680 C.ar   48  A48         0.2016
    918   N.3      34.6690  -53.6060  -65.8720 N.ar   48  A48        -0.2048
    919   C4       34.2930  -54.8970  -65.8400 C.ar   48  A48         0.1692
    920    P.3     37.5410  -56.9800  -70.7490 P.3    49  A49         0.2141
    921  OP1       38.0000  -57.0770  -72.1570 O.2    49  A49        -0.5172
    922  OP2       37.3680  -58.2180  -69.9470 O.3    49  A49        -0.4373
    923  O5'       38.5430  -56.0190  -69.9670 O.3    49  A49        -0.3114
    924  C5'       38.7670  -54.6910  -70.4190 C.3    49  A49         0.1812
    925  C4'       39.2070  -53.7860  -69.2960 C.3    49  A49         0.1773
    926  O4'       38.1580  -53.6930  -68.2970 O.3    49  A49        -0.3307
    927  C3'       40.4290  -54.2420  -68.5130 C.3    49  A49         0.1860
    928  O3'       41.6470  -53.9120  -69.1600 O.3    49  A49        -0.3112
    929  C2'       40.2450  -53.5450  -67.1720 C.3    49  A49         0.2309
    930  O2'       40.6380  -52.1840  -67.2580 O.3    49  A49        -0.2156
    931  C1'       38.7250  -53.6010  -67.0080 C.3    49  A49         0.2408
    932   N9       38.2910  -54.7670  -66.2160 N.ar   49  A49        -0.2693
    933   C8       37.7270  -55.9300  -66.6770 C.ar   49  A49         0.1816
    934   N7       37.4410  -56.7900  -65.7310 N.ar   49  A49        -0.2193
    935   C5       37.8410  -56.1500  -64.5660 C.ar   49  A49         0.1518
    936   C6       37.8060  -56.5370  -63.2130 C.ar   49  A49         0.1919
    937   N6       37.3270  -57.7120  -62.8000 N.pl3  49  A49        -0.1054
    938   N.1      38.2840  -55.6680  -62.2930 N.ar   49  A49        -0.2040
    939   C.2      38.7620  -54.4920  -62.7200 C.ar   49  A49         0.2016
    940   N.3      38.8480  -54.0160  -63.9610 N.ar   49  A49        -0.2048
    941   C4       38.3650  -54.9030  -64.8490 C.ar   49  A49         0.1692
    942    P.3     42.8310  -54.9940  -69.2690 P.3    50  C50         0.2141
    943  OP1       43.7600  -54.5500  -70.3390 O.2    50  C50        -0.5172
    944  OP2       42.2190  -56.3450  -69.3440 O.3    50  C50        -0.4373
    945  O5'       43.5950  -54.8700  -67.8760 O.3    50  C50        -0.3114
    946  C5'       44.2050  -53.6490  -67.4860 C.3    50  C50         0.1812
    947  C4'       44.4300  -53.5950  -65.9960 C.3    50  C50         0.1773
    948  O4'       43.1560  -53.6670  -65.3060 O.3    50  C50        -0.3307
    949  C3'       45.2370  -54.7390  -65.4030 C.3    50  C50         0.1860
    950  O3'       46.6350  -54.5610  -65.5560 O.3    50  C50        -0.3112
    951  C2'       44.7780  -54.7560  -63.9500 C.3    50  C50         0.2309
    952  O2'       45.4360  -53.7440  -63.2030 O.3    50  C50        -0.2156
    953  C1'       43.3030  -54.3710  -64.0910 C.3    50  C50         0.2420
    954   N.1      42.4110  -55.5540  -64.1150 N.ar   50  C50        -0.2535
    955   C.2      42.0020  -56.1120  -62.8990 C.ar   50  C50         0.3532
    956   O.2      42.3990  -55.6030  -61.8390 O.2    50  C50        -0.2443
    957   N.3      41.1860  -57.1910  -62.9060 N.ar   50  C50        -0.1739
    958   C4       40.7780  -57.7140  -64.0630 C.ar   50  C50         0.1759
    959   N.4      39.9740  -58.7790  -64.0190 N.pl3  50  C50        -0.1070
    960   C5       41.1760  -57.1680  -65.3170 C.ar   50  C50         0.0566
    961   C6       41.9830  -56.0990  -65.2950 C.ar   50  C50         0.0850
    962    P.3     47.5820  -55.8200  -65.8730 P.3    51  G51         0.2141
    963  OP1       48.8650  -55.3070  -66.4150 O.3    51  G51        -0.4373
    964  OP2       46.7930  -56.8010  -66.6610 O.2    51  G51        -0.5172
    965  O5'       47.8730  -56.4530  -64.4390 O.3    51  G51        -0.3114
    966  C5'       48.5750  -55.7180  -63.4470 C.3    51  G51         0.1813
    967  C4'       48.4530  -56.3640  -62.0900 C.3    51  G51         0.1801
    968  O4'       47.0660  -56.3480  -61.6610 O.3    51  G51        -0.3306
    969  C3'       48.8470  -57.8320  -62.0130 C.3    51  G51         0.2161
    970  O3'       50.2470  -58.0280  -61.9090 O.3    51  G51        -0.2175
    971  C2'       48.0680  -58.3200  -60.7990 C.3    51  G51         0.2337
    972  O2'       48.7110  -57.9240  -59.5970 O.3    51  G51        -0.2155
    973  C1'       46.7700  -57.5240  -60.9380 C.3    51  G51         0.2409
    974   N9       45.7390  -58.2790  -61.6770 N.ar   51  G51        -0.2693
    975   C8       45.4330  -58.1700  -63.0130 C.ar   51  G51         0.1817
    976   N7       44.4740  -58.9720  -63.3870 N.ar   51  G51        -0.2173
    977   C5       44.1260  -59.6540  -62.2290 C.ar   51  G51         0.1748
    978   C6       43.1450  -60.6560  -62.0130 C.ar   51  G51         0.3023
    979   O6       42.3620  -61.1550  -62.8290 O.2    51  G51        -0.2633
    980   N.1      43.1260  -61.0770  -60.6860 N.ar   51  G51        -0.1709
    981   C.2      43.9440  -60.5980  -59.6930 C.ar   51  G51         0.2606
    982   N.2      43.7730  -61.1330  -58.4750 N.pl3  51  G51        -0.0859
    983   N.3      44.8620  -59.6630  -59.8810 N.ar   51  G51        -0.1918
    984   C4       44.8990  -59.2400  -61.1640 C.ar   51  G51         0.1723
    985  O5'       32.5430  -67.4330  -38.6380 O.3    60  G60        -0.2176
    986  C5'       33.8150  -67.0180  -39.1120 C.3    60  G60         0.2141
    987  C4'       33.7520  -66.5810  -40.5540 C.3    60  G60         0.1802
    988  O4'       33.1430  -67.6280  -41.3540 O.3    60  G60        -0.3306
    989  C3'       32.9020  -65.3520  -40.8420 C.3    60  G60         0.1861
    990  O3'       33.5850  -64.1370  -40.5860 O.3    60  G60        -0.3112
    991  C2'       32.5230  -65.5440  -42.3040 C.3    60  G60         0.2309
    992  O2'       33.6070  -65.1890  -43.1510 O.3    60  G60        -0.2156
    993  C1'       32.3430  -67.0590  -42.3690 C.3    60  G60         0.2408
    994   N9       30.9440  -67.4650  -42.1370 N.ar   60  G60        -0.2693
    995   C8       30.4590  -68.1230  -41.0320 C.ar   60  G60         0.1817
    996   N7       29.1770  -68.3590  -41.0950 N.ar   60  G60        -0.2173
    997   C5       28.7880  -67.8270  -42.3160 C.ar   60  G60         0.1748
    998   C6       27.5100  -67.7860  -42.9330 C.ar   60  G60         0.3023
    999   O6       26.4330  -68.2260  -42.5090 O.2    60  G60        -0.2633
   1000   N.1      27.5600  -67.1530  -44.1700 N.ar   60  G60        -0.1709
   1001   C.2      28.6940  -66.6260  -44.7410 C.ar   60  G60         0.2606
   1002   N.2      28.5360  -66.0540  -45.9430 N.pl3  60  G60        -0.0859
   1003   N.3      29.8920  -66.6580  -44.1770 N.ar   60  G60        -0.1918
   1004   C4       29.8670  -67.2680  -42.9720 C.ar   60  G60         0.1723
   1005    P.3     32.7850  -62.8600  -40.0240 P.3    61  C61         0.2141
   1006  OP1       33.7860  -61.8210  -39.6670 O.2    61  C61        -0.5172
   1007  OP2       31.8130  -63.3340  -39.0050 O.3    61  C61        -0.4373
   1008  O5'       31.9560  -62.3350  -41.2790 O.3    61  C61        -0.3114
   1009  C5'       32.6170  -61.8390  -42.4340 C.3    61  C61         0.1812
   1010  C4'       31.6460  -61.5750  -43.5570 C.3    61  C61         0.1773
   1011  O4'       30.9850  -62.8100  -43.9310 O.3    61  C61        -0.3307
   1012  C3'       30.5020  -60.6230  -43.2440 C.3    61  C61         0.1860
   1013  O3'       30.8820  -59.2610  -43.3460 O.3    61  C61        -0.3112
   1014  C2'       29.4370  -61.0350  -44.2510 C.3    61  C61         0.2309
   1015  O2'       29.7110  -60.4770  -45.5270 O.3    61  C61        -0.2156
   1016  C1'       29.6570  -62.5470  -44.3300 C.3    61  C61         0.2420
   1017   N.1      28.7370  -63.3030  -43.4510 N.ar   61  C61        -0.2535
   1018   C.2      27.4210  -63.5010  -43.8750 C.ar   61  C61         0.3532
   1019   O.2      27.0680  -63.0310  -44.9670 O.2    61  C61        -0.2443
   1020   N.3      26.5700  -64.2000  -43.0870 N.ar   61  C61        -0.1739
   1021   C4       26.9930  -64.6900  -41.9200 C.ar   61  C61         0.1759
   1022   N.4      26.1210  -65.3710  -41.1740 N.pl3  61  C61        -0.1070
   1023   C5       28.3310  -64.5050  -41.4650 C.ar   61  C61         0.0566
   1024   C6       29.1620  -63.8140  -42.2560 C.ar   61  C61         0.0850
   1025    P.3     30.1970  -58.1550  -42.4030 P.3    62  C62         0.2141
   1026  OP1       30.8810  -56.8600  -42.6550 O.2    62  C62        -0.5172
   1027  OP2       30.1220  -58.6970  -41.0220 O.3    62  C62        -0.4373
   1028  O5'       28.7080  -58.0450  -42.9580 O.3    62  C62        -0.3114
   1029  C5'       28.4500  -57.5510  -44.2640 C.3    62  C62         0.1812
   1030  C4'       26.9730  -57.3440  -44.4900 C.3    62  C62         0.1773
   1031  O4'       26.3120  -58.6220  -44.6550 O.3    62  C62        -0.3307
   1032  C3'       26.2120  -56.6740  -43.3590 C.3    62  C62         0.1860
   1033  O3'       26.3550  -55.2640  -43.3840 O.3    62  C62        -0.3112
   1034  C2'       24.7790  -57.1470  -43.5860 C.3    62  C62         0.2309
   1035  O2'       24.1400  -56.3570  -44.5770 O.3    62  C62        -0.2156
   1036  C1'       24.9950  -58.5530  -44.1560 C.3    62  C62         0.2420
   1037   N.1      24.8060  -59.6220  -43.1500 N.ar   62  C62        -0.2535
   1038   C.2      23.5380  -60.1980  -43.0030 C.ar   62  C62         0.3532
   1039   O.2      22.6010  -59.7970  -43.7100 O.2    62  C62        -0.2443
   1040   N.3      23.3590  -61.1840  -42.0940 N.ar   62  C62        -0.1739
   1041   C4       24.3870  -61.5940  -41.3520 C.ar   62  C62         0.1759
   1042   N.4      24.1690  -62.5670  -40.4660 N.pl3  62  C62        -0.1070
   1043   C5       25.6880  -61.0280  -41.4800 C.ar   62  C62         0.0566
   1044   C6       25.8510  -60.0550  -42.3840 C.ar   62  C62         0.0850
   1045    P.3     26.3030  -54.4090  -42.0260 P.3    63  G63         0.2141
   1046  OP1       27.0630  -53.1580  -42.2630 O.2    63  G63        -0.5172
   1047  OP2       26.6460  -55.2980  -40.8870 O.3    63  G63        -0.4373
   1048  O5'       24.7690  -54.0110  -41.8910 O.3    63  G63        -0.3114
   1049  C5'       24.0100  -53.6730  -43.0450 C.3    63  G63         0.1812
   1050  C4'       22.6030  -53.2720  -42.6920 C.3    63  G63         0.1773
   1051  O4'       21.6990  -54.4100  -42.8280 O.3    63  G63        -0.3307
   1052  C3'       22.4090  -52.7460  -41.2700 C.3    63  G63         0.1860
   1053  O3'       21.4340  -51.7090  -41.3180 O.3    63  G63        -0.3112
   1054  C2'       21.8160  -53.9520  -40.5520 C.3    63  G63         0.2309
   1055  O2'       21.0870  -53.6480  -39.3840 O.3    63  G63        -0.2156
   1056  C1'       20.9280  -54.5120  -41.6500 C.3    63  G63         0.2408
   1057   N9       20.4330  -55.8800  -41.4560 N.ar   63  G63        -0.2693
   1058   C8       19.1250  -56.2260  -41.6980 C.ar   63  G63         0.1817
   1059   N7       18.8560  -57.4710  -41.4490 N.ar   63  G63        -0.2173
   1060   C5       20.0600  -57.9850  -41.0020 C.ar   63  G63         0.1748
   1061   C6       20.3600  -59.3020  -40.5860 C.ar   63  G63         0.3023
   1062   O6       19.5930  -60.2730  -40.5360 O.2    63  G63        -0.2633
   1063   N.1      21.6910  -59.4230  -40.2030 N.ar   63  G63        -0.1709
   1064   C.2      22.6090  -58.4010  -40.2230 C.ar   63  G63         0.2606
   1065   N.2      23.8480  -58.7160  -39.8170 N.pl3  63  G63        -0.0859
   1066   N.3      22.3370  -57.1640  -40.6120 N.ar   63  G63        -0.1918
   1067   C4       21.0490  -57.0210  -40.9870 C.ar   63  G63         0.1723
   1068    P.3     21.8520  -50.1910  -41.0200 P.3    64  A64         0.2141
   1069  OP1       20.6190  -49.3790  -40.8680 O.3    64  A64        -0.4373
   1070  OP2       22.8600  -49.7990  -42.0370 O.2    64  A64        -0.5172
   1071  O5'       22.5940  -50.2930  -39.6180 O.3    64  A64        -0.3114
   1072  C5'       22.4750  -49.2590  -38.6600 C.3    64  A64         0.1812
   1073  C4'       23.7660  -48.5040  -38.5030 C.3    64  A64         0.1773
   1074  O4'       23.4770  -47.0880  -38.4010 O.3    64  A64        -0.3307
   1075  C3'       24.5740  -48.8270  -37.2530 C.3    64  A64         0.1860
   1076  O3'       25.4180  -49.9530  -37.4360 O.3    64  A64        -0.3112
   1077  C2'       25.3300  -47.5330  -36.9930 C.3    64  A64         0.2309
   1078  O2'       26.4650  -47.4410  -37.8420 O.3    64  A64        -0.2156
   1079  C1'       24.3050  -46.4890  -37.4360 C.3    64  A64         0.2408
   1080   N9       23.4350  -46.0410  -36.3340 N.ar   64  A64        -0.2693
   1081   C8       22.0830  -46.2490  -36.2420 C.ar   64  A64         0.1816
   1082   N7       21.5360  -45.7450  -35.1660 N.ar   64  A64        -0.2193
   1083   C5       22.6010  -45.1580  -34.5050 C.ar   64  A64         0.1518
   1084   C6       22.6780  -44.4560  -33.2940 C.ar   64  A64         0.1919
   1085   N6       21.6220  -44.2160  -32.5060 N.pl3  64  A64        -0.1054
   1086   N.1      23.8940  -44.0080  -32.9190 N.ar   64  A64        -0.2040
   1087   C.2      24.9470  -44.2490  -33.7040 C.ar   64  A64         0.2016
   1088   N.3      24.9990  -44.8960  -34.8610 N.ar   64  A64        -0.2048
   1089   C4       23.7790  -45.3320  -35.2100 C.ar   64  A64         0.1692
   1090    P.3     25.7430  -50.9640  -36.2260 P.3    65  C65         0.2141
   1091  OP1       26.8730  -51.8340  -36.6440 O.2    65  C65        -0.5172
   1092  OP2       24.4650  -51.5820  -35.7900 O.3    65  C65        -0.4373
   1093  O5'       26.2700  -50.0260  -35.0510 O.3    65  C65        -0.3114
   1094  C5'       27.6330  -49.6270  -34.9880 C.3    65  C65         0.1812
   1095  C4'       27.9180  -48.8590  -33.7220 C.3    65  C65         0.1773
   1096  O4'       27.0660  -47.6850  -33.6710 O.3    65  C65        -0.3307
   1097  C3'       27.6200  -49.5880  -32.4200 C.3    65  C65         0.1860
   1098  O3'       28.6600  -50.4610  -32.0150 O.3    65  C65        -0.3112
   1099  C2'       27.3790  -48.4460  -31.4430 C.3    65  C65         0.2309
   1100  O2'       28.6130  -47.8860  -31.0160 O.3    65  C65        -0.2156
   1101  C1'       26.6770  -47.4270  -32.3380 C.3    65  C65         0.2420
   1102   N.1      25.2010  -47.5220  -32.2610 N.ar   65  C65        -0.2535
   1103   C.2      24.5220  -47.0270  -31.1440 C.ar   65  C65         0.3532
   1104   O.2      25.1630  -46.5370  -30.2070 O.2    65  C65        -0.2443
   1105   N.3      23.1740  -47.1120  -31.0940 N.ar   65  C65        -0.1739
   1106   C4       22.5020  -47.6480  -32.1080 C.ar   65  C65         0.1759
   1107   N.4      21.1770  -47.6980  -32.0110 N.pl3  65  C65        -0.1070
   1108   C5       23.1570  -48.1500  -33.2660 C.ar   65  C65         0.0566
   1109   C6       24.4920  -48.0630  -33.2980 C.ar   65  C65         0.0850
   1110    P.3     28.3160  -51.8480  -31.2790 P.3    66  C66         0.2141
   1111  OP1       29.5940  -52.5710  -31.0460 O.3    66  C66        -0.4373
   1112  OP2       27.2160  -52.5070  -32.0300 O.2    66  C66        -0.5172
   1113  O5'       27.7450  -51.4020  -29.8590 O.3    66  C66        -0.3114
   1114  C5'       28.5800  -50.7990  -28.8810 C.3    66  C66         0.1812
   1115  C4'       27.8000  -50.4350  -27.6430 C.3    66  C66         0.1773
   1116  O4'       26.8640  -49.3670  -27.9510 O.3    66  C66        -0.3307
   1117  C3'       26.9180  -51.5300  -27.0680 C.3    66  C66         0.1860
   1118  O3'       27.6270  -52.4770  -26.2900 O.3    66  C66        -0.3112
   1119  C2'       25.8780  -50.7420  -26.2820 C.3    66  C66         0.2309
   1120  O2'       26.3990  -50.3060  -25.0360 O.3    66  C66        -0.2156
   1121  C1'       25.6860  -49.5230  -27.1830 C.3    66  C66         0.2420
   1122   N.1      24.5350  -49.6990  -28.0960 N.ar   66  C66        -0.2535
   1123   C.2      23.2500  -49.4690  -27.5940 C.ar   66  C66         0.3532
   1124   O.2      23.1180  -49.1220  -26.4130 O.2    66  C66        -0.2443
   1125   N.3      22.1810  -49.6280  -28.4030 N.ar   66  C66        -0.1739
   1126   C4       22.3590  -49.9990  -29.6670 C.ar   66  C66         0.1759
   1127   N.4      21.2710  -50.1380  -30.4220 N.pl3  66  C66        -0.1070
   1128   C5       23.6540  -50.2440  -30.2100 C.ar   66  C66         0.0566
   1129   C6       24.7050  -50.0830  -29.3970 C.ar   66  C66         0.0850
   1130    P.3     27.1550  -54.0140  -26.2780 P.3    67  G67         0.2141
   1131  OP1       28.1780  -54.7960  -25.5380 O.3    67  G67        -0.4373
   1132  OP2       26.7990  -54.4060  -27.6650 O.2    67  G67        -0.5172
   1133  O5'       25.8180  -54.0010  -25.4120 O.3    67  G67        -0.3114
   1134  C5'       25.8400  -53.5810  -24.0560 C.3    67  G67         0.1812
   1135  C4'       24.4520  -53.4330  -23.4820 C.3    67  G67         0.1773
   1136  O4'       23.7370  -52.3430  -24.1190 O.3    67  G67        -0.3307
   1137  C3'       23.5210  -54.6180  -23.6560 C.3    67  G67         0.1860
   1138  O3'       23.7920  -55.6860  -22.7660 O.3    67  G67        -0.3112
   1139  C2'       22.1520  -53.9830  -23.4450 C.3    67  G67         0.2309
   1140  O2'       21.9040  -53.7860  -22.0600 O.3    67  G67        -0.2156
   1141  C1'       22.3470  -52.6120  -24.0990 C.3    67  G67         0.2408
   1142   N9       21.8160  -52.5850  -25.4770 N.ar   67  G67        -0.2693
   1143   C8       22.5140  -52.7310  -26.6510 C.ar   67  G67         0.1817
   1144   N7       21.7510  -52.6770  -27.7110 N.ar   67  G67        -0.2173
   1145   C5       20.4680  -52.4940  -27.2110 C.ar   67  G67         0.1748
   1146   C6       19.2210  -52.3600  -27.8870 C.ar   67  G67         0.3023
   1147   O6       18.9860  -52.3810  -29.1030 O.2    67  G67        -0.2633
   1148   N.1      18.1680  -52.1910  -26.9960 N.ar   67  G67        -0.1709
   1149   C.2      18.2950  -52.1540  -25.6310 C.ar   67  G67         0.2606
   1150   N.2      17.1510  -51.9790  -24.9520 N.pl3  67  G67        -0.0859
   1151   N.3      19.4500  -52.2740  -24.9860 N.ar   67  G67        -0.1918
   1152   C4       20.4910  -52.4430  -25.8320 C.ar   67  G67         0.1723
   1153    P.3     23.4930  -57.1990  -23.2230 P.3    68  U68         0.2141
   1154  OP1       24.0560  -58.1090  -22.1920 O.3    68  U68        -0.4373
   1155  OP2       23.9240  -57.3430  -24.6370 O.2    68  U68        -0.5172
   1156  O5'       21.9040  -57.3110  -23.1710 O.3    68  U68        -0.3114
   1157  C5'       21.2070  -57.1350  -21.9480 C.3    68  U68         0.1812
   1158  C4'       19.7120  -57.1670  -22.1380 C.3    68  U68         0.1773
   1159  O4'       19.2730  -55.9830  -22.8560 O.3    68  U68        -0.3307
   1160  C3'       19.1520  -58.3140  -22.9610 C.3    68  U68         0.1860
   1161  O3'       19.0670  -59.5360  -22.2480 O.3    68  U68        -0.3112
   1162  C2'       17.8010  -57.7660  -23.4010 C.3    68  U68         0.2309
   1163  O2'       16.8660  -57.8360  -22.3360 O.3    68  U68        -0.2156
   1164  C1'       18.1420  -56.2940  -23.6450 C.3    68  U68         0.2420
   1165   N.1      18.4570  -56.0350  -25.0700 N.ar   68  U68        -0.2534
   1166   C.2      17.3990  -55.7760  -25.9270 C.ar   68  U68         0.3546
   1167   O.2      16.2360  -55.7390  -25.5600 O.2    68  U68        -0.2443
   1168   N.3      17.7510  -55.5550  -27.2370 N.ar   68  U68        -0.1530
   1169   C4       19.0260  -55.5720  -27.7660 C.ar   68  U68         0.2846
   1170   O4       19.1900  -55.3530  -28.9670 O.2    68  U68        -0.2650
   1171   C5       20.0600  -55.8510  -26.8200 C.ar   68  U68         0.0814
   1172   C6       19.7490  -56.0690  -25.5390 C.ar   68  U68         0.0870
   1173    P.3     19.0470  -60.9320  -23.0480 P.3    69  C69         0.2141
   1174  OP1       19.0710  -62.0340  -22.0530 O.3    69  C69        -0.4373
   1175  OP2       20.0840  -60.8840  -24.1110 O.2    69  C69        -0.5172
   1176  O5'       17.6230  -60.9310  -23.7630 O.3    69  C69        -0.3114
   1177  C5'       17.4360  -61.5390  -25.0320 C.3    69  C69         0.1812
   1178  C4'       16.1400  -61.0990  -25.6660 C.3    69  C69         0.1773
   1179  O4'       16.2360  -59.7090  -26.0810 O.3    69  C69        -0.3307
   1180  C3'       15.7430  -61.8310  -26.9370 C.3    69  C69         0.1860
   1181  O3'       15.1530  -63.0950  -26.6890 O.3    69  C69        -0.3112
   1182  C2'       14.8100  -60.8330  -27.6120 C.3    69  C69         0.2309
   1183  O2'       13.5270  -60.8460  -27.0010 O.3    69  C69        -0.2156
   1184  C1'       15.4930  -59.5080  -27.2680 C.3    69  C69         0.2420
   1185   N.1      16.4150  -59.0660  -28.3430 N.ar   69  C69        -0.2535
   1186   C.2      15.8880  -58.4830  -29.5040 C.ar   69  C69         0.3532
   1187   O.2      14.6620  -58.3440  -29.6100 O.2    69  C69        -0.2443
   1188   N.3      16.7220  -58.0860  -30.4920 N.ar   69  C69        -0.1739
   1189   C4       18.0380  -58.2470  -30.3540 C.ar   69  C69         0.1759
   1190   N.4      18.8240  -57.8380  -31.3510 N.pl3  69  C69        -0.1070
   1191   C5       18.6070  -58.8350  -29.1880 C.ar   69  C69         0.0566
   1192   C6       17.7680  -59.2240  -28.2200 C.ar   69  C69         0.0850
   1193    P.3     15.5130  -64.3490  -27.6260 P.3    70  U70         0.2141
   1194  OP1       15.0080  -65.5750  -26.9580 O.3    70  U70        -0.4373
   1195  OP2       16.9480  -64.2500  -28.0050 O.2    70  U70        -0.5172
   1196  O5'       14.6300  -64.1180  -28.9310 O.3    70  U70        -0.3114
   1197  C5'       13.2160  -64.0830  -28.8450 C.3    70  U70         0.1812
   1198  C4'       12.5830  -63.5820  -30.1200 C.3    70  U70         0.1773
   1199  O4'       12.9180  -62.1840  -30.3340 O.3    70  U70        -0.3307
   1200  C3'       13.0170  -64.2530  -31.4120 C.3    70  U70         0.1860
   1201  O3'       12.4210  -65.5210  -31.6250 O.3    70  U70        -0.3112
   1202  C2'       12.6350  -63.2130  -32.4550 C.3    70  U70         0.2309
   1203  O2'       11.2330  -63.2270  -32.6860 O.3    70  U70        -0.2156
   1204  C1'       12.9890  -61.9190  -31.7220 C.3    70  U70         0.2420
   1205   N.1      14.3570  -61.4640  -32.0630 N.ar   70  U70        -0.2534
   1206   C.2      14.5310  -60.8290  -33.2800 C.ar   70  U70         0.3546
   1207   O.2      13.6180  -60.6230  -34.0600 O.2    70  U70        -0.2443
   1208   N.3      15.8160  -60.4330  -33.5570 N.ar   70  U70        -0.1530
   1209   C4       16.9230  -60.6100  -32.7570 C.ar   70  U70         0.2846
   1210   O4       18.0180  -60.1980  -33.1430 O.2    70  U70        -0.2650
   1211   C5       16.6650  -61.2790  -31.5180 C.ar   70  U70         0.0814
   1212   C6       15.4230  -61.6760  -31.2200 C.ar   70  U70         0.0870
   1213    P.3     13.1630  -66.6130  -32.5440 P.3    71  G71         0.2141
   1214  OP1       12.3880  -67.8780  -32.4740 O.2    71  G71        -0.5172
   1215  OP2       14.6070  -66.6090  -32.1990 O.3    71  G71        -0.4373
   1216  O5'       13.0200  -66.0380  -34.0230 O.3    71  G71        -0.3114
   1217  C5'       11.7380  -65.8510  -34.6030 C.3    71  G71         0.1812
   1218  C4'       11.8080  -65.0460  -35.8770 C.3    71  G71         0.1773
   1219  O4'       12.4750  -63.7790  -35.6410 O.3    71  G71        -0.3307
   1220  C3'       12.5990  -65.6600  -37.0160 C.3    71  G71         0.1860
   1221  O3'       11.8930  -66.6770  -37.7010 O.3    71  G71        -0.3112
   1222  C2'       12.9220  -64.4470  -37.8790 C.3    71  G71         0.2309
   1223  O2'       11.7980  -64.0670  -38.6580 O.3    71  G71        -0.2156
   1224  C1'       13.1580  -63.3750  -36.8130 C.3    71  G71         0.2408
   1225   N9       14.5950  -63.2230  -36.5120 N.ar   71  G71        -0.2693
   1226   C8       15.2740  -63.6680  -35.4060 C.ar   71  G71         0.1817
   1227   N7       16.5490  -63.3850  -35.4440 N.ar   71  G71        -0.2173
   1228   C5       16.7220  -62.7170  -36.6490 C.ar   71  G71         0.1748
   1229   C6       17.8900  -62.1660  -37.2390 C.ar   71  G71         0.3023
   1230   O6       19.0460  -62.1560  -36.7990 O.2    71  G71        -0.2633
   1231   N.1      17.6140  -61.5770  -38.4680 N.ar   71  G71        -0.1709
   1232   C.2      16.3760  -61.5240  -39.0590 C.ar   71  G71         0.2606
   1233   N.2      16.3140  -60.9100  -40.2510 N.pl3  71  G71        -0.0859
   1234   N.3      15.2810  -62.0360  -38.5190 N.ar   71  G71        -0.1918
   1235   C4       15.5250  -62.6120  -37.3220 C.ar   71  G71         0.1723
   1236    P.3     12.6880  -67.6940  -38.6550 P.3    72  G72         0.2141
   1237  OP1       11.7590  -68.7860  -39.0470 O.2    72  G72        -0.5172
   1238  OP2       13.9780  -68.0230  -37.9970 O.3    72  G72        -0.4373
   1239  O5'       12.9970  -66.8290  -39.9550 O.3    72  G72        -0.3114
   1240  C5'       14.2080  -67.0000  -40.6750 C.3    72  G72         0.1812
   1241  C4'       14.4530  -65.8500  -41.6180 C.3    72  G72         0.1773
   1242  O4'       14.9450  -64.6960  -40.8850 O.3    72  G72        -0.3307
   1243  C3'       15.5120  -66.0850  -42.6810 C.3    72  G72         0.1860
   1244  O3'       15.0360  -66.8470  -43.7750 O.3    72  G72        -0.3112
   1245  C2'       15.9300  -64.6680  -43.0440 C.3    72  G72         0.2309
   1246  O2'       14.9570  -64.0560  -43.8780 O.3    72  G72        -0.2156
   1247  C1'       15.8830  -63.9900  -41.6750 C.3    72  G72         0.2408
   1248   N9       17.1940  -64.0500  -41.0010 N.ar   72  G72        -0.2693
   1249   C8       17.4760  -64.7140  -39.8330 C.ar   72  G72         0.1817
   1250   N7       18.7230  -64.6060  -39.4680 N.ar   72  G72        -0.2173
   1251   C5       19.3030  -63.8240  -40.4560 C.ar   72  G72         0.1748
   1252   C6       20.6410  -63.3740  -40.5930 C.ar   72  G72         0.3023
   1253   O6       21.6000  -63.5870  -39.8440 O.2    72  G72        -0.2633
   1254   N.1      20.8120  -62.6040  -41.7370 N.ar   72  G72        -0.1709
   1255   C.2      19.8210  -62.3040  -42.6380 C.ar   72  G72         0.2606
   1256   N.2      20.1930  -61.5410  -43.6780 N.pl3  72  G72        -0.0859
   1257   N.3      18.5660  -62.7160  -42.5210 N.ar   72  G72        -0.1918
   1258   C4       18.3760  -63.4680  -41.4120 C.ar   72  G72         0.1723
   1259    P.3     15.9950  -67.9250  -44.4820 P.3    73  G73         0.2141
   1260  OP1       15.1370  -68.8210  -45.2990 O.2    73  G73        -0.5172
   1261  OP2       16.8970  -68.5000  -43.4510 O.3    73  G73        -0.4373
   1262  O5'       16.8890  -67.0490  -45.4650 O.3    73  G73        -0.3114
   1263  C5'       16.2840  -66.1440  -46.3770 C.3    73  G73         0.1812
   1264  C4'       17.2710  -65.1180  -46.8740 C.3    73  G73         0.1773
   1265  O4'       17.7720  -64.3320  -45.7620 O.3    73  G73        -0.3307
   1266  C3'       18.5260  -65.6700  -47.5270 C.3    73  G73         0.1860
   1267  O3'       18.3220  -66.0620  -48.8720 O.3    73  G73        -0.3112
   1268  C2'       19.5090  -64.5220  -47.3690 C.3    73  G73         0.2309
   1269  O2'       19.2500  -63.5140  -48.3340 O.3    73  G73        -0.2156
   1270  C1'       19.1230  -63.9850  -45.9900 C.3    73  G73         0.2408
   1271   N9       19.9430  -64.5800  -44.9160 N.ar   73  G73        -0.2693
   1272   C8       19.5110  -65.4590  -43.9530 C.ar   73  G73         0.1817
   1273   N7       20.4540  -65.8230  -43.1290 N.ar   73  G73        -0.2173
   1274   C5       21.5790  -65.1440  -43.5720 C.ar   73  G73         0.1748
   1275   C6       22.9060  -65.1450  -43.0670 C.ar   73  G73         0.3023
   1276   O6       23.3590  -65.7690  -42.0990 O.2    73  G73        -0.2633
   1277   N.1      23.7390  -64.3140  -43.8130 N.ar   73  G73        -0.1709
   1278   C.2      23.3440  -63.5790  -44.9040 C.ar   73  G73         0.2606
   1279   N.2      24.2930  -62.8360  -45.4930 N.pl3  73  G73        -0.0859
   1280   N.3      22.1100  -63.5710  -45.3840 N.ar   73  G73        -0.1918
   1281   C4       21.2830  -64.3700  -44.6750 C.ar   73  G73         0.1723
   1282    P.3     19.1360  -67.3060  -49.4790 P.3    74  C74         0.2141
   1283  OP1       18.6160  -67.5700  -50.8440 O.2    74  C74        -0.5172
   1284  OP2       19.1330  -68.3950  -48.4670 O.3    74  C74        -0.4373
   1285  O5'       20.6240  -66.7530  -49.6220 O.3    74  C74        -0.3114
   1286  C5'       20.9160  -65.6700  -50.4940 C.3    74  C74         0.1812
   1287  C4'       22.2970  -65.1170  -50.2500 C.3    74  C74         0.1773
   1288  O4'       22.4410  -64.7570  -48.8510 O.3    74  C74        -0.3307
   1289  C3'       23.4520  -66.0710  -50.4970 C.3    74  C74         0.1860
   1290  O3'       23.8100  -66.2030  -51.8620 O.3    74  C74        -0.3112
   1291  C2'       24.5610  -65.4830  -49.6370 C.3    74  C74         0.2309
   1292  O2'       25.1600  -64.3700  -50.2850 O.3    74  C74        -0.2156
   1293  C1'       23.7740  -64.9700  -48.4330 C.3    74  C74         0.2420
   1294   N.1      23.7800  -65.9380  -47.3090 N.ar   74  C74        -0.2535
   1295   C.2      24.9410  -66.0680  -46.5320 C.ar   74  C74         0.3532
   1296   O.2      25.9390  -65.3860  -46.8060 O.2    74  C74        -0.2443
   1297   N.3      24.9570  -66.9450  -45.5010 N.ar   74  C74        -0.1739
   1298   C4       23.8720  -67.6690  -45.2250 C.ar   74  C74         0.1759
   1299   N.4      23.9380  -68.5170  -44.1950 N.pl3  74  C74        -0.1070
   1300   C5       22.6740  -67.5540  -45.9910 C.ar   74  C74         0.0566
   1301   C6       22.6720  -66.6840  -47.0120 C.ar   74  C74         0.0850
   1302    P.3     24.3050  -67.6330  -52.4010 P.3    75  G75         0.2141
   1303  OP1       24.4860  -67.5340  -53.8730 O.2    75  G75        -0.5172
   1304  OP2       23.4200  -68.6830  -51.8320 O.3    75  G75        -0.4373
   1305  O5'       25.7490  -67.7860  -51.7440 O.3    75  G75        -0.3114
   1306  C5'       26.7810  -66.8370  -51.9930 C.3    75  G75         0.1813
   1307  C4'       28.0710  -67.2460  -51.3260 C.3    75  G75         0.1801
   1308  O4'       27.8280  -67.4720  -49.9090 O.3    75  G75        -0.3306
   1309  C3'       28.7060  -68.5270  -51.8630 C.3    75  G75         0.2161
   1310  O3'       30.1260  -68.4110  -51.8050 O.3    75  G75        -0.2175
   1311  C2'       28.2360  -69.5770  -50.8580 C.3    75  G75         0.2337
   1312  O2'       29.0540  -70.7250  -50.7750 O.3    75  G75        -0.2155
   1313  C1'       28.2430  -68.7760  -49.5590 C.3    75  G75         0.2409
   1314   N9       27.3360  -69.2870  -48.5250 N.ar   75  G75        -0.2693
   1315   C8       25.9820  -69.4990  -48.6340 C.ar   75  G75         0.1817
   1316   N7       25.4400  -69.9520  -47.5350 N.ar   75  G75        -0.2173
   1317   C5       26.4990  -70.0340  -46.6400 C.ar   75  G75         0.1748
   1318   C6       26.5290  -70.4580  -45.2850 C.ar   75  G75         0.3023
   1319   O6       25.5930  -70.8600  -44.5820 O.2    75  G75        -0.2633
   1320   N.1      27.8120  -70.3810  -44.7530 N.ar   75  G75        -0.1709
   1321   C.2      28.9270  -69.9530  -45.4330 C.ar   75  G75         0.2606
   1322   N.2      30.0810  -69.9510  -44.7470 N.pl3  75  G75        -0.0859
   1323   N.3      28.9120  -69.5560  -46.6950 N.ar   75  G75        -0.1918
   1324   C4       27.6730  -69.6160  -47.2310 C.ar   75  G75         0.1723
@<TRIPOS>BOND
     1   921   920    2
     2   899   898    2
     3   920   906    1
     4   920   923    1
     5   920   922    1
     6   906   905    1
     7   924   923    1
     8   924   925    1
     9   943   942    2
    10   902   903    1
    11   902   901    1
    12   908   907    1
    13   903   905    1
    14   903   904    1
    15   898   886    1
    16   898   901    1
    17   898   900    1
    18   905   907    1
    19   886   885    1
    20   944   942    1
    21   925   927    1
    22   925   926    1
    23   942   928    1
    24   942   945    1
    25   928   927    1
    26   888   887    1
    27   907   909    1
    28   904   909    1
    29   927   929    1
    30   926   931    1
    31   909   910    1
    32   885   883    1
    33   885   887    1
    34   883   882    1
    35   883   884    1
    36   887   889    1
    37   945   946    1
    38   882   881    1
    39   946   947    1
    40   930   929    1
    41   929   931    1
    42   931   932    1
    43   910   911   ar
    44   910   919   ar
    45   879   878    2
    46   884   889    1
    47   889   890    1
    48   933   932   ar
    49   933   934   ar
    50   964   962    2
    51   881   878    1
    52   963   962    1
    53   911   912   ar
    54   932   941   ar
    55   947   949    1
    56   947   948    1
    57   962   950    1
    58   962   965    1
    59   918   919   ar
    60   918   917   ar
    61   919   913   ar
    62   878   864    1
    63   878   880    1
    64   934   935   ar
    65   892   891    2
    66   950   949    1
    67   866   865    1
    68   890   891   ar
    69   890   897   ar
    70   949   951    1
    71   960   961   ar
    72   960   958   ar
    73   948   953    1
    74   864   863    1
    75   961   954   ar
    76   912   913   ar
    77    93    92    1
    78   891   893   ar
    79   941   935   ar
    80   941   940   ar
    81   913   914   ar
    82   897   896   ar
    83   917   916   ar
    84   935   936   ar
    85   965   966    1
    86   865   863    1
    87   865   867    1
    88   863   861    1
    89   954   953    1
    90   954   955   ar
    91   953   951    1
    92   958   959    1
    93   958   957   ar
    94   940   939   ar
    95   951   952    1
    96    97    96    2
    97   113   112    1
    98   893   894   ar
    99    94    92    1
   100    94    89    1
   101    94    95    1
   102   108   109    1
   103   108   107    1
   104   108   110    1
   105    92    90    1
   106   109   114    1
   107   914   916   ar
   108   914   915    1
   109    89    88    1
   110   896   894   ar
   111   107   106    1
   112   966   967    1
   113    80    81   ar
   114    80    79   ar
   115   976   975   ar
   116   976   977   ar
   117   861   862    1
   118   861   860    1
   119    88    90    1
   120    88    87    1
   121   936   937    1
   122   936   938   ar
   123    71    70    1
   124    81    82   ar
   125   867   862    1
   126   867   868    1
   127   876   875   ar
   128   876   877   ar
   129    91    90    1
   130    91   103    1
   131   975   974   ar
   132   114   112    1
   133   114   115    1
   134   894   895    2
   135   957   955   ar
   136   955   956    2
   137   979   978    2
   138   111   110    1
   139   111   125    1
   140   875   874   ar
   141    96    95   ar
   142    96    98   ar
   143   939   938   ar
   144   112   110    1
   145    95   102   ar
   146    79    77   ar
   147   860   859    1
   148    87    86    1
   149   104   103    2
   150   106   103    1
   151   977   978   ar
   152   977   984   ar
   153   877   868   ar
   154   877   871   ar
   155   868   869   ar
   156   967   969    1
   157   967   968    1
   158   126   125    2
   159    72    70    1
   160    72    73    1
   161    72    67    1
   162    70    68    1
   163   978   980   ar
   164   969   970    1
   165   969   971    1
   166   103   105    1
   167    82    73   ar
   168    82    76   ar
   169    55    54    2
   170   874   872   ar
   171    98    99   ar
   172   115   124   ar
   173   115   116   ar
   174   974   984   ar
   175   974   973    1
   176   968   973    1
   177   859   856    1
   178   129   130    1
   179   129   128    1
   180   125   128    1
   181   125   127    1
   182   102   101   ar
   183    73    74   ar
   184    77    76   ar
   185    77    78    1
   186   123   124   ar
   187   123   122   ar
   188    67    66    1
   189   984   983   ar
   190    86    83    1
   191    15    14    2
   192   871   872   ar
   193   871   870   ar
   194   857   856    2
   195   124   118   ar
   196   116   117   ar
   197   869   870   ar
   198    76    75   ar
   199   130   131    1
   200   130   132    1
   201   973   971    1
   202   131   136    1
   203   872   873    1
   204    54    56   ar
   205    54    53   ar
   206    66    68    1
   207    66    65    1
   208    69    68    1
   209    69    83    1
   210   971   972    1
   211    56    57   ar
   212   980   981   ar
   213    99   101   ar
   214    99   100    2
   215   856   858    1
   216   856   844    1
   217   122   121   ar
   218    51    50    1
   219    16    14   ar
   220    16    17   ar
   221    74    75   ar
   222    14    13   ar
   223    83    84    2
   224    83    85    1
   225    38    37    2
   226   117   118   ar
   227   118   119   ar
   228   983   981   ar
   229    58    57    2
   230   136   134    1
   231   136   137    1
   232   981   982    1
   233    57    59   ar
   234    53    52    1
   235    53    60   ar
   236   846   845    1
   237    52    50    1
   238    52    47    1
   239    65    64    1
   240   135   134    1
   241   844   843    1
   242   132   133    1
   243   132   134    1
   244    36    37   ar
   245    36    34   ar
   246    18    17    1
   247    50    48    1
   248   121   119   ar
   249   133   145    1
   250    37    39   ar
   251    17    19   ar
   252   845   843    1
   253   845   847    1
   254   119   120    1
   255   144   137   ar
   256   144   143   ar
   257   850   849    2
   258    35    34    2
   259   137   138   ar
   260    13    12   ar
   261    13    20   ar
   262   843   841    1
   263    34    33   ar
   264    47    46    1
   265    64    61    1
   266    60    59   ar
   267    12    11   ar
   268   143   141   ar
   269   146   145    2
   270   849   851   ar
   271   849   848   ar
   272   145   147    1
   273   145   148    1
   274    19    20   ar
   275    48    46    1
   276    48    49    1
   277   851   852   ar
   278   138   139    2
   279   138   140   ar
   280    20    10   ar
   281   847   848    1
   282   847   842    1
   283    39    40   ar
   284    46    45    1
   285    49    61    1
   286   848   855   ar
   287    33    40   ar
   288    33    32    1
   289   841   842    1
   290   841   840    1
   291   141   140   ar
   292   141   142    2
   293    61    62    2
   294    61    63    1
   295    11    10   ar
   296   852   853    2
   297   852   854   ar
   298   148   149    1
   299   149   150    1
   300    10     9    1
   301   855   854   ar
   302    45    44    1
   303   840   839    1
   304    32    27    1
   305    32    30    1
   306   839   836    1
   307   151   150    1
   308   151   156    1
   309   833   832    1
   310    31    30    1
   311   150   152    1
   312   158   159   ar
   313   158   157   ar
   314   831   832   ar
   315   831   829   ar
   316   159   160   ar
   317    44    41    1
   318    27    26    1
   319     9     4    1
   320     9     7    1
   321    30    28    1
   322   832   834   ar
   323   830   829    2
   324   837   836    2
   325   838   836    1
   326   836   821    1
   327   829   828   ar
   328   157   156    1
   329   157   167   ar
   330   156   154    1
   331     4     3    1
   332     7     8    1
   333     7     5    1
   334   160   167   ar
   335   160   161   ar
   336   834   835   ar
   337   152   154    1
   338   152   153    1
   339    29    28    1
   340    29    41    1
   341   167   166   ar
   342   162   161    2
   343    28    26    1
   344    26    25    1
   345    41    42    2
   346    41    43    1
   347   828   835   ar
   348   828   827   ar
   349   161   163   ar
   350  1303  1302    2
   351   835   825   ar
   352   169   168    2
   353   154   155    1
   354     5     3    1
   355     5     6    1
   356   821   820    1
   357   153   168    1
   358   822   820    1
   359   822   823    1
   360   822   824    1
   361     3     2    1
   362    24    25    1
   363    24    21    1
   364   827   826   ar
   365   166   164   ar
   366   820   818    1
   367     2     1    1
   368   163   164   ar
   369   825   826   ar
   370   825   824    1
   371    23    21    2
   372   168   170    1
   373   168   171    1
   374   164   165    1
   375     6    21    1
   376   705   704    2
   377  1302  1290    1
   378  1302  1304    1
   379  1302  1305    1
   380   824   819    1
   381    21    22    1
   382   172   171    1
   383   172   173    1
   384  1306  1305    1
   385  1306  1307    1
   386   786   785    1
   387   808   807    1
   388  1309  1310    1
   389  1309  1307    1
   390  1309  1311    1
   391  1290  1289    1
   392   685   684    2
   393   818   819    1
   394   818   817    1
   395   174   173    1
   396   174   179    1
   397   816   817    1
   398   816   813    1
   399   173   175    1
   400  1307  1308    1
   401   815   813    2
   402   704   706    1
   403   704   692    1
   404   704   707    1
   405   787   785   ar
   406   787   788   ar
   407   785   784   ar
   408   807   809   ar
   409   807   806   ar
   410   692   691    1
   411  1311  1312    1
   412  1311  1313    1
   413  1283  1282    2
   414   688   689    1
   415   688   687    1
   416   809   810   ar
   417   813   814    1
   418   813   799    1
   419   728   726    2
   420  1289  1287    1
   421  1289  1291    1
   422  1286  1287    1
   423  1286  1285    1
   424   805   806   ar
   425   805   804   ar
   426   179   180    1
   427   179   177    1
   428   806   812   ar
   429   181   180   ar
   430   181   182   ar
   431   684   687    1
   432   684   670    1
   433   684   686    1
   434  1292  1291    1
   435   727   726    1
   436   788   789   ar
   437  1287  1288    1
   438   793   791    2
   439   784   783   ar
   440   784   790   ar
   441   689   691    1
   442   689   690    1
   443   707   708    1
   444   708   709    1
   445  1308  1313    1
   446   180   189   ar
   447   175   176    1
   448   175   177    1
   449   691   693    1
   450   810   811   ar
   451   783   782   ar
   452   182   183   ar
   453   726   712    1
   454   726   729    1
   455   670   669    1
   456  1291  1293    1
   457  1285  1282    1
   458   804   803   ar
   459  1313  1314    1
   460  1282  1267    1
   461  1282  1284    1
   462   812   811   ar
   463   812   803   ar
   464   178   177    1
   465   176   190    1
   466   789   790   ar
   467   790   781   ar
   468   799   798    1
   469   694   693    1
   470   748   746    2
   471   794   791    1
   472   794   795    1
   473   798   800    1
   474   798   796    1
   475   207   206    1
   476   712   711    1
   477   803   802    1
   478   763   762    2
   479   192   190    2
   480   189   183   ar
   481   189   188   ar
   482   791   792    1
   483   791   777    1
   484  1267  1266    1
   485  1288  1293    1
   486   183   184   ar
   487   782   781   ar
   488   690   695    1
   489   693   695    1
   490   709   711    1
   491   709   710    1
   492  1315  1314   ar
   493  1315  1316   ar
   494   800   802    1
   495   800   801    1
   496   771   769    2
   497   663   662    2
   498  1314  1324   ar
   499   729   730    1
   500   227   226    2
   501  1293  1294    1
   502   781   780    1
   503   208   206   ar
   504   208   209   ar
   505   711   713    1
   506   190   191    1
   507   190   193    1
   508  1269  1268    1
   509   672   671    1
   510   669   667    1
   511   669   671    1
   512   743   742    2
   513   206   205   ar
   514   795   796    1
   515   188   187   ar
   516   760   761   ar
   517   760   759   ar
   518   744   742   ar
   519   744   745   ar
   520   747   746    1
   521   762   761   ar
   522   762   764   ar
   523   802   797    1
   524   666   667    1
   525   666   665    1
   526   746   749    1
   527   746   734    1
   528   667   668    1
   529   796   797    1
   530   778   776    1
   531   778   780    1
   532   778   779    1
   533   695   696    1
   534   184   185    1
   535   184   186   ar
   536   776   777    1
   537   776   774    1
   538   742   741   ar
   539   761   768   ar
   540   671   673    1
   541   209   202   ar
   542   710   715    1
   543  1316  1317   ar
   544  1266  1268    1
   545  1266  1264    1
   546   226   225   ar
   547   226   228   ar
   548   730   731    1
   549  1268  1270    1
   550   749   750    1
   551   759   758   ar
   552   772   769    1
   553   772   773    1
   554   745   738   ar
   555   780   775    1
   556   205   203   ar
   557  1294  1301   ar
   558  1294  1295   ar
   559   769   770    1
   560   769   754    1
   561   187   186   ar
   562   665   662    1
   563  1324  1323   ar
   564  1324  1317   ar
   565   662   664    1
   566   662   650    1
   567   193   194    1
   568   764   765   ar
   569   717   718   ar
   570   717   716   ar
   571   225   223   ar
   572  1301  1300   ar
   573   703   696   ar
   574   703   702   ar
   575  1264  1263    1
   576  1264  1265    1
   577   713   715    1
   578   713   714    1
   579  1296  1295    2
   580   696   697   ar
   581   734   733    1
   582   228   229   ar
   583  1323  1321   ar
   584   718   719   ar
   585   733   731    1
   586   733   735    1
   587  1317  1318   ar
   588   202   203   ar
   589   202   201    1
   590  1295  1297   ar
   591   668   673    1
   592   203   204    2
   593   768   758   ar
   594   768   767   ar
   595   715   716    1
   596   774   775    1
   597   774   773    1
   598   741   739   ar
   599  1263  1262    1
   600   758   757    1
   601   731   732    1
   602   673   674    1
   603   194   195    1
   604   196   201    1
   605   196   195    1
   606   716   725   ar
   607   750   751    1
   608   650   649    1
   609   753   754    1
   610   753   751    1
   611   753   755    1
   612   738   739   ar
   613   738   737    1
   614   765   767   ar
   615   765   766    1
   616  1300  1298   ar
   617  1270  1265    1
   618  1270  1271    1
   619   702   700   ar
   620   223   224    2
   621   223   222   ar
   622  1002  1001    1
   623   732   737    1
   624   201   199    1
   625   229   222   ar
   626   697   698    2
   627   697   699   ar
   628   739   740    2
   629  1015  1014    1
   630  1297  1298   ar
   631   751   752    1
   632   735   737    1
   633   735   736    1
   634  1279  1278    1
   635   755   757    1
   636   755   756    1
   637  1262  1259    1
   638   719   725   ar
   639   719   720   ar
   640   195   197    1
   641  1321  1320   ar
   642  1321  1322    1
   643  1280  1278   ar
   644  1280  1281   ar
   645  1260  1259    2
   646  1318  1320   ar
   647  1318  1319    2
   648   757   752    1
   649   222   221    1
   650  1298  1299    1
   651   725   724   ar
   652   674   675   ar
   653   674   683   ar
   654   652   651    1
   655  1019  1018    2
   656  1271  1281   ar
   657  1271  1272   ar
   658  1278  1277   ar
   659   649   651    1
   660   649   647    1
   661   700   699   ar
   662   700   701    1
   663  1001  1003   ar
   664  1001  1000   ar
   665   675   676   ar
   666  1281  1274   ar
   667  1031  1030    1
   668  1031  1036    1
   669   721   720    1
   670   197   199    1
   671   197   198    1
   672  1035  1034    1
   673   682   683   ar
   674   682   681   ar
   675   720   722   ar
   676  1030  1029    1
   677  1030  1032    1
   678  1259  1244    1
   679  1259  1261    1
   680   651   653    1
   681   683   677   ar
   682   199   200    1
   683  1016  1014    1
   684  1016  1011    1
   685  1016  1017    1
   686  1029  1028    1
   687  1014  1012    1
   688   643   642    2
   689  1003  1004   ar
   690  1000   998   ar
   691  1036  1034    1
   692  1036  1037    1
   693   724   723   ar
   694   221   216    1
   695   221   219    1
   696  1272  1273   ar
   697   425   424    1
   698  1011  1010    1
   699   647   646    1
   700   647   648    1
   701  1246  1245    1
   702  1018  1017   ar
   703  1018  1020   ar
   704  1277  1275   ar
   705  1244  1243    1
   706   212   210    2
   707   676   677   ar
   708  1039  1038    2
   709  1256  1255    1
   710   216   215    1
   711   646   645    1
   712   681   680   ar
   713  1034  1032    1
   714  1274  1273   ar
   715  1274  1275   ar
   716  1010  1012    1
   717  1010  1009    1
   718   677   678   ar
   719  1017  1024   ar
   720   722   723   ar
   721   198   210    1
   722  1033  1032    1
   723  1033  1045    1
   724  1013  1012    1
   725  1013  1025    1
   726   645   642    1
   727   992   991    1
   728  1037  1038   ar
   729  1037  1044   ar
   730   642   644    1
   731   642   630    1
   732  1020  1021   ar
   733  1275  1276    2
   734  1049  1050    1
   735  1049  1048    1
   736  1245  1243    1
   737  1245  1247    1
   738  1038  1040   ar
   739  1004   997   ar
   740  1004   994   ar
   741   653   648    1
   742   653   654    1
   743  1028  1025    1
   744   998   999    2
   745   998   997   ar
   746   424   423   ar
   747   424   426   ar
   748   219   220    1
   749   219   217    1
   750  1051  1050    1
   751  1051  1056    1
   752   423   421   ar
   753  1050  1052    1
   754   680   678   ar
   755   210   213    1
   756   210   211    1
   757  1243  1241    1
   758  1026  1025    2
   759  1255  1257   ar
   760  1255  1254   ar
   761   442   441    2
   762   678   679    1
   763  1257  1258   ar
   764   656   655    2
   765  1009  1008    1
   766  1025  1027    1
   767  1044  1043   ar
   768   468   467    1
   769   993   991    1
   770   993   994    1
   771   993   988    1
   772   997   996   ar
   773   991   989    1
   774   215   214    1
   775   215   217    1
   776  1046  1045    2
   777  1024  1023   ar
   778   654   655   ar
   779   654   661   ar
   780   994   995   ar
   781   213   214    1
   782   426   427   ar
   783  1040  1041   ar
   784  1070  1068    2
   785  1045  1048    1
   786  1045  1047    1
   787   217   218    1
   788   655   657   ar
   789  1021  1023   ar
   790  1021  1022    1
   791   421   422    2
   792   421   420   ar
   793   630   629    1
   794  1254  1252   ar
   795  1058  1057   ar
   796  1058  1059   ar
   797  1247  1248    1
   798  1247  1242    1
   799   441   443   ar
   800   441   440   ar
   801  1056  1057    1
   802  1056  1054    1
   803   661   660   ar
   804  1241  1242    1
   805  1241  1240    1
   806   467   469   ar
   807   467   466   ar
   808  1043  1041   ar
   809   469   470   ar
   810  1057  1067   ar
   811  1059  1060   ar
   812  1258  1248   ar
   813  1258  1251   ar
   814   438   437    1
   815   988   987    1
   816  1041  1042    1
   817  1053  1052    1
   818  1053  1068    1
   819   443   444   ar
   820   657   658   ar
   821  1008  1005    1
   822  1052  1054    1
   823   231   230    2
   824   439   440    1
   825   439   434    1
   826   439   437    1
   827   427   420   ar
   828   427   417   ar
   829   996   995   ar
   830  1068  1069    1
   831  1068  1071    1
   832  1060  1067   ar
   833  1060  1061   ar
   834  1248  1249   ar
   835  1067  1066   ar
   836   660   658   ar
   837   466   464   ar
   838   420   419   ar
   839   458   457    1
   840   440   447   ar
   841   989   990    1
   842   989   987    1
   843   459   454    1
   844   459   460    1
   845   459   457    1
   846   658   659    1
   847  1240  1239    1
   848   218   230    1
   849   434   433    1
   850  1066  1064   ar
   851   470   460   ar
   852   470   463   ar
   853  1252  1251   ar
   854  1252  1253    2
   855   990  1005    1
   856  1061  1062    2
   857  1061  1063   ar
   858   437   435    1
   859   454   453    1
   860   987   986    1
   861  1054  1055    1
   862   629   631    1
   863   629   627    1
   864  1251  1250   ar
   865   632   631    1
   866   460   461   ar
   867  1233  1232    1
   868   444   445    2
   869   444   446   ar
   870  1064  1063   ar
   871  1064  1065    1
   872   417   416    1
   873   417   418   ar
   874   631   633    1
   875   230   232    1
   876   230   233    1
   877   415   414    1
   878   464   463   ar
   879   464   465    2
   880   457   455    1
   881  1005  1006    2
   882  1005  1007    1
   883   416   414    1
   884   416   411    1
   885  1239  1236    1
   886   463   462   ar
   887  1249  1250   ar
   888   419   418   ar
   889   447   446   ar
   890   453   455    1
   891   453   452    1
   892   433   435    1
   893   433   432    1
   894  1071  1072    1
   895   234   233    1
   896   234   235    1
   897   414   412    1
   898   477   482    1
   899   477   476    1
   900   461   462   ar
   901   627   626    1
   902   627   628    1
   903   435   436    1
   904   626   625    1
   905   986   985    1
   906   482   483    1
   907   482   480    1
   908   491   490    1
   909  1232  1234   ar
   910  1232  1231   ar
   911  1237  1236    2
   912   411   410    1
   913   455   456    1
   914   481   480    1
   915   492   490   ar
   916   492   493   ar
   917   452   451    1
   918   490   489   ar
   919   476   475    1
   920   476   478    1
   921  1072  1073    1
   922  1223  1222    1
   923  1236  1238    1
   924  1236  1221    1
   925   436   448    1
   926   633   634    1
   927   633   628    1
   928  1234  1235   ar
   929   483   493   ar
   930   483   484   ar
   931   432   431    1
   932  1073  1074    1
   933  1073  1075    1
   934   235   236    1
   935   235   237    1
   936  1231  1229   ar
   937   624   622    2
   938   636   635    2
   939   493   486   ar
   940  1074  1079    1
   941   475   474    1
   942   236   241    1
   943   456   471    1
   944   634   635   ar
   945   634   641   ar
   946   625   622    1
   947   635   637   ar
   948   480   478    1
   949   489   487   ar
   950   412   410    1
   951   412   413    1
   952   451   448    1
   953   484   485   ar
   954   410   409    1
   955  1222  1220    1
   956  1222  1224    1
   957   641   640   ar
   958  1078  1077    1
   959   399   398    2
   960   486   487   ar
   961   486   485   ar
   962   637   638   ar
   963   431   428    1
   964  1221  1220    1
   965   400   398   ar
   966   400   401   ar
   967   487   488    2
   968   478   479    1
   969   640   638   ar
   970   638   639    1
   971   622   623    1
   972   622   608    1
   973  1079  1077    1
   974  1079  1080    1
   975  1076  1075    1
   976  1076  1090    1
   977   474   471    1
   978   413   428    1
   979  1235  1228   ar
   980  1235  1225   ar
   981   402   401    1
   982   448   449    2
   983   448   450    1
   984  1075  1077    1
   985  1229  1230    2
   986  1229  1228   ar
   987   398   397   ar
   988   237   238    1
   989   237   239    1
   990   243   242   ar
   991   243   244   ar
   992  1220  1218    1
   993   241   242    1
   994   241   239    1
   995   479   494    1
   996   238   253    1
   997   471   472    2
   998   471   473    1
   999   401   403   ar
  1000  1224  1225    1
  1001  1224  1219    1
  1002  1228  1227   ar
  1003  1091  1090    2
  1004   409   408    1
  1005   428   430    2
  1006   428   429    1
  1007  1225  1226   ar
  1008   242   252   ar
  1009   244   245   ar
  1010   608   607    1
  1011  1080  1081   ar
  1012  1080  1089   ar
  1013  1081  1082   ar
  1014  1090  1092    1
  1015  1090  1093    1
  1016   239   240    1
  1017   408   405    1
  1018   601   600    2
  1019   500   505    1
  1020   500   499    1
  1021   397   396    1
  1022   397   404   ar
  1023   254   253    2
  1024   505   506    1
  1025   505   503    1
  1026  1218  1219    1
  1027  1218  1217    1
  1028   253   255    1
  1029   253   256    1
  1030   403   404   ar
  1031   396   391    1
  1032   396   394    1
  1033   497   494    1
  1034   497   498    1
  1035   506   507   ar
  1036   506   515   ar
  1037   504   503    1
  1038  1227  1226   ar
  1039   494   495    2
  1040   494   496    1
  1041   514   515   ar
  1042   514   513   ar
  1043   391   390    1
  1044   507   508   ar
  1045   515   509   ar
  1046   604   605    1
  1047   604   603    1
  1048  1089  1088   ar
  1049  1089  1083   ar
  1050   252   245   ar
  1051   252   251   ar
  1052   245   246   ar
  1053  1082  1083   ar
  1054   513   512   ar
  1055   499   498    1
  1056   499   501    1
  1057  1093  1094    1
  1058   607   605    1
  1059   607   609    1
  1060   508   509   ar
  1061   393   405    1
  1062   393   392    1
  1063   509   510   ar
  1064  1094  1095    1
  1065  1088  1087   ar
  1066   503   501    1
  1067   605   606    1
  1068   405   407    2
  1069   405   406    1
  1070   512   510   ar
  1071   395   394    1
  1072   603   600    1
  1073   510   511    1
  1074   600   586    1
  1075   600   602    1
  1076  1217  1216    1
  1077  1083  1084   ar
  1078   256   257    1
  1079   394   392    1
  1080   390   392    1
  1081   390   389    1
  1082   610   609    1
  1083   251   249   ar
  1084   257   258    1
  1085  1207  1206    2
  1086  1216  1213    1
  1087   246   247    2
  1088   246   248   ar
  1089   501   502    1
  1090   609   611    1
  1091   586   585    1
  1092  1095  1096    1
  1093  1095  1097    1
  1094  1087  1086   ar
  1095  1096  1101    1
  1096  1208  1206   ar
  1097  1208  1209   ar
  1098   606   611    1
  1099  1109  1108   ar
  1100  1109  1102   ar
  1101  1084  1086   ar
  1102  1084  1085    1
  1103  1206  1205   ar
  1104  1108  1106   ar
  1105   502   516    1
  1106   249   248   ar
  1107   249   250    1
  1108   389   388    1
  1109  1210  1209    2
  1110   386   385    2
  1111   611   612    1
  1112  1209  1211   ar
  1113   588   587    1
  1114   522   527    1
  1115   522   521    1
  1116   258   259    1
  1117   258   260    1
  1118  1203  1202    1
  1119   259   264    1
  1120  1213  1214    2
  1121  1213  1215    1
  1122  1213  1201    1
  1123   266   267   ar
  1124   266   265   ar
  1125   585   587    1
  1126   585   583    1
  1127  1202  1204    1
  1128  1202  1200    1
  1129  1097  1098    1
  1130  1097  1099    1
  1131   267   268   ar
  1132  1101  1102    1
  1133  1101  1099    1
  1134  1102  1103   ar
  1135   527   528    1
  1136   527   525    1
  1137   388   385    1
  1138  1106  1107    1
  1139  1106  1105   ar
  1140  1205  1204    1
  1141  1205  1212   ar
  1142  1112  1110    2
  1143  1098  1110    1
  1144   587   589    1
  1145   521   520    1
  1146   521   523    1
  1147   520   519    1
  1148   277   275    2
  1149   528   529   ar
  1150   528   537   ar
  1151   612   613   ar
  1152   612   621   ar
  1153   583   582    1
  1154   583   584    1
  1155   613   614   ar
  1156   385   371    1
  1157   385   387    1
  1158  1204  1199    1
  1159   536   537   ar
  1160   536   535   ar
  1161   529   530   ar
  1162   260   261    1
  1163   260   262    1
  1164   537   531   ar
  1165  1201  1200    1
  1166   516   519    1
  1167   516   518    2
  1168   516   517    1
  1169   582   581    1
  1170  1211  1212   ar
  1171   526   525    1
  1172   579   578    2
  1173  1099  1100    1
  1174   535   534   ar
  1175   265   264    1
  1176   265   274   ar
  1177  1200  1198    1
  1178  1190  1189    1
  1179   530   531   ar
  1180   531   532   ar
  1181   261   275    1
  1182  1110  1111    1
  1183  1110  1113    1
  1184   264   262    1
  1185  1103  1105   ar
  1186  1103  1104    2
  1187   373   372    1
  1188   534   532   ar
  1189   268   274   ar
  1190   268   269   ar
  1191   371   370    1
  1192   532   533    1
  1193   525   523    1
  1194   275   276    1
  1195   275   278    1
  1196   614   615   ar
  1197   270   269    1
  1198   621   620   ar
  1199   621   615   ar
  1200   581   578    1
  1201   523   524    1
  1202   589   584    1
  1203   589   590    1
  1204   262   263    1
  1205  1188  1189   ar
  1206  1188  1186   ar
  1207   274   273   ar
  1208  1127  1126    1
  1209   620   619   ar
  1210  1189  1191   ar
  1211  1199  1198    1
  1212   269   271   ar
  1213   292   291    1
  1214   578   566    1
  1215   578   580    1
  1216  1128  1126   ar
  1217  1128  1129   ar
  1218  1198  1197    1
  1219   615   616   ar
  1220   335   334    2
  1221   293   291   ar
  1222   293   294   ar
  1223  1113  1114    1
  1224   372   370    1
  1225   372   374    1
  1226   524   538    1
  1227   370   368    1
  1228   598   599   ar
  1229   598   597   ar
  1230  1126  1125   ar
  1231  1187  1186    2
  1232   590   599   ar
  1233   590   591   ar
  1234  1186  1185   ar
  1235   278   279    1
  1236   566   565    1
  1237   568   567    1
  1238   291   290   ar
  1239  1129  1122   ar
  1240   619   618   ar
  1241   273   272   ar
  1242   312   311    2
  1243   599   593   ar
  1244  1191  1192   ar
  1245   383   382   ar
  1246   383   384   ar
  1247   597   596   ar
  1248  1147  1146    2
  1249   382   381   ar
  1250   271   272   ar
  1251   294   287   ar
  1252  1170  1169    2
  1253  1196  1197    1
  1254  1196  1193    1
  1255   616   618   ar
  1256   616   617    1
  1257  1114  1115    1
  1258   368   369    1
  1259   368   367    1
  1260   334   336   ar
  1261   334   333   ar
  1262   591   592   ar
  1263   374   369    1
  1264   374   375    1
  1265   336   337   ar
  1266  1125  1123   ar
  1267   565   567    1
  1268   565   563    1
  1269   279   280    1
  1270  1185  1192   ar
  1271  1185  1184    1
  1272   567   569    1
  1273   538   540    2
  1274   538   541    1
  1275   538   539    1
  1276   593   592   ar
  1277   593   594   ar
  1278   290   288   ar
  1279   596   594   ar
  1280   381   379   ar
  1281   384   375   ar
  1282   384   378   ar
  1283  1122  1123   ar
  1284  1122  1121    1
  1285   542   541    1
  1286   542   543    1
  1287  1195  1193    2
  1288   311   310   ar
  1289   311   313   ar
  1290   367   366    1
  1291  1116  1115    1
  1292  1116  1121    1
  1293   572   571    2
  1294   556   554   ar
  1295   556   557   ar
  1296  1146  1145   ar
  1297  1146  1148   ar
  1298   375   376   ar
  1299   555   554    2
  1300  1169  1168   ar
  1301  1169  1171   ar
  1302   287   288   ar
  1303   287   286    1
  1304   338   337    1
  1305   309   310   ar
  1306   309   308   ar
  1307  1144  1145   ar
  1308  1144  1143   ar
  1309  1132  1130    2
  1310   594   595    1
  1311  1115  1117    1
  1312   544   543    1
  1313   544   549    1
  1314  1193  1194    1
  1315  1193  1181    1
  1316  1182  1184    1
  1317  1182  1183    1
  1318  1182  1180    1
  1319   297   295    2
  1320  1123  1124    2
  1321   337   339   ar
  1322   554   553   ar
  1323   557   550   ar
  1324   333   332   ar
  1325   333   340   ar
  1326   281   280    1
  1327   281   286    1
  1328   569   570    1
  1329   569   564    1
  1330   288   289    2
  1331   310   317   ar
  1332  1184  1179    1
  1333   543   545    1
  1334   366   363    1
  1335  1168  1166   ar
  1336  1145  1152   ar
  1337  1121  1119    1
  1338   280   282    1
  1339   332   331   ar
  1340   313   314   ar
  1341  1117  1118    1
  1342  1117  1119    1
  1343   563   564    1
  1344   563   562    1
  1345   379   378   ar
  1346   379   380    1
  1347   378   377   ar
  1348  1148  1149   ar
  1349   571   570   ar
  1350   571   573   ar
  1351  1180  1181    1
  1352  1180  1178    1
  1353   553   551   ar
  1354   550   551   ar
  1355   550   549    1
  1356  1171  1172   ar
  1357   286   284    1
  1358   282   283    1
  1359   282   284    1
  1360  1143  1142   ar
  1361   376   377   ar
  1362   308   307   ar
  1363   570   577   ar
  1364   364   363    2
  1365   551   552    2
  1366   549   547    1
  1367   340   339   ar
  1368   340   330   ar
  1369  1118  1130    1
  1370  1119  1120    1
  1371  1130  1131    1
  1372  1130  1133    1
  1373   573   574   ar
  1374   295   283    1
  1375   295   296    1
  1376   295   298    1
  1377   363   365    1
  1378   363   349    1
  1379  1179  1178    1
  1380   562   561    1
  1381  1166  1167    2
  1382  1166  1165   ar
  1383   284   285    1
  1384   317   307   ar
  1385   317   316   ar
  1386   331   330   ar
  1387  1152  1142   ar
  1388  1152  1151   ar
  1389   314   315    1
  1390   314   316   ar
  1391   545   547    1
  1392   545   546    1
  1393  1178  1177    1
  1394  1149  1151   ar
  1395  1149  1150    1
  1396  1172  1165   ar
  1397   561   558    1
  1398   307   306    1
  1399  1142  1141    1
  1400   577   576   ar
  1401   547   548    1
  1402  1133  1134    1
  1403   330   329    1
  1404   298   299    1
  1405  1165  1164    1
  1406   546   558    1
  1407   574   576   ar
  1408   574   575    2
  1409  1177  1176    1
  1410   349   348    1
  1411  1155  1153    2
  1412   320   318    2
  1413   558   559    2
  1414   558   560    1
  1415   351   350    1
  1416  1136  1141    1
  1417  1136  1135    1
  1418   348   350    1
  1419   348   346    1
  1420  1175  1173    2
  1421  1141  1139    1
  1422   306   301    1
  1423   306   304    1
  1424  1134  1135    1
  1425   301   300    1
  1426   329   327    1
  1427   329   324    1
  1428   299   300    1
  1429   342   341    2
  1430  1176  1173    1
  1431  1137  1135    1
  1432  1137  1139    1
  1433  1137  1138    1
  1434  1164  1162    1
  1435  1164  1159    1
  1436   327   325    1
  1437   327   328    1
  1438   302   304    1
  1439   302   300    1
  1440   302   303    1
  1441  1139  1140    1
  1442   350   352    1
  1443   304   305    1
  1444  1162  1160    1
  1445  1162  1163    1
  1446   344   341    1
  1447   344   345    1
  1448  1153  1156    1
  1449  1153  1138    1
  1450  1153  1154    1
  1451  1156  1157    1
  1452   321   318    1
  1453   321   322    1
  1454   324   323    1
  1455   318   303    1
  1456   318   319    1
  1457  1173  1161    1
  1458  1173  1174    1
  1459   325   323    1
  1460   325   326    1
  1461  1160  1161    1
  1462  1160  1158    1
  1463   346   345    1
  1464   346   347    1
  1465  1159  1158    1
  1466   341   326    1
  1467   341   343    1
  1468   323   322    1
  1469   352   347    1
  1470   352   353    1
  1471  1158  1157    1
  1472   353   362   ar
  1473   353   354   ar
  1474   361   362   ar
  1475   361   360   ar
  1476   362   356   ar
  1477   354   355   ar
  1478   360   359   ar
  1479   356   355   ar
  1480   356   357   ar
  1481   359   357   ar
  1482   357   358    1
