ligand
  PyMOL2.3          3D                             0

 13 14  0  0  0  0  0  0  0  0999 V2000
   -4.3040  -33.9590  -44.7560 N   0  0  0  0  0  0  0  0  0  0  0  0
   -4.9940  -34.6060  -43.7660 C   0  0  0  0  0  0  0  0  0  0  0  0
   -6.1700  -35.2310  -44.0800 N   0  0  0  0  0  0  0  0  0  0  0  0
   -4.5420  -34.6380  -42.5120 N   0  0  0  0  0  0  0  0  0  0  0  0
   -3.3760  -34.0260  -42.1650 C   0  0  0  0  0  0  0  0  0  0  0  0
   -2.6320  -33.3430  -43.1520 C   0  0  0  0  0  0  0  0  0  0  0  0
   -3.1300  -33.3240  -44.4830 C   0  0  0  0  0  0  0  0  0  0  0  0
   -2.5260  -32.7560  -45.3590 O   0  0  0  0  0  0  0  0  0  0  0  0
   -1.4560  -32.7970  -42.4820 C   0  0  0  0  0  0  0  0  0  0  0  0
   -1.5410  -33.1640  -41.1910 C   0  0  0  0  0  0  0  0  0  0  0  0
   -2.6900  -33.9010  -40.9950 N   0  0  0  0  0  0  0  0  0  0  0  0
   -0.3640  -31.9740  -43.1160 C   0  0  0  0  0  0  0  0  0  0  0  0
   -0.8600  -30.5990  -43.3280 N   0  0  0  0  0  0  0  0  0  0  0  0
  1  2  4  0  0  0  0
  1  7  4  0  0  0  0
  2  3  1  0  0  0  0
  2  4  4  0  0  0  0
  4  5  4  0  0  0  0
  5  6  4  0  0  0  0
  5 11  4  0  0  0  0
  6  7  4  0  0  0  0
  6  9  4  0  0  0  0
  7  8  2  0  0  0  0
  9 10  4  0  0  0  0
  9 12  1  0  0  0  0
 10 11  4  0  0  0  0
 12 13  1  0  0  0  0
M  END
$$$$
